MODEL 1
REMARK VINA RESULT:     -12.1      0.000      0.000
REMARK SMILES C[C@H]1CC[C@@H](C2(C(=O)OCCOC(=O)c3ccc(-c4c5nc(c(-c6c(F)c(F)c(F)c(F)c6F)c6ccc([nH]6)c(-c6c(F)c(F)c(F)c(F)c6F)c6nc(c(-c7c(F)c(F)c(F)c(F)c7F)c7ccc4[nH]7)C=C6)C=C5)cc3)CCCCC2)C[C@@H]1C
REMARK SMILES IDX 11 1 10 2 9 3 7 4 8 5 6 6 78 7 82 8 79 9 81 10 80 11 5 12
REMARK SMILES IDX 1 13 2 14 3 15 84 16 4 17 83 18 85 19 12 20 13 21 14 22
REMARK SMILES IDX 15 23 16 24 77 25 17 26 76 27 18 28 19 29 20 30 70 31 21 32
REMARK SMILES IDX 75 33 69 34 71 35 22 36 74 37 68 38 67 39 23 41 55 42 35 43
REMARK SMILES IDX 54 44 36 45 39 46 53 47 72 48 37 49 38 50 52 52 73 53 40 54
REMARK SMILES IDX 24 55 25 56 33 57 26 58 27 59 31 60 34 61 28 62 29 63 32 64
REMARK SMILES IDX 30 65 56 66 57 67 65 68 58 69 59 70 63 71 66 72 60 73 61 74
REMARK SMILES IDX 64 75 62 76 41 77 42 78 50 79 43 80 44 81 48 82 51 83 45 84
REMARK SMILES IDX 46 85 49 86 47 87
REMARK H PARENT 71 40 39 51
REMARK Flexibility Score: inf
ROOT
ATOM      1  C   UNL A   1      32.386  29.091  24.726  1.00  0.00     0.275 C 
ENDROOT
BRANCH   1   2
ATOM      2  C   UNL A   1      32.910  28.157  23.590  1.00  0.00     0.274 C 
BRANCH   2   3
ATOM      3  O   UNL A   1      33.580  26.980  24.132  1.00  0.00    -0.462 OA
BRANCH   3   4
ATOM      4  C   UNL A   1      33.826  25.921  23.278  1.00  0.00     0.312 C 
ATOM      5  O   UNL A   1      33.984  26.044  22.072  1.00  0.00    -0.252 OA
BRANCH   4   6
ATOM      6  C   UNL A   1      33.988  24.572  24.051  1.00  0.00     0.071 C 
ATOM      7  C   UNL A   1      34.722  24.831  25.400  1.00  0.00     0.019 C 
ATOM      8  C   UNL A   1      34.968  23.688  23.207  1.00  0.00     0.019 C 
ATOM      9  C   UNL A   1      35.143  23.540  26.123  1.00  0.00     0.001 C 
ATOM     10  C   UNL A   1      35.380  22.383  23.876  1.00  0.00     0.001 C 
ATOM     11  C   UNL A   1      35.996  22.626  25.246  1.00  0.00     0.000 C 
BRANCH   6  12
ATOM     12  C   UNL A   1      32.598  23.838  24.342  1.00  0.00     0.007 C 
ATOM     13  C   UNL A   1      29.483  26.831  23.500  1.00  0.00     0.008 C 
ATOM     14  C   UNL A   1      30.029  25.462  23.947  1.00  0.00    -0.011 C 
ATOM     15  C   UNL A   1      30.985  25.008  22.887  1.00  0.00     0.004 C 
ATOM     16  C   UNL A   1      30.750  25.511  25.297  1.00  0.00    -0.011 C 
ATOM     17  C   UNL A   1      31.697  23.706  23.125  1.00  0.00     0.005 C 
ATOM     18  C   UNL A   1      31.698  24.306  25.530  1.00  0.00     0.008 C 
ATOM     19  C   UNL A   1      29.680  25.579  26.393  1.00  0.00     0.008 C 
ENDBRANCH   6  12
ENDBRANCH   4   6
ENDBRANCH   3   4
ENDBRANCH   2   3
ENDBRANCH   1   2
BRANCH   1  20
ATOM     20  O   UNL A   1      33.410  29.984  25.250  1.00  0.00    -0.458 OA
BRANCH  20  21
ATOM     21  C   UNL A   1      33.137  30.669  26.405  1.00  0.00     0.338 C 
ATOM     22  O   UNL A   1      32.078  31.183  26.707  1.00  0.00    -0.246 OA
BRANCH  21  23
ATOM     23  C   UNL A   1      34.305  30.583  27.337  1.00  0.00     0.060 A 
ATOM     24  C   UNL A   1      34.626  29.327  27.866  1.00  0.00     0.016 A 
ATOM     25  C   UNL A   1      35.139  31.670  27.626  1.00  0.00     0.016 A 
ATOM     26  C   UNL A   1      35.873  29.107  28.464  1.00  0.00     0.010 A 
ATOM     27  C   UNL A   1      36.332  31.470  28.362  1.00  0.00     0.010 A 
ATOM     28  C   UNL A   1      36.731  30.177  28.746  1.00  0.00    -0.014 A 
BRANCH  28  29
ATOM     29  C   UNL A   1      37.883  29.907  29.656  1.00  0.00     0.031 A 
ATOM     30  C   UNL A   1      39.011  29.075  29.100  1.00  0.00     0.074 A 
ATOM     31  C   UNL A   1      38.045  30.503  30.855  1.00  0.00     0.049 A 
ATOM     32  N   UNL A   1      40.119  28.672  29.665  1.00  0.00    -0.248 NA
ATOM     33  C   UNL A   1      38.883  28.687  27.685  1.00  0.00     0.031 C 
ATOM     34  C   UNL A   1      37.145  31.496  31.435  1.00  0.00     0.029 A 
ATOM     35  N   UNL A   1      39.053  30.387  31.788  1.00  0.00    -0.354 N 
ATOM     36  C   UNL A   1      40.806  27.975  28.680  1.00  0.00     0.074 A 
ATOM     37  C   UNL A   1      40.023  28.057  27.469  1.00  0.00     0.031 C 
ATOM     38  C   UNL A   1      37.641  31.901  32.620  1.00  0.00     0.029 A 
ATOM     39  C   UNL A   1      38.855  31.142  32.923  1.00  0.00     0.049 A 
ATOM     40  H   UNL A   1      39.844  29.815  31.656  1.00  0.00     0.167 HD
ATOM     41  C   UNL A   1      41.964  27.281  28.781  1.00  0.00     0.037 A 
ATOM     42  C   UNL A   1      39.545  31.173  34.086  1.00  0.00     0.037 A 
ATOM     43  C   UNL A   1      42.715  27.159  29.998  1.00  0.00     0.049 A 
ATOM     44  C   UNL A   1      40.754  30.276  34.238  1.00  0.00     0.074 A 
ATOM     45  C   UNL A   1      43.830  26.385  30.253  1.00  0.00     0.029 A 
ATOM     46  N   UNL A   1      42.408  27.828  31.174  1.00  0.00    -0.354 N 
ATOM     47  N   UNL A   1      41.331  29.505  33.346  1.00  0.00    -0.248 NA
ATOM     48  C   UNL A   1      41.390  30.225  35.564  1.00  0.00     0.031 C 
ATOM     49  C   UNL A   1      44.164  26.541  31.604  1.00  0.00     0.029 A 
ATOM     50  C   UNL A   1      43.296  27.463  32.170  1.00  0.00     0.049 A 
ATOM     51  H   UNL A   1      41.668  28.467  31.283  1.00  0.00     0.167 HD
ATOM     52  C   UNL A   1      42.393  28.887  33.995  1.00  0.00     0.074 A 
ATOM     53  C   UNL A   1      42.400  29.391  35.353  1.00  0.00     0.031 C 
ATOM     54  C   UNL A   1      43.280  27.978  33.516  1.00  0.00     0.037 A 
BRANCH  41  55
ATOM     55  C   UNL A   1      42.369  26.483  27.576  1.00  0.00     0.064 A 
ATOM     56  C   UNL A   1      41.871  25.197  27.320  1.00  0.00     0.173 A 
ATOM     57  C   UNL A   1      43.352  26.991  26.712  1.00  0.00     0.173 A 
ATOM     58  F   UNL A   1      40.962  24.649  28.141  1.00  0.00    -0.203 F 
ATOM     59  C   UNL A   1      42.373  24.433  26.268  1.00  0.00     0.198 A 
ATOM     60  C   UNL A   1      43.829  26.238  25.645  1.00  0.00     0.198 A 
ATOM     61  F   UNL A   1      43.872  28.209  26.924  1.00  0.00    -0.203 F 
ATOM     62  F   UNL A   1      41.944  23.177  26.090  1.00  0.00    -0.200 F 
ATOM     63  C   UNL A   1      43.350  24.955  25.432  1.00  0.00     0.200 A 
ATOM     64  F   UNL A   1      44.772  26.745  24.840  1.00  0.00    -0.200 F 
ATOM     65  F   UNL A   1      43.846  24.212  24.433  1.00  0.00    -0.200 F 
ENDBRANCH  41  55
BRANCH  42  66
ATOM     66  C   UNL A   1      39.058  31.992  35.238  1.00  0.00     0.064 A 
ATOM     67  C   UNL A   1      39.355  33.358  35.362  1.00  0.00     0.173 A 
ATOM     68  C   UNL A   1      38.322  31.401  36.278  1.00  0.00     0.173 A 
ATOM     69  F   UNL A   1      40.095  33.971  34.428  1.00  0.00    -0.203 F 
ATOM     70  C   UNL A   1      38.936  34.094  36.474  1.00  0.00     0.198 A 
ATOM     71  C   UNL A   1      37.874  32.143  37.370  1.00  0.00     0.198 A 
ATOM     72  F   UNL A   1      38.034  30.091  36.236  1.00  0.00    -0.203 F 
ATOM     73  F   UNL A   1      39.276  35.385  36.589  1.00  0.00    -0.200 F 
ATOM     74  C   UNL A   1      38.186  33.488  37.472  1.00  0.00     0.200 A 
ATOM     75  F   UNL A   1      37.147  31.549  38.328  1.00  0.00    -0.200 F 
ATOM     76  F   UNL A   1      37.779  34.195  38.534  1.00  0.00    -0.200 F 
ENDBRANCH  42  66
BRANCH  54  77
ATOM     77  C   UNL A   1      44.342  27.481  34.455  1.00  0.00     0.064 A 
ATOM     78  C   UNL A   1      45.538  28.186  34.654  1.00  0.00     0.173 A 
ATOM     79  C   UNL A   1      44.129  26.320  35.212  1.00  0.00     0.173 A 
ATOM     80  F   UNL A   1      45.792  29.299  33.948  1.00  0.00    -0.203 F 
ATOM     81  C   UNL A   1      46.492  27.734  35.561  1.00  0.00     0.198 A 
ATOM     82  C   UNL A   1      45.071  25.887  36.140  1.00  0.00     0.198 A 
ATOM     83  F   UNL A   1      42.997  25.616  35.067  1.00  0.00    -0.203 F 
ATOM     84  F   UNL A   1      47.645  28.401  35.706  1.00  0.00    -0.200 F 
ATOM     85  C   UNL A   1      46.254  26.590  36.310  1.00  0.00     0.200 A 
ATOM     86  F   UNL A   1      44.832  24.792  36.876  1.00  0.00    -0.200 F 
ATOM     87  F   UNL A   1      47.169  26.163  37.192  1.00  0.00    -0.200 F 
ENDBRANCH  54  77
ENDBRANCH  28  29
ENDBRANCH  21  23
ENDBRANCH  20  21
ENDBRANCH   1  20
TORSDOF 12
ENDMDL
MODEL 2
REMARK VINA RESULT:     -11.8      1.018      2.342
REMARK SMILES C[C@H]1CC[C@@H](C2(C(=O)OCCOC(=O)c3ccc(-c4c5nc(c(-c6c(F)c(F)c(F)c(F)c6F)c6ccc([nH]6)c(-c6c(F)c(F)c(F)c(F)c6F)c6nc(c(-c7c(F)c(F)c(F)c(F)c7F)c7ccc4[nH]7)C=C6)C=C5)cc3)CCCCC2)C[C@@H]1C
REMARK SMILES IDX 11 1 10 2 9 3 7 4 8 5 6 6 78 7 82 8 79 9 81 10 80 11 5 12
REMARK SMILES IDX 1 13 2 14 3 15 84 16 4 17 83 18 85 19 12 20 13 21 14 22
REMARK SMILES IDX 15 23 16 24 77 25 17 26 76 27 18 28 19 29 20 30 70 31 21 32
REMARK SMILES IDX 75 33 69 34 71 35 22 36 74 37 68 38 67 39 23 41 55 42 35 43
REMARK SMILES IDX 54 44 36 45 39 46 53 47 72 48 37 49 38 50 52 52 73 53 40 54
REMARK SMILES IDX 24 55 25 56 33 57 26 58 27 59 31 60 34 61 28 62 29 63 32 64
REMARK SMILES IDX 30 65 56 66 57 67 65 68 58 69 59 70 63 71 66 72 60 73 61 74
REMARK SMILES IDX 64 75 62 76 41 77 42 78 50 79 43 80 44 81 48 82 51 83 45 84
REMARK SMILES IDX 46 85 49 86 47 87
REMARK H PARENT 71 40 39 51
REMARK Flexibility Score: inf
ROOT
ATOM      1  C   UNL A   1      31.776  29.309  26.273  1.00  0.00     0.275 C 
ENDROOT
BRANCH   1   2
ATOM      2  C   UNL A   1      31.741  28.212  27.383  1.00  0.00     0.274 C 
BRANCH   2   3
ATOM      3  O   UNL A   1      31.513  26.887  26.817  1.00  0.00    -0.462 OA
BRANCH   3   4
ATOM      4  C   UNL A   1      32.569  26.258  26.187  1.00  0.00     0.312 C 
ATOM      5  O   UNL A   1      33.720  26.670  26.216  1.00  0.00    -0.252 OA
BRANCH   4   6
ATOM      6  C   UNL A   1      32.139  24.906  25.530  1.00  0.00     0.071 C 
ATOM      7  C   UNL A   1      30.981  24.273  26.357  1.00  0.00     0.019 C 
ATOM      8  C   UNL A   1      33.350  23.925  25.689  1.00  0.00     0.019 C 
ATOM      9  C   UNL A   1      30.648  22.832  25.935  1.00  0.00     0.001 C 
ATOM     10  C   UNL A   1      33.069  22.495  25.248  1.00  0.00     0.001 C 
ATOM     11  C   UNL A   1      31.866  21.911  25.974  1.00  0.00     0.000 C 
BRANCH   6  12
ATOM     12  C   UNL A   1      31.674  25.061  24.008  1.00  0.00     0.007 C 
ATOM     13  C   UNL A   1      33.934  28.491  22.427  1.00  0.00     0.008 C 
ATOM     14  C   UNL A   1      32.911  27.340  22.375  1.00  0.00    -0.011 C 
ATOM     15  C   UNL A   1      33.605  26.119  22.895  1.00  0.00     0.004 C 
ATOM     16  C   UNL A   1      31.657  27.609  23.210  1.00  0.00    -0.011 C 
ATOM     17  C   UNL A   1      32.787  24.862  22.993  1.00  0.00     0.005 C 
ATOM     18  C   UNL A   1      30.865  26.322  23.560  1.00  0.00     0.008 C 
ATOM     19  C   UNL A   1      30.777  28.589  22.425  1.00  0.00     0.008 C 
ENDBRANCH   6  12
ENDBRANCH   4   6
ENDBRANCH   3   4
ENDBRANCH   2   3
ENDBRANCH   1   2
BRANCH   1  20
ATOM     20  O   UNL A   1      33.069  29.971  26.163  1.00  0.00    -0.458 OA
BRANCH  20  21
ATOM     21  C   UNL A   1      33.261  31.131  26.866  1.00  0.00     0.338 C 
ATOM     22  O   UNL A   1      32.527  32.098  26.878  1.00  0.00    -0.246 OA
BRANCH  21  23
ATOM     23  C   UNL A   1      34.460  30.997  27.752  1.00  0.00     0.060 A 
ATOM     24  C   UNL A   1      34.715  29.741  28.318  1.00  0.00     0.016 A 
ATOM     25  C   UNL A   1      35.380  32.030  27.963  1.00  0.00     0.016 A 
ATOM     26  C   UNL A   1      35.968  29.455  28.873  1.00  0.00     0.010 A 
ATOM     27  C   UNL A   1      36.586  31.774  28.657  1.00  0.00     0.010 A 
ATOM     28  C   UNL A   1      36.910  30.471  29.077  1.00  0.00    -0.014 A 
BRANCH  28  29
ATOM     29  C   UNL A   1      38.079  30.153  29.949  1.00  0.00     0.031 A 
ATOM     30  C   UNL A   1      39.171  29.307  29.346  1.00  0.00     0.074 A 
ATOM     31  C   UNL A   1      38.286  30.718  31.157  1.00  0.00     0.049 A 
ATOM     32  N   UNL A   1      40.284  28.865  29.872  1.00  0.00    -0.248 NA
ATOM     33  C   UNL A   1      38.997  28.954  27.927  1.00  0.00     0.031 C 
ATOM     34  C   UNL A   1      37.427  31.718  31.783  1.00  0.00     0.029 A 
ATOM     35  N   UNL A   1      39.316  30.557  32.060  1.00  0.00    -0.354 N 
ATOM     36  C   UNL A   1      40.928  28.174  28.853  1.00  0.00     0.074 A 
ATOM     37  C   UNL A   1      40.115  28.303  27.666  1.00  0.00     0.031 C 
ATOM     38  C   UNL A   1      37.963  32.085  32.962  1.00  0.00     0.029 A 
ATOM     39  C   UNL A   1      39.166  31.290  33.215  1.00  0.00     0.049 A 
ATOM     40  H   UNL A   1      40.089  29.970  31.894  1.00  0.00     0.167 HD
ATOM     41  C   UNL A   1      42.070  27.451  28.909  1.00  0.00     0.037 A 
ATOM     42  C   UNL A   1      39.887  31.279  34.360  1.00  0.00     0.037 A 
ATOM     43  C   UNL A   1      42.850  27.284  30.102  1.00  0.00     0.049 A 
ATOM     44  C   UNL A   1      41.078  30.350  34.460  1.00  0.00     0.074 A 
ATOM     45  C   UNL A   1      43.953  26.478  30.310  1.00  0.00     0.029 A 
ATOM     46  N   UNL A   1      42.590  27.933  31.301  1.00  0.00    -0.354 N 
ATOM     47  N   UNL A   1      41.612  29.586  33.536  1.00  0.00    -0.248 NA
ATOM     48  C   UNL A   1      41.747  30.254  35.768  1.00  0.00     0.031 C 
ATOM     49  C   UNL A   1      44.325  26.596  31.655  1.00  0.00     0.029 A 
ATOM     50  C   UNL A   1      43.495  27.526  32.264  1.00  0.00     0.049 A 
ATOM     51  H   UNL A   1      41.869  28.587  31.443  1.00  0.00     0.167 HD
ATOM     52  C   UNL A   1      42.675  28.928  34.144  1.00  0.00     0.074 A 
ATOM     53  C   UNL A   1      42.730  29.402  35.511  1.00  0.00     0.031 C 
ATOM     54  C   UNL A   1      43.527  28.010  33.621  1.00  0.00     0.037 A 
BRANCH  41  55
ATOM     55  C   UNL A   1      42.424  26.672  27.676  1.00  0.00     0.064 A 
ATOM     56  C   UNL A   1      41.898  25.398  27.412  1.00  0.00     0.173 A 
ATOM     57  C   UNL A   1      43.386  27.182  26.791  1.00  0.00     0.173 A 
ATOM     58  F   UNL A   1      41.009  24.847  28.252  1.00  0.00    -0.203 F 
ATOM     59  C   UNL A   1      42.355  24.648  26.330  1.00  0.00     0.198 A 
ATOM     60  C   UNL A   1      43.817  26.443  25.694  1.00  0.00     0.198 A 
ATOM     61  F   UNL A   1      43.931  28.388  27.008  1.00  0.00    -0.203 F 
ATOM     62  F   UNL A   1      41.902  23.401  26.142  1.00  0.00    -0.200 F 
ATOM     63  C   UNL A   1      43.312  25.172  25.472  1.00  0.00     0.200 A 
ATOM     64  F   UNL A   1      44.741  26.952  24.868  1.00  0.00    -0.200 F 
ATOM     65  F   UNL A   1      43.765  24.441  24.443  1.00  0.00    -0.200 F 
ENDBRANCH  41  55
BRANCH  42  66
ATOM     66  C   UNL A   1      39.451  32.083  35.543  1.00  0.00     0.064 A 
ATOM     67  C   UNL A   1      38.538  31.588  36.487  1.00  0.00     0.173 A 
ATOM     68  C   UNL A   1      39.906  33.399  35.723  1.00  0.00     0.173 A 
ATOM     69  F   UNL A   1      38.028  30.356  36.346  1.00  0.00    -0.203 F 
ATOM     70  C   UNL A   1      38.102  32.375  37.557  1.00  0.00     0.198 A 
ATOM     71  C   UNL A   1      39.497  34.172  36.809  1.00  0.00     0.198 A 
ATOM     72  F   UNL A   1      40.754  33.943  34.837  1.00  0.00    -0.203 F 
ATOM     73  F   UNL A   1      37.191  31.894  38.414  1.00  0.00    -0.200 F 
ATOM     74  C   UNL A   1      38.591  33.662  37.723  1.00  0.00     0.200 A 
ATOM     75  F   UNL A   1      39.979  35.414  36.964  1.00  0.00    -0.200 F 
ATOM     76  F   UNL A   1      38.177  34.414  38.752  1.00  0.00    -0.200 F 
ENDBRANCH  42  66
BRANCH  54  77
ATOM     77  C   UNL A   1      44.601  27.467  34.519  1.00  0.00     0.064 A 
ATOM     78  C   UNL A   1      44.426  26.279  35.244  1.00  0.00     0.173 A 
ATOM     79  C   UNL A   1      45.845  28.111  34.602  1.00  0.00     0.173 A 
ATOM     80  F   UNL A   1      43.252  25.630  35.203  1.00  0.00    -0.203 F 
ATOM     81  C   UNL A   1      45.450  25.768  36.037  1.00  0.00     0.198 A 
ATOM     82  C   UNL A   1      46.876  27.581  35.372  1.00  0.00     0.198 A 
ATOM     83  F   UNL A   1      46.067  29.244  33.919  1.00  0.00    -0.203 F 
ATOM     84  F   UNL A   1      45.247  24.654  36.753  1.00  0.00    -0.200 F 
ATOM     85  C   UNL A   1      46.676  26.415  36.093  1.00  0.00     0.200 A 
ATOM     86  F   UNL A   1      48.066  28.197  35.411  1.00  0.00    -0.200 F 
ATOM     87  F   UNL A   1      47.664  25.914  36.849  1.00  0.00    -0.200 F 
ENDBRANCH  54  77
ENDBRANCH  28  29
ENDBRANCH  21  23
ENDBRANCH  20  21
ENDBRANCH   1  20
TORSDOF 12
ENDMDL
MODEL 3
REMARK VINA RESULT:     -11.5      4.269      9.604
REMARK SMILES C[C@H]1CC[C@@H](C2(C(=O)OCCOC(=O)c3ccc(-c4c5nc(c(-c6c(F)c(F)c(F)c(F)c6F)c6ccc([nH]6)c(-c6c(F)c(F)c(F)c(F)c6F)c6nc(c(-c7c(F)c(F)c(F)c(F)c7F)c7ccc4[nH]7)C=C6)C=C5)cc3)CCCCC2)C[C@@H]1C
REMARK SMILES IDX 11 1 10 2 9 3 7 4 8 5 6 6 78 7 82 8 79 9 81 10 80 11 5 12
REMARK SMILES IDX 1 13 2 14 3 15 84 16 4 17 83 18 85 19 12 20 13 21 14 22
REMARK SMILES IDX 15 23 16 24 77 25 17 26 76 27 18 28 19 29 20 30 70 31 21 32
REMARK SMILES IDX 75 33 69 34 71 35 22 36 74 37 68 38 67 39 23 41 55 42 35 43
REMARK SMILES IDX 54 44 36 45 39 46 53 47 72 48 37 49 38 50 52 52 73 53 40 54
REMARK SMILES IDX 24 55 25 56 33 57 26 58 27 59 31 60 34 61 28 62 29 63 32 64
REMARK SMILES IDX 30 65 56 66 57 67 65 68 58 69 59 70 63 71 66 72 60 73 61 74
REMARK SMILES IDX 64 75 62 76 41 77 42 78 50 79 43 80 44 81 48 82 51 83 45 84
REMARK SMILES IDX 46 85 49 86 47 87
REMARK H PARENT 71 40 39 51
REMARK Flexibility Score: inf
ROOT
ATOM      1  C   UNL A   1      36.399  21.735  24.448  1.00  0.00     0.275 C 
ENDROOT
BRANCH   1   2
ATOM      2  C   UNL A   1      36.522  22.914  23.432  1.00  0.00     0.274 C 
BRANCH   2   3
ATOM      3  O   UNL A   1      35.232  23.550  23.193  1.00  0.00    -0.462 OA
BRANCH   3   4
ATOM      4  C   UNL A   1      34.745  24.415  24.155  1.00  0.00     0.312 C 
ATOM      5  O   UNL A   1      35.387  24.775  25.131  1.00  0.00    -0.252 OA
BRANCH   4   6
ATOM      6  C   UNL A   1      33.327  24.960  23.789  1.00  0.00     0.071 C 
ATOM      7  C   UNL A   1      33.184  25.038  22.240  1.00  0.00     0.019 C 
ATOM      8  C   UNL A   1      33.274  26.444  24.287  1.00  0.00     0.019 C 
ATOM      9  C   UNL A   1      31.920  25.784  21.781  1.00  0.00     0.001 C 
ATOM     10  C   UNL A   1      32.019  27.205  23.882  1.00  0.00     0.001 C 
ATOM     11  C   UNL A   1      31.817  27.188  22.374  1.00  0.00     0.000 C 
BRANCH   6  12
ATOM     12  C   UNL A   1      32.135  24.074  24.382  1.00  0.00     0.007 C 
ATOM     13  C   UNL A   1      33.968  21.569  27.502  1.00  0.00     0.008 C 
ATOM     14  C   UNL A   1      32.823  22.084  26.608  1.00  0.00    -0.011 C 
ATOM     15  C   UNL A   1      32.847  23.579  26.692  1.00  0.00     0.004 C 
ATOM     16  C   UNL A   1      32.959  21.652  25.146  1.00  0.00    -0.011 C 
ATOM     17  C   UNL A   1      31.846  24.323  25.853  1.00  0.00     0.005 C 
ATOM     18  C   UNL A   1      32.129  22.526  24.169  1.00  0.00     0.008 C 
ATOM     19  C   UNL A   1      32.532  20.182  25.054  1.00  0.00     0.008 C 
ENDBRANCH   6  12
ENDBRANCH   4   6
ENDBRANCH   3   4
ENDBRANCH   2   3
ENDBRANCH   1   2
BRANCH   1  20
ATOM     20  O   UNL A   1      37.056  22.005  25.720  1.00  0.00    -0.458 OA
BRANCH  20  21
ATOM     21  C   UNL A   1      38.315  21.503  25.914  1.00  0.00     0.338 C 
ATOM     22  O   UNL A   1      38.672  20.356  25.729  1.00  0.00    -0.246 OA
BRANCH  21  23
ATOM     23  C   UNL A   1      39.258  22.612  26.264  1.00  0.00     0.060 A 
ATOM     24  C   UNL A   1      38.982  23.887  25.754  1.00  0.00     0.016 A 
ATOM     25  C   UNL A   1      40.336  22.456  27.143  1.00  0.00     0.016 A 
ATOM     26  C   UNL A   1      39.609  25.016  26.292  1.00  0.00     0.010 A 
ATOM     27  C   UNL A   1      41.067  23.589  27.574  1.00  0.00     0.010 A 
ATOM     28  C   UNL A   1      40.678  24.884  27.187  1.00  0.00    -0.014 A 
BRANCH  28  29
ATOM     29  C   UNL A   1      41.488  26.106  27.468  1.00  0.00     0.031 A 
ATOM     30  C   UNL A   1      40.869  27.145  28.368  1.00  0.00     0.074 A 
ATOM     31  C   UNL A   1      42.782  26.243  27.113  1.00  0.00     0.049 A 
ATOM     32  N   UNL A   1      41.332  28.301  28.765  1.00  0.00    -0.248 NA
ATOM     33  C   UNL A   1      39.556  26.796  28.938  1.00  0.00     0.031 C 
ATOM     34  C   UNL A   1      43.583  25.234  26.424  1.00  0.00     0.029 A 
ATOM     35  N   UNL A   1      43.667  27.280  27.321  1.00  0.00    -0.354 N 
ATOM     36  C   UNL A   1      40.362  28.818  29.615  1.00  0.00     0.074 A 
ATOM     37  C   UNL A   1      39.315  27.830  29.723  1.00  0.00     0.031 C 
ATOM     38  C   UNL A   1      44.838  25.697  26.270  1.00  0.00     0.029 A 
ATOM     39  C   UNL A   1      44.915  27.067  26.778  1.00  0.00     0.049 A 
ATOM     40  H   UNL A   1      43.428  28.099  27.812  1.00  0.00     0.167 HD
ATOM     41  C   UNL A   1      40.318  30.030  30.215  1.00  0.00     0.037 A 
ATOM     42  C   UNL A   1      45.973  27.901  26.663  1.00  0.00     0.037 A 
ATOM     43  C   UNL A   1      41.337  31.030  30.066  1.00  0.00     0.049 A 
ATOM     44  C   UNL A   1      45.854  29.308  27.208  1.00  0.00     0.074 A 
ATOM     45  C   UNL A   1      41.344  32.334  30.521  1.00  0.00     0.029 A 
ATOM     46  N   UNL A   1      42.532  30.830  29.390  1.00  0.00    -0.354 N 
ATOM     47  N   UNL A   1      44.876  29.849  27.897  1.00  0.00    -0.248 NA
ATOM     48  C   UNL A   1      46.966  30.232  26.932  1.00  0.00     0.031 C 
ATOM     49  C   UNL A   1      42.521  32.943  30.069  1.00  0.00     0.029 A 
ATOM     50  C   UNL A   1      43.275  31.997  29.390  1.00  0.00     0.049 A 
ATOM     51  H   UNL A   1      42.810  29.984  28.972  1.00  0.00     0.167 HD
ATOM     52  C   UNL A   1      45.255  31.164  28.141  1.00  0.00     0.074 A 
ATOM     53  C   UNL A   1      46.565  31.335  27.549  1.00  0.00     0.031 C 
ATOM     54  C   UNL A   1      44.577  32.144  28.790  1.00  0.00     0.037 A 
BRANCH  41  55
ATOM     55  C   UNL A   1      39.048  30.368  30.940  1.00  0.00     0.064 A 
ATOM     56  C   UNL A   1      37.932  30.918  30.291  1.00  0.00     0.173 A 
ATOM     57  C   UNL A   1      38.991  30.219  32.335  1.00  0.00     0.173 A 
ATOM     58  F   UNL A   1      37.954  31.121  28.965  1.00  0.00    -0.203 F 
ATOM     59  C   UNL A   1      36.823  31.346  31.019  1.00  0.00     0.198 A 
ATOM     60  C   UNL A   1      37.870  30.619  33.054  1.00  0.00     0.198 A 
ATOM     61  F   UNL A   1      40.038  29.713  33.003  1.00  0.00    -0.203 F 
ATOM     62  F   UNL A   1      35.802  31.944  30.391  1.00  0.00    -0.200 F 
ATOM     63  C   UNL A   1      36.793  31.195  32.398  1.00  0.00     0.200 A 
ATOM     64  F   UNL A   1      37.844  30.471  34.385  1.00  0.00    -0.200 F 
ATOM     65  F   UNL A   1      35.734  31.624  33.099  1.00  0.00    -0.200 F 
ENDBRANCH  41  55
BRANCH  42  66
ATOM     66  C   UNL A   1      47.196  27.480  25.912  1.00  0.00     0.064 A 
ATOM     67  C   UNL A   1      48.319  26.939  26.556  1.00  0.00     0.173 A 
ATOM     68  C   UNL A   1      47.284  27.664  24.522  1.00  0.00     0.173 A 
ATOM     69  F   UNL A   1      48.319  26.783  27.888  1.00  0.00    -0.203 F 
ATOM     70  C   UNL A   1      49.473  26.601  25.843  1.00  0.00     0.198 A 
ATOM     71  C   UNL A   1      48.422  27.295  23.806  1.00  0.00     0.198 A 
ATOM     72  F   UNL A   1      46.257  28.208  23.851  1.00  0.00    -0.203 F 
ATOM     73  F   UNL A   1      50.548  26.134  26.492  1.00  0.00    -0.200 F 
ATOM     74  C   UNL A   1      49.519  26.770  24.467  1.00  0.00     0.200 A 
ATOM     75  F   UNL A   1      48.455  27.458  22.475  1.00  0.00    -0.200 F 
ATOM     76  F   UNL A   1      50.622  26.440  23.783  1.00  0.00    -0.200 F 
ENDBRANCH  42  66
BRANCH  54  77
ATOM     77  C   UNL A   1      45.243  33.485  28.913  1.00  0.00     0.064 A 
ATOM     78  C   UNL A   1      46.119  33.780  29.968  1.00  0.00     0.173 A 
ATOM     79  C   UNL A   1      45.052  34.462  27.924  1.00  0.00     0.173 A 
ATOM     80  F   UNL A   1      46.329  32.882  30.942  1.00  0.00    -0.203 F 
ATOM     81  C   UNL A   1      46.761  35.013  30.040  1.00  0.00     0.198 A 
ATOM     82  C   UNL A   1      45.720  35.681  27.984  1.00  0.00     0.198 A 
ATOM     83  F   UNL A   1      44.234  34.224  26.888  1.00  0.00    -0.203 F 
ATOM     84  F   UNL A   1      47.562  35.289  31.079  1.00  0.00    -0.200 F 
ATOM     85  C   UNL A   1      46.568  35.959  29.044  1.00  0.00     0.200 A 
ATOM     86  F   UNL A   1      45.546  36.587  27.011  1.00  0.00    -0.200 F 
ATOM     87  F   UNL A   1      47.197  37.141  29.110  1.00  0.00    -0.200 F 
ENDBRANCH  54  77
ENDBRANCH  28  29
ENDBRANCH  21  23
ENDBRANCH  20  21
ENDBRANCH   1  20
TORSDOF 12
ENDMDL
