MODEL 1
REMARK VINA RESULT:     -13.6      0.000      0.000
REMARK SMILES O=C1C[C@@H](c2cccc(O)c2)c2c(c(C(=O)OCCOC(=O)c3ccc(-c4c5nc(c(-c6c(F)c(F)c(F)c(F)c6F)c6ccc([nH]6)c(-c6c(F)c(F)c(F)c(F)c6F)c6nc(c(-c7c(F)c(F)c(F)c(F)c7F)c7ccc4[nH]7)C=C6)C=C5)cc3)cn2-c2cccc(C(F)(F)F)c2)N1
REMARK SMILES IDX 18 1 17 2 15 3 16 4 14 5 1 6 2 7 3 8 98 9 4 10 13 11 12 13
REMARK SMILES IDX 87 14 86 15 5 16 6 17 11 18 7 19 9 20 8 21 10 22 88 24 89 25
REMARK SMILES IDX 97 26 90 27 92 28 91 29 93 30 94 31 95 32 96 33 19 34 20 35
REMARK SMILES IDX 21 36 22 37 23 38 24 39 85 40 25 41 84 42 26 43 27 44 28 45
REMARK SMILES IDX 78 46 29 47 83 48 77 49 79 50 30 51 82 52 76 53 75 54 31 56
REMARK SMILES IDX 63 57 43 58 62 59 44 60 47 61 61 62 80 63 45 64 46 65 60 67
REMARK SMILES IDX 81 68 48 69 32 70 33 71 41 72 34 73 35 74 39 75 42 76 36 77
REMARK SMILES IDX 37 78 40 79 38 80 64 81 65 82 73 83 66 84 67 85 71 86 74 87
REMARK SMILES IDX 68 88 69 89 72 90 70 91 49 92 50 93 58 94 51 95 52 96 56 97
REMARK SMILES IDX 59 98 53 99 54 100 57 101 55 102
REMARK H PARENT 98 12 10 23 79 55 47 66
REMARK Flexibility Score: inf
ROOT
ATOM      1  C   UNL A   1      35.952  21.455  25.775  1.00  0.00     0.275 C 
ENDROOT
BRANCH   1   2
ATOM      2  O   UNL A   1      35.450  22.799  25.709  1.00  0.00    -0.458 OA
BRANCH   2   3
ATOM      3  C   UNL A   1      34.413  23.005  24.845  1.00  0.00     0.341 C 
ATOM      4  O   UNL A   1      33.790  22.110  24.279  1.00  0.00    -0.246 OA
BRANCH   3   5
ATOM      5  C   UNL A   1      34.045  24.405  24.730  1.00  0.00     0.102 A 
ATOM      6  O   UNL A   1      32.860  25.000  20.137  1.00  0.00    -0.275 OA
ATOM      7  C   UNL A   1      33.158  25.454  21.241  1.00  0.00     0.225 C 
ATOM      8  C   UNL A   1      33.384  26.943  21.471  1.00  0.00     0.115 C 
ATOM      9  N   UNL A   1      33.443  24.620  22.294  1.00  0.00    -0.324 N 
ATOM     10  C   UNL A   1      32.983  27.445  22.874  1.00  0.00     0.078 C 
ATOM     11  C   UNL A   1      33.611  25.089  23.574  1.00  0.00     0.078 A 
ATOM     12  H   UNL A   1      33.531  23.654  22.124  1.00  0.00     0.170 HD
ATOM     13  C   UNL A   1      33.327  26.397  23.896  1.00  0.00     0.055 A 
ATOM     14  N   UNL A   1      33.553  26.552  25.255  1.00  0.00    -0.317 N 
ATOM     15  C   UNL A   1      34.029  25.347  25.743  1.00  0.00     0.109 A 
BRANCH  10  16
ATOM     16  C   UNL A   1      31.535  27.901  22.871  1.00  0.00    -0.035 A 
ATOM     17  C   UNL A   1      30.489  27.106  23.364  1.00  0.00     0.005 A 
ATOM     18  C   UNL A   1      31.228  29.175  22.362  1.00  0.00     0.050 A 
ATOM     19  C   UNL A   1      29.177  27.592  23.378  1.00  0.00     0.004 A 
ATOM     20  C   UNL A   1      29.927  29.658  22.410  1.00  0.00     0.115 A 
ATOM     21  C   UNL A   1      28.895  28.875  22.913  1.00  0.00     0.046 A 
BRANCH  20  22
ATOM     22  O   UNL A   1      29.713  30.935  21.983  1.00  0.00    -0.508 OA
ATOM     23  H   UNL A   1      30.175  31.261  21.236  1.00  0.00     0.293 HD
ENDBRANCH  20  22
ENDBRANCH  10  16
BRANCH  14  24
ATOM     24  C   UNL A   1      33.382  27.702  26.064  1.00  0.00     0.046 A 
ATOM     25  C   UNL A   1      32.086  28.153  26.340  1.00  0.00     0.026 A 
ATOM     26  C   UNL A   1      34.486  28.425  26.520  1.00  0.00     0.039 A 
ATOM     27  C   UNL A   1      31.900  29.283  27.135  1.00  0.00     0.003 A 
ATOM     28  C   UNL A   1      34.309  29.573  27.310  1.00  0.00     0.058 A 
ATOM     29  C   UNL A   1      33.004  29.982  27.626  1.00  0.00     0.013 A 
BRANCH  28  30
ATOM     30  C   UNL A   1      35.486  30.376  27.809  1.00  0.00     0.416 C 
ATOM     31  F   UNL A   1      35.298  31.718  27.653  1.00  0.00    -0.166 F 
ATOM     32  F   UNL A   1      35.718  30.191  29.138  1.00  0.00    -0.166 F 
ATOM     33  F   UNL A   1      36.661  30.100  27.179  1.00  0.00    -0.166 F 
ENDBRANCH  28  30
ENDBRANCH  14  24
ENDBRANCH   3   5
ENDBRANCH   2   3
ENDBRANCH   1   2
BRANCH   1  34
ATOM     34  C   UNL A   1      37.334  21.335  25.140  1.00  0.00     0.275 C 
BRANCH  34  35
ATOM     35  O   UNL A   1      38.154  22.476  25.397  1.00  0.00    -0.458 OA
BRANCH  35  36
ATOM     36  C   UNL A   1      39.267  22.228  26.123  1.00  0.00     0.338 C 
ATOM     37  O   UNL A   1      39.893  21.183  26.182  1.00  0.00    -0.246 OA
BRANCH  36  38
ATOM     38  C   UNL A   1      39.525  23.356  27.022  1.00  0.00     0.060 A 
ATOM     39  C   UNL A   1      38.701  24.480  26.914  1.00  0.00     0.016 A 
ATOM     40  C   UNL A   1      40.705  23.379  27.778  1.00  0.00     0.016 A 
ATOM     41  C   UNL A   1      39.126  25.670  27.473  1.00  0.00     0.010 A 
ATOM     42  C   UNL A   1      41.134  24.568  28.323  1.00  0.00     0.010 A 
ATOM     43  C   UNL A   1      40.367  25.714  28.121  1.00  0.00    -0.014 A 
BRANCH  43  44
ATOM     44  C   UNL A   1      40.774  26.964  28.741  1.00  0.00     0.031 A 
ATOM     45  C   UNL A   1      42.005  27.531  28.132  1.00  0.00     0.074 A 
ATOM     46  C   UNL A   1      40.023  27.596  29.665  1.00  0.00     0.049 A 
ATOM     47  N   UNL A   1      43.118  27.817  28.720  1.00  0.00    -0.248 NA
ATOM     48  C   UNL A   1      42.050  27.666  26.664  1.00  0.00     0.031 C 
ATOM     49  C   UNL A   1      38.673  27.245  30.111  1.00  0.00     0.029 A 
ATOM     50  N   UNL A   1      40.267  28.761  30.328  1.00  0.00    -0.354 N 
ATOM     51  C   UNL A   1      43.943  28.340  27.728  1.00  0.00     0.074 A 
ATOM     52  C   UNL A   1      43.304  28.073  26.470  1.00  0.00     0.031 C 
ATOM     53  C   UNL A   1      38.138  28.290  30.781  1.00  0.00     0.029 A 
ATOM     54  C   UNL A   1      39.141  29.333  30.910  1.00  0.00     0.049 A 
ATOM     55  H   UNL A   1      41.163  29.164  30.389  1.00  0.00     0.167 HD
ATOM     56  C   UNL A   1      44.951  29.193  28.051  1.00  0.00     0.037 A 
ATOM     57  C   UNL A   1      39.030  30.599  31.392  1.00  0.00     0.037 A 
ATOM     58  C   UNL A   1      45.347  29.026  29.426  1.00  0.00     0.049 A 
ATOM     59  C   UNL A   1      40.403  31.121  31.601  1.00  0.00     0.074 A 
ATOM     60  C   UNL A   1      45.842  27.974  30.172  1.00  0.00     0.029 A 
ATOM     61  N   UNL A   1      44.900  29.950  30.335  1.00  0.00    -0.354 N 
ATOM     62  N   UNL A   1      41.214  30.691  32.524  1.00  0.00    -0.248 NA
ATOM     63  C   UNL A   1      41.033  31.824  30.495  1.00  0.00     0.031 C 
ATOM     64  C   UNL A   1      45.242  28.115  31.458  1.00  0.00     0.029 A 
ATOM     65  C   UNL A   1      44.471  29.276  31.447  1.00  0.00     0.049 A 
ATOM     66  H   UNL A   1      44.890  30.927  30.210  1.00  0.00     0.167 HD
ATOM     67  C   UNL A   1      42.454  30.655  31.906  1.00  0.00     0.074 A 
ATOM     68  C   UNL A   1      42.301  31.460  30.697  1.00  0.00     0.031 C 
ATOM     69  C   UNL A   1      43.392  29.739  32.285  1.00  0.00     0.037 A 
BRANCH  56  70
ATOM     70  C   UNL A   1      45.249  30.451  27.266  1.00  0.00     0.064 A 
ATOM     71  C   UNL A   1      46.591  30.767  26.976  1.00  0.00     0.173 A 
ATOM     72  C   UNL A   1      44.325  31.504  27.081  1.00  0.00     0.173 A 
ATOM     73  F   UNL A   1      47.558  29.850  27.133  1.00  0.00    -0.203 F 
ATOM     74  C   UNL A   1      46.985  32.061  26.627  1.00  0.00     0.198 A 
ATOM     75  C   UNL A   1      44.717  32.780  26.682  1.00  0.00     0.198 A 
ATOM     76  F   UNL A   1      43.028  31.388  27.388  1.00  0.00    -0.203 F 
ATOM     77  F   UNL A   1      48.288  32.347  26.505  1.00  0.00    -0.200 F 
ATOM     78  C   UNL A   1      46.049  33.068  26.491  1.00  0.00     0.200 A 
ATOM     79  F   UNL A   1      43.794  33.747  26.576  1.00  0.00    -0.200 F 
ATOM     80  F   UNL A   1      46.432  34.325  26.229  1.00  0.00    -0.200 F 
ENDBRANCH  56  70
BRANCH  57  81
ATOM     81  C   UNL A   1      37.851  31.501  31.384  1.00  0.00     0.064 A 
ATOM     82  C   UNL A   1      37.170  31.814  32.574  1.00  0.00     0.173 A 
ATOM     83  C   UNL A   1      37.545  32.300  30.265  1.00  0.00     0.173 A 
ATOM     84  F   UNL A   1      37.432  31.134  33.700  1.00  0.00    -0.203 F 
ATOM     85  C   UNL A   1      36.268  32.882  32.649  1.00  0.00     0.198 A 
ATOM     86  C   UNL A   1      36.638  33.359  30.338  1.00  0.00     0.198 A 
ATOM     87  F   UNL A   1      38.194  32.137  29.104  1.00  0.00    -0.203 F 
ATOM     88  F   UNL A   1      35.694  33.193  33.820  1.00  0.00    -0.200 F 
ATOM     89  C   UNL A   1      36.011  33.660  31.533  1.00  0.00     0.200 A 
ATOM     90  F   UNL A   1      36.426  34.126  29.260  1.00  0.00    -0.200 F 
ATOM     91  F   UNL A   1      35.199  34.722  31.618  1.00  0.00    -0.200 F 
ENDBRANCH  57  81
BRANCH  69  92
ATOM     92  C   UNL A   1      43.167  29.008  33.578  1.00  0.00     0.064 A 
ATOM     93  C   UNL A   1      42.332  27.887  33.728  1.00  0.00     0.173 A 
ATOM     94  C   UNL A   1      43.919  29.404  34.694  1.00  0.00     0.173 A 
ATOM     95  F   UNL A   1      41.659  27.379  32.688  1.00  0.00    -0.203 F 
ATOM     96  C   UNL A   1      42.214  27.234  34.955  1.00  0.00     0.198 A 
ATOM     97  C   UNL A   1      43.831  28.725  35.904  1.00  0.00     0.198 A 
ATOM     98  F   UNL A   1      44.774  30.435  34.596  1.00  0.00    -0.203 F 
ATOM     99  F   UNL A   1      41.390  26.183  35.082  1.00  0.00    -0.200 F 
ATOM    100  C   UNL A   1      42.968  27.651  36.039  1.00  0.00     0.200 A 
ATOM    101  F   UNL A   1      44.602  29.100  36.934  1.00  0.00    -0.200 F 
ATOM    102  F   UNL A   1      42.881  27.002  37.210  1.00  0.00    -0.200 F 
ENDBRANCH  69  92
ENDBRANCH  43  44
ENDBRANCH  36  38
ENDBRANCH  35  36
ENDBRANCH  34  35
ENDBRANCH   1  34
TORSDOF 15
ENDMDL
MODEL 2
REMARK VINA RESULT:     -13.4      3.201      8.585
REMARK SMILES O=C1C[C@@H](c2cccc(O)c2)c2c(c(C(=O)OCCOC(=O)c3ccc(-c4c5nc(c(-c6c(F)c(F)c(F)c(F)c6F)c6ccc([nH]6)c(-c6c(F)c(F)c(F)c(F)c6F)c6nc(c(-c7c(F)c(F)c(F)c(F)c7F)c7ccc4[nH]7)C=C6)C=C5)cc3)cn2-c2cccc(C(F)(F)F)c2)N1
REMARK SMILES IDX 18 1 17 2 15 3 16 4 14 5 1 6 2 7 3 8 98 9 4 10 13 11 12 13
REMARK SMILES IDX 87 14 86 15 5 16 6 17 11 18 7 19 9 20 8 21 10 22 88 24 89 25
REMARK SMILES IDX 97 26 90 27 92 28 91 29 93 30 94 31 95 32 96 33 19 34 20 35
REMARK SMILES IDX 21 36 22 37 23 38 24 39 85 40 25 41 84 42 26 43 27 44 28 45
REMARK SMILES IDX 78 46 29 47 83 48 77 49 79 50 30 51 82 52 76 53 75 54 31 56
REMARK SMILES IDX 63 57 43 58 62 59 44 60 47 61 61 62 80 63 45 64 46 65 60 67
REMARK SMILES IDX 81 68 48 69 32 70 33 71 41 72 34 73 35 74 39 75 42 76 36 77
REMARK SMILES IDX 37 78 40 79 38 80 64 81 65 82 73 83 66 84 67 85 71 86 74 87
REMARK SMILES IDX 68 88 69 89 72 90 70 91 49 92 50 93 58 94 51 95 52 96 56 97
REMARK SMILES IDX 59 98 53 99 54 100 57 101 55 102
REMARK H PARENT 98 12 10 23 79 55 47 66
REMARK Flexibility Score: inf
ROOT
ATOM      1  C   UNL A   1      32.271  29.204  26.990  1.00  0.00     0.275 C 
ENDROOT
BRANCH   1   2
ATOM      2  O   UNL A   1      32.615  28.540  25.764  1.00  0.00    -0.458 OA
BRANCH   2   3
ATOM      3  C   UNL A   1      31.845  27.460  25.437  1.00  0.00     0.341 C 
ATOM      4  O   UNL A   1      30.705  27.528  24.985  1.00  0.00    -0.246 OA
BRANCH   3   5
ATOM      5  C   UNL A   1      32.551  26.199  25.587  1.00  0.00     0.102 A 
ATOM      6  O   UNL A   1      29.312  23.173  27.376  1.00  0.00    -0.275 OA
ATOM      7  C   UNL A   1      30.476  23.476  27.116  1.00  0.00     0.225 C 
ATOM      8  C   UNL A   1      31.656  22.624  27.565  1.00  0.00     0.115 C 
ATOM      9  N   UNL A   1      30.777  24.681  26.531  1.00  0.00    -0.324 N 
ATOM     10  C   UNL A   1      32.861  22.637  26.602  1.00  0.00     0.078 C 
ATOM     11  C   UNL A   1      32.038  24.978  26.074  1.00  0.00     0.078 A 
ATOM     12  H   UNL A   1      30.064  25.354  26.435  1.00  0.00     0.170 HD
ATOM     13  C   UNL A   1      33.021  24.015  26.021  1.00  0.00     0.055 A 
ATOM     14  N   UNL A   1      34.155  24.604  25.483  1.00  0.00    -0.317 N 
ATOM     15  C   UNL A   1      33.871  25.941  25.262  1.00  0.00     0.109 A 
BRANCH  10  16
ATOM     16  C   UNL A   1      32.733  21.515  25.588  1.00  0.00    -0.035 A 
ATOM     17  C   UNL A   1      32.267  21.723  24.281  1.00  0.00     0.005 A 
ATOM     18  C   UNL A   1      33.103  20.213  25.969  1.00  0.00     0.050 A 
ATOM     19  C   UNL A   1      32.209  20.663  23.372  1.00  0.00     0.004 A 
ATOM     20  C   UNL A   1      33.071  19.174  25.048  1.00  0.00     0.115 A 
ATOM     21  C   UNL A   1      32.623  19.386  23.751  1.00  0.00     0.046 A 
BRANCH  20  22
ATOM     22  O   UNL A   1      33.528  17.956  25.457  1.00  0.00    -0.508 OA
ATOM     23  H   UNL A   1      34.267  17.903  26.030  1.00  0.00     0.293 HD
ENDBRANCH  20  22
ENDBRANCH  10  16
BRANCH  14  24
ATOM     24  C   UNL A   1      35.416  24.024  25.206  1.00  0.00     0.046 A 
ATOM     25  C   UNL A   1      35.551  23.189  24.091  1.00  0.00     0.026 A 
ATOM     26  C   UNL A   1      36.497  24.217  26.070  1.00  0.00     0.039 A 
ATOM     27  C   UNL A   1      36.786  22.610  23.803  1.00  0.00     0.003 A 
ATOM     28  C   UNL A   1      37.742  23.627  25.797  1.00  0.00     0.058 A 
ATOM     29  C   UNL A   1      37.878  22.837  24.644  1.00  0.00     0.013 A 
BRANCH  28  30
ATOM     30  C   UNL A   1      38.923  23.813  26.719  1.00  0.00     0.416 C 
ATOM     31  F   UNL A   1      39.547  22.635  27.001  1.00  0.00    -0.166 F 
ATOM     32  F   UNL A   1      39.882  24.617  26.182  1.00  0.00    -0.166 F 
ATOM     33  F   UNL A   1      38.609  24.355  27.928  1.00  0.00    -0.166 F 
ENDBRANCH  28  30
ENDBRANCH  14  24
ENDBRANCH   3   5
ENDBRANCH   2   3
ENDBRANCH   1   2
BRANCH   1  34
ATOM     34  C   UNL A   1      32.959  30.560  27.111  1.00  0.00     0.275 C 
BRANCH  34  35
ATOM     35  O   UNL A   1      34.383  30.457  27.061  1.00  0.00    -0.458 OA
BRANCH  35  36
ATOM     36  C   UNL A   1      35.048  31.348  27.830  1.00  0.00     0.338 C 
ATOM     37  O   UNL A   1      34.836  32.544  27.925  1.00  0.00    -0.246 OA
BRANCH  36  38
ATOM     38  C   UNL A   1      36.231  30.706  28.409  1.00  0.00     0.060 A 
ATOM     39  C   UNL A   1      37.245  31.531  28.906  1.00  0.00     0.016 A 
ATOM     40  C   UNL A   1      36.423  29.329  28.234  1.00  0.00     0.016 A 
ATOM     41  C   UNL A   1      38.497  30.988  29.119  1.00  0.00     0.010 A 
ATOM     42  C   UNL A   1      37.675  28.791  28.435  1.00  0.00     0.010 A 
ATOM     43  C   UNL A   1      38.714  29.636  28.825  1.00  0.00    -0.014 A 
BRANCH  43  44
ATOM     44  C   UNL A   1      40.025  29.074  29.099  1.00  0.00     0.031 A 
ATOM     45  C   UNL A   1      40.322  28.996  30.554  1.00  0.00     0.074 A 
ATOM     46  C   UNL A   1      40.810  28.553  28.136  1.00  0.00     0.049 A 
ATOM     47  N   UNL A   1      41.312  29.528  31.188  1.00  0.00    -0.248 NA
ATOM     48  C   UNL A   1      39.317  28.365  31.430  1.00  0.00     0.031 C 
ATOM     49  C   UNL A   1      40.473  28.343  26.726  1.00  0.00     0.029 A 
ATOM     50  N   UNL A   1      42.049  27.996  28.236  1.00  0.00    -0.354 N 
ATOM     51  C   UNL A   1      41.156  29.146  32.517  1.00  0.00     0.074 A 
ATOM     52  C   UNL A   1      39.841  28.579  32.636  1.00  0.00     0.031 C 
ATOM     53  C   UNL A   1      41.376  27.504  26.170  1.00  0.00     0.029 A 
ATOM     54  C   UNL A   1      42.414  27.214  27.145  1.00  0.00     0.049 A 
ATOM     55  H   UNL A   1      42.637  28.135  29.014  1.00  0.00     0.167 HD
ATOM     56  C   UNL A   1      42.231  29.079  33.346  1.00  0.00     0.037 A 
ATOM     57  C   UNL A   1      43.450  26.337  27.085  1.00  0.00     0.037 A 
ATOM     58  C   UNL A   1      43.303  29.915  32.866  1.00  0.00     0.049 A 
ATOM     59  C   UNL A   1      44.382  26.668  28.191  1.00  0.00     0.074 A 
ATOM     60  C   UNL A   1      43.439  31.265  32.608  1.00  0.00     0.029 A 
ATOM     61  N   UNL A   1      44.348  29.304  32.221  1.00  0.00    -0.354 N 
ATOM     62  N   UNL A   1      45.112  27.745  28.233  1.00  0.00    -0.248 NA
ATOM     63  C   UNL A   1      44.174  26.005  29.469  1.00  0.00     0.031 C 
ATOM     64  C   UNL A   1      44.269  31.341  31.451  1.00  0.00     0.029 A 
ATOM     65  C   UNL A   1      44.648  30.044  31.108  1.00  0.00     0.049 A 
ATOM     66  H   UNL A   1      44.804  28.480  32.509  1.00  0.00     0.167 HD
ATOM     67  C   UNL A   1      45.064  28.144  29.559  1.00  0.00     0.074 A 
ATOM     68  C   UNL A   1      44.563  26.984  30.289  1.00  0.00     0.031 C 
ATOM     69  C   UNL A   1      45.157  29.466  29.888  1.00  0.00     0.037 A 
BRANCH  56  70
ATOM     70  C   UNL A   1      42.461  27.936  34.309  1.00  0.00     0.064 A 
ATOM     71  C   UNL A   1      43.015  26.738  33.818  1.00  0.00     0.173 A 
ATOM     72  C   UNL A   1      41.867  27.850  35.588  1.00  0.00     0.173 A 
ATOM     73  F   UNL A   1      43.589  26.696  32.606  1.00  0.00    -0.203 F 
ATOM     74  C   UNL A   1      42.892  25.531  34.511  1.00  0.00     0.198 A 
ATOM     75  C   UNL A   1      41.794  26.654  36.299  1.00  0.00     0.198 A 
ATOM     76  F   UNL A   1      41.229  28.878  36.158  1.00  0.00    -0.203 F 
ATOM     77  F   UNL A   1      43.305  24.392  33.938  1.00  0.00    -0.200 F 
ATOM     78  C   UNL A   1      42.273  25.488  35.745  1.00  0.00     0.200 A 
ATOM     79  F   UNL A   1      41.170  26.632  37.486  1.00  0.00    -0.200 F 
ATOM     80  F   UNL A   1      42.089  24.322  36.378  1.00  0.00    -0.200 F 
ENDBRANCH  56  70
BRANCH  57  81
ATOM     81  C   UNL A   1      43.541  25.048  26.354  1.00  0.00     0.064 A 
ATOM     82  C   UNL A   1      44.477  24.867  25.319  1.00  0.00     0.173 A 
ATOM     83  C   UNL A   1      42.921  23.882  26.841  1.00  0.00     0.173 A 
ATOM     84  F   UNL A   1      45.149  25.918  24.825  1.00  0.00    -0.203 F 
ATOM     85  C   UNL A   1      44.797  23.595  24.829  1.00  0.00     0.198 A 
ATOM     86  C   UNL A   1      43.234  22.615  26.345  1.00  0.00     0.198 A 
ATOM     87  F   UNL A   1      42.073  23.934  27.878  1.00  0.00    -0.203 F 
ATOM     88  F   UNL A   1      45.747  23.458  23.893  1.00  0.00    -0.200 F 
ATOM     89  C   UNL A   1      44.183  22.469  25.351  1.00  0.00     0.200 A 
ATOM     90  F   UNL A   1      42.659  21.530  26.885  1.00  0.00    -0.200 F 
ATOM     91  F   UNL A   1      44.536  21.247  24.930  1.00  0.00    -0.200 F 
ENDBRANCH  57  81
BRANCH  69  92
ATOM     92  C   UNL A   1      45.632  30.416  28.826  1.00  0.00     0.064 A 
ATOM     93  C   UNL A   1      44.802  31.016  27.862  1.00  0.00     0.173 A 
ATOM     94  C   UNL A   1      46.976  30.816  28.857  1.00  0.00     0.173 A 
ATOM     95  F   UNL A   1      43.487  30.769  27.829  1.00  0.00    -0.203 F 
ATOM     96  C   UNL A   1      45.312  31.927  26.937  1.00  0.00     0.198 A 
ATOM     97  C   UNL A   1      47.472  31.756  27.961  1.00  0.00     0.198 A 
ATOM     98  F   UNL A   1      47.803  30.317  29.790  1.00  0.00    -0.203 F 
ATOM     99  F   UNL A   1      44.508  32.465  26.009  1.00  0.00    -0.200 F 
ATOM    100  C   UNL A   1      46.645  32.299  26.992  1.00  0.00     0.200 A 
ATOM    101  F   UNL A   1      48.749  32.151  28.052  1.00  0.00    -0.200 F 
ATOM    102  F   UNL A   1      47.129  33.201  26.126  1.00  0.00    -0.200 F 
ENDBRANCH  69  92
ENDBRANCH  43  44
ENDBRANCH  36  38
ENDBRANCH  35  36
ENDBRANCH  34  35
ENDBRANCH   1  34
TORSDOF 15
ENDMDL
MODEL 3
REMARK VINA RESULT:     -13.2      3.096      8.473
REMARK SMILES O=C1C[C@@H](c2cccc(O)c2)c2c(c(C(=O)OCCOC(=O)c3ccc(-c4c5nc(c(-c6c(F)c(F)c(F)c(F)c6F)c6ccc([nH]6)c(-c6c(F)c(F)c(F)c(F)c6F)c6nc(c(-c7c(F)c(F)c(F)c(F)c7F)c7ccc4[nH]7)C=C6)C=C5)cc3)cn2-c2cccc(C(F)(F)F)c2)N1
REMARK SMILES IDX 18 1 17 2 15 3 16 4 14 5 1 6 2 7 3 8 98 9 4 10 13 11 12 13
REMARK SMILES IDX 87 14 86 15 5 16 6 17 11 18 7 19 9 20 8 21 10 22 88 24 89 25
REMARK SMILES IDX 97 26 90 27 92 28 91 29 93 30 94 31 95 32 96 33 19 34 20 35
REMARK SMILES IDX 21 36 22 37 23 38 24 39 85 40 25 41 84 42 26 43 27 44 28 45
REMARK SMILES IDX 78 46 29 47 83 48 77 49 79 50 30 51 82 52 76 53 75 54 31 56
REMARK SMILES IDX 63 57 43 58 62 59 44 60 47 61 61 62 80 63 45 64 46 65 60 67
REMARK SMILES IDX 81 68 48 69 32 70 33 71 41 72 34 73 35 74 39 75 42 76 36 77
REMARK SMILES IDX 37 78 40 79 38 80 64 81 65 82 73 83 66 84 67 85 71 86 74 87
REMARK SMILES IDX 68 88 69 89 72 90 70 91 49 92 50 93 58 94 51 95 52 96 56 97
REMARK SMILES IDX 59 98 53 99 54 100 57 101 55 102
REMARK H PARENT 98 12 10 23 79 55 47 66
REMARK Flexibility Score: inf
ROOT
ATOM      1  C   UNL A   1      32.049  29.880  25.724  1.00  0.00     0.275 C 
ENDROOT
BRANCH   1   2
ATOM      2  O   UNL A   1      32.704  28.603  25.661  1.00  0.00    -0.458 OA
BRANCH   2   3
ATOM      3  C   UNL A   1      31.899  27.537  25.376  1.00  0.00     0.341 C 
ATOM      4  O   UNL A   1      30.747  27.625  24.957  1.00  0.00    -0.246 OA
BRANCH   3   5
ATOM      5  C   UNL A   1      32.580  26.262  25.525  1.00  0.00     0.102 A 
ATOM      6  O   UNL A   1      29.264  23.285  27.256  1.00  0.00    -0.275 OA
ATOM      7  C   UNL A   1      30.437  23.569  27.012  1.00  0.00     0.225 C 
ATOM      8  C   UNL A   1      31.595  22.691  27.469  1.00  0.00     0.115 C 
ATOM      9  N   UNL A   1      30.767  24.771  26.438  1.00  0.00    -0.324 N 
ATOM     10  C   UNL A   1      32.811  22.689  26.520  1.00  0.00     0.078 C 
ATOM     11  C   UNL A   1      32.039  25.048  25.998  1.00  0.00     0.078 A 
ATOM     12  H   UNL A   1      30.068  25.458  26.338  1.00  0.00     0.170 HD
ATOM     13  C   UNL A   1      33.004  24.067  25.950  1.00  0.00     0.055 A 
ATOM     14  N   UNL A   1      34.154  24.638  25.430  1.00  0.00    -0.317 N 
ATOM     15  C   UNL A   1      33.898  25.982  25.214  1.00  0.00     0.109 A 
BRANCH  10  16
ATOM     16  C   UNL A   1      32.675  21.576  25.497  1.00  0.00    -0.035 A 
ATOM     17  C   UNL A   1      32.219  21.800  24.189  1.00  0.00     0.005 A 
ATOM     18  C   UNL A   1      33.025  20.266  25.871  1.00  0.00     0.050 A 
ATOM     19  C   UNL A   1      32.153  20.746  23.272  1.00  0.00     0.004 A 
ATOM     20  C   UNL A   1      32.984  19.234  24.942  1.00  0.00     0.115 A 
ATOM     21  C   UNL A   1      32.547  19.461  23.644  1.00  0.00     0.046 A 
BRANCH  20  22
ATOM     22  O   UNL A   1      33.422  18.008  25.346  1.00  0.00    -0.508 OA
ATOM     23  H   UNL A   1      33.156  17.666  26.176  1.00  0.00     0.293 HD
ENDBRANCH  20  22
ENDBRANCH  10  16
BRANCH  14  24
ATOM     24  C   UNL A   1      35.408  24.037  25.163  1.00  0.00     0.046 A 
ATOM     25  C   UNL A   1      35.527  23.163  24.076  1.00  0.00     0.026 A 
ATOM     26  C   UNL A   1      36.497  24.246  26.013  1.00  0.00     0.039 A 
ATOM     27  C   UNL A   1      36.754  22.563  23.799  1.00  0.00     0.003 A 
ATOM     28  C   UNL A   1      37.734  23.635  25.751  1.00  0.00     0.058 A 
ATOM     29  C   UNL A   1      37.854  22.807  24.625  1.00  0.00     0.013 A 
BRANCH  28  30
ATOM     30  C   UNL A   1      38.923  23.840  26.659  1.00  0.00     0.416 C 
ATOM     31  F   UNL A   1      39.835  24.703  26.127  1.00  0.00    -0.166 F 
ATOM     32  F   UNL A   1      38.574  24.373  27.863  1.00  0.00    -0.166 F 
ATOM     33  F   UNL A   1      39.619  22.704  26.936  1.00  0.00    -0.166 F 
ENDBRANCH  28  30
ENDBRANCH  14  24
ENDBRANCH   3   5
ENDBRANCH   2   3
ENDBRANCH   1   2
BRANCH   1  34
ATOM     34  C   UNL A   1      32.572  30.727  26.879  1.00  0.00     0.275 C 
BRANCH  34  35
ATOM     35  O   UNL A   1      33.985  30.604  27.052  1.00  0.00    -0.458 OA
BRANCH  35  36
ATOM     36  C   UNL A   1      34.542  31.520  27.876  1.00  0.00     0.338 C 
ATOM     37  O   UNL A   1      34.219  32.688  28.007  1.00  0.00    -0.246 OA
BRANCH  36  38
ATOM     38  C   UNL A   1      35.759  30.964  28.473  1.00  0.00     0.060 A 
ATOM     39  C   UNL A   1      36.747  31.858  28.895  1.00  0.00     0.016 A 
ATOM     40  C   UNL A   1      36.002  29.586  28.385  1.00  0.00     0.016 A 
ATOM     41  C   UNL A   1      38.023  31.379  29.120  1.00  0.00     0.010 A 
ATOM     42  C   UNL A   1      37.277  29.112  28.597  1.00  0.00     0.010 A 
ATOM     43  C   UNL A   1      38.288  30.019  28.910  1.00  0.00    -0.014 A 
BRANCH  43  44
ATOM     44  C   UNL A   1      39.625  29.528  29.196  1.00  0.00     0.031 A 
ATOM     45  C   UNL A   1      39.956  29.576  30.644  1.00  0.00     0.074 A 
ATOM     46  C   UNL A   1      40.408  28.961  28.257  1.00  0.00     0.049 A 
ATOM     47  N   UNL A   1      40.939  30.191  31.211  1.00  0.00    -0.248 NA
ATOM     48  C   UNL A   1      38.995  28.981  31.592  1.00  0.00     0.031 C 
ATOM     49  C   UNL A   1      40.049  28.628  26.877  1.00  0.00     0.029 A 
ATOM     50  N   UNL A   1      41.669  28.457  28.370  1.00  0.00    -0.354 N 
ATOM     51  C   UNL A   1      40.825  29.909  32.569  1.00  0.00     0.074 A 
ATOM     52  C   UNL A   1      39.536  29.307  32.764  1.00  0.00     0.031 C 
ATOM     53  C   UNL A   1      40.970  27.781  26.366  1.00  0.00     0.029 A 
ATOM     54  C   UNL A   1      42.039  27.605  27.336  1.00  0.00     0.049 A 
ATOM     55  H   UNL A   1      42.267  28.678  29.120  1.00  0.00     0.167 HD
ATOM     56  C   UNL A   1      41.921  29.947  33.374  1.00  0.00     0.037 A 
ATOM     57  C   UNL A   1      43.105  26.763  27.318  1.00  0.00     0.037 A 
ATOM     58  C   UNL A   1      42.950  30.779  32.804  1.00  0.00     0.049 A 
ATOM     59  C   UNL A   1      44.048  27.213  28.372  1.00  0.00     0.074 A 
ATOM     60  C   UNL A   1      43.030  32.108  32.438  1.00  0.00     0.029 A 
ATOM     61  N   UNL A   1      44.003  30.157  32.184  1.00  0.00    -0.354 N 
ATOM     62  N   UNL A   1      44.738  28.315  28.312  1.00  0.00    -0.248 NA
ATOM     63  C   UNL A   1      43.892  26.647  29.703  1.00  0.00     0.031 C 
ATOM     64  C   UNL A   1      43.832  32.122  31.259  1.00  0.00     0.029 A 
ATOM     65  C   UNL A   1      44.251  30.816  31.009  1.00  0.00     0.049 A 
ATOM     66  H   UNL A   1      44.495  29.375  32.524  1.00  0.00     0.167 HD
ATOM     67  C   UNL A   1      44.704  28.816  29.604  1.00  0.00     0.074 A 
ATOM     68  C   UNL A   1      44.262  27.700  30.435  1.00  0.00     0.031 C 
ATOM     69  C   UNL A   1      44.755  30.162  29.827  1.00  0.00     0.037 A 
BRANCH  56  70
ATOM     70  C   UNL A   1      42.213  28.892  34.417  1.00  0.00     0.064 A 
ATOM     71  C   UNL A   1      42.716  29.298  35.668  1.00  0.00     0.173 A 
ATOM     72  C   UNL A   1      42.334  27.512  34.135  1.00  0.00     0.173 A 
ATOM     73  F   UNL A   1      42.673  30.588  36.037  1.00  0.00    -0.203 F 
ATOM     74  C   UNL A   1      43.378  28.411  36.521  1.00  0.00     0.198 A 
ATOM     75  C   UNL A   1      42.947  26.621  35.011  1.00  0.00     0.198 A 
ATOM     76  F   UNL A   1      41.976  26.983  32.959  1.00  0.00    -0.203 F 
ATOM     77  F   UNL A   1      43.968  28.873  37.631  1.00  0.00    -0.200 F 
ATOM     78  C   UNL A   1      43.501  27.076  36.187  1.00  0.00     0.200 A 
ATOM     79  F   UNL A   1      43.075  25.334  34.658  1.00  0.00    -0.200 F 
ATOM     80  F   UNL A   1      44.198  26.238  36.967  1.00  0.00    -0.200 F 
ENDBRANCH  56  70
BRANCH  57  81
ATOM     81  C   UNL A   1      43.229  25.425  26.688  1.00  0.00     0.064 A 
ATOM     82  C   UNL A   1      44.121  25.205  25.623  1.00  0.00     0.173 A 
ATOM     83  C   UNL A   1      42.696  24.274  27.299  1.00  0.00     0.173 A 
ATOM     84  F   UNL A   1      44.711  26.243  25.012  1.00  0.00    -0.203 F 
ATOM     85  C   UNL A   1      44.484  23.915  25.219  1.00  0.00     0.198 A 
ATOM     86  C   UNL A   1      43.051  22.987  26.889  1.00  0.00     0.198 A 
ATOM     87  F   UNL A   1      41.898  24.369  28.372  1.00  0.00    -0.203 F 
ATOM     88  F   UNL A   1      45.392  23.748  24.247  1.00  0.00    -0.200 F 
ATOM     89  C   UNL A   1      43.957  22.807  25.861  1.00  0.00     0.200 A 
ATOM     90  F   UNL A   1      42.561  21.924  27.543  1.00  0.00    -0.200 F 
ATOM     91  F   UNL A   1      44.352  21.573  25.520  1.00  0.00    -0.200 F 
ENDBRANCH  57  81
BRANCH  69  92
ATOM     92  C   UNL A   1      45.171  31.042  28.682  1.00  0.00     0.064 A 
ATOM     93  C   UNL A   1      44.317  31.464  27.648  1.00  0.00     0.173 A 
ATOM     94  C   UNL A   1      46.472  31.564  28.696  1.00  0.00     0.173 A 
ATOM     95  F   UNL A   1      43.030  31.096  27.617  1.00  0.00    -0.203 F 
ATOM     96  C   UNL A   1      44.768  32.322  26.645  1.00  0.00     0.198 A 
ATOM     97  C   UNL A   1      46.906  32.452  27.719  1.00  0.00     0.198 A 
ATOM     98  F   UNL A   1      47.315  31.238  29.689  1.00  0.00    -0.203 F 
ATOM     99  F   UNL A   1      43.944  32.690  25.653  1.00  0.00    -0.200 F 
ATOM    100  C   UNL A   1      46.060  32.819  26.685  1.00  0.00     0.200 A 
ATOM    101  F   UNL A   1      48.140  32.970  27.792  1.00  0.00    -0.200 F 
ATOM    102  F   UNL A   1      46.485  33.671  25.741  1.00  0.00    -0.200 F 
ENDBRANCH  69  92
ENDBRANCH  43  44
ENDBRANCH  36  38
ENDBRANCH  35  36
ENDBRANCH  34  35
ENDBRANCH   1  34
TORSDOF 15
ENDMDL
