MODEL 1
REMARK VINA RESULT:     -13.0      0.000      0.000
REMARK SMILES CO[C@@H]1C[NH2+][C@@H](O[C@@H]2C[C@@H](C(=O)OCCOC(=O)c3ccc(-c4c5nc(c(-c6c(F)c(F)c(F)c(F)c6F)c6ccc([nH]6)c(-c6c(F)c(F)c(F)c(F)c6F)c6nc(c(-c7c(F)c(F)c(F)c(F)c7F)c7ccc4[nH]7)C=C6)C=C5)cc3)N(C(=O)OC(C)(C)C)C2)c2cc(Cl)ccc21
REMARK SMILES IDX 14 1 13 2 11 3 12 4 10 5 8 6 9 7 90 8 82 9 7 10 6 11 3 12
REMARK SMILES IDX 4 13 97 14 5 15 91 16 96 17 92 20 95 21 93 22 94 23 2 24
REMARK SMILES IDX 1 25 83 26 84 27 85 28 86 29 87 30 88 31 89 32 15 33 16 34
REMARK SMILES IDX 17 35 18 36 19 37 20 38 81 39 21 40 80 41 22 42 23 43 24 44
REMARK SMILES IDX 74 45 25 46 79 47 73 48 75 49 26 50 78 51 72 52 71 53 27 55
REMARK SMILES IDX 59 56 39 57 58 58 40 59 43 60 57 61 76 62 41 63 42 64 56 66
REMARK SMILES IDX 77 67 44 68 28 69 29 70 37 71 30 72 31 73 35 74 38 75 32 76
REMARK SMILES IDX 33 77 36 78 34 79 60 80 61 81 69 82 62 83 63 84 67 85 70 86
REMARK SMILES IDX 64 87 65 88 68 89 66 90 45 91 46 92 54 93 47 94 48 95 52 96
REMARK SMILES IDX 55 97 49 98 50 99 53 100 51 101
REMARK H PARENT 5 18 5 19 75 54 43 65
REMARK Flexibility Score: inf
ROOT
ATOM      1  C   UNL A   1      31.771  28.983  27.148  1.00  0.00     0.274 C 
ENDROOT
BRANCH   1   2
ATOM      2  O   UNL A   1      32.197  28.163  26.037  1.00  0.00    -0.461 OA
BRANCH   2   3
ATOM      3  C   UNL A   1      31.743  26.864  25.966  1.00  0.00     0.329 C 
ATOM      4  O   UNL A   1      31.186  26.264  26.872  1.00  0.00    -0.250 OA
BRANCH   3   5
ATOM      5  C   UNL A   1      31.989  26.332  24.534  1.00  0.00     0.201 C 
ATOM      6  C   UNL A   1      33.586  25.997  22.726  1.00  0.00     0.147 C 
ATOM      7  C   UNL A   1      33.488  26.161  24.246  1.00  0.00     0.071 C 
ATOM      8  C   UNL A   1      32.415  26.851  22.217  1.00  0.00     0.156 C 
ATOM      9  N   UNL A   1      31.468  26.954  23.325  1.00  0.00    -0.292 N 
BRANCH   6  10
ATOM     10  O   UNL A   1      33.765  24.751  22.055  1.00  0.00    -0.320 OA
BRANCH  10  11
ATOM     11  C   UNL A   1      33.806  23.415  22.542  1.00  0.00     0.354 C 
ATOM     12  C   UNL A   1      31.953  22.809  24.750  1.00  0.00     0.203 C 
ATOM     13  C   UNL A   1      31.530  22.917  23.264  1.00  0.00     0.300 C 
ATOM     14  C   UNL A   1      33.450  23.019  24.983  1.00  0.00    -0.002 A 
ATOM     15  N   UNL A   1      32.580  22.681  22.281  1.00  0.00    -0.315 N 
ATOM     16  C   UNL A   1      34.344  23.202  23.926  1.00  0.00     0.046 A 
ATOM     17  C   UNL A   1      33.948  23.223  26.272  1.00  0.00     0.009 A 
ATOM     18  H   UNL A   1      32.229  22.956  21.363  1.00  0.00     0.349 HD
ATOM     19  H   UNL A   1      32.813  21.688  22.328  1.00  0.00     0.349 HD
ATOM     20  C   UNL A   1      35.728  23.333  24.174  1.00  0.00     0.033 A 
ATOM     21  C   UNL A   1      35.303  23.441  26.531  1.00  0.00     0.021 A 
ATOM     22  C   UNL A   1      36.200  23.450  25.477  1.00  0.00     0.041 A 
ATOM     23  Cl  UNL A   1      37.876  23.684  25.776  1.00  0.00    -0.084 Cl
BRANCH  12  24
ATOM     24  O   UNL A   1      31.544  21.557  25.313  1.00  0.00    -0.371 OA
ATOM     25  C   UNL A   1      32.286  20.457  24.783  1.00  0.00     0.196 C 
ENDBRANCH  12  24
ENDBRANCH  10  11
ENDBRANCH   6  10
BRANCH   9  26
ATOM     26  C   UNL A   1      30.134  27.144  23.047  1.00  0.00     0.411 C 
ATOM     27  O   UNL A   1      29.246  26.494  23.586  1.00  0.00    -0.224 OA
BRANCH  26  28
ATOM     28  O   UNL A   1      29.922  28.155  22.165  1.00  0.00    -0.444 OA
BRANCH  28  29
ATOM     29  C   UNL A   1      29.172  29.336  22.572  1.00  0.00     0.106 C 
ATOM     30  C   UNL A   1      29.206  30.405  21.476  1.00  0.00     0.056 C 
ATOM     31  C   UNL A   1      27.731  29.007  22.984  1.00  0.00     0.056 C 
ATOM     32  C   UNL A   1      29.913  29.874  23.808  1.00  0.00     0.056 C 
ENDBRANCH  28  29
ENDBRANCH  26  28
ENDBRANCH   9  26
ENDBRANCH   3   5
ENDBRANCH   2   3
ENDBRANCH   1   2
BRANCH   1  33
ATOM     33  C   UNL A   1      31.970  30.482  26.820  1.00  0.00     0.275 C 
BRANCH  33  34
ATOM     34  O   UNL A   1      33.375  30.838  26.686  1.00  0.00    -0.458 OA
BRANCH  34  35
ATOM     35  C   UNL A   1      33.785  31.933  27.395  1.00  0.00     0.338 C 
ATOM     36  O   UNL A   1      33.121  32.930  27.624  1.00  0.00    -0.246 OA
BRANCH  35  37
ATOM     37  C   UNL A   1      35.053  31.636  28.117  1.00  0.00     0.060 A 
ATOM     38  C   UNL A   1      36.176  32.460  28.149  1.00  0.00     0.016 A 
ATOM     39  C   UNL A   1      35.114  30.394  28.747  1.00  0.00     0.016 A 
ATOM     40  C   UNL A   1      37.361  32.002  28.772  1.00  0.00     0.010 A 
ATOM     41  C   UNL A   1      36.311  29.890  29.253  1.00  0.00     0.010 A 
ATOM     42  C   UNL A   1      37.449  30.699  29.299  1.00  0.00    -0.014 A 
BRANCH  42  43
ATOM     43  C   UNL A   1      38.646  30.188  30.023  1.00  0.00     0.031 A 
ATOM     44  C   UNL A   1      39.011  30.640  31.407  1.00  0.00     0.074 A 
ATOM     45  C   UNL A   1      39.513  29.406  29.354  1.00  0.00     0.049 A 
ATOM     46  N   UNL A   1      39.900  30.151  32.237  1.00  0.00    -0.248 NA
ATOM     47  C   UNL A   1      38.317  31.827  31.909  1.00  0.00     0.031 C 
ATOM     48  C   UNL A   1      39.390  29.033  27.944  1.00  0.00     0.029 A 
ATOM     49  N   UNL A   1      40.684  28.815  29.755  1.00  0.00    -0.354 N 
ATOM     50  C   UNL A   1      39.824  30.934  33.384  1.00  0.00     0.074 A 
ATOM     51  C   UNL A   1      38.864  31.983  33.110  1.00  0.00     0.031 C 
ATOM     52  C   UNL A   1      40.448  28.287  27.594  1.00  0.00     0.029 A 
ATOM     53  C   UNL A   1      41.285  28.076  28.770  1.00  0.00     0.049 A 
ATOM     54  H   UNL A   1      41.057  28.913  30.662  1.00  0.00     0.167 HD
ATOM     55  C   UNL A   1      40.477  30.763  34.561  1.00  0.00     0.037 A 
ATOM     56  C   UNL A   1      42.354  27.261  28.821  1.00  0.00     0.037 A 
ATOM     57  C   UNL A   1      41.480  29.748  34.779  1.00  0.00     0.049 A 
ATOM     58  C   UNL A   1      43.017  27.009  30.144  1.00  0.00     0.074 A 
ATOM     59  C   UNL A   1      42.124  29.395  35.953  1.00  0.00     0.029 A 
ATOM     60  N   UNL A   1      42.011  28.945  33.780  1.00  0.00    -0.354 N 
ATOM     61  N   UNL A   1      42.772  27.561  31.307  1.00  0.00    -0.248 NA
ATOM     62  C   UNL A   1      44.065  25.982  30.172  1.00  0.00     0.031 C 
ATOM     63  C   UNL A   1      43.076  28.413  35.653  1.00  0.00     0.029 A 
ATOM     64  C   UNL A   1      42.992  28.117  34.302  1.00  0.00     0.049 A 
ATOM     65  H   UNL A   1      41.731  28.961  32.835  1.00  0.00     0.167 HD
ATOM     66  C   UNL A   1      43.613  26.931  32.212  1.00  0.00     0.074 A 
ATOM     67  C   UNL A   1      44.366  25.944  31.464  1.00  0.00     0.031 C 
ATOM     68  C   UNL A   1      43.744  27.150  33.544  1.00  0.00     0.037 A 
BRANCH  55  69
ATOM     69  C   UNL A   1      40.092  31.634  35.727  1.00  0.00     0.064 A 
ATOM     70  C   UNL A   1      40.872  32.750  36.075  1.00  0.00     0.173 A 
ATOM     71  C   UNL A   1      38.887  31.443  36.422  1.00  0.00     0.173 A 
ATOM     72  F   UNL A   1      42.025  32.993  35.436  1.00  0.00    -0.203 F 
ATOM     73  C   UNL A   1      40.471  33.627  37.082  1.00  0.00     0.198 A 
ATOM     74  C   UNL A   1      38.477  32.337  37.411  1.00  0.00     0.198 A 
ATOM     75  F   UNL A   1      38.088  30.407  36.123  1.00  0.00    -0.203 F 
ATOM     76  F   UNL A   1      41.245  34.672  37.404  1.00  0.00    -0.200 F 
ATOM     77  C   UNL A   1      39.270  33.425  37.741  1.00  0.00     0.200 A 
ATOM     78  F   UNL A   1      37.304  32.155  38.034  1.00  0.00    -0.200 F 
ATOM     79  F   UNL A   1      38.873  34.284  38.691  1.00  0.00    -0.200 F 
ENDBRANCH  55  69
BRANCH  56  80
ATOM     80  C   UNL A   1      42.715  26.494  27.604  1.00  0.00     0.064 A 
ATOM     81  C   UNL A   1      43.734  26.956  26.760  1.00  0.00     0.173 A 
ATOM     82  C   UNL A   1      42.138  25.249  27.319  1.00  0.00     0.173 A 
ATOM     83  F   UNL A   1      44.314  28.142  26.998  1.00  0.00    -0.203 F 
ATOM     84  C   UNL A   1      44.163  26.201  25.673  1.00  0.00     0.198 A 
ATOM     85  C   UNL A   1      42.580  24.487  26.240  1.00  0.00     0.198 A 
ATOM     86  F   UNL A   1      41.176  24.756  28.113  1.00  0.00    -0.203 F 
ATOM     87  F   UNL A   1      45.134  26.669  24.876  1.00  0.00    -0.200 F 
ATOM     88  C   UNL A   1      43.592  24.963  25.417  1.00  0.00     0.200 A 
ATOM     89  F   UNL A   1      42.043  23.281  26.007  1.00  0.00    -0.200 F 
ATOM     90  F   UNL A   1      44.021  24.226  24.385  1.00  0.00    -0.200 F 
ENDBRANCH  56  80
BRANCH  68  91
ATOM     91  C   UNL A   1      44.743  26.311  34.284  1.00  0.00     0.064 A 
ATOM     92  C   UNL A   1      46.063  26.746  34.474  1.00  0.00     0.173 A 
ATOM     93  C   UNL A   1      44.362  25.090  34.861  1.00  0.00     0.173 A 
ATOM     94  F   UNL A   1      46.477  27.901  33.931  1.00  0.00    -0.203 F 
ATOM     95  C   UNL A   1      46.970  25.980  35.199  1.00  0.00     0.198 A 
ATOM     96  C   UNL A   1      45.266  24.340  35.608  1.00  0.00     0.198 A 
ATOM     97  F   UNL A   1      43.110  24.633  34.712  1.00  0.00    -0.203 F 
ATOM     98  F   UNL A   1      48.237  26.397  35.337  1.00  0.00    -0.200 F 
ATOM     99  C   UNL A   1      46.570  24.782  35.773  1.00  0.00     0.200 A 
ATOM    100  F   UNL A   1      44.874  23.189  36.173  1.00  0.00    -0.200 F 
ATOM    101  F   UNL A   1      47.442  24.053  36.482  1.00  0.00    -0.200 F 
ENDBRANCH  68  91
ENDBRANCH  42  43
ENDBRANCH  35  37
ENDBRANCH  34  35
ENDBRANCH  33  34
ENDBRANCH   1  33
TORSDOF 17
ENDMDL
MODEL 2
REMARK VINA RESULT:     -12.7      4.122      9.893
REMARK SMILES CO[C@@H]1C[NH2+][C@@H](O[C@@H]2C[C@@H](C(=O)OCCOC(=O)c3ccc(-c4c5nc(c(-c6c(F)c(F)c(F)c(F)c6F)c6ccc([nH]6)c(-c6c(F)c(F)c(F)c(F)c6F)c6nc(c(-c7c(F)c(F)c(F)c(F)c7F)c7ccc4[nH]7)C=C6)C=C5)cc3)N(C(=O)OC(C)(C)C)C2)c2cc(Cl)ccc21
REMARK SMILES IDX 14 1 13 2 11 3 12 4 10 5 8 6 9 7 90 8 82 9 7 10 6 11 3 12
REMARK SMILES IDX 4 13 97 14 5 15 91 16 96 17 92 20 95 21 93 22 94 23 2 24
REMARK SMILES IDX 1 25 83 26 84 27 85 28 86 29 87 30 88 31 89 32 15 33 16 34
REMARK SMILES IDX 17 35 18 36 19 37 20 38 81 39 21 40 80 41 22 42 23 43 24 44
REMARK SMILES IDX 74 45 25 46 79 47 73 48 75 49 26 50 78 51 72 52 71 53 27 55
REMARK SMILES IDX 59 56 39 57 58 58 40 59 43 60 57 61 76 62 41 63 42 64 56 66
REMARK SMILES IDX 77 67 44 68 28 69 29 70 37 71 30 72 31 73 35 74 38 75 32 76
REMARK SMILES IDX 33 77 36 78 34 79 60 80 61 81 69 82 62 83 63 84 67 85 70 86
REMARK SMILES IDX 64 87 65 88 68 89 66 90 45 91 46 92 54 93 47 94 48 95 52 96
REMARK SMILES IDX 55 97 49 98 50 99 53 100 51 101
REMARK H PARENT 5 18 5 19 75 54 43 65
REMARK Flexibility Score: inf
ROOT
ATOM      1  C   UNL A   1      36.911  22.571  24.278  1.00  0.00     0.274 C 
ENDROOT
BRANCH   1   2
ATOM      2  O   UNL A   1      35.482  22.360  24.319  1.00  0.00    -0.461 OA
BRANCH   2   3
ATOM      3  C   UNL A   1      34.660  23.314  23.761  1.00  0.00     0.329 C 
ATOM      4  O   UNL A   1      34.933  23.991  22.782  1.00  0.00    -0.250 OA
BRANCH   3   5
ATOM      5  C   UNL A   1      33.320  23.325  24.533  1.00  0.00     0.201 C 
ATOM      6  C   UNL A   1      32.158  23.874  26.603  1.00  0.00     0.147 C 
ATOM      7  C   UNL A   1      33.383  24.247  25.760  1.00  0.00     0.071 C 
ATOM      8  C   UNL A   1      31.986  22.377  26.306  1.00  0.00     0.156 C 
ATOM      9  N   UNL A   1      32.644  22.132  25.025  1.00  0.00    -0.292 N 
BRANCH   6  10
ATOM     10  O   UNL A   1      30.948  24.627  26.651  1.00  0.00    -0.320 OA
BRANCH  10  11
ATOM     11  C   UNL A   1      30.552  25.818  25.983  1.00  0.00     0.354 C 
ATOM     12  C   UNL A   1      31.432  26.060  23.182  1.00  0.00     0.203 C 
ATOM     13  C   UNL A   1      30.243  25.184  23.648  1.00  0.00     0.300 C 
ATOM     14  C   UNL A   1      32.112  26.832  24.314  1.00  0.00    -0.002 A 
ATOM     15  N   UNL A   1      29.612  25.576  24.902  1.00  0.00    -0.315 N 
ATOM     16  C   UNL A   1      31.629  26.799  25.625  1.00  0.00     0.046 A 
ATOM     17  C   UNL A   1      33.350  27.446  24.114  1.00  0.00     0.009 A 
ATOM     18  H   UNL A   1      28.977  24.830  25.189  1.00  0.00     0.349 HD
ATOM     19  H   UNL A   1      29.127  26.456  24.727  1.00  0.00     0.349 HD
ATOM     20  C   UNL A   1      32.246  27.571  26.634  1.00  0.00     0.033 A 
ATOM     21  C   UNL A   1      34.020  28.142  25.124  1.00  0.00     0.021 A 
ATOM     22  C   UNL A   1      33.438  28.240  26.376  1.00  0.00     0.041 A 
ATOM     23  Cl  UNL A   1      34.228  29.119  27.623  1.00  0.00    -0.084 Cl
BRANCH  12  24
ATOM     24  O   UNL A   1      31.030  26.968  22.149  1.00  0.00    -0.371 OA
ATOM     25  C   UNL A   1      30.196  28.016  22.644  1.00  0.00     0.196 C 
ENDBRANCH  12  24
ENDBRANCH  10  11
ENDBRANCH   6  10
BRANCH   9  26
ATOM     26  C   UNL A   1      32.206  21.092  24.238  1.00  0.00     0.411 C 
ATOM     27  O   UNL A   1      32.003  21.212  23.035  1.00  0.00    -0.224 OA
BRANCH  26  28
ATOM     28  O   UNL A   1      32.082  19.929  24.929  1.00  0.00    -0.444 OA
BRANCH  28  29
ATOM     29  C   UNL A   1      32.896  18.775  24.571  1.00  0.00     0.106 C 
ATOM     30  C   UNL A   1      32.503  18.241  23.190  1.00  0.00     0.056 C 
ATOM     31  C   UNL A   1      34.400  19.068  24.646  1.00  0.00     0.056 C 
ATOM     32  C   UNL A   1      32.561  17.707  25.625  1.00  0.00     0.056 C 
ENDBRANCH  28  29
ENDBRANCH  26  28
ENDBRANCH   9  26
ENDBRANCH   3   5
ENDBRANCH   2   3
ENDBRANCH   1   2
BRANCH   1  33
ATOM     33  C   UNL A   1      37.658  21.311  24.781  1.00  0.00     0.275 C 
BRANCH  33  34
ATOM     34  O   UNL A   1      38.111  21.450  26.157  1.00  0.00    -0.458 OA
BRANCH  34  35
ATOM     35  C   UNL A   1      39.422  21.136  26.389  1.00  0.00     0.338 C 
ATOM     36  O   UNL A   1      39.977  20.095  26.077  1.00  0.00    -0.246 OA
BRANCH  35  37
ATOM     37  C   UNL A   1      40.178  22.349  26.808  1.00  0.00     0.060 A 
ATOM     38  C   UNL A   1      41.044  22.425  27.896  1.00  0.00     0.016 A 
ATOM     39  C   UNL A   1      39.924  23.504  26.071  1.00  0.00     0.016 A 
ATOM     40  C   UNL A   1      41.605  23.673  28.257  1.00  0.00     0.010 A 
ATOM     41  C   UNL A   1      40.375  24.754  26.493  1.00  0.00     0.010 A 
ATOM     42  C   UNL A   1      41.247  24.854  27.579  1.00  0.00    -0.014 A 
BRANCH  42  43
ATOM     43  C   UNL A   1      41.855  26.181  27.873  1.00  0.00     0.031 A 
ATOM     44  C   UNL A   1      43.253  26.541  27.465  1.00  0.00     0.074 A 
ATOM     45  C   UNL A   1      41.178  27.035  28.663  1.00  0.00     0.049 A 
ATOM     46  N   UNL A   1      43.852  27.708  27.474  1.00  0.00    -0.248 NA
ATOM     47  C   UNL A   1      44.110  25.437  27.030  1.00  0.00     0.031 C 
ATOM     48  C   UNL A   1      39.886  26.751  29.290  1.00  0.00     0.029 A 
ATOM     49  N   UNL A   1      41.494  28.295  29.103  1.00  0.00    -0.354 N 
ATOM     50  C   UNL A   1      45.135  27.484  26.987  1.00  0.00     0.074 A 
ATOM     51  C   UNL A   1      45.256  26.057  26.771  1.00  0.00     0.031 C 
ATOM     52  C   UNL A   1      39.525  27.800  30.044  1.00  0.00     0.029 A 
ATOM     53  C   UNL A   1      40.525  28.851  29.898  1.00  0.00     0.049 A 
ATOM     54  H   UNL A   1      42.334  28.754  28.872  1.00  0.00     0.167 HD
ATOM     55  C   UNL A   1      46.100  28.399  26.716  1.00  0.00     0.037 A 
ATOM     56  C   UNL A   1      40.417  30.095  30.400  1.00  0.00     0.037 A 
ATOM     57  C   UNL A   1      45.972  29.807  27.007  1.00  0.00     0.049 A 
ATOM     58  C   UNL A   1      41.444  31.124  30.025  1.00  0.00     0.074 A 
ATOM     59  C   UNL A   1      46.824  30.847  26.674  1.00  0.00     0.029 A 
ATOM     60  N   UNL A   1      44.933  30.364  27.738  1.00  0.00    -0.354 N 
ATOM     61  N   UNL A   1      42.544  30.975  29.328  1.00  0.00    -0.248 NA
ATOM     62  C   UNL A   1      41.186  32.502  30.458  1.00  0.00     0.031 C 
ATOM     63  C   UNL A   1      46.322  32.024  27.245  1.00  0.00     0.029 A 
ATOM     64  C   UNL A   1      45.132  31.726  27.890  1.00  0.00     0.049 A 
ATOM     65  H   UNL A   1      44.164  29.863  28.096  1.00  0.00     0.167 HD
ATOM     66  C   UNL A   1      43.096  32.242  29.214  1.00  0.00     0.074 A 
ATOM     67  C   UNL A   1      42.201  33.151  29.901  1.00  0.00     0.031 C 
ATOM     68  C   UNL A   1      44.240  32.617  28.590  1.00  0.00     0.037 A 
BRANCH  55  69
ATOM     69  C   UNL A   1      47.350  27.934  26.017  1.00  0.00     0.064 A 
ATOM     70  C   UNL A   1      47.362  27.741  24.625  1.00  0.00     0.173 A 
ATOM     71  C   UNL A   1      48.569  27.799  26.700  1.00  0.00     0.173 A 
ATOM     72  F   UNL A   1      46.231  27.872  23.916  1.00  0.00    -0.203 F 
ATOM     73  C   UNL A   1      48.536  27.416  23.950  1.00  0.00     0.198 A 
ATOM     74  C   UNL A   1      49.748  27.498  26.017  1.00  0.00     0.198 A 
ATOM     75  F   UNL A   1      48.628  27.989  28.027  1.00  0.00    -0.203 F 
ATOM     76  F   UNL A   1      48.513  27.221  22.624  1.00  0.00    -0.200 F 
ATOM     77  C   UNL A   1      49.730  27.305  24.644  1.00  0.00     0.200 A 
ATOM     78  F   UNL A   1      50.906  27.413  26.686  1.00  0.00    -0.200 F 
ATOM     79  F   UNL A   1      50.864  27.017  23.990  1.00  0.00    -0.200 F 
ENDBRANCH  55  69
BRANCH  56  80
ATOM     80  C   UNL A   1      39.187  30.451  31.145  1.00  0.00     0.064 A 
ATOM     81  C   UNL A   1      39.169  30.382  32.545  1.00  0.00     0.173 A 
ATOM     82  C   UNL A   1      38.054  30.963  30.498  1.00  0.00     0.173 A 
ATOM     83  F   UNL A   1      40.233  29.899  33.204  1.00  0.00    -0.203 F 
ATOM     84  C   UNL A   1      38.063  30.812  33.271  1.00  0.00     0.198 A 
ATOM     85  C   UNL A   1      36.954  31.409  31.227  1.00  0.00     0.198 A 
ATOM     86  F   UNL A   1      38.035  31.069  29.161  1.00  0.00    -0.203 F 
ATOM     87  F   UNL A   1      38.068  30.728  34.609  1.00  0.00    -0.200 F 
ATOM     88  C   UNL A   1      36.959  31.333  32.613  1.00  0.00     0.200 A 
ATOM     89  F   UNL A   1      35.897  31.932  30.590  1.00  0.00    -0.200 F 
ATOM     90  F   UNL A   1      35.903  31.768  33.313  1.00  0.00    -0.200 F 
ENDBRANCH  56  80
BRANCH  68  91
ATOM     91  C   UNL A   1      44.598  34.073  28.623  1.00  0.00     0.064 A 
ATOM     92  C   UNL A   1      44.096  34.970  27.669  1.00  0.00     0.173 A 
ATOM     93  C   UNL A   1      45.401  34.587  29.653  1.00  0.00     0.173 A 
ATOM     94  F   UNL A   1      43.335  34.523  26.659  1.00  0.00    -0.203 F 
ATOM     95  C   UNL A   1      44.400  36.326  27.735  1.00  0.00     0.198 A 
ATOM     96  C   UNL A   1      45.679  35.949  29.730  1.00  0.00     0.198 A 
ATOM     97  F   UNL A   1      45.900  33.771  30.593  1.00  0.00    -0.203 F 
ATOM     98  F   UNL A   1      43.939  37.160  26.791  1.00  0.00    -0.200 F 
ATOM     99  C   UNL A   1      45.183  36.816  28.769  1.00  0.00     0.200 A 
ATOM    100  F   UNL A   1      46.426  36.423  30.738  1.00  0.00    -0.200 F 
ATOM    101  F   UNL A   1      45.463  38.125  28.837  1.00  0.00    -0.200 F 
ENDBRANCH  68  91
ENDBRANCH  42  43
ENDBRANCH  35  37
ENDBRANCH  34  35
ENDBRANCH  33  34
ENDBRANCH   1  33
TORSDOF 17
ENDMDL
MODEL 3
REMARK VINA RESULT:     -12.5      1.110      1.791
REMARK SMILES CO[C@@H]1C[NH2+][C@@H](O[C@@H]2C[C@@H](C(=O)OCCOC(=O)c3ccc(-c4c5nc(c(-c6c(F)c(F)c(F)c(F)c6F)c6ccc([nH]6)c(-c6c(F)c(F)c(F)c(F)c6F)c6nc(c(-c7c(F)c(F)c(F)c(F)c7F)c7ccc4[nH]7)C=C6)C=C5)cc3)N(C(=O)OC(C)(C)C)C2)c2cc(Cl)ccc21
REMARK SMILES IDX 14 1 13 2 11 3 12 4 10 5 8 6 9 7 90 8 82 9 7 10 6 11 3 12
REMARK SMILES IDX 4 13 97 14 5 15 91 16 96 17 92 20 95 21 93 22 94 23 2 24
REMARK SMILES IDX 1 25 83 26 84 27 85 28 86 29 87 30 88 31 89 32 15 33 16 34
REMARK SMILES IDX 17 35 18 36 19 37 20 38 81 39 21 40 80 41 22 42 23 43 24 44
REMARK SMILES IDX 74 45 25 46 79 47 73 48 75 49 26 50 78 51 72 52 71 53 27 55
REMARK SMILES IDX 59 56 39 57 58 58 40 59 43 60 57 61 76 62 41 63 42 64 56 66
REMARK SMILES IDX 77 67 44 68 28 69 29 70 37 71 30 72 31 73 35 74 38 75 32 76
REMARK SMILES IDX 33 77 36 78 34 79 60 80 61 81 69 82 62 83 63 84 67 85 70 86
REMARK SMILES IDX 64 87 65 88 68 89 66 90 45 91 46 92 54 93 47 94 48 95 52 96
REMARK SMILES IDX 55 97 49 98 50 99 53 100 51 101
REMARK H PARENT 5 18 5 19 75 54 43 65
REMARK Flexibility Score: inf
ROOT
ATOM      1  C   UNL A   1      31.828  29.263  27.191  1.00  0.00     0.274 C 
ENDROOT
BRANCH   1   2
ATOM      2  O   UNL A   1      32.280  28.321  26.193  1.00  0.00    -0.461 OA
BRANCH   2   3
ATOM      3  C   UNL A   1      31.597  27.132  26.053  1.00  0.00     0.329 C 
ATOM      4  O   UNL A   1      30.875  26.633  26.902  1.00  0.00    -0.250 OA
BRANCH   3   5
ATOM      5  C   UNL A   1      31.839  26.587  24.627  1.00  0.00     0.201 C 
ATOM      6  C   UNL A   1      33.411  26.308  22.786  1.00  0.00     0.147 C 
ATOM      7  C   UNL A   1      33.338  26.496  24.305  1.00  0.00     0.071 C 
ATOM      8  C   UNL A   1      32.180  27.083  22.290  1.00  0.00     0.156 C 
ATOM      9  N   UNL A   1      31.255  27.153  23.419  1.00  0.00    -0.292 N 
BRANCH   6  10
ATOM     10  O   UNL A   1      33.646  25.061  22.134  1.00  0.00    -0.320 OA
BRANCH  10  11
ATOM     11  C   UNL A   1      33.555  23.721  22.601  1.00  0.00     0.354 C 
ATOM     12  C   UNL A   1      31.766  23.294  24.902  1.00  0.00     0.203 C 
ATOM     13  C   UNL A   1      31.279  23.478  23.444  1.00  0.00     0.300 C 
ATOM     14  C   UNL A   1      33.288  23.322  25.054  1.00  0.00    -0.002 A 
ATOM     15  N   UNL A   1      32.239  23.140  22.401  1.00  0.00    -0.315 N 
ATOM     16  C   UNL A   1      34.139  23.420  23.950  1.00  0.00     0.046 A 
ATOM     17  C   UNL A   1      33.876  23.443  26.315  1.00  0.00     0.009 A 
ATOM     18  H   UNL A   1      31.874  23.471  21.507  1.00  0.00     0.349 HD
ATOM     19  H   UNL A   1      32.356  22.126  22.423  1.00  0.00     0.349 HD
ATOM     20  C   UNL A   1      35.540  23.383  24.122  1.00  0.00     0.033 A 
ATOM     21  C   UNL A   1      35.260  23.497  26.501  1.00  0.00     0.021 A 
ATOM     22  C   UNL A   1      36.093  23.420  25.398  1.00  0.00     0.041 A 
ATOM     23  Cl  UNL A   1      37.798  23.451  25.606  1.00  0.00    -0.084 Cl
BRANCH  12  24
ATOM     24  O   UNL A   1      31.245  22.087  25.472  1.00  0.00    -0.371 OA
ATOM     25  C   UNL A   1      30.271  22.344  26.486  1.00  0.00     0.196 C 
ENDBRANCH  12  24
ENDBRANCH  10  11
ENDBRANCH   6  10
BRANCH   9  26
ATOM     26  C   UNL A   1      29.906  27.260  23.170  1.00  0.00     0.411 C 
ATOM     27  O   UNL A   1      29.070  26.576  23.748  1.00  0.00    -0.224 OA
BRANCH  26  28
ATOM     28  O   UNL A   1      29.616  28.234  22.269  1.00  0.00    -0.444 OA
BRANCH  28  29
ATOM     29  C   UNL A   1      29.094  29.517  22.720  1.00  0.00     0.106 C 
ATOM     30  C   UNL A   1      27.609  29.402  23.080  1.00  0.00     0.056 C 
ATOM     31  C   UNL A   1      29.903  30.108  23.882  1.00  0.00     0.056 C 
ATOM     32  C   UNL A   1      29.236  30.455  21.509  1.00  0.00     0.056 C 
ENDBRANCH  28  29
ENDBRANCH  26  28
ENDBRANCH   9  26
ENDBRANCH   3   5
ENDBRANCH   2   3
ENDBRANCH   1   2
BRANCH   1  33
ATOM     33  C   UNL A   1      32.337  30.687  26.859  1.00  0.00     0.275 C 
BRANCH  33  34
ATOM     34  O   UNL A   1      33.788  30.746  26.755  1.00  0.00    -0.458 OA
BRANCH  34  35
ATOM     35  C   UNL A   1      34.417  31.571  27.646  1.00  0.00     0.338 C 
ATOM     36  O   UNL A   1      33.979  32.622  28.085  1.00  0.00    -0.246 OA
BRANCH  35  37
ATOM     37  C   UNL A   1      35.588  30.878  28.253  1.00  0.00     0.060 A 
ATOM     38  C   UNL A   1      35.524  29.763  29.086  1.00  0.00     0.016 A 
ATOM     39  C   UNL A   1      36.830  31.458  28.002  1.00  0.00     0.016 A 
ATOM     40  C   UNL A   1      36.705  29.277  29.694  1.00  0.00     0.010 A 
ATOM     41  C   UNL A   1      37.974  31.060  28.692  1.00  0.00     0.010 A 
ATOM     42  C   UNL A   1      37.935  29.943  29.529  1.00  0.00    -0.014 A 
BRANCH  42  43
ATOM     43  C   UNL A   1      39.219  29.439  30.090  1.00  0.00     0.031 A 
ATOM     44  C   UNL A   1      39.847  30.016  31.325  1.00  0.00     0.074 A 
ATOM     45  C   UNL A   1      39.917  28.534  29.379  1.00  0.00     0.049 A 
ATOM     46  N   UNL A   1      40.848  29.565  32.041  1.00  0.00    -0.248 NA
ATOM     47  C   UNL A   1      39.307  31.293  31.795  1.00  0.00     0.031 C 
ATOM     48  C   UNL A   1      39.526  28.018  28.066  1.00  0.00     0.029 A 
ATOM     49  N   UNL A   1      41.114  27.917  29.638  1.00  0.00    -0.354 N 
ATOM     50  C   UNL A   1      41.014  30.472  33.082  1.00  0.00     0.074 A 
ATOM     51  C   UNL A   1      40.067  31.544  32.856  1.00  0.00     0.031 C 
ATOM     52  C   UNL A   1      40.470  27.171  27.629  1.00  0.00     0.029 A 
ATOM     53  C   UNL A   1      41.495  27.037  28.659  1.00  0.00     0.049 A 
ATOM     54  H   UNL A   1      41.647  28.089  30.448  1.00  0.00     0.167 HD
ATOM     55  C   UNL A   1      41.860  30.389  34.140  1.00  0.00     0.037 A 
ATOM     56  C   UNL A   1      42.519  26.165  28.620  1.00  0.00     0.037 A 
ATOM     57  C   UNL A   1      42.840  29.342  34.300  1.00  0.00     0.049 A 
ATOM     58  C   UNL A   1      43.397  26.017  29.829  1.00  0.00     0.074 A 
ATOM     59  C   UNL A   1      43.669  29.080  35.378  1.00  0.00     0.029 A 
ATOM     60  N   UNL A   1      43.147  28.402  33.327  1.00  0.00    -0.354 N 
ATOM     61  N   UNL A   1      43.389  26.708  30.943  1.00  0.00    -0.248 NA
ATOM     62  C   UNL A   1      44.388  24.935  29.797  1.00  0.00     0.031 C 
ATOM     63  C   UNL A   1      44.508  28.011  35.037  1.00  0.00     0.029 A 
ATOM     64  C   UNL A   1      44.168  27.575  33.766  1.00  0.00     0.049 A 
ATOM     65  H   UNL A   1      42.703  28.332  32.450  1.00  0.00     0.167 HD
ATOM     66  C   UNL A   1      44.351  26.129  31.757  1.00  0.00     0.074 A 
ATOM     67  C   UNL A   1      44.913  25.020  31.013  1.00  0.00     0.031 C 
ATOM     68  C   UNL A   1      44.729  26.484  33.010  1.00  0.00     0.037 A 
BRANCH  55  69
ATOM     69  C   UNL A   1      41.729  31.407  35.242  1.00  0.00     0.064 A 
ATOM     70  C   UNL A   1      42.624  32.487  35.329  1.00  0.00     0.173 A 
ATOM     71  C   UNL A   1      40.649  31.385  36.138  1.00  0.00     0.173 A 
ATOM     72  F   UNL A   1      43.666  32.569  34.489  1.00  0.00    -0.203 F 
ATOM     73  C   UNL A   1      42.451  33.494  36.277  1.00  0.00     0.198 A 
ATOM     74  C   UNL A   1      40.465  32.408  37.069  1.00  0.00     0.198 A 
ATOM     75  F   UNL A   1      39.749  30.391  36.093  1.00  0.00    -0.203 F 
ATOM     76  F   UNL A   1      43.330  34.502  36.347  1.00  0.00    -0.200 F 
ATOM     77  C   UNL A   1      41.367  33.459  37.139  1.00  0.00     0.200 A 
ATOM     78  F   UNL A   1      39.404  32.386  37.887  1.00  0.00    -0.200 F 
ATOM     79  F   UNL A   1      41.188  34.442  38.033  1.00  0.00    -0.200 F 
ENDBRANCH  55  69
BRANCH  56  80
ATOM     80  C   UNL A   1      42.621  25.248  27.460  1.00  0.00     0.064 A 
ATOM     81  C   UNL A   1      43.561  25.495  26.451  1.00  0.00     0.173 A 
ATOM     82  C   UNL A   1      41.873  24.065  27.387  1.00  0.00     0.173 A 
ATOM     83  F   UNL A   1      44.299  26.615  26.483  1.00  0.00    -0.203 F 
ATOM     84  C   UNL A   1      43.749  24.593  25.408  1.00  0.00     0.198 A 
ATOM     85  C   UNL A   1      42.074  23.155  26.352  1.00  0.00     0.198 A 
ATOM     86  F   UNL A   1      40.978  23.775  28.343  1.00  0.00    -0.203 F 
ATOM     87  F   UNL A   1      44.649  24.858  24.451  1.00  0.00    -0.200 F 
ATOM     88  C   UNL A   1      43.012  23.419  25.363  1.00  0.00     0.200 A 
ATOM     89  F   UNL A   1      41.377  22.011  26.321  1.00  0.00    -0.200 F 
ATOM     90  F   UNL A   1      43.210  22.540  24.372  1.00  0.00    -0.200 F 
ENDBRANCH  56  80
BRANCH  68  91
ATOM     91  C   UNL A   1      45.807  25.669  33.660  1.00  0.00     0.064 A 
ATOM     92  C   UNL A   1      45.504  24.528  34.417  1.00  0.00     0.173 A 
ATOM     93  C   UNL A   1      47.159  25.997  33.475  1.00  0.00     0.173 A 
ATOM     94  F   UNL A   1      44.226  24.182  34.632  1.00  0.00    -0.203 F 
ATOM     95  C   UNL A   1      46.514  23.755  34.980  1.00  0.00     0.198 A 
ATOM     96  C   UNL A   1      48.167  25.205  34.018  1.00  0.00     0.198 A 
ATOM     97  F   UNL A   1      47.501  27.075  32.755  1.00  0.00    -0.203 F 
ATOM     98  F   UNL A   1      46.200  22.689  35.731  1.00  0.00    -0.200 F 
ATOM     99  C   UNL A   1      47.845  24.088  34.774  1.00  0.00     0.200 A 
ATOM    100  F   UNL A   1      49.453  25.521  33.807  1.00  0.00    -0.200 F 
ATOM    101  F   UNL A   1      48.816  23.335  35.306  1.00  0.00    -0.200 F 
ENDBRANCH  68  91
ENDBRANCH  42  43
ENDBRANCH  35  37
ENDBRANCH  34  35
ENDBRANCH  33  34
ENDBRANCH   1  33
TORSDOF 17
ENDMDL
