MODEL 1
REMARK VINA RESULT:     -12.0      0.000      0.000
REMARK SMILES CC(C)c1ccc(C(=O)N2CCC[C@@H](C(=O)OCCOC(=O)c3ccc(-c4c5nc(c(-c6c(F)c(F)c(F)c(F)c6F)c6ccc([nH]6)c(-c6c(F)c(F)c(F)c(F)c6F)c6nc(c(-c7c(F)c(F)c(F)c(F)c7F)c7ccc4[nH]7)C=C6)C=C5)cc3)C2)cc1
REMARK SMILES IDX 18 1 17 2 15 3 16 4 14 5 10 6 11 7 86 8 12 9 13 10 8 11 9 12
REMARK SMILES IDX 7 13 4 14 5 15 88 16 6 17 87 18 2 19 1 20 3 21 19 22 20 23
REMARK SMILES IDX 21 24 22 25 23 26 24 27 85 28 25 29 84 30 26 31 27 32 28 33
REMARK SMILES IDX 78 34 29 35 83 36 77 37 79 38 30 39 82 40 76 41 75 42 31 44
REMARK SMILES IDX 63 45 43 46 62 47 44 48 47 49 61 50 80 51 45 52 46 53 60 55
REMARK SMILES IDX 81 56 48 57 32 58 33 59 41 60 34 61 35 62 39 63 42 64 36 65
REMARK SMILES IDX 37 66 40 67 38 68 64 69 65 70 73 71 66 72 67 73 71 74 74 75
REMARK SMILES IDX 68 76 69 77 72 78 70 79 49 80 50 81 58 82 51 83 52 84 56 85
REMARK SMILES IDX 59 86 53 87 54 88 57 89 55 90
REMARK H PARENT 79 43 47 54
REMARK Flexibility Score: inf
ROOT
ATOM      1  C   UNL A   1      32.312  29.028  24.764  1.00  0.00     0.274 C 
ENDROOT
BRANCH   1   2
ATOM      2  O   UNL A   1      31.669  28.892  23.480  1.00  0.00    -0.462 OA
BRANCH   2   3
ATOM      3  C   UNL A   1      30.686  27.957  23.411  1.00  0.00     0.310 C 
ATOM      4  O   UNL A   1      29.514  28.193  23.139  1.00  0.00    -0.252 OA
BRANCH   3   5
ATOM      5  C   UNL A   1      31.184  26.562  23.699  1.00  0.00     0.119 C 
ATOM      6  N   UNL A   1      30.808  24.460  24.908  1.00  0.00    -0.338 N 
ATOM      7  C   UNL A   1      31.180  23.651  23.756  1.00  0.00     0.120 C 
ATOM      8  C   UNL A   1      30.246  25.779  24.620  1.00  0.00     0.135 C 
ATOM      9  C   UNL A   1      32.059  24.412  22.766  1.00  0.00     0.022 C 
ATOM     10  C   UNL A   1      31.450  25.770  22.415  1.00  0.00     0.019 C 
BRANCH   6  11
ATOM     11  C   UNL A   1      31.431  24.204  26.126  1.00  0.00     0.253 C 
ATOM     12  O   UNL A   1      30.832  24.295  27.193  1.00  0.00    -0.269 OA
BRANCH  11  13
ATOM     13  C   UNL A   1      32.918  24.007  26.104  1.00  0.00     0.040 A 
ATOM     14  C   UNL A   1      35.675  23.655  25.585  1.00  0.00    -0.045 A 
ATOM     15  C   UNL A   1      35.093  24.927  25.517  1.00  0.00     0.005 A 
ATOM     16  C   UNL A   1      34.877  22.576  25.992  1.00  0.00     0.005 A 
ATOM     17  C   UNL A   1      33.728  25.102  25.775  1.00  0.00     0.014 A 
ATOM     18  C   UNL A   1      33.511  22.747  26.240  1.00  0.00     0.014 A 
BRANCH  14  19
ATOM     19  C   UNL A   1      37.120  23.456  25.159  1.00  0.00     0.013 C 
ATOM     20  C   UNL A   1      38.095  23.957  26.220  1.00  0.00     0.012 C 
ATOM     21  C   UNL A   1      37.409  21.991  24.820  1.00  0.00     0.012 C 
ENDBRANCH  14  19
ENDBRANCH  11  13
ENDBRANCH   6  11
ENDBRANCH   3   5
ENDBRANCH   2   3
ENDBRANCH   1   2
BRANCH   1  22
ATOM     22  C   UNL A   1      31.734  30.195  25.562  1.00  0.00     0.275 C 
BRANCH  22  23
ATOM     23  O   UNL A   1      32.309  30.259  26.880  1.00  0.00    -0.458 OA
BRANCH  23  24
ATOM     24  C   UNL A   1      33.001  31.389  27.149  1.00  0.00     0.338 C 
ATOM     25  O   UNL A   1      32.608  32.541  27.079  1.00  0.00    -0.246 OA
BRANCH  24  26
ATOM     26  C   UNL A   1      34.344  31.052  27.639  1.00  0.00     0.060 A 
ATOM     27  C   UNL A   1      34.622  29.727  27.964  1.00  0.00     0.016 A 
ATOM     28  C   UNL A   1      35.254  32.063  27.945  1.00  0.00     0.016 A 
ATOM     29  C   UNL A   1      35.767  29.415  28.689  1.00  0.00     0.010 A 
ATOM     30  C   UNL A   1      36.450  31.734  28.591  1.00  0.00     0.010 A 
ATOM     31  C   UNL A   1      36.698  30.413  29.009  1.00  0.00    -0.014 A 
BRANCH  31  32
ATOM     32  C   UNL A   1      37.912  30.060  29.792  1.00  0.00     0.031 A 
ATOM     33  C   UNL A   1      38.929  29.094  29.246  1.00  0.00     0.074 A 
ATOM     34  C   UNL A   1      38.118  30.626  30.997  1.00  0.00     0.049 A 
ATOM     35  N   UNL A   1      40.021  28.640  29.810  1.00  0.00    -0.248 NA
ATOM     36  C   UNL A   1      38.677  28.547  27.904  1.00  0.00     0.031 C 
ATOM     37  C   UNL A   1      37.216  31.576  31.649  1.00  0.00     0.029 A 
ATOM     38  N   UNL A   1      39.151  30.482  31.889  1.00  0.00    -0.354 N 
ATOM     39  C   UNL A   1      40.583  27.764  28.893  1.00  0.00     0.074 A 
ATOM     40  C   UNL A   1      39.673  27.682  27.775  1.00  0.00     0.031 C 
ATOM     41  C   UNL A   1      37.741  31.941  32.828  1.00  0.00     0.029 A 
ATOM     42  C   UNL A   1      38.987  31.210  33.040  1.00  0.00     0.049 A 
ATOM     43  H   UNL A   1      39.935  29.911  31.718  1.00  0.00     0.167 HD
ATOM     44  C   UNL A   1      41.769  27.115  28.953  1.00  0.00     0.037 A 
ATOM     45  C   UNL A   1      39.734  31.262  34.157  1.00  0.00     0.037 A 
ATOM     46  C   UNL A   1      42.687  27.187  30.054  1.00  0.00     0.049 A 
ATOM     47  C   UNL A   1      40.989  30.443  34.250  1.00  0.00     0.074 A 
ATOM     48  C   UNL A   1      43.930  26.590  30.184  1.00  0.00     0.029 A 
ATOM     49  N   UNL A   1      42.455  27.892  31.222  1.00  0.00    -0.354 N 
ATOM     50  N   UNL A   1      41.534  29.662  33.350  1.00  0.00    -0.248 NA
ATOM     51  C   UNL A   1      41.727  30.501  35.520  1.00  0.00     0.031 C 
ATOM     52  C   UNL A   1      44.436  26.908  31.449  1.00  0.00     0.029 A 
ATOM     53  C   UNL A   1      43.517  27.718  32.096  1.00  0.00     0.049 A 
ATOM     54  H   UNL A   1      41.656  28.437  31.406  1.00  0.00     0.167 HD
ATOM     55  C   UNL A   1      42.680  29.146  33.937  1.00  0.00     0.074 A 
ATOM     56  C   UNL A   1      42.761  29.710  35.268  1.00  0.00     0.031 C 
ATOM     57  C   UNL A   1      43.583  28.281  33.417  1.00  0.00     0.037 A 
BRANCH  44  58
ATOM     58  C   UNL A   1      42.165  26.286  27.772  1.00  0.00     0.064 A 
ATOM     59  C   UNL A   1      43.068  26.777  26.819  1.00  0.00     0.173 A 
ATOM     60  C   UNL A   1      41.689  24.976  27.622  1.00  0.00     0.173 A 
ATOM     61  F   UNL A   1      43.538  28.030  26.917  1.00  0.00    -0.203 F 
ATOM     62  C   UNL A   1      43.476  25.986  25.749  1.00  0.00     0.198 A 
ATOM     63  C   UNL A   1      42.105  24.185  26.555  1.00  0.00     0.198 A 
ATOM     64  F   UNL A   1      40.823  24.466  28.511  1.00  0.00    -0.203 F 
ATOM     65  F   UNL A   1      44.321  26.483  24.836  1.00  0.00    -0.200 F 
ATOM     66  C   UNL A   1      42.998  24.691  25.620  1.00  0.00     0.200 A 
ATOM     67  F   UNL A   1      41.644  22.934  26.429  1.00  0.00    -0.200 F 
ATOM     68  F   UNL A   1      43.391  23.931  24.588  1.00  0.00    -0.200 F 
ENDBRANCH  44  58
BRANCH  45  69
ATOM     69  C   UNL A   1      39.283  32.098  35.297  1.00  0.00     0.064 A 
ATOM     70  C   UNL A   1      38.512  31.557  36.332  1.00  0.00     0.173 A 
ATOM     71  C   UNL A   1      39.632  33.454  35.375  1.00  0.00     0.173 A 
ATOM     72  F   UNL A   1      38.135  30.272  36.285  1.00  0.00    -0.203 F 
ATOM     73  C   UNL A   1      38.102  32.345  37.405  1.00  0.00     0.198 A 
ATOM     74  C   UNL A   1      39.242  34.235  36.459  1.00  0.00     0.198 A 
ATOM     75  F   UNL A   1      40.368  34.016  34.404  1.00  0.00    -0.203 F 
ATOM     76  F   UNL A   1      37.338  31.814  38.370  1.00  0.00    -0.200 F 
ATOM     77  C   UNL A   1      38.474  33.680  37.473  1.00  0.00     0.200 A 
ATOM     78  F   UNL A   1      39.611  35.520  36.524  1.00  0.00    -0.200 F 
ATOM     79  F   UNL A   1      38.084  34.436  38.509  1.00  0.00    -0.200 F 
ENDBRANCH  45  69
BRANCH  57  80
ATOM     80  C   UNL A   1      44.738  27.891  34.285  1.00  0.00     0.064 A 
ATOM     81  C   UNL A   1      44.684  26.746  35.091  1.00  0.00     0.173 A 
ATOM     82  C   UNL A   1      45.923  28.640  34.275  1.00  0.00     0.173 A 
ATOM     83  F   UNL A   1      43.564  26.009  35.142  1.00  0.00    -0.203 F 
ATOM     84  C   UNL A   1      45.774  26.371  35.871  1.00  0.00     0.198 A 
ATOM     85  C   UNL A   1      47.018  28.251  35.041  1.00  0.00     0.198 A 
ATOM     86  F   UNL A   1      46.022  29.740  33.514  1.00  0.00    -0.203 F 
ATOM     87  F   UNL A   1      45.692  25.291  36.659  1.00  0.00    -0.200 F 
ATOM     88  C   UNL A   1      46.942  27.119  35.841  1.00  0.00     0.200 A 
ATOM     89  F   UNL A   1      48.149  28.970  35.005  1.00  0.00    -0.200 F 
ATOM     90  F   UNL A   1      47.992  26.754  36.587  1.00  0.00    -0.200 F 
ENDBRANCH  57  80
ENDBRANCH  31  32
ENDBRANCH  24  26
ENDBRANCH  23  24
ENDBRANCH  22  23
ENDBRANCH   1  22
TORSDOF 14
ENDMDL
MODEL 2
REMARK VINA RESULT:     -11.9      0.266      7.414
REMARK SMILES CC(C)c1ccc(C(=O)N2CCC[C@@H](C(=O)OCCOC(=O)c3ccc(-c4c5nc(c(-c6c(F)c(F)c(F)c(F)c6F)c6ccc([nH]6)c(-c6c(F)c(F)c(F)c(F)c6F)c6nc(c(-c7c(F)c(F)c(F)c(F)c7F)c7ccc4[nH]7)C=C6)C=C5)cc3)C2)cc1
REMARK SMILES IDX 18 1 17 2 15 3 16 4 14 5 10 6 11 7 86 8 12 9 13 10 8 11 9 12
REMARK SMILES IDX 7 13 4 14 5 15 88 16 6 17 87 18 2 19 1 20 3 21 19 22 20 23
REMARK SMILES IDX 21 24 22 25 23 26 24 27 85 28 25 29 84 30 26 31 27 32 28 33
REMARK SMILES IDX 78 34 29 35 83 36 77 37 79 38 30 39 82 40 76 41 75 42 31 44
REMARK SMILES IDX 63 45 43 46 62 47 44 48 47 49 61 50 80 51 45 52 46 53 60 55
REMARK SMILES IDX 81 56 48 57 32 58 33 59 41 60 34 61 35 62 39 63 42 64 36 65
REMARK SMILES IDX 37 66 40 67 38 68 64 69 65 70 73 71 66 72 67 73 71 74 74 75
REMARK SMILES IDX 68 76 69 77 72 78 70 79 49 80 50 81 58 82 51 83 52 84 56 85
REMARK SMILES IDX 59 86 53 87 54 88 57 89 55 90
REMARK H PARENT 79 43 47 54
REMARK Flexibility Score: inf
ROOT
ATOM      1  C   UNL A   1      32.277  29.102  25.088  1.00  0.00     0.274 C 
ENDROOT
BRANCH   1   2
ATOM      2  O   UNL A   1      31.709  28.929  23.774  1.00  0.00    -0.462 OA
BRANCH   2   3
ATOM      3  C   UNL A   1      30.710  28.015  23.682  1.00  0.00     0.310 C 
ATOM      4  O   UNL A   1      29.536  28.281  23.450  1.00  0.00    -0.252 OA
BRANCH   3   5
ATOM      5  C   UNL A   1      31.192  26.599  23.888  1.00  0.00     0.119 C 
ATOM      6  N   UNL A   1      30.798  24.439  24.983  1.00  0.00    -0.338 N 
ATOM      7  C   UNL A   1      31.149  23.690  23.785  1.00  0.00     0.120 C 
ATOM      8  C   UNL A   1      30.251  25.779  24.772  1.00  0.00     0.135 C 
ATOM      9  C   UNL A   1      32.029  24.493  22.830  1.00  0.00     0.022 C 
ATOM     10  C   UNL A   1      31.436  25.876  22.560  1.00  0.00     0.019 C 
BRANCH   6  11
ATOM     11  C   UNL A   1      31.427  24.108  26.179  1.00  0.00     0.253 C 
ATOM     12  O   UNL A   1      30.830  24.116  27.251  1.00  0.00    -0.269 OA
BRANCH  11  13
ATOM     13  C   UNL A   1      32.916  23.933  26.141  1.00  0.00     0.040 A 
ATOM     14  C   UNL A   1      35.674  23.633  25.592  1.00  0.00    -0.045 A 
ATOM     15  C   UNL A   1      35.073  24.898  25.556  1.00  0.00     0.005 A 
ATOM     16  C   UNL A   1      34.896  22.535  25.983  1.00  0.00     0.005 A 
ATOM     17  C   UNL A   1      33.708  25.047  25.829  1.00  0.00     0.014 A 
ATOM     18  C   UNL A   1      33.530  22.680  26.246  1.00  0.00     0.014 A 
BRANCH  14  19
ATOM     19  C   UNL A   1      37.119  23.465  25.151  1.00  0.00     0.013 C 
ATOM     20  C   UNL A   1      38.094  23.983  26.203  1.00  0.00     0.012 C 
ATOM     21  C   UNL A   1      37.434  22.008  24.804  1.00  0.00     0.012 C 
ENDBRANCH  14  19
ENDBRANCH  11  13
ENDBRANCH   6  11
ENDBRANCH   3   5
ENDBRANCH   2   3
ENDBRANCH   1   2
BRANCH   1  22
ATOM     22  C   UNL A   1      31.781  30.386  25.752  1.00  0.00     0.275 C 
BRANCH  22  23
ATOM     23  O   UNL A   1      32.324  30.531  27.077  1.00  0.00    -0.458 OA
BRANCH  23  24
ATOM     24  C   UNL A   1      33.095  31.625  27.263  1.00  0.00     0.338 C 
ATOM     25  O   UNL A   1      32.771  32.795  27.156  1.00  0.00    -0.246 OA
BRANCH  24  26
ATOM     26  C   UNL A   1      34.435  31.226  27.713  1.00  0.00     0.060 A 
ATOM     27  C   UNL A   1      34.666  29.884  28.011  1.00  0.00     0.016 A 
ATOM     28  C   UNL A   1      35.394  32.193  28.010  1.00  0.00     0.016 A 
ATOM     29  C   UNL A   1      35.815  29.515  28.703  1.00  0.00     0.010 A 
ATOM     30  C   UNL A   1      36.592  31.804  28.620  1.00  0.00     0.010 A 
ATOM     31  C   UNL A   1      36.795  30.469  29.012  1.00  0.00    -0.014 A 
BRANCH  31  32
ATOM     32  C   UNL A   1      38.013  30.054  29.757  1.00  0.00     0.031 A 
ATOM     33  C   UNL A   1      38.309  30.611  31.124  1.00  0.00     0.074 A 
ATOM     34  C   UNL A   1      38.854  29.153  29.215  1.00  0.00     0.049 A 
ATOM     35  N   UNL A   1      39.344  30.394  31.898  1.00  0.00    -0.248 NA
ATOM     36  C   UNL A   1      37.328  31.552  31.688  1.00  0.00     0.031 C 
ATOM     37  C   UNL A   1      38.694  28.533  27.899  1.00  0.00     0.029 A 
ATOM     38  N   UNL A   1      40.014  28.604  29.703  1.00  0.00    -0.354 N 
ATOM     39  C   UNL A   1      39.135  31.164  33.033  1.00  0.00     0.074 A 
ATOM     40  C   UNL A   1      37.923  31.918  32.814  1.00  0.00     0.031 C 
ATOM     41  C   UNL A   1      39.708  27.679  27.690  1.00  0.00     0.029 A 
ATOM     42  C   UNL A   1      40.616  27.732  28.831  1.00  0.00     0.049 A 
ATOM     43  H   UNL A   1      40.378  28.816  30.593  1.00  0.00     0.167 HD
ATOM     44  C   UNL A   1      39.863  31.212  34.173  1.00  0.00     0.037 A 
ATOM     45  C   UNL A   1      41.786  27.073  28.920  1.00  0.00     0.037 A 
ATOM     46  C   UNL A   1      41.067  30.468  34.409  1.00  0.00     0.049 A 
ATOM     47  C   UNL A   1      42.635  27.231  30.148  1.00  0.00     0.074 A 
ATOM     48  C   UNL A   1      41.849  30.427  35.551  1.00  0.00     0.029 A 
ATOM     49  N   UNL A   1      41.670  29.639  33.478  1.00  0.00    -0.354 N 
ATOM     50  N   UNL A   1      42.395  27.920  31.236  1.00  0.00    -0.248 NA
ATOM     51  C   UNL A   1      43.927  26.529  30.156  1.00  0.00     0.031 C 
ATOM     52  C   UNL A   1      42.947  29.599  35.297  1.00  0.00     0.029 A 
ATOM     53  C   UNL A   1      42.836  29.110  34.006  1.00  0.00     0.049 A 
ATOM     54  H   UNL A   1      41.323  29.454  32.576  1.00  0.00     0.167 HD
ATOM     55  C   UNL A   1      43.494  27.729  32.060  1.00  0.00     0.074 A 
ATOM     56  C   UNL A   1      44.400  26.848  31.353  1.00  0.00     0.031 C 
ATOM     57  C   UNL A   1      43.730  28.239  33.292  1.00  0.00     0.037 A 
BRANCH  44  58
ATOM     58  C   UNL A   1      39.356  32.082  35.280  1.00  0.00     0.064 A 
ATOM     59  C   UNL A   1      38.544  31.554  36.294  1.00  0.00     0.173 A 
ATOM     60  C   UNL A   1      39.729  33.430  35.362  1.00  0.00     0.173 A 
ATOM     61  F   UNL A   1      38.152  30.273  36.248  1.00  0.00    -0.203 F 
ATOM     62  C   UNL A   1      38.117  32.352  37.352  1.00  0.00     0.198 A 
ATOM     63  C   UNL A   1      39.306  34.222  36.425  1.00  0.00     0.198 A 
ATOM     64  F   UNL A   1      40.504  33.975  34.412  1.00  0.00    -0.203 F 
ATOM     65  F   UNL A   1      37.322  31.835  38.299  1.00  0.00    -0.200 F 
ATOM     66  C   UNL A   1      38.500  33.683  37.419  1.00  0.00     0.200 A 
ATOM     67  F   UNL A   1      39.676  35.508  36.491  1.00  0.00    -0.200 F 
ATOM     68  F   UNL A   1      38.087  34.449  38.437  1.00  0.00    -0.200 F 
ENDBRANCH  44  58
BRANCH  45  69
ATOM     69  C   UNL A   1      42.236  26.231  27.784  1.00  0.00     0.064 A 
ATOM     70  C   UNL A   1      41.738  24.936  27.600  1.00  0.00     0.173 A 
ATOM     71  C   UNL A   1      43.164  26.719  26.852  1.00  0.00     0.173 A 
ATOM     72  F   UNL A   1      40.870  24.421  28.482  1.00  0.00    -0.203 F 
ATOM     73  C   UNL A   1      42.156  24.155  26.525  1.00  0.00     0.198 A 
ATOM     74  C   UNL A   1      43.562  25.947  25.765  1.00  0.00     0.198 A 
ATOM     75  F   UNL A   1      43.669  27.954  26.990  1.00  0.00    -0.203 F 
ATOM     76  F   UNL A   1      41.691  22.906  26.385  1.00  0.00    -0.200 F 
ATOM     77  C   UNL A   1      43.060  24.664  25.604  1.00  0.00     0.200 A 
ATOM     78  F   UNL A   1      44.428  26.446  24.873  1.00  0.00    -0.200 F 
ATOM     79  F   UNL A   1      43.457  23.914  24.566  1.00  0.00    -0.200 F 
ENDBRANCH  45  69
BRANCH  57  80
ATOM     80  C   UNL A   1      45.015  27.858  33.958  1.00  0.00     0.064 A 
ATOM     81  C   UNL A   1      46.162  28.653  33.827  1.00  0.00     0.173 A 
ATOM     82  C   UNL A   1      45.088  26.717  34.769  1.00  0.00     0.173 A 
ATOM     83  F   UNL A   1      46.140  29.745  33.048  1.00  0.00    -0.203 F 
ATOM     84  C   UNL A   1      47.344  28.310  34.475  1.00  0.00     0.198 A 
ATOM     85  C   UNL A   1      46.266  26.388  35.432  1.00  0.00     0.198 A 
ATOM     86  F   UNL A   1      44.013  25.930  34.928  1.00  0.00    -0.203 F 
ATOM     87  F   UNL A   1      48.439  29.066  34.313  1.00  0.00    -0.200 F 
ATOM     88  C   UNL A   1      47.394  27.183  35.282  1.00  0.00     0.200 A 
ATOM     89  F   UNL A   1      46.311  25.304  36.219  1.00  0.00    -0.200 F 
ATOM     90  F   UNL A   1      48.531  26.858  35.912  1.00  0.00    -0.200 F 
ENDBRANCH  57  80
ENDBRANCH  31  32
ENDBRANCH  24  26
ENDBRANCH  23  24
ENDBRANCH  22  23
ENDBRANCH   1  22
TORSDOF 14
ENDMDL
MODEL 3
REMARK VINA RESULT:     -11.9      4.249      9.451
REMARK SMILES CC(C)c1ccc(C(=O)N2CCC[C@@H](C(=O)OCCOC(=O)c3ccc(-c4c5nc(c(-c6c(F)c(F)c(F)c(F)c6F)c6ccc([nH]6)c(-c6c(F)c(F)c(F)c(F)c6F)c6nc(c(-c7c(F)c(F)c(F)c(F)c7F)c7ccc4[nH]7)C=C6)C=C5)cc3)C2)cc1
REMARK SMILES IDX 18 1 17 2 15 3 16 4 14 5 10 6 11 7 86 8 12 9 13 10 8 11 9 12
REMARK SMILES IDX 7 13 4 14 5 15 88 16 6 17 87 18 2 19 1 20 3 21 19 22 20 23
REMARK SMILES IDX 21 24 22 25 23 26 24 27 85 28 25 29 84 30 26 31 27 32 28 33
REMARK SMILES IDX 78 34 29 35 83 36 77 37 79 38 30 39 82 40 76 41 75 42 31 44
REMARK SMILES IDX 63 45 43 46 62 47 44 48 47 49 61 50 80 51 45 52 46 53 60 55
REMARK SMILES IDX 81 56 48 57 32 58 33 59 41 60 34 61 35 62 39 63 42 64 36 65
REMARK SMILES IDX 37 66 40 67 38 68 64 69 65 70 73 71 66 72 67 73 71 74 74 75
REMARK SMILES IDX 68 76 69 77 72 78 70 79 49 80 50 81 58 82 51 83 52 84 56 85
REMARK SMILES IDX 59 86 53 87 54 88 57 89 55 90
REMARK H PARENT 79 43 47 54
REMARK Flexibility Score: inf
ROOT
ATOM      1  C   UNL A   1      36.249  22.538  23.813  1.00  0.00     0.274 C 
ENDROOT
BRANCH   1   2
ATOM      2  O   UNL A   1      34.837  22.253  23.897  1.00  0.00    -0.462 OA
BRANCH   2   3
ATOM      3  C   UNL A   1      34.017  23.185  23.348  1.00  0.00     0.310 C 
ATOM      4  O   UNL A   1      33.996  23.486  22.160  1.00  0.00    -0.252 OA
BRANCH   3   5
ATOM      5  C   UNL A   1      33.101  23.828  24.361  1.00  0.00     0.119 C 
ATOM      6  N   UNL A   1      30.970  24.977  24.758  1.00  0.00    -0.338 N 
ATOM      7  C   UNL A   1      30.709  24.220  25.974  1.00  0.00     0.120 C 
ATOM      8  C   UNL A   1      31.787  24.313  23.743  1.00  0.00     0.135 C 
ATOM      9  C   UNL A   1      31.984  23.649  26.592  1.00  0.00     0.022 C 
ATOM     10  C   UNL A   1      32.819  22.905  25.550  1.00  0.00     0.019 C 
BRANCH   6  11
ATOM     11  C   UNL A   1      30.895  26.366  24.814  1.00  0.00     0.253 C 
ATOM     12  O   UNL A   1      30.170  27.008  24.059  1.00  0.00    -0.269 OA
BRANCH  11  13
ATOM     13  C   UNL A   1      31.884  27.068  25.696  1.00  0.00     0.040 A 
ATOM     14  C   UNL A   1      33.541  28.798  27.199  1.00  0.00    -0.045 A 
ATOM     15  C   UNL A   1      32.239  28.508  27.626  1.00  0.00     0.005 A 
ATOM     16  C   UNL A   1      34.029  28.151  26.055  1.00  0.00     0.005 A 
ATOM     17  C   UNL A   1      31.419  27.651  26.883  1.00  0.00     0.014 A 
ATOM     18  C   UNL A   1      33.207  27.302  25.305  1.00  0.00     0.014 A 
BRANCH  14  19
ATOM     19  C   UNL A   1      34.367  29.842  27.931  1.00  0.00     0.013 C 
ATOM     20  C   UNL A   1      35.855  29.703  27.622  1.00  0.00     0.012 C 
ATOM     21  C   UNL A   1      33.888  31.261  27.615  1.00  0.00     0.012 C 
ENDBRANCH  14  19
ENDBRANCH  11  13
ENDBRANCH   6  11
ENDBRANCH   3   5
ENDBRANCH   2   3
ENDBRANCH   1   2
BRANCH   1  22
ATOM     22  C   UNL A   1      37.089  21.391  24.371  1.00  0.00     0.275 C 
BRANCH  22  23
ATOM     23  O   UNL A   1      37.437  21.623  25.749  1.00  0.00    -0.458 OA
BRANCH  23  24
ATOM     24  C   UNL A   1      38.742  21.443  26.048  1.00  0.00     0.338 C 
ATOM     25  O   UNL A   1      39.429  20.458  25.837  1.00  0.00    -0.246 OA
BRANCH  24  26
ATOM     26  C   UNL A   1      39.301  22.673  26.625  1.00  0.00     0.060 A 
ATOM     27  C   UNL A   1      38.821  23.900  26.172  1.00  0.00     0.016 A 
ATOM     28  C   UNL A   1      40.409  22.613  27.469  1.00  0.00     0.016 A 
ATOM     29  C   UNL A   1      39.509  25.069  26.475  1.00  0.00     0.010 A 
ATOM     30  C   UNL A   1      41.043  23.801  27.850  1.00  0.00     0.010 A 
ATOM     31  C   UNL A   1      40.626  25.036  27.322  1.00  0.00    -0.014 A 
BRANCH  31  32
ATOM     32  C   UNL A   1      41.352  26.297  27.627  1.00  0.00     0.031 A 
ATOM     33  C   UNL A   1      40.679  27.413  28.380  1.00  0.00     0.074 A 
ATOM     34  C   UNL A   1      42.636  26.439  27.245  1.00  0.00     0.049 A 
ATOM     35  N   UNL A   1      41.146  28.596  28.695  1.00  0.00    -0.248 NA
ATOM     36  C   UNL A   1      39.293  27.183  28.817  1.00  0.00     0.031 C 
ATOM     37  C   UNL A   1      43.413  25.442  26.507  1.00  0.00     0.029 A 
ATOM     38  N   UNL A   1      43.513  27.480  27.422  1.00  0.00    -0.354 N 
ATOM     39  C   UNL A   1      40.118  29.242  29.366  1.00  0.00     0.074 A 
ATOM     40  C   UNL A   1      38.977  28.358  29.339  1.00  0.00     0.031 C 
ATOM     41  C   UNL A   1      44.653  25.912  26.308  1.00  0.00     0.029 A 
ATOM     42  C   UNL A   1      44.743  27.262  26.854  1.00  0.00     0.049 A 
ATOM     43  H   UNL A   1      43.282  28.303  27.910  1.00  0.00     0.167 HD
ATOM     44  C   UNL A   1      40.131  30.445  29.985  1.00  0.00     0.037 A 
ATOM     45  C   UNL A   1      45.815  28.069  26.751  1.00  0.00     0.037 A 
ATOM     46  C   UNL A   1      41.257  31.335  30.024  1.00  0.00     0.049 A 
ATOM     47  C   UNL A   1      45.768  29.446  27.346  1.00  0.00     0.074 A 
ATOM     48  C   UNL A   1      41.370  32.559  30.661  1.00  0.00     0.029 A 
ATOM     49  N   UNL A   1      42.464  31.098  29.389  1.00  0.00    -0.354 N 
ATOM     50  N   UNL A   1      44.806  30.019  28.026  1.00  0.00    -0.248 NA
ATOM     51  C   UNL A   1      46.951  30.295  27.148  1.00  0.00     0.031 C 
ATOM     52  C   UNL A   1      42.637  33.080  30.381  1.00  0.00     0.029 A 
ATOM     53  C   UNL A   1      43.318  32.171  29.588  1.00  0.00     0.049 A 
ATOM     54  H   UNL A   1      42.683  30.289  28.873  1.00  0.00     0.167 HD
ATOM     55  C   UNL A   1      45.268  31.288  28.346  1.00  0.00     0.074 A 
ATOM     56  C   UNL A   1      46.603  31.399  27.796  1.00  0.00     0.031 C 
ATOM     57  C   UNL A   1      44.640  32.271  29.033  1.00  0.00     0.037 A 
BRANCH  44  58
ATOM     58  C   UNL A   1      38.889  30.865  30.707  1.00  0.00     0.064 A 
ATOM     59  C   UNL A   1      38.720  30.581  32.070  1.00  0.00     0.173 A 
ATOM     60  C   UNL A   1      37.893  31.602  30.054  1.00  0.00     0.173 A 
ATOM     61  F   UNL A   1      39.643  29.867  32.731  1.00  0.00    -0.203 F 
ATOM     62  C   UNL A   1      37.589  31.017  32.753  1.00  0.00     0.198 A 
ATOM     63  C   UNL A   1      36.767  32.043  30.743  1.00  0.00     0.198 A 
ATOM     64  F   UNL A   1      38.015  31.895  28.751  1.00  0.00    -0.203 F 
ATOM     65  F   UNL A   1      37.435  30.715  34.050  1.00  0.00    -0.200 F 
ATOM     66  C   UNL A   1      36.616  31.750  32.092  1.00  0.00     0.200 A 
ATOM     67  F   UNL A   1      35.826  32.751  30.104  1.00  0.00    -0.200 F 
ATOM     68  F   UNL A   1      35.527  32.168  32.751  1.00  0.00    -0.200 F 
ENDBRANCH  44  58
BRANCH  45  69
ATOM     69  C   UNL A   1      47.014  27.596  26.015  1.00  0.00     0.064 A 
ATOM     70  C   UNL A   1      47.098  27.703  24.623  1.00  0.00     0.173 A 
ATOM     71  C   UNL A   1      48.105  27.042  26.701  1.00  0.00     0.173 A 
ATOM     72  F   UNL A   1      46.068  28.202  23.926  1.00  0.00    -0.203 F 
ATOM     73  C   UNL A   1      48.232  27.269  23.939  1.00  0.00     0.198 A 
ATOM     74  C   UNL A   1      49.247  26.631  26.019  1.00  0.00     0.198 A 
ATOM     75  F   UNL A   1      48.068  26.918  28.036  1.00  0.00    -0.203 F 
ATOM     76  F   UNL A   1      48.278  27.351  22.602  1.00  0.00    -0.200 F 
ATOM     77  C   UNL A   1      49.308  26.741  24.637  1.00  0.00     0.200 A 
ATOM     78  F   UNL A   1      50.287  26.131  26.699  1.00  0.00    -0.200 F 
ATOM     79  F   UNL A   1      50.401  26.329  23.980  1.00  0.00    -0.200 F 
ENDBRANCH  45  69
BRANCH  57  80
ATOM     80  C   UNL A   1      45.386  33.553  29.233  1.00  0.00     0.064 A 
ATOM     81  C   UNL A   1      45.243  34.621  28.337  1.00  0.00     0.173 A 
ATOM     82  C   UNL A   1      46.213  33.730  30.351  1.00  0.00     0.173 A 
ATOM     83  F   UNL A   1      44.473  34.489  27.247  1.00  0.00    -0.203 F 
ATOM     84  C   UNL A   1      45.914  35.822  28.547  1.00  0.00     0.198 A 
ATOM     85  C   UNL A   1      46.868  34.939  30.568  1.00  0.00     0.198 A 
ATOM     86  F   UNL A   1      46.376  32.737  31.237  1.00  0.00    -0.203 F 
ATOM     87  F   UNL A   1      45.789  36.821  27.664  1.00  0.00    -0.200 F 
ATOM     88  C   UNL A   1      46.721  35.982  29.665  1.00  0.00     0.200 A 
ATOM     89  F   UNL A   1      47.640  35.096  31.652  1.00  0.00    -0.200 F 
ATOM     90  F   UNL A   1      47.362  37.141  29.869  1.00  0.00    -0.200 F 
ENDBRANCH  57  80
ENDBRANCH  31  32
ENDBRANCH  24  26
ENDBRANCH  23  24
ENDBRANCH  22  23
ENDBRANCH   1  22
TORSDOF 14
ENDMDL
