MODEL 1
REMARK VINA RESULT:     -11.6      0.000      0.000
REMARK SMILES [NH3+][C@H](c1cc(F)c(F)cc1C(=O)OCCOC(=O)c1ccc(-c2c3nc(c(-c4c(F)c(F)c(F)c(F)c4F)c4ccc([nH]4)c(-c4c(F)c(F)c(F)c(F)c4F)c4nc(c(-c5c(F)c(F)c(F)c(F)c5F)c5ccc2[nH]5)C=C4)C=C3)cc1)C(F)(F)F
REMARK SMILES IDX 14 1 13 2 11 3 12 4 10 5 3 6 4 7 5 8 9 9 6 10 7 11 8 12 2 13
REMARK SMILES IDX 1 14 82 18 83 19 84 20 85 21 15 22 16 23 17 24 18 25 19 26
REMARK SMILES IDX 20 27 81 28 21 29 80 30 22 31 23 32 24 33 74 34 25 35 79 36
REMARK SMILES IDX 73 37 75 38 26 39 78 40 72 41 71 42 27 44 59 45 39 46 58 47
REMARK SMILES IDX 40 48 43 49 57 50 76 51 41 52 42 53 56 55 77 56 44 57 28 58
REMARK SMILES IDX 29 59 37 60 30 61 31 62 35 63 38 64 32 65 33 66 36 67 34 68
REMARK SMILES IDX 60 69 61 70 69 71 62 72 63 73 67 74 70 75 64 76 65 77 68 78
REMARK SMILES IDX 66 79 45 80 46 81 54 82 47 83 48 84 52 85 55 86 49 87 50 88
REMARK SMILES IDX 53 89 51 90
REMARK H PARENT 1 15 1 16 1 17 75 43 43 54
REMARK Flexibility Score: inf
ROOT
ATOM      1  C   UNL A   1      32.898  29.303  24.727  1.00  0.00     0.275 C 
ENDROOT
BRANCH   1   2
ATOM      2  O   UNL A   1      33.398  28.016  25.157  1.00  0.00    -0.458 OA
BRANCH   2   3
ATOM      3  C   UNL A   1      33.543  27.049  24.223  1.00  0.00     0.338 C 
ATOM      4  O   UNL A   1      33.797  27.208  23.040  1.00  0.00    -0.246 OA
BRANCH   3   5
ATOM      5  C   UNL A   1      33.378  25.704  24.836  1.00  0.00     0.072 A 
ATOM      6  C   UNL A   1      32.170  24.963  24.762  1.00  0.00     0.036 A 
ATOM      7  C   UNL A   1      32.159  23.688  25.373  1.00  0.00     0.053 A 
ATOM      8  C   UNL A   1      33.284  23.183  26.029  1.00  0.00     0.159 A 
ATOM      9  C   UNL A   1      34.522  25.148  25.441  1.00  0.00     0.058 A 
ATOM     10  F   UNL A   1      33.222  21.977  26.607  1.00  0.00    -0.204 F 
ATOM     11  C   UNL A   1      34.458  23.910  26.061  1.00  0.00     0.159 A 
ATOM     12  F   UNL A   1      35.546  23.424  26.673  1.00  0.00    -0.204 F 
BRANCH   6  13
ATOM     13  C   UNL A   1      30.941  25.499  24.012  1.00  0.00     0.319 C 
BRANCH  13  14
ATOM     14  N   UNL A   1      30.146  24.367  23.460  1.00  0.00    -0.344 N 
ATOM     15  H   UNL A   1      30.748  23.776  22.887  1.00  0.00     0.345 HD
ATOM     16  H   UNL A   1      29.384  24.733  22.889  1.00  0.00     0.345 HD
ATOM     17  H   UNL A   1      29.760  23.817  24.228  1.00  0.00     0.345 HD
ENDBRANCH  13  14
BRANCH  13  18
ATOM     18  C   UNL A   1      30.055  26.531  24.786  1.00  0.00     0.445 C 
ATOM     19  F   UNL A   1      30.555  26.789  26.017  1.00  0.00    -0.165 F 
ATOM     20  F   UNL A   1      30.002  27.715  24.129  1.00  0.00    -0.165 F 
ATOM     21  F   UNL A   1      28.786  26.088  24.940  1.00  0.00    -0.165 F 
ENDBRANCH  13  18
ENDBRANCH   6  13
ENDBRANCH   3   5
ENDBRANCH   2   3
ENDBRANCH   1   2
BRANCH   1  22
ATOM     22  C   UNL A   1      31.943  29.897  25.762  1.00  0.00     0.275 C 
BRANCH  22  23
ATOM     23  O   UNL A   1      32.621  30.050  27.020  1.00  0.00    -0.458 OA
BRANCH  23  24
ATOM     24  C   UNL A   1      33.211  31.253  27.193  1.00  0.00     0.338 C 
ATOM     25  O   UNL A   1      32.696  32.356  27.146  1.00  0.00    -0.246 OA
BRANCH  24  26
ATOM     26  C   UNL A   1      34.571  31.040  27.692  1.00  0.00     0.060 A 
ATOM     27  C   UNL A   1      34.908  29.734  28.027  1.00  0.00     0.016 A 
ATOM     28  C   UNL A   1      35.446  32.086  27.953  1.00  0.00     0.016 A 
ATOM     29  C   UNL A   1      36.080  29.455  28.709  1.00  0.00     0.010 A 
ATOM     30  C   UNL A   1      36.668  31.799  28.571  1.00  0.00     0.010 A 
ATOM     31  C   UNL A   1      36.979  30.487  28.984  1.00  0.00    -0.014 A 
BRANCH  31  32
ATOM     32  C   UNL A   1      38.210  30.203  29.763  1.00  0.00     0.031 A 
ATOM     33  C   UNL A   1      39.285  29.351  29.153  1.00  0.00     0.074 A 
ATOM     34  C   UNL A   1      38.376  30.731  30.991  1.00  0.00     0.049 A 
ATOM     35  N   UNL A   1      40.328  28.802  29.719  1.00  0.00    -0.248 NA
ATOM     36  C   UNL A   1      39.162  29.064  27.713  1.00  0.00     0.031 C 
ATOM     37  C   UNL A   1      37.446  31.650  31.652  1.00  0.00     0.029 A 
ATOM     38  N   UNL A   1      39.388  30.573  31.905  1.00  0.00    -0.354 N 
ATOM     39  C   UNL A   1      40.951  28.063  28.721  1.00  0.00     0.074 A 
ATOM     40  C   UNL A   1      40.167  28.223  27.518  1.00  0.00     0.031 C 
ATOM     41  C   UNL A   1      37.943  31.994  32.849  1.00  0.00     0.029 A 
ATOM     42  C   UNL A   1      39.171  31.244  33.084  1.00  0.00     0.049 A 
ATOM     43  H   UNL A   1      40.192  30.033  31.731  1.00  0.00     0.167 HD
ATOM     44  C   UNL A   1      42.079  27.321  28.815  1.00  0.00     0.037 A 
ATOM     45  C   UNL A   1      39.854  31.215  34.244  1.00  0.00     0.037 A 
ATOM     46  C   UNL A   1      42.871  27.220  30.012  1.00  0.00     0.049 A 
ATOM     47  C   UNL A   1      41.061  30.325  34.346  1.00  0.00     0.074 A 
ATOM     48  C   UNL A   1      44.031  26.496  30.219  1.00  0.00     0.029 A 
ATOM     49  N   UNL A   1      42.590  27.879  31.201  1.00  0.00    -0.354 N 
ATOM     50  N   UNL A   1      41.608  29.569  33.425  1.00  0.00    -0.248 NA
ATOM     51  C   UNL A   1      41.736  30.268  35.649  1.00  0.00     0.031 C 
ATOM     52  C   UNL A   1      44.424  26.677  31.548  1.00  0.00     0.029 A 
ATOM     53  C   UNL A   1      43.545  27.561  32.153  1.00  0.00     0.049 A 
ATOM     54  H   UNL A   1      41.826  28.481  31.347  1.00  0.00     0.167 HD
ATOM     55  C   UNL A   1      42.699  28.959  34.027  1.00  0.00     0.074 A 
ATOM     56  C   UNL A   1      42.747  29.448  35.391  1.00  0.00     0.031 C 
ATOM     57  C   UNL A   1      43.577  28.071  33.501  1.00  0.00     0.037 A 
BRANCH  44  58
ATOM     58  C   UNL A   1      42.512  26.537  27.609  1.00  0.00     0.064 A 
ATOM     59  C   UNL A   1      41.995  25.251  27.382  1.00  0.00     0.173 A 
ATOM     60  C   UNL A   1      43.477  27.020  26.714  1.00  0.00     0.173 A 
ATOM     61  F   UNL A   1      41.070  24.739  28.209  1.00  0.00    -0.203 F 
ATOM     62  C   UNL A   1      42.440  24.473  26.318  1.00  0.00     0.198 A 
ATOM     63  C   UNL A   1      43.897  26.250  25.630  1.00  0.00     0.198 A 
ATOM     64  F   UNL A   1      43.992  28.248  26.872  1.00  0.00    -0.203 F 
ATOM     65  F   UNL A   1      41.957  23.235  26.146  1.00  0.00    -0.200 F 
ATOM     66  C   UNL A   1      43.388  24.975  25.440  1.00  0.00     0.200 A 
ATOM     67  F   UNL A   1      44.793  26.747  24.765  1.00  0.00    -0.200 F 
ATOM     68  F   UNL A   1      43.808  24.230  24.408  1.00  0.00    -0.200 F 
ENDBRANCH  44  58
BRANCH  45  69
ATOM     69  C   UNL A   1      39.383  32.026  35.398  1.00  0.00     0.064 A 
ATOM     70  C   UNL A   1      38.528  31.488  36.374  1.00  0.00     0.173 A 
ATOM     71  C   UNL A   1      39.744  33.373  35.525  1.00  0.00     0.173 A 
ATOM     72  F   UNL A   1      38.151  30.203  36.303  1.00  0.00    -0.203 F 
ATOM     73  C   UNL A   1      38.026  32.274  37.409  1.00  0.00     0.198 A 
ATOM     74  C   UNL A   1      39.269  34.152  36.580  1.00  0.00     0.198 A 
ATOM     75  F   UNL A   1      40.578  33.929  34.633  1.00  0.00    -0.203 F 
ATOM     76  F   UNL A   1      37.172  31.747  38.295  1.00  0.00    -0.200 F 
ATOM     77  C   UNL A   1      38.400  33.605  37.513  1.00  0.00     0.200 A 
ATOM     78  F   UNL A   1      39.654  35.430  36.693  1.00  0.00    -0.200 F 
ATOM     79  F   UNL A   1      37.926  34.360  38.513  1.00  0.00    -0.200 F 
ENDBRANCH  45  69
BRANCH  57  80
ATOM     80  C   UNL A   1      44.688  27.587  34.387  1.00  0.00     0.064 A 
ATOM     81  C   UNL A   1      44.498  26.466  35.210  1.00  0.00     0.173 A 
ATOM     82  C   UNL A   1      45.901  28.282  34.488  1.00  0.00     0.173 A 
ATOM     83  F   UNL A   1      43.350  25.773  35.156  1.00  0.00    -0.203 F 
ATOM     84  C   UNL A   1      45.474  26.074  36.120  1.00  0.00     0.198 A 
ATOM     85  C   UNL A   1      46.889  27.866  35.376  1.00  0.00     0.198 A 
ATOM     86  F   UNL A   1      46.134  29.351  33.711  1.00  0.00    -0.203 F 
ATOM     87  F   UNL A   1      45.253  25.029  36.928  1.00  0.00    -0.200 F 
ATOM     88  C   UNL A   1      46.670  26.771  36.199  1.00  0.00     0.200 A 
ATOM     89  F   UNL A   1      48.055  28.525  35.434  1.00  0.00    -0.200 F 
ATOM     90  F   UNL A   1      47.613  26.388  37.072  1.00  0.00    -0.200 F 
ENDBRANCH  57  80
ENDBRANCH  31  32
ENDBRANCH  24  26
ENDBRANCH  23  24
ENDBRANCH  22  23
ENDBRANCH   1  22
TORSDOF 14
ENDMDL
MODEL 2
REMARK VINA RESULT:     -11.5      1.313      2.718
REMARK SMILES [NH3+][C@H](c1cc(F)c(F)cc1C(=O)OCCOC(=O)c1ccc(-c2c3nc(c(-c4c(F)c(F)c(F)c(F)c4F)c4ccc([nH]4)c(-c4c(F)c(F)c(F)c(F)c4F)c4nc(c(-c5c(F)c(F)c(F)c(F)c5F)c5ccc2[nH]5)C=C4)C=C3)cc1)C(F)(F)F
REMARK SMILES IDX 14 1 13 2 11 3 12 4 10 5 3 6 4 7 5 8 9 9 6 10 7 11 8 12 2 13
REMARK SMILES IDX 1 14 82 18 83 19 84 20 85 21 15 22 16 23 17 24 18 25 19 26
REMARK SMILES IDX 20 27 81 28 21 29 80 30 22 31 23 32 24 33 74 34 25 35 79 36
REMARK SMILES IDX 73 37 75 38 26 39 78 40 72 41 71 42 27 44 59 45 39 46 58 47
REMARK SMILES IDX 40 48 43 49 57 50 76 51 41 52 42 53 56 55 77 56 44 57 28 58
REMARK SMILES IDX 29 59 37 60 30 61 31 62 35 63 38 64 32 65 33 66 36 67 34 68
REMARK SMILES IDX 60 69 61 70 69 71 62 72 63 73 67 74 70 75 64 76 65 77 68 78
REMARK SMILES IDX 66 79 45 80 46 81 54 82 47 83 48 84 52 85 55 86 49 87 50 88
REMARK SMILES IDX 53 89 51 90
REMARK H PARENT 1 15 1 16 1 17 75 43 43 54
REMARK Flexibility Score: inf
ROOT
ATOM      1  C   UNL A   1      32.896  29.073  25.178  1.00  0.00     0.275 C 
ENDROOT
BRANCH   1   2
ATOM      2  O   UNL A   1      32.838  29.126  23.735  1.00  0.00    -0.458 OA
BRANCH   2   3
ATOM      3  C   UNL A   1      32.342  28.051  23.082  1.00  0.00     0.338 C 
ATOM      4  O   UNL A   1      32.983  27.170  22.532  1.00  0.00    -0.246 OA
BRANCH   3   5
ATOM      5  C   UNL A   1      30.855  28.049  23.136  1.00  0.00     0.072 A 
ATOM      6  C   UNL A   1      30.109  27.109  23.893  1.00  0.00     0.036 A 
ATOM      7  C   UNL A   1      28.701  27.236  23.870  1.00  0.00     0.053 A 
ATOM      8  C   UNL A   1      28.071  28.237  23.128  1.00  0.00     0.159 A 
ATOM      9  C   UNL A   1      30.204  29.093  22.451  1.00  0.00     0.058 A 
ATOM     10  F   UNL A   1      26.734  28.309  23.123  1.00  0.00    -0.204 F 
ATOM     11  C   UNL A   1      28.820  29.160  22.424  1.00  0.00     0.159 A 
ATOM     12  F   UNL A   1      28.221  30.133  21.725  1.00  0.00    -0.204 F 
BRANCH   6  13
ATOM     13  C   UNL A   1      30.799  26.026  24.738  1.00  0.00     0.319 C 
BRANCH  13  14
ATOM     14  N   UNL A   1      30.210  25.995  26.106  1.00  0.00    -0.344 N 
ATOM     15  H   UNL A   1      30.111  26.948  26.455  1.00  0.00     0.345 HD
ATOM     16  H   UNL A   1      30.823  25.468  26.728  1.00  0.00     0.345 HD
ATOM     17  H   UNL A   1      29.295  25.547  26.071  1.00  0.00     0.345 HD
ENDBRANCH  13  14
BRANCH  13  18
ATOM     18  C   UNL A   1      30.895  24.603  24.095  1.00  0.00     0.445 C 
ATOM     19  F   UNL A   1      30.047  24.475  23.047  1.00  0.00    -0.165 F 
ATOM     20  F   UNL A   1      32.141  24.366  23.621  1.00  0.00    -0.165 F 
ATOM     21  F   UNL A   1      30.601  23.629  24.986  1.00  0.00    -0.165 F 
ENDBRANCH  13  18
ENDBRANCH   6  13
ENDBRANCH   3   5
ENDBRANCH   2   3
ENDBRANCH   1   2
BRANCH   1  22
ATOM     22  C   UNL A   1      32.178  30.268  25.803  1.00  0.00     0.275 C 
BRANCH  22  23
ATOM     23  O   UNL A   1      32.651  30.475  27.145  1.00  0.00    -0.458 OA
BRANCH  23  24
ATOM     24  C   UNL A   1      33.308  31.641  27.331  1.00  0.00     0.338 C 
ATOM     25  O   UNL A   1      32.854  32.772  27.306  1.00  0.00    -0.246 OA
BRANCH  24  26
ATOM     26  C   UNL A   1      34.658  31.346  27.815  1.00  0.00     0.060 A 
ATOM     27  C   UNL A   1      34.901  30.033  28.203  1.00  0.00     0.016 A 
ATOM     28  C   UNL A   1      35.615  32.332  28.012  1.00  0.00     0.016 A 
ATOM     29  C   UNL A   1      36.062  29.696  28.877  1.00  0.00     0.010 A 
ATOM     30  C   UNL A   1      36.825  31.978  28.621  1.00  0.00     0.010 A 
ATOM     31  C   UNL A   1      37.044  30.665  29.088  1.00  0.00    -0.014 A 
BRANCH  31  32
ATOM     32  C   UNL A   1      38.265  30.322  29.857  1.00  0.00     0.031 A 
ATOM     33  C   UNL A   1      39.303  29.437  29.231  1.00  0.00     0.074 A 
ATOM     34  C   UNL A   1      38.458  30.825  31.092  1.00  0.00     0.049 A 
ATOM     35  N   UNL A   1      40.326  28.839  29.783  1.00  0.00    -0.248 NA
ATOM     36  C   UNL A   1      39.162  29.175  27.787  1.00  0.00     0.031 C 
ATOM     37  C   UNL A   1      37.567  31.771  31.770  1.00  0.00     0.029 A 
ATOM     38  N   UNL A   1      39.466  30.614  31.998  1.00  0.00    -0.354 N 
ATOM     39  C   UNL A   1      40.915  28.090  28.773  1.00  0.00     0.074 A 
ATOM     40  C   UNL A   1      40.133  28.298  27.575  1.00  0.00     0.031 C 
ATOM     41  C   UNL A   1      38.082  32.078  32.969  1.00  0.00     0.029 A 
ATOM     42  C   UNL A   1      39.280  31.276  33.188  1.00  0.00     0.049 A 
ATOM     43  H   UNL A   1      40.247  30.045  31.814  1.00  0.00     0.167 HD
ATOM     44  C   UNL A   1      42.013  27.302  28.850  1.00  0.00     0.037 A 
ATOM     45  C   UNL A   1      39.966  31.203  34.344  1.00  0.00     0.037 A 
ATOM     46  C   UNL A   1      42.805  27.153  30.042  1.00  0.00     0.049 A 
ATOM     47  C   UNL A   1      41.138  30.266  34.428  1.00  0.00     0.074 A 
ATOM     48  C   UNL A   1      43.936  26.381  30.234  1.00  0.00     0.029 A 
ATOM     49  N   UNL A   1      42.556  27.806  31.242  1.00  0.00    -0.354 N 
ATOM     50  N   UNL A   1      41.651  29.501  33.493  1.00  0.00    -0.248 NA
ATOM     51  C   UNL A   1      41.815  30.163  35.727  1.00  0.00     0.031 C 
ATOM     52  C   UNL A   1      44.341  26.527  31.563  1.00  0.00     0.029 A 
ATOM     53  C   UNL A   1      43.501  27.437  32.185  1.00  0.00     0.049 A 
ATOM     54  H   UNL A   1      41.816  28.436  31.400  1.00  0.00     0.167 HD
ATOM     55  C   UNL A   1      42.719  28.840  34.082  1.00  0.00     0.074 A 
ATOM     56  C   UNL A   1      42.791  29.307  35.452  1.00  0.00     0.031 C 
ATOM     57  C   UNL A   1      43.559  27.926  33.540  1.00  0.00     0.037 A 
BRANCH  44  58
ATOM     58  C   UNL A   1      42.409  26.519  27.632  1.00  0.00     0.064 A 
ATOM     59  C   UNL A   1      41.830  25.264  27.382  1.00  0.00     0.173 A 
ATOM     60  C   UNL A   1      43.397  26.970  26.745  1.00  0.00     0.173 A 
ATOM     61  F   UNL A   1      40.880  24.783  28.199  1.00  0.00    -0.203 F 
ATOM     62  C   UNL A   1      42.239  24.483  26.305  1.00  0.00     0.198 A 
ATOM     63  C   UNL A   1      43.782  26.199  25.649  1.00  0.00     0.198 A 
ATOM     64  F   UNL A   1      43.972  28.168  26.926  1.00  0.00    -0.203 F 
ATOM     65  F   UNL A   1      41.696  23.273  26.111  1.00  0.00    -0.200 F 
ATOM     66  C   UNL A   1      43.212  24.953  25.436  1.00  0.00     0.200 A 
ATOM     67  F   UNL A   1      44.702  26.667  24.794  1.00  0.00    -0.200 F 
ATOM     68  F   UNL A   1      43.597  24.207  24.393  1.00  0.00    -0.200 F 
ENDBRANCH  44  58
BRANCH  45  69
ATOM     69  C   UNL A   1      39.533  32.017  35.511  1.00  0.00     0.064 A 
ATOM     70  C   UNL A   1      38.570  31.544  36.419  1.00  0.00     0.173 A 
ATOM     71  C   UNL A   1      40.042  33.304  35.720  1.00  0.00     0.173 A 
ATOM     72  F   UNL A   1      38.049  30.317  36.268  1.00  0.00    -0.203 F 
ATOM     73  C   UNL A   1      38.109  32.341  37.464  1.00  0.00     0.198 A 
ATOM     74  C   UNL A   1      39.606  34.089  36.787  1.00  0.00     0.198 A 
ATOM     75  F   UNL A   1      40.982  33.793  34.897  1.00  0.00    -0.203 F 
ATOM     76  F   UNL A   1      37.153  31.883  38.282  1.00  0.00    -0.200 F 
ATOM     77  C   UNL A   1      38.631  33.612  37.650  1.00  0.00     0.200 A 
ATOM     78  F   UNL A   1      40.131  35.306  36.979  1.00  0.00    -0.200 F 
ATOM     79  F   UNL A   1      38.195  34.375  38.661  1.00  0.00    -0.200 F 
ENDBRANCH  45  69
BRANCH  57  80
ATOM     80  C   UNL A   1      44.653  27.385  34.413  1.00  0.00     0.064 A 
ATOM     81  C   UNL A   1      45.919  27.992  34.418  1.00  0.00     0.173 A 
ATOM     82  C   UNL A   1      44.478  26.220  35.171  1.00  0.00     0.173 A 
ATOM     83  F   UNL A   1      46.139  29.105  33.701  1.00  0.00    -0.203 F 
ATOM     84  C   UNL A   1      46.976  27.437  35.132  1.00  0.00     0.198 A 
ATOM     85  C   UNL A   1      45.529  25.685  35.911  1.00  0.00     0.198 A 
ATOM     86  F   UNL A   1      43.282  25.612  35.209  1.00  0.00    -0.203 F 
ATOM     87  F   UNL A   1      48.186  28.008  35.086  1.00  0.00    -0.200 F 
ATOM     88  C   UNL A   1      46.778  26.287  35.881  1.00  0.00     0.200 A 
ATOM     89  F   UNL A   1      45.332  24.588  36.655  1.00  0.00    -0.200 F 
ATOM     90  F   UNL A   1      47.796  25.756  36.574  1.00  0.00    -0.200 F 
ENDBRANCH  57  80
ENDBRANCH  31  32
ENDBRANCH  24  26
ENDBRANCH  23  24
ENDBRANCH  22  23
ENDBRANCH   1  22
TORSDOF 14
ENDMDL
MODEL 3
REMARK VINA RESULT:     -11.5      4.987     10.115
REMARK SMILES [NH3+][C@H](c1cc(F)c(F)cc1C(=O)OCCOC(=O)c1ccc(-c2c3nc(c(-c4c(F)c(F)c(F)c(F)c4F)c4ccc([nH]4)c(-c4c(F)c(F)c(F)c(F)c4F)c4nc(c(-c5c(F)c(F)c(F)c(F)c5F)c5ccc2[nH]5)C=C4)C=C3)cc1)C(F)(F)F
REMARK SMILES IDX 14 1 13 2 11 3 12 4 10 5 3 6 4 7 5 8 9 9 6 10 7 11 8 12 2 13
REMARK SMILES IDX 1 14 82 18 83 19 84 20 85 21 15 22 16 23 17 24 18 25 19 26
REMARK SMILES IDX 20 27 81 28 21 29 80 30 22 31 23 32 24 33 74 34 25 35 79 36
REMARK SMILES IDX 73 37 75 38 26 39 78 40 72 41 71 42 27 44 59 45 39 46 58 47
REMARK SMILES IDX 40 48 43 49 57 50 76 51 41 52 42 53 56 55 77 56 44 57 28 58
REMARK SMILES IDX 29 59 37 60 30 61 31 62 35 63 38 64 32 65 33 66 36 67 34 68
REMARK SMILES IDX 60 69 61 70 69 71 62 72 63 73 67 74 70 75 64 76 65 77 68 78
REMARK SMILES IDX 66 79 45 80 46 81 54 82 47 83 48 84 52 85 55 86 49 87 50 88
REMARK SMILES IDX 53 89 51 90
REMARK H PARENT 1 15 1 16 1 17 75 43 43 54
REMARK Flexibility Score: inf
ROOT
ATOM      1  C   UNL A   1      36.439  20.437  25.019  1.00  0.00     0.275 C 
ENDROOT
BRANCH   1   2
ATOM      2  O   UNL A   1      35.742  21.416  25.822  1.00  0.00    -0.458 OA
BRANCH   2   3
ATOM      3  C   UNL A   1      34.448  21.175  26.134  1.00  0.00     0.338 C 
ATOM      4  O   UNL A   1      33.959  21.145  27.251  1.00  0.00    -0.246 OA
BRANCH   3   5
ATOM      5  C   UNL A   1      33.645  20.967  24.899  1.00  0.00     0.072 A 
ATOM      6  C   UNL A   1      33.250  19.684  24.439  1.00  0.00     0.036 A 
ATOM      7  C   UNL A   1      32.471  19.635  23.260  1.00  0.00     0.053 A 
ATOM      8  C   UNL A   1      32.113  20.796  22.573  1.00  0.00     0.159 A 
ATOM      9  C   UNL A   1      33.215  22.130  24.230  1.00  0.00     0.058 A 
ATOM     10  F   UNL A   1      31.388  20.700  21.452  1.00  0.00    -0.204 F 
ATOM     11  C   UNL A   1      32.483  22.036  23.057  1.00  0.00     0.159 A 
ATOM     12  F   UNL A   1      32.128  23.155  22.412  1.00  0.00    -0.204 F 
BRANCH   6  13
ATOM     13  C   UNL A   1      33.613  18.405  25.210  1.00  0.00     0.319 C 
BRANCH  13  14
ATOM     14  N   UNL A   1      32.639  18.183  26.316  1.00  0.00    -0.344 N 
ATOM     15  H   UNL A   1      32.503  17.182  26.452  1.00  0.00     0.345 HD
ATOM     16  H   UNL A   1      31.749  18.619  26.077  1.00  0.00     0.345 HD
ATOM     17  H   UNL A   1      33.001  18.598  27.175  1.00  0.00     0.345 HD
ENDBRANCH  13  14
BRANCH  13  18
ATOM     18  C   UNL A   1      33.844  17.120  24.349  1.00  0.00     0.445 C 
ATOM     19  F   UNL A   1      34.598  16.210  25.009  1.00  0.00    -0.165 F 
ATOM     20  F   UNL A   1      32.668  16.514  24.055  1.00  0.00    -0.165 F 
ATOM     21  F   UNL A   1      34.465  17.402  23.181  1.00  0.00    -0.165 F 
ENDBRANCH  13  18
ENDBRANCH   6  13
ENDBRANCH   3   5
ENDBRANCH   2   3
ENDBRANCH   1   2
BRANCH   1  22
ATOM     22  C   UNL A   1      37.915  20.802  24.863  1.00  0.00     0.275 C 
BRANCH  22  23
ATOM     23  O   UNL A   1      38.314  21.685  25.925  1.00  0.00    -0.458 OA
BRANCH  23  24
ATOM     24  C   UNL A   1      39.526  21.409  26.453  1.00  0.00     0.338 C 
ATOM     25  O   UNL A   1      40.180  20.387  26.343  1.00  0.00    -0.246 OA
BRANCH  24  26
ATOM     26  C   UNL A   1      40.083  22.642  27.015  1.00  0.00     0.060 A 
ATOM     27  C   UNL A   1      39.602  23.833  26.485  1.00  0.00     0.016 A 
ATOM     28  C   UNL A   1      41.130  22.643  27.927  1.00  0.00     0.016 A 
ATOM     29  C   UNL A   1      40.212  25.040  26.782  1.00  0.00     0.010 A 
ATOM     30  C   UNL A   1      41.697  23.869  28.292  1.00  0.00     0.010 A 
ATOM     31  C   UNL A   1      41.265  25.073  27.697  1.00  0.00    -0.014 A 
BRANCH  31  32
ATOM     32  C   UNL A   1      41.958  26.355  27.977  1.00  0.00     0.031 A 
ATOM     33  C   UNL A   1      41.267  27.397  28.808  1.00  0.00     0.074 A 
ATOM     34  C   UNL A   1      43.207  26.570  27.520  1.00  0.00     0.049 A 
ATOM     35  N   UNL A   1      41.583  28.652  28.995  1.00  0.00    -0.248 NA
ATOM     36  C   UNL A   1      40.044  26.974  29.512  1.00  0.00     0.031 C 
ATOM     37  C   UNL A   1      44.018  25.598  26.783  1.00  0.00     0.029 A 
ATOM     38  N   UNL A   1      44.016  27.675  27.607  1.00  0.00    -0.354 N 
ATOM     39  C   UNL A   1      40.573  29.180  29.789  1.00  0.00     0.074 A 
ATOM     40  C   UNL A   1      39.627  28.116  30.041  1.00  0.00     0.031 C 
ATOM     41  C   UNL A   1      45.215  26.138  26.511  1.00  0.00     0.029 A 
ATOM     42  C   UNL A   1      45.219  27.525  26.961  1.00  0.00     0.049 A 
ATOM     43  H   UNL A   1      43.759  28.494  28.087  1.00  0.00     0.167 HD
ATOM     44  C   UNL A   1      40.457  30.444  30.259  1.00  0.00     0.037 A 
ATOM     45  C   UNL A   1      46.193  28.420  26.711  1.00  0.00     0.037 A 
ATOM     46  C   UNL A   1      41.439  31.471  30.037  1.00  0.00     0.049 A 
ATOM     47  C   UNL A   1      46.007  29.836  27.181  1.00  0.00     0.074 A 
ATOM     48  C   UNL A   1      41.423  32.785  30.466  1.00  0.00     0.029 A 
ATOM     49  N   UNL A   1      42.624  31.291  29.337  1.00  0.00    -0.354 N 
ATOM     50  N   UNL A   1      45.017  30.353  27.868  1.00  0.00    -0.248 NA
ATOM     51  C   UNL A   1      47.060  30.797  26.826  1.00  0.00     0.031 C 
ATOM     52  C   UNL A   1      42.573  33.414  29.982  1.00  0.00     0.029 A 
ATOM     53  C   UNL A   1      43.337  32.478  29.304  1.00  0.00     0.049 A 
ATOM     54  H   UNL A   1      42.914  30.447  28.923  1.00  0.00     0.167 HD
ATOM     55  C   UNL A   1      45.332  31.693  28.044  1.00  0.00     0.074 A 
ATOM     56  C   UNL A   1      46.616  31.905  27.405  1.00  0.00     0.031 C 
ATOM     57  C   UNL A   1      44.620  32.660  28.672  1.00  0.00     0.037 A 
BRANCH  44  58
ATOM     58  C   UNL A   1      39.220  30.799  31.033  1.00  0.00     0.064 A 
ATOM     59  C   UNL A   1      38.120  31.375  30.376  1.00  0.00     0.173 A 
ATOM     60  C   UNL A   1      39.136  30.634  32.422  1.00  0.00     0.173 A 
ATOM     61  F   UNL A   1      38.146  31.558  29.047  1.00  0.00    -0.203 F 
ATOM     62  C   UNL A   1      36.994  31.787  31.083  1.00  0.00     0.198 A 
ATOM     63  C   UNL A   1      37.994  31.019  33.123  1.00  0.00     0.198 A 
ATOM     64  F   UNL A   1      40.150  30.074  33.098  1.00  0.00    -0.203 F 
ATOM     65  F   UNL A   1      35.973  32.368  30.436  1.00  0.00    -0.200 F 
ATOM     66  C   UNL A   1      36.930  31.606  32.455  1.00  0.00     0.200 A 
ATOM     67  F   UNL A   1      37.922  30.817  34.446  1.00  0.00    -0.200 F 
ATOM     68  F   UNL A   1      35.842  31.992  33.134  1.00  0.00    -0.200 F 
ENDBRANCH  44  58
BRANCH  45  69
ATOM     69  C   UNL A   1      47.402  28.002  25.953  1.00  0.00     0.064 A 
ATOM     70  C   UNL A   1      47.376  27.848  24.557  1.00  0.00     0.173 A 
ATOM     71  C   UNL A   1      48.600  27.706  26.616  1.00  0.00     0.173 A 
ATOM     72  F   UNL A   1      46.256  28.119  23.871  1.00  0.00    -0.203 F 
ATOM     73  C   UNL A   1      48.489  27.379  23.861  1.00  0.00     0.198 A 
ATOM     74  C   UNL A   1      49.724  27.269  25.915  1.00  0.00     0.198 A 
ATOM     75  F   UNL A   1      48.685  27.861  27.945  1.00  0.00    -0.203 F 
ATOM     76  F   UNL A   1      48.418  27.192  22.537  1.00  0.00    -0.200 F 
ATOM     77  C   UNL A   1      49.663  27.094  24.540  1.00  0.00     0.200 A 
ATOM     78  F   UNL A   1      50.865  27.021  26.571  1.00  0.00    -0.200 F 
ATOM     79  F   UNL A   1      50.736  26.652  23.870  1.00  0.00    -0.200 F 
ENDBRANCH  45  69
BRANCH  57  80
ATOM     80  C   UNL A   1      45.220  34.035  28.731  1.00  0.00     0.064 A 
ATOM     81  C   UNL A   1      45.998  34.420  29.834  1.00  0.00     0.173 A 
ATOM     82  C   UNL A   1      44.952  34.995  27.746  1.00  0.00     0.173 A 
ATOM     83  F   UNL A   1      46.275  33.539  30.808  1.00  0.00    -0.203 F 
ATOM     84  C   UNL A   1      46.465  35.724  29.960  1.00  0.00     0.198 A 
ATOM     85  C   UNL A   1      45.448  36.290  27.859  1.00  0.00     0.198 A 
ATOM     86  F   UNL A   1      44.225  34.670  26.666  1.00  0.00    -0.203 F 
ATOM     87  F   UNL A   1      47.166  36.082  31.043  1.00  0.00    -0.200 F 
ATOM     88  C   UNL A   1      46.193  36.657  28.970  1.00  0.00     0.200 A 
ATOM     89  F   UNL A   1      45.207  37.185  26.890  1.00  0.00    -0.200 F 
ATOM     90  F   UNL A   1      46.649  37.912  29.089  1.00  0.00    -0.200 F 
ENDBRANCH  57  80
ENDBRANCH  31  32
ENDBRANCH  24  26
ENDBRANCH  23  24
ENDBRANCH  22  23
ENDBRANCH   1  22
TORSDOF 14
ENDMDL
