MODEL 1
REMARK VINA RESULT:     -12.7      0.000      0.000
REMARK SMILES O=C(OCCOC(=O)c1ccc(N[C@@H]2CCCS(=O)(=O)C2)c(F)c1F)c1ccc(-c2c3nc(c(-c4c(F)c(F)c(F)c(F)c4F)c4ccc([nH]4)c(-c4c(F)c(F)c(F)c(F)c4F)c4nc(c(-c5c(F)c(F)c(F)c(F)c5F)c5ccc2[nH]5)C=C4)C=C3)cc1
REMARK SMILES IDX 4 1 3 2 2 3 1 4 26 5 27 6 88 7 28 8 87 9 29 10 30 11 31 12
REMARK SMILES IDX 81 13 32 14 86 15 80 16 82 17 33 18 85 19 79 20 78 21 34 23
REMARK SMILES IDX 66 24 46 25 65 26 47 27 50 28 64 29 83 30 48 31 49 32 63 34
REMARK SMILES IDX 84 35 51 36 35 37 36 38 44 39 37 40 38 41 42 42 45 43 39 44
REMARK SMILES IDX 40 45 43 46 41 47 67 48 68 49 76 50 69 51 70 52 74 53 77 54
REMARK SMILES IDX 71 55 72 56 75 57 73 58 52 59 53 60 61 61 54 62 55 63 59 64
REMARK SMILES IDX 62 65 56 66 57 67 60 68 58 69 5 70 6 71 7 72 8 73 9 74 10 75
REMARK SMILES IDX 24 76 11 77 22 78 25 79 12 80 23 81 13 82 14 84 15 85 21 86
REMARK SMILES IDX 16 87 18 88 17 89 19 90 20 91
REMARK H PARENT 82 22 50 33 13 83
REMARK Flexibility Score: inf
ROOT
ATOM      1  C   UNL A   1      43.734  21.794  25.546  1.00  0.00     0.275 C 
ENDROOT
BRANCH   1   2
ATOM      2  O   UNL A   1      43.176  23.002  25.002  1.00  0.00    -0.458 OA
BRANCH   2   3
ATOM      3  C   UNL A   1      43.671  24.260  25.096  1.00  0.00     0.338 C 
ATOM      4  O   UNL A   1      44.701  24.560  24.497  1.00  0.00    -0.246 OA
BRANCH   3   5
ATOM      5  C   UNL A   1      43.128  25.248  26.075  1.00  0.00     0.060 A 
ATOM      6  C   UNL A   1      43.470  26.602  26.134  1.00  0.00     0.016 A 
ATOM      7  C   UNL A   1      42.235  24.745  27.036  1.00  0.00     0.016 A 
ATOM      8  C   UNL A   1      42.874  27.454  27.069  1.00  0.00     0.010 A 
ATOM      9  C   UNL A   1      41.644  25.589  27.980  1.00  0.00     0.010 A 
ATOM     10  C   UNL A   1      41.959  26.955  27.997  1.00  0.00    -0.014 A 
BRANCH  10  11
ATOM     11  C   UNL A   1      41.497  27.805  29.118  1.00  0.00     0.031 A 
ATOM     12  C   UNL A   1      42.294  27.742  30.390  1.00  0.00     0.074 A 
ATOM     13  C   UNL A   1      40.445  28.637  28.979  1.00  0.00     0.049 A 
ATOM     14  N   UNL A   1      42.082  28.334  31.531  1.00  0.00    -0.248 NA
ATOM     15  C   UNL A   1      43.527  26.930  30.355  1.00  0.00     0.031 C 
ATOM     16  C   UNL A   1      39.733  28.898  27.729  1.00  0.00     0.029 A 
ATOM     17  N   UNL A   1      39.781  29.416  29.892  1.00  0.00    -0.354 N 
ATOM     18  C   UNL A   1      43.176  28.016  32.325  1.00  0.00     0.074 A 
ATOM     19  C   UNL A   1      44.009  27.108  31.574  1.00  0.00     0.031 C 
ATOM     20  C   UNL A   1      38.710  29.741  27.957  1.00  0.00     0.029 A 
ATOM     21  C   UNL A   1      38.695  30.087  29.373  1.00  0.00     0.049 A 
ATOM     22  H   UNL A   1      40.056  29.490  30.835  1.00  0.00     0.167 HD
ATOM     23  C   UNL A   1      43.476  28.491  33.555  1.00  0.00     0.037 A 
ATOM     24  C   UNL A   1      37.785  30.871  29.986  1.00  0.00     0.037 A 
ATOM     25  C   UNL A   1      42.594  29.353  34.292  1.00  0.00     0.049 A 
ATOM     26  C   UNL A   1      37.971  31.106  31.461  1.00  0.00     0.074 A 
ATOM     27  C   UNL A   1      42.746  29.873  35.561  1.00  0.00     0.029 A 
ATOM     28  N   UNL A   1      41.366  29.802  33.813  1.00  0.00    -0.354 N 
ATOM     29  N   UNL A   1      38.988  30.778  32.221  1.00  0.00    -0.248 NA
ATOM     30  C   UNL A   1      36.890  31.802  32.166  1.00  0.00     0.031 C 
ATOM     31  C   UNL A   1      41.597  30.614  35.861  1.00  0.00     0.029 A 
ATOM     32  C   UNL A   1      40.751  30.600  34.761  1.00  0.00     0.049 A 
ATOM     33  H   UNL A   1      40.991  29.583  32.929  1.00  0.00     0.167 HD
ATOM     34  C   UNL A   1      38.701  31.267  33.486  1.00  0.00     0.074 A 
ATOM     35  C   UNL A   1      37.393  31.891  33.391  1.00  0.00     0.031 C 
ATOM     36  C   UNL A   1      39.463  31.237  34.610  1.00  0.00     0.037 A 
BRANCH  23  37
ATOM     37  C   UNL A   1      44.804  28.099  34.141  1.00  0.00     0.064 A 
ATOM     38  C   UNL A   1      45.950  28.884  33.945  1.00  0.00     0.173 A 
ATOM     39  C   UNL A   1      44.939  26.931  34.911  1.00  0.00     0.173 A 
ATOM     40  F   UNL A   1      45.881  30.012  33.223  1.00  0.00    -0.203 F 
ATOM     41  C   UNL A   1      47.175  28.518  34.500  1.00  0.00     0.198 A 
ATOM     42  C   UNL A   1      46.159  26.581  35.485  1.00  0.00     0.198 A 
ATOM     43  F   UNL A   1      43.873  26.151  35.147  1.00  0.00    -0.203 F 
ATOM     44  F   UNL A   1      48.258  29.279  34.292  1.00  0.00    -0.200 F 
ATOM     45  C   UNL A   1      47.278  27.371  35.275  1.00  0.00     0.200 A 
ATOM     46  F   UNL A   1      46.246  25.489  36.259  1.00  0.00    -0.200 F 
ATOM     47  F   UNL A   1      48.451  27.036  35.829  1.00  0.00    -0.200 F 
ENDBRANCH  23  37
BRANCH  24  48
ATOM     48  C   UNL A   1      36.647  31.471  29.228  1.00  0.00     0.064 A 
ATOM     49  C   UNL A   1      36.582  32.843  28.944  1.00  0.00     0.173 A 
ATOM     50  C   UNL A   1      35.565  30.693  28.801  1.00  0.00     0.173 A 
ATOM     51  F   UNL A   1      37.594  33.648  29.266  1.00  0.00    -0.203 F 
ATOM     52  C   UNL A   1      35.484  33.423  28.311  1.00  0.00     0.198 A 
ATOM     53  C   UNL A   1      34.466  31.269  28.151  1.00  0.00     0.198 A 
ATOM     54  F   UNL A   1      35.571  29.370  29.012  1.00  0.00    -0.203 F 
ATOM     55  F   UNL A   1      35.467  34.746  28.092  1.00  0.00    -0.200 F 
ATOM     56  C   UNL A   1      34.420  32.636  27.920  1.00  0.00     0.200 A 
ATOM     57  F   UNL A   1      33.444  30.498  27.755  1.00  0.00    -0.200 F 
ATOM     58  F   UNL A   1      33.359  33.192  27.320  1.00  0.00    -0.200 F 
ENDBRANCH  24  48
BRANCH  36  59
ATOM     59  C   UNL A   1      38.960  32.011  35.790  1.00  0.00     0.064 A 
ATOM     60  C   UNL A   1      39.329  33.358  35.937  1.00  0.00     0.173 A 
ATOM     61  C   UNL A   1      38.193  31.419  36.799  1.00  0.00     0.173 A 
ATOM     62  F   UNL A   1      40.071  33.963  34.997  1.00  0.00    -0.203 F 
ATOM     63  C   UNL A   1      38.962  34.080  37.067  1.00  0.00     0.198 A 
ATOM     64  C   UNL A   1      37.801  32.154  37.915  1.00  0.00     0.198 A 
ATOM     65  F   UNL A   1      37.801  30.141  36.691  1.00  0.00    -0.203 F 
ATOM     66  F   UNL A   1      39.356  35.353  37.204  1.00  0.00    -0.200 F 
ATOM     67  C   UNL A   1      38.194  33.479  38.052  1.00  0.00     0.200 A 
ATOM     68  F   UNL A   1      37.034  31.585  38.854  1.00  0.00    -0.200 F 
ATOM     69  F   UNL A   1      37.827  34.180  39.133  1.00  0.00    -0.200 F 
ENDBRANCH  36  59
ENDBRANCH  10  11
ENDBRANCH   3   5
ENDBRANCH   2   3
ENDBRANCH   1   2
BRANCH   1  70
ATOM     70  C   UNL A   1      42.710  20.868  26.209  1.00  0.00     0.275 C 
BRANCH  70  71
ATOM     71  O   UNL A   1      41.372  21.100  25.745  1.00  0.00    -0.458 OA
BRANCH  71  72
ATOM     72  C   UNL A   1      40.428  21.171  26.722  1.00  0.00     0.341 C 
ATOM     73  O   UNL A   1      40.507  20.708  27.845  1.00  0.00    -0.246 OA
BRANCH  72  74
ATOM     74  C   UNL A   1      39.297  21.977  26.237  1.00  0.00     0.099 A 
ATOM     75  C   UNL A   1      39.115  23.302  26.638  1.00  0.00     0.021 A 
ATOM     76  C   UNL A   1      38.362  21.387  25.400  1.00  0.00     0.175 A 
ATOM     77  C   UNL A   1      37.981  24.019  26.216  1.00  0.00     0.030 A 
ATOM     78  C   UNL A   1      37.250  22.113  24.983  1.00  0.00     0.182 A 
ATOM     79  F   UNL A   1      38.473  20.100  25.040  1.00  0.00    -0.203 F 
ATOM     80  C   UNL A   1      37.023  23.449  25.376  1.00  0.00     0.074 A 
ATOM     81  F   UNL A   1      36.332  21.509  24.210  1.00  0.00    -0.201 F 
BRANCH  80  82
ATOM     82  N   UNL A   1      35.890  24.084  24.910  1.00  0.00    -0.379 N 
ATOM     83  H   UNL A   1      36.075  24.765  24.225  1.00  0.00     0.160 HD
BRANCH  82  84
ATOM     84  C   UNL A   1      34.468  23.946  25.232  1.00  0.00     0.094 C 
ATOM     85  C   UNL A   1      33.696  25.265  25.054  1.00  0.00     0.027 C 
ATOM     86  C   UNL A   1      34.275  23.256  26.575  1.00  0.00     0.161 C 
ATOM     87  C   UNL A   1      32.191  25.128  25.288  1.00  0.00     0.018 C 
ATOM     88  S   UNL A   1      32.553  22.917  26.845  1.00  0.00     0.152 S 
ATOM     89  C   UNL A   1      31.879  24.536  26.653  1.00  0.00     0.137 C 
ATOM     90  O   UNL A   1      32.373  22.524  28.228  1.00  0.00    -0.229 OA
ATOM     91  O   UNL A   1      32.061  22.091  25.762  1.00  0.00    -0.229 OA
ENDBRANCH  82  84
ENDBRANCH  80  82
ENDBRANCH  72  74
ENDBRANCH  71  72
ENDBRANCH  70  71
ENDBRANCH   1  70
TORSDOF 13
ENDMDL
MODEL 2
REMARK VINA RESULT:     -12.6      0.683      1.770
REMARK SMILES O=C(OCCOC(=O)c1ccc(N[C@@H]2CCCS(=O)(=O)C2)c(F)c1F)c1ccc(-c2c3nc(c(-c4c(F)c(F)c(F)c(F)c4F)c4ccc([nH]4)c(-c4c(F)c(F)c(F)c(F)c4F)c4nc(c(-c5c(F)c(F)c(F)c(F)c5F)c5ccc2[nH]5)C=C4)C=C3)cc1
REMARK SMILES IDX 4 1 3 2 2 3 1 4 26 5 27 6 88 7 28 8 87 9 29 10 30 11 31 12
REMARK SMILES IDX 81 13 32 14 86 15 80 16 82 17 33 18 85 19 79 20 78 21 34 23
REMARK SMILES IDX 66 24 46 25 65 26 47 27 50 28 64 29 83 30 48 31 49 32 63 34
REMARK SMILES IDX 84 35 51 36 35 37 36 38 44 39 37 40 38 41 42 42 45 43 39 44
REMARK SMILES IDX 40 45 43 46 41 47 67 48 68 49 76 50 69 51 70 52 74 53 77 54
REMARK SMILES IDX 71 55 72 56 75 57 73 58 52 59 53 60 61 61 54 62 55 63 59 64
REMARK SMILES IDX 62 65 56 66 57 67 60 68 58 69 5 70 6 71 7 72 8 73 9 74 10 75
REMARK SMILES IDX 24 76 11 77 22 78 25 79 12 80 23 81 13 82 14 84 15 85 21 86
REMARK SMILES IDX 16 87 18 88 17 89 19 90 20 91
REMARK H PARENT 82 22 50 33 13 83
REMARK Flexibility Score: inf
ROOT
ATOM      1  C   UNL A   1      43.558  21.599  25.559  1.00  0.00     0.275 C 
ENDROOT
BRANCH   1   2
ATOM      2  O   UNL A   1      43.039  22.785  24.934  1.00  0.00    -0.458 OA
BRANCH   2   3
ATOM      3  C   UNL A   1      43.549  24.039  24.983  1.00  0.00     0.338 C 
ATOM      4  O   UNL A   1      44.560  24.316  24.340  1.00  0.00    -0.246 OA
BRANCH   3   5
ATOM      5  C   UNL A   1      43.053  25.054  25.960  1.00  0.00     0.060 A 
ATOM      6  C   UNL A   1      43.469  26.386  26.028  1.00  0.00     0.016 A 
ATOM      7  C   UNL A   1      42.123  24.598  26.911  1.00  0.00     0.016 A 
ATOM      8  C   UNL A   1      42.912  27.267  26.959  1.00  0.00     0.010 A 
ATOM      9  C   UNL A   1      41.570  25.471  27.851  1.00  0.00     0.010 A 
ATOM     10  C   UNL A   1      41.961  26.817  27.876  1.00  0.00    -0.014 A 
BRANCH  10  11
ATOM     11  C   UNL A   1      41.536  27.688  28.996  1.00  0.00     0.031 A 
ATOM     12  C   UNL A   1      42.364  27.636  30.248  1.00  0.00     0.074 A 
ATOM     13  C   UNL A   1      40.488  28.528  28.872  1.00  0.00     0.049 A 
ATOM     14  N   UNL A   1      42.187  28.248  31.385  1.00  0.00    -0.248 NA
ATOM     15  C   UNL A   1      43.589  26.813  30.193  1.00  0.00     0.031 C 
ATOM     16  C   UNL A   1      39.746  28.776  27.636  1.00  0.00     0.029 A 
ATOM     17  N   UNL A   1      39.854  29.327  29.790  1.00  0.00    -0.354 N 
ATOM     18  C   UNL A   1      43.299  27.932  32.156  1.00  0.00     0.074 A 
ATOM     19  C   UNL A   1      44.104  27.005  31.397  1.00  0.00     0.031 C 
ATOM     20  C   UNL A   1      38.737  29.632  27.878  1.00  0.00     0.029 A 
ATOM     21  C   UNL A   1      38.761  29.999  29.288  1.00  0.00     0.049 A 
ATOM     22  H   UNL A   1      40.154  29.412  30.724  1.00  0.00     0.167 HD
ATOM     23  C   UNL A   1      43.635  28.422  33.370  1.00  0.00     0.037 A 
ATOM     24  C   UNL A   1      37.874  30.801  29.913  1.00  0.00     0.037 A 
ATOM     25  C   UNL A   1      42.779  29.303  34.116  1.00  0.00     0.049 A 
ATOM     26  C   UNL A   1      38.100  31.056  31.379  1.00  0.00     0.074 A 
ATOM     27  C   UNL A   1      42.969  29.841  35.373  1.00  0.00     0.029 A 
ATOM     28  N   UNL A   1      41.544  29.756  33.662  1.00  0.00    -0.354 N 
ATOM     29  N   UNL A   1      39.134  30.730  32.117  1.00  0.00    -0.248 NA
ATOM     30  C   UNL A   1      37.044  31.773  32.100  1.00  0.00     0.031 C 
ATOM     31  C   UNL A   1      41.835  30.597  35.690  1.00  0.00     0.029 A 
ATOM     32  C   UNL A   1      40.960  30.574  34.613  1.00  0.00     0.049 A 
ATOM     33  H   UNL A   1      41.144  29.528  32.791  1.00  0.00     0.167 HD
ATOM     34  C   UNL A   1      38.885  31.241  33.381  1.00  0.00     0.074 A 
ATOM     35  C   UNL A   1      37.579  31.875  33.310  1.00  0.00     0.031 C 
ATOM     36  C   UNL A   1      39.675  31.220  34.486  1.00  0.00     0.037 A 
BRANCH  23  37
ATOM     37  C   UNL A   1      44.974  28.027  33.927  1.00  0.00     0.064 A 
ATOM     38  C   UNL A   1      45.126  26.884  34.725  1.00  0.00     0.173 A 
ATOM     39  C   UNL A   1      46.123  28.792  33.659  1.00  0.00     0.173 A 
ATOM     40  F   UNL A   1      44.066  26.113  35.010  1.00  0.00    -0.203 F 
ATOM     41  C   UNL A   1      46.373  26.520  35.229  1.00  0.00     0.198 A 
ATOM     42  C   UNL A   1      47.372  28.411  34.144  1.00  0.00     0.198 A 
ATOM     43  F   UNL A   1      46.041  29.885  32.886  1.00  0.00    -0.203 F 
ATOM     44  F   UNL A   1      46.493  25.428  35.997  1.00  0.00    -0.200 F 
ATOM     45  C   UNL A   1      47.497  27.279  34.932  1.00  0.00     0.200 A 
ATOM     46  F   UNL A   1      48.459  29.130  33.829  1.00  0.00    -0.200 F 
ATOM     47  F   UNL A   1      48.699  26.912  35.397  1.00  0.00    -0.200 F 
ENDBRANCH  23  37
BRANCH  24  48
ATOM     48  C   UNL A   1      36.722  31.400  29.175  1.00  0.00     0.064 A 
ATOM     49  C   UNL A   1      36.648  32.773  28.897  1.00  0.00     0.173 A 
ATOM     50  C   UNL A   1      35.637  30.620  28.761  1.00  0.00     0.173 A 
ATOM     51  F   UNL A   1      37.662  33.579  29.207  1.00  0.00    -0.203 F 
ATOM     52  C   UNL A   1      35.539  33.352  28.284  1.00  0.00     0.198 A 
ATOM     53  C   UNL A   1      34.525  31.194  28.132  1.00  0.00     0.198 A 
ATOM     54  F   UNL A   1      35.650  29.295  28.967  1.00  0.00    -0.203 F 
ATOM     55  F   UNL A   1      35.513  34.675  28.071  1.00  0.00    -0.200 F 
ATOM     56  C   UNL A   1      34.472  32.562  27.906  1.00  0.00     0.200 A 
ATOM     57  F   UNL A   1      33.500  30.421  27.749  1.00  0.00    -0.200 F 
ATOM     58  F   UNL A   1      33.399  33.116  27.326  1.00  0.00    -0.200 F 
ENDBRANCH  24  48
BRANCH  36  59
ATOM     59  C   UNL A   1      39.209  32.017  35.666  1.00  0.00     0.064 A 
ATOM     60  C   UNL A   1      38.382  31.408  36.624  1.00  0.00     0.173 A 
ATOM     61  C   UNL A   1      39.506  33.376  35.813  1.00  0.00     0.173 A 
ATOM     62  F   UNL A   1      38.065  30.109  36.518  1.00  0.00    -0.203 F 
ATOM     63  C   UNL A   1      37.852  32.141  37.680  1.00  0.00     0.198 A 
ATOM     64  C   UNL A   1      38.999  34.100  36.890  1.00  0.00     0.198 A 
ATOM     65  F   UNL A   1      40.309  33.993  34.933  1.00  0.00    -0.203 F 
ATOM     66  F   UNL A   1      37.036  31.549  38.561  1.00  0.00    -0.200 F 
ATOM     67  C   UNL A   1      38.166  33.485  37.814  1.00  0.00     0.200 A 
ATOM     68  F   UNL A   1      39.324  35.391  37.039  1.00  0.00    -0.200 F 
ATOM     69  F   UNL A   1      37.668  34.187  38.841  1.00  0.00    -0.200 F 
ENDBRANCH  36  59
ENDBRANCH  10  11
ENDBRANCH   3   5
ENDBRANCH   2   3
ENDBRANCH   1   2
BRANCH   1  70
ATOM     70  C   UNL A   1      42.487  20.657  26.115  1.00  0.00     0.275 C 
BRANCH  70  71
ATOM     71  O   UNL A   1      41.157  21.048  25.738  1.00  0.00    -0.458 OA
BRANCH  71  72
ATOM     72  C   UNL A   1      40.356  21.430  26.768  1.00  0.00     0.341 C 
ATOM     73  O   UNL A   1      40.619  21.375  27.955  1.00  0.00    -0.246 OA
BRANCH  72  74
ATOM     74  C   UNL A   1      39.118  22.009  26.222  1.00  0.00     0.099 A 
ATOM     75  C   UNL A   1      38.749  23.330  26.482  1.00  0.00     0.021 A 
ATOM     76  C   UNL A   1      38.275  21.204  25.471  1.00  0.00     0.175 A 
ATOM     77  C   UNL A   1      37.522  23.828  26.008  1.00  0.00     0.030 A 
ATOM     78  C   UNL A   1      37.069  21.715  25.000  1.00  0.00     0.182 A 
ATOM     79  F   UNL A   1      38.570  19.915  25.249  1.00  0.00    -0.203 F 
ATOM     80  C   UNL A   1      36.654  23.039  25.252  1.00  0.00     0.074 A 
ATOM     81  F   UNL A   1      36.244  20.905  24.313  1.00  0.00    -0.201 F 
BRANCH  80  82
ATOM     82  N   UNL A   1      35.439  23.452  24.743  1.00  0.00    -0.379 N 
ATOM     83  H   UNL A   1      35.517  23.959  23.903  1.00  0.00     0.160 HD
BRANCH  82  84
ATOM     84  C   UNL A   1      34.058  23.285  25.202  1.00  0.00     0.094 C 
ATOM     85  C   UNL A   1      33.161  22.629  24.139  1.00  0.00     0.027 C 
ATOM     86  C   UNL A   1      33.520  24.579  25.798  1.00  0.00     0.161 C 
ATOM     87  C   UNL A   1      31.738  22.353  24.626  1.00  0.00     0.018 C 
ATOM     88  S   UNL A   1      31.928  24.297  26.531  1.00  0.00     0.152 S 
ATOM     89  C   UNL A   1      31.065  23.609  25.155  1.00  0.00     0.137 C 
ATOM     90  O   UNL A   1      31.328  25.579  26.834  1.00  0.00    -0.229 OA
ATOM     91  O   UNL A   1      32.052  23.270  27.546  1.00  0.00    -0.229 OA
ENDBRANCH  82  84
ENDBRANCH  80  82
ENDBRANCH  72  74
ENDBRANCH  71  72
ENDBRANCH  70  71
ENDBRANCH   1  70
TORSDOF 13
ENDMDL
MODEL 3
REMARK VINA RESULT:     -12.5      1.198      1.728
REMARK SMILES O=C(OCCOC(=O)c1ccc(N[C@@H]2CCCS(=O)(=O)C2)c(F)c1F)c1ccc(-c2c3nc(c(-c4c(F)c(F)c(F)c(F)c4F)c4ccc([nH]4)c(-c4c(F)c(F)c(F)c(F)c4F)c4nc(c(-c5c(F)c(F)c(F)c(F)c5F)c5ccc2[nH]5)C=C4)C=C3)cc1
REMARK SMILES IDX 4 1 3 2 2 3 1 4 26 5 27 6 88 7 28 8 87 9 29 10 30 11 31 12
REMARK SMILES IDX 81 13 32 14 86 15 80 16 82 17 33 18 85 19 79 20 78 21 34 23
REMARK SMILES IDX 66 24 46 25 65 26 47 27 50 28 64 29 83 30 48 31 49 32 63 34
REMARK SMILES IDX 84 35 51 36 35 37 36 38 44 39 37 40 38 41 42 42 45 43 39 44
REMARK SMILES IDX 40 45 43 46 41 47 67 48 68 49 76 50 69 51 70 52 74 53 77 54
REMARK SMILES IDX 71 55 72 56 75 57 73 58 52 59 53 60 61 61 54 62 55 63 59 64
REMARK SMILES IDX 62 65 56 66 57 67 60 68 58 69 5 70 6 71 7 72 8 73 9 74 10 75
REMARK SMILES IDX 24 76 11 77 22 78 25 79 12 80 23 81 13 82 14 84 15 85 21 86
REMARK SMILES IDX 16 87 18 88 17 89 19 90 20 91
REMARK H PARENT 82 22 50 33 13 83
REMARK Flexibility Score: inf
ROOT
ATOM      1  C   UNL A   1      43.492  21.814  25.360  1.00  0.00     0.275 C 
ENDROOT
BRANCH   1   2
ATOM      2  O   UNL A   1      43.071  23.074  24.810  1.00  0.00    -0.458 OA
BRANCH   2   3
ATOM      3  C   UNL A   1      43.635  24.291  25.001  1.00  0.00     0.338 C 
ATOM      4  O   UNL A   1      44.724  24.549  24.492  1.00  0.00    -0.246 OA
BRANCH   3   5
ATOM      5  C   UNL A   1      43.084  25.270  25.985  1.00  0.00     0.060 A 
ATOM      6  C   UNL A   1      43.384  26.634  26.027  1.00  0.00     0.016 A 
ATOM      7  C   UNL A   1      42.230  24.746  26.970  1.00  0.00     0.016 A 
ATOM      8  C   UNL A   1      42.783  27.474  26.969  1.00  0.00     0.010 A 
ATOM      9  C   UNL A   1      41.634  25.578  27.921  1.00  0.00     0.010 A 
ATOM     10  C   UNL A   1      41.906  26.953  27.921  1.00  0.00    -0.014 A 
BRANCH  10  11
ATOM     11  C   UNL A   1      41.443  27.797  29.047  1.00  0.00     0.031 A 
ATOM     12  C   UNL A   1      42.243  27.732  30.317  1.00  0.00     0.074 A 
ATOM     13  C   UNL A   1      40.388  28.625  28.914  1.00  0.00     0.049 A 
ATOM     14  N   UNL A   1      42.031  28.319  31.461  1.00  0.00    -0.248 NA
ATOM     15  C   UNL A   1      43.480  26.925  30.275  1.00  0.00     0.031 C 
ATOM     16  C   UNL A   1      39.671  28.888  27.667  1.00  0.00     0.029 A 
ATOM     17  N   UNL A   1      39.722  29.398  29.832  1.00  0.00    -0.354 N 
ATOM     18  C   UNL A   1      43.129  28.002  32.251  1.00  0.00     0.074 A 
ATOM     19  C   UNL A   1      43.964  27.101  31.495  1.00  0.00     0.031 C 
ATOM     20  C   UNL A   1      38.645  29.726  27.901  1.00  0.00     0.029 A 
ATOM     21  C   UNL A   1      38.632  30.065  29.318  1.00  0.00     0.049 A 
ATOM     22  H   UNL A   1      39.999  29.469  30.775  1.00  0.00     0.167 HD
ATOM     23  C   UNL A   1      43.430  28.473  33.482  1.00  0.00     0.037 A 
ATOM     24  C   UNL A   1      37.720  30.844  29.936  1.00  0.00     0.037 A 
ATOM     25  C   UNL A   1      42.546  29.329  34.225  1.00  0.00     0.049 A 
ATOM     26  C   UNL A   1      37.908  31.074  31.412  1.00  0.00     0.074 A 
ATOM     27  C   UNL A   1      42.698  29.845  35.496  1.00  0.00     0.029 A 
ATOM     28  N   UNL A   1      41.315  29.774  33.750  1.00  0.00    -0.354 N 
ATOM     29  N   UNL A   1      38.929  30.747  32.168  1.00  0.00    -0.248 NA
ATOM     30  C   UNL A   1      36.826  31.763  32.122  1.00  0.00     0.031 C 
ATOM     31  C   UNL A   1      41.548  30.580  35.801  1.00  0.00     0.029 A 
ATOM     32  C   UNL A   1      40.698  30.566  34.703  1.00  0.00     0.049 A 
ATOM     33  H   UNL A   1      40.939  29.558  32.866  1.00  0.00     0.167 HD
ATOM     34  C   UNL A   1      38.643  31.230  33.435  1.00  0.00     0.074 A 
ATOM     35  C   UNL A   1      37.332  31.849  33.346  1.00  0.00     0.031 C 
ATOM     36  C   UNL A   1      39.408  31.198  34.558  1.00  0.00     0.037 A 
BRANCH  23  37
ATOM     37  C   UNL A   1      44.761  28.085  34.063  1.00  0.00     0.064 A 
ATOM     38  C   UNL A   1      44.915  26.916  34.823  1.00  0.00     0.173 A 
ATOM     39  C   UNL A   1      45.900  28.882  33.857  1.00  0.00     0.173 A 
ATOM     40  F   UNL A   1      43.864  26.114  35.049  1.00  0.00    -0.203 F 
ATOM     41  C   UNL A   1      46.155  26.559  35.349  1.00  0.00     0.198 A 
ATOM     42  C   UNL A   1      47.143  28.509  34.363  1.00  0.00     0.198 A 
ATOM     43  F   UNL A   1      45.818  30.001  33.122  1.00  0.00    -0.203 F 
ATOM     44  F   UNL A   1      46.276  25.442  36.080  1.00  0.00    -0.200 F 
ATOM     45  C   UNL A   1      47.270  27.351  35.113  1.00  0.00     0.200 A 
ATOM     46  F   UNL A   1      48.223  29.261  34.106  1.00  0.00    -0.200 F 
ATOM     47  F   UNL A   1      48.466  26.992  35.598  1.00  0.00    -0.200 F 
ENDBRANCH  23  37
BRANCH  24  48
ATOM     48  C   UNL A   1      36.577  31.442  29.183  1.00  0.00     0.064 A 
ATOM     49  C   UNL A   1      36.492  32.819  28.929  1.00  0.00     0.173 A 
ATOM     50  C   UNL A   1      35.512  30.656  28.731  1.00  0.00     0.173 A 
ATOM     51  F   UNL A   1      37.489  33.632  29.276  1.00  0.00    -0.203 F 
ATOM     52  C   UNL A   1      35.390  33.395  28.301  1.00  0.00     0.198 A 
ATOM     53  C   UNL A   1      34.407  31.228  28.087  1.00  0.00     0.198 A 
ATOM     54  F   UNL A   1      35.537  29.329  28.914  1.00  0.00    -0.203 F 
ATOM     55  F   UNL A   1      35.353  34.721  28.110  1.00  0.00    -0.200 F 
ATOM     56  C   UNL A   1      34.342  32.599  27.885  1.00  0.00     0.200 A 
ATOM     57  F   UNL A   1      33.401  30.450  27.666  1.00  0.00    -0.200 F 
ATOM     58  F   UNL A   1      33.276  33.151  27.290  1.00  0.00    -0.200 F 
ENDBRANCH  24  48
BRANCH  36  59
ATOM     59  C   UNL A   1      38.904  31.965  35.742  1.00  0.00     0.064 A 
ATOM     60  C   UNL A   1      39.256  33.318  35.886  1.00  0.00     0.173 A 
ATOM     61  C   UNL A   1      38.154  31.364  36.757  1.00  0.00     0.173 A 
ATOM     62  F   UNL A   1      39.981  33.933  34.940  1.00  0.00    -0.203 F 
ATOM     63  C   UNL A   1      38.889  34.034  37.019  1.00  0.00     0.198 A 
ATOM     64  C   UNL A   1      37.761  32.093  37.876  1.00  0.00     0.198 A 
ATOM     65  F   UNL A   1      37.778  30.080  36.652  1.00  0.00    -0.203 F 
ATOM     66  F   UNL A   1      39.267  35.312  37.152  1.00  0.00    -0.200 F 
ATOM     67  C   UNL A   1      38.137  33.423  38.010  1.00  0.00     0.200 A 
ATOM     68  F   UNL A   1      37.010  31.514  38.822  1.00  0.00    -0.200 F 
ATOM     69  F   UNL A   1      37.770  34.119  39.095  1.00  0.00    -0.200 F 
ENDBRANCH  36  59
ENDBRANCH  10  11
ENDBRANCH   3   5
ENDBRANCH   2   3
ENDBRANCH   1   2
BRANCH   1  70
ATOM     70  C   UNL A   1      42.402  21.066  26.133  1.00  0.00     0.275 C 
BRANCH  70  71
ATOM     71  O   UNL A   1      41.078  21.424  25.708  1.00  0.00    -0.458 OA
BRANCH  71  72
ATOM     72  C   UNL A   1      40.200  21.680  26.715  1.00  0.00     0.341 C 
ATOM     73  O   UNL A   1      40.402  21.548  27.908  1.00  0.00    -0.246 OA
BRANCH  72  74
ATOM     74  C   UNL A   1      38.961  22.229  26.141  1.00  0.00     0.099 A 
ATOM     75  C   UNL A   1      38.579  23.554  26.355  1.00  0.00     0.021 A 
ATOM     76  C   UNL A   1      38.131  21.392  25.412  1.00  0.00     0.175 A 
ATOM     77  C   UNL A   1      37.350  24.026  25.857  1.00  0.00     0.030 A 
ATOM     78  C   UNL A   1      36.923  21.876  24.916  1.00  0.00     0.182 A 
ATOM     79  F   UNL A   1      38.438  20.099  25.234  1.00  0.00    -0.203 F 
ATOM     80  C   UNL A   1      36.494  23.204  25.122  1.00  0.00     0.074 A 
ATOM     81  F   UNL A   1      36.111  21.037  24.251  1.00  0.00    -0.201 F 
BRANCH  80  82
ATOM     82  N   UNL A   1      35.280  23.588  24.591  1.00  0.00    -0.379 N 
ATOM     83  H   UNL A   1      34.862  22.900  24.026  1.00  0.00     0.160 HD
BRANCH  82  84
ATOM     84  C   UNL A   1      34.489  24.817  24.701  1.00  0.00     0.094 C 
ATOM     85  C   UNL A   1      33.569  24.813  25.934  1.00  0.00     0.027 C 
ATOM     86  C   UNL A   1      33.807  25.149  23.381  1.00  0.00     0.161 C 
ATOM     87  C   UNL A   1      32.804  26.122  26.128  1.00  0.00     0.018 C 
ATOM     88  S   UNL A   1      33.028  26.741  23.481  1.00  0.00     0.152 S 
ATOM     89  C   UNL A   1      32.000  26.501  24.894  1.00  0.00     0.137 C 
ATOM     90  O   UNL A   1      32.165  26.903  22.329  1.00  0.00    -0.229 OA
ATOM     91  O   UNL A   1      34.029  27.735  23.812  1.00  0.00    -0.229 OA
ENDBRANCH  82  84
ENDBRANCH  80  82
ENDBRANCH  72  74
ENDBRANCH  71  72
ENDBRANCH  70  71
ENDBRANCH   1  70
TORSDOF 13
ENDMDL
