MODEL 1
REMARK VINA RESULT:     -11.3      0.000      0.000
REMARK SMILES O=C(CC[C@@H]1COc2ccc(Br)cc2C1=O)OCCOC(=O)c1ccc(-c2c3nc(c(-c4c(F)c(F)c(F)c(F)c4F)c4ccc([nH]4)c(-c4c(F)c(F)c(F)c(F)c4F)c4nc(c(-c5c(F)c(F)c(F)c(F)c5F)c5ccc2[nH]5)C=C4)C=C3)cc1
REMARK SMILES IDX 18 1 17 2 2 3 1 4 3 5 4 6 5 7 6 8 15 9 7 10 14 11 16 12 8 13
REMARK SMILES IDX 13 14 9 15 11 16 10 17 12 18 19 19 20 20 21 21 22 22 23 23
REMARK SMILES IDX 24 24 85 25 25 26 84 27 26 28 27 29 28 30 78 31 29 32 83 33
REMARK SMILES IDX 77 34 79 35 30 36 82 37 76 38 75 39 31 41 63 42 43 43 62 44
REMARK SMILES IDX 44 45 47 46 61 47 80 48 45 49 46 50 60 52 81 53 48 54 32 55
REMARK SMILES IDX 33 56 41 57 34 58 35 59 39 60 42 61 36 62 37 63 40 64 38 65
REMARK SMILES IDX 64 66 65 67 73 68 66 69 67 70 71 71 74 72 68 73 69 74 72 75
REMARK SMILES IDX 70 76 49 77 50 78 58 79 51 80 52 81 56 82 59 83 53 84 54 85
REMARK SMILES IDX 57 86 55 87
REMARK H PARENT 79 40 47 51
REMARK Flexibility Score: inf
ROOT
ATOM      1  C   UNL A   1      42.452  19.342  26.360  1.00  0.00     0.274 C 
ENDROOT
BRANCH   1   2
ATOM      2  O   UNL A   1      43.228  19.327  25.142  1.00  0.00    -0.462 OA
BRANCH   2   3
ATOM      3  C   UNL A   1      44.570  19.152  25.071  1.00  0.00     0.305 C 
ATOM      4  O   UNL A   1      45.071  18.070  25.374  1.00  0.00    -0.252 OA
BRANCH   3   5
ATOM      5  C   UNL A   1      45.453  20.313  24.670  1.00  0.00     0.123 C 
BRANCH   5   6
ATOM      6  C   UNL A   1      44.811  21.234  23.619  1.00  0.00     0.027 C 
BRANCH   6   7
ATOM      7  C   UNL A   1      45.059  22.711  23.920  1.00  0.00     0.099 C 
ATOM      8  C   UNL A   1      46.242  22.996  24.831  1.00  0.00     0.241 C 
ATOM      9  C   UNL A   1      43.889  23.367  24.627  1.00  0.00     0.173 C 
ATOM     10  O   UNL A   1      46.535  24.409  24.830  1.00  0.00    -0.492 OA
ATOM     11  C   UNL A   1      44.123  24.771  24.985  1.00  0.00     0.061 A 
ATOM     12  O   UNL A   1      42.797  22.845  24.810  1.00  0.00    -0.294 OA
ATOM     13  C   UNL A   1      45.444  25.224  25.002  1.00  0.00     0.130 A 
ATOM     14  C   UNL A   1      43.047  25.642  25.171  1.00  0.00     0.031 A 
ATOM     15  C   UNL A   1      45.689  26.585  25.157  1.00  0.00     0.048 A 
ATOM     16  C   UNL A   1      43.308  26.998  25.336  1.00  0.00     0.018 A 
ATOM     17  C   UNL A   1      44.620  27.475  25.317  1.00  0.00     0.019 A 
ATOM     18  Br  UNL A   1      41.870  28.206  25.542  1.00  0.00    -0.051 Br
ENDBRANCH   6   7
ENDBRANCH   5   6
ENDBRANCH   3   5
ENDBRANCH   2   3
ENDBRANCH   1   2
BRANCH   1  19
ATOM     19  C   UNL A   1      40.973  19.632  26.128  1.00  0.00     0.275 C 
BRANCH  19  20
ATOM     20  O   UNL A   1      40.517  20.601  27.080  1.00  0.00    -0.458 OA
BRANCH  20  21
ATOM     21  C   UNL A   1      39.836  21.641  26.539  1.00  0.00     0.338 C 
ATOM     22  O   UNL A   1      38.931  21.577  25.729  1.00  0.00    -0.246 OA
BRANCH  21  23
ATOM     23  C   UNL A   1      40.240  22.895  27.213  1.00  0.00     0.060 A 
ATOM     24  C   UNL A   1      41.342  22.961  28.074  1.00  0.00     0.016 A 
ATOM     25  C   UNL A   1      39.465  24.037  26.973  1.00  0.00     0.016 A 
ATOM     26  C   UNL A   1      41.690  24.182  28.655  1.00  0.00     0.010 A 
ATOM     27  C   UNL A   1      39.818  25.256  27.548  1.00  0.00     0.010 A 
ATOM     28  C   UNL A   1      40.949  25.342  28.371  1.00  0.00    -0.014 A 
BRANCH  28  29
ATOM     29  C   UNL A   1      41.460  26.668  28.785  1.00  0.00     0.031 A 
ATOM     30  C   UNL A   1      42.925  26.962  28.863  1.00  0.00     0.074 A 
ATOM     31  C   UNL A   1      40.556  27.607  29.122  1.00  0.00     0.049 A 
ATOM     32  N   UNL A   1      43.515  28.096  29.148  1.00  0.00    -0.248 NA
ATOM     33  C   UNL A   1      43.847  25.850  28.596  1.00  0.00     0.031 C 
ATOM     34  C   UNL A   1      39.106  27.411  29.122  1.00  0.00     0.029 A 
ATOM     35  N   UNL A   1      40.720  28.906  29.529  1.00  0.00    -0.354 N 
ATOM     36  C   UNL A   1      44.876  27.843  29.072  1.00  0.00     0.074 A 
ATOM     37  C   UNL A   1      45.028  26.437  28.757  1.00  0.00     0.031 C 
ATOM     38  C   UNL A   1      38.510  28.555  29.490  1.00  0.00     0.029 A 
ATOM     39  C   UNL A   1      39.535  29.555  29.770  1.00  0.00     0.049 A 
ATOM     40  H   UNL A   1      41.601  29.333  29.636  1.00  0.00     0.167 HD
ATOM     41  C   UNL A   1      45.898  28.716  29.234  1.00  0.00     0.037 A 
ATOM     42  C   UNL A   1      39.299  30.819  30.170  1.00  0.00     0.037 A 
ATOM     43  C   UNL A   1      45.737  30.111  29.555  1.00  0.00     0.049 A 
ATOM     44  C   UNL A   1      40.456  31.749  30.386  1.00  0.00     0.074 A 
ATOM     45  C   UNL A   1      46.714  31.087  29.670  1.00  0.00     0.029 A 
ATOM     46  N   UNL A   1      44.525  30.728  29.830  1.00  0.00    -0.354 N 
ATOM     47  N   UNL A   1      41.736  31.526  30.215  1.00  0.00    -0.248 NA
ATOM     48  C   UNL A   1      40.139  33.109  30.846  1.00  0.00     0.031 C 
ATOM     49  C   UNL A   1      46.099  32.280  30.062  1.00  0.00     0.029 A 
ATOM     50  C   UNL A   1      44.734  32.061  30.148  1.00  0.00     0.049 A 
ATOM     51  H   UNL A   1      43.646  30.284  29.802  1.00  0.00     0.167 HD
ATOM     52  C   UNL A   1      42.374  32.718  30.524  1.00  0.00     0.074 A 
ATOM     53  C   UNL A   1      41.342  33.666  30.885  1.00  0.00     0.031 C 
ATOM     54  C   UNL A   1      43.700  32.996  30.507  1.00  0.00     0.037 A 
BRANCH  41  55
ATOM     55  C   UNL A   1      47.296  28.213  29.041  1.00  0.00     0.064 A 
ATOM     56  C   UNL A   1      47.966  27.530  30.067  1.00  0.00     0.173 A 
ATOM     57  C   UNL A   1      47.922  28.299  27.788  1.00  0.00     0.173 A 
ATOM     58  F   UNL A   1      47.409  27.423  31.283  1.00  0.00    -0.203 F 
ATOM     59  C   UNL A   1      49.212  26.951  29.845  1.00  0.00     0.198 A 
ATOM     60  C   UNL A   1      49.160  27.701  27.565  1.00  0.00     0.198 A 
ATOM     61  F   UNL A   1      47.316  28.931  26.773  1.00  0.00    -0.203 F 
ATOM     62  F   UNL A   1      49.838  26.309  30.841  1.00  0.00    -0.200 F 
ATOM     63  C   UNL A   1      49.803  27.026  28.592  1.00  0.00     0.200 A 
ATOM     64  F   UNL A   1      49.721  27.761  26.350  1.00  0.00    -0.200 F 
ATOM     65  F   UNL A   1      50.989  26.444  28.373  1.00  0.00    -0.200 F 
ENDBRANCH  41  55
BRANCH  42  66
ATOM     66  C   UNL A   1      37.901  31.277  30.347  1.00  0.00     0.064 A 
ATOM     67  C   UNL A   1      37.347  31.405  31.627  1.00  0.00     0.173 A 
ATOM     68  C   UNL A   1      37.104  31.630  29.248  1.00  0.00     0.173 A 
ATOM     69  F   UNL A   1      38.067  31.064  32.705  1.00  0.00    -0.203 F 
ATOM     70  C   UNL A   1      36.043  31.864  31.802  1.00  0.00     0.198 A 
ATOM     71  C   UNL A   1      35.808  32.110  29.425  1.00  0.00     0.198 A 
ATOM     72  F   UNL A   1      37.595  31.531  28.004  1.00  0.00    -0.203 F 
ATOM     73  F   UNL A   1      35.526  31.953  33.035  1.00  0.00    -0.200 F 
ATOM     74  C   UNL A   1      35.278  32.223  30.701  1.00  0.00     0.200 A 
ATOM     75  F   UNL A   1      35.078  32.469  28.361  1.00  0.00    -0.200 F 
ATOM     76  F   UNL A   1      34.028  32.675  30.872  1.00  0.00    -0.200 F 
ENDBRANCH  42  66
BRANCH  54  77
ATOM     77  C   UNL A   1      44.122  34.385  30.879  1.00  0.00     0.064 A 
ATOM     78  C   UNL A   1      44.107  35.426  29.941  1.00  0.00     0.173 A 
ATOM     79  C   UNL A   1      44.465  34.695  32.204  1.00  0.00     0.173 A 
ATOM     80  F   UNL A   1      43.801  35.175  28.659  1.00  0.00    -0.203 F 
ATOM     81  C   UNL A   1      44.424  36.729  30.316  1.00  0.00     0.198 A 
ATOM     82  C   UNL A   1      44.758  36.002  32.580  1.00  0.00     0.198 A 
ATOM     83  F   UNL A   1      44.488  33.731  33.139  1.00  0.00    -0.203 F 
ATOM     84  F   UNL A   1      44.425  37.706  29.398  1.00  0.00    -0.200 F 
ATOM     85  C   UNL A   1      44.738  37.017  31.636  1.00  0.00     0.200 A 
ATOM     86  F   UNL A   1      45.050  36.281  33.857  1.00  0.00    -0.200 F 
ATOM     87  F   UNL A   1      45.024  38.276  31.998  1.00  0.00    -0.200 F 
ENDBRANCH  54  77
ENDBRANCH  28  29
ENDBRANCH  21  23
ENDBRANCH  20  21
ENDBRANCH  19  20
ENDBRANCH   1  19
TORSDOF 13
ENDMDL
MODEL 2
REMARK VINA RESULT:     -11.0      4.285      9.373
REMARK SMILES O=C(CC[C@@H]1COc2ccc(Br)cc2C1=O)OCCOC(=O)c1ccc(-c2c3nc(c(-c4c(F)c(F)c(F)c(F)c4F)c4ccc([nH]4)c(-c4c(F)c(F)c(F)c(F)c4F)c4nc(c(-c5c(F)c(F)c(F)c(F)c5F)c5ccc2[nH]5)C=C4)C=C3)cc1
REMARK SMILES IDX 18 1 17 2 2 3 1 4 3 5 4 6 5 7 6 8 15 9 7 10 14 11 16 12 8 13
REMARK SMILES IDX 13 14 9 15 11 16 10 17 12 18 19 19 20 20 21 21 22 22 23 23
REMARK SMILES IDX 24 24 85 25 25 26 84 27 26 28 27 29 28 30 78 31 29 32 83 33
REMARK SMILES IDX 77 34 79 35 30 36 82 37 76 38 75 39 31 41 63 42 43 43 62 44
REMARK SMILES IDX 44 45 47 46 61 47 80 48 45 49 46 50 60 52 81 53 48 54 32 55
REMARK SMILES IDX 33 56 41 57 34 58 35 59 39 60 42 61 36 62 37 63 40 64 38 65
REMARK SMILES IDX 64 66 65 67 73 68 66 69 67 70 71 71 74 72 68 73 69 74 72 75
REMARK SMILES IDX 70 76 49 77 50 78 58 79 51 80 52 81 56 82 59 83 53 84 54 85
REMARK SMILES IDX 57 86 55 87
REMARK H PARENT 79 40 47 51
REMARK Flexibility Score: inf
ROOT
ATOM      1  C   UNL A   1      42.658  21.150  25.857  1.00  0.00     0.274 C 
ENDROOT
BRANCH   1   2
ATOM      2  O   UNL A   1      41.273  21.467  25.599  1.00  0.00    -0.462 OA
BRANCH   2   3
ATOM      3  C   UNL A   1      40.291  21.497  26.532  1.00  0.00     0.305 C 
ATOM      4  O   UNL A   1      40.468  20.985  27.636  1.00  0.00    -0.252 OA
BRANCH   3   5
ATOM      5  C   UNL A   1      38.954  22.117  26.187  1.00  0.00     0.123 C 
BRANCH   5   6
ATOM      6  C   UNL A   1      38.251  21.434  25.003  1.00  0.00     0.027 C 
BRANCH   6   7
ATOM      7  C   UNL A   1      36.737  21.631  25.040  1.00  0.00     0.099 C 
ATOM      8  C   UNL A   1      35.918  20.351  25.002  1.00  0.00     0.241 C 
ATOM      9  C   UNL A   1      36.223  22.429  23.859  1.00  0.00     0.173 C 
ATOM     10  O   UNL A   1      34.537  20.641  25.305  1.00  0.00    -0.492 OA
ATOM     11  C   UNL A   1      34.763  22.582  23.836  1.00  0.00     0.061 A 
ATOM     12  O   UNL A   1      36.927  22.999  23.036  1.00  0.00    -0.294 OA
ATOM     13  C   UNL A   1      34.008  21.706  24.620  1.00  0.00     0.130 A 
ATOM     14  C   UNL A   1      34.174  23.648  23.154  1.00  0.00     0.031 A 
ATOM     15  C   UNL A   1      32.643  21.936  24.764  1.00  0.00     0.048 A 
ATOM     16  C   UNL A   1      32.807  23.859  23.298  1.00  0.00     0.018 A 
ATOM     17  C   UNL A   1      32.042  23.018  24.109  1.00  0.00     0.019 A 
ATOM     18  Br  UNL A   1      31.991  25.322  22.425  1.00  0.00    -0.051 Br
ENDBRANCH   6   7
ENDBRANCH   5   6
ENDBRANCH   3   5
ENDBRANCH   2   3
ENDBRANCH   1   2
BRANCH   1  19
ATOM     19  C   UNL A   1      43.631  22.115  25.187  1.00  0.00     0.275 C 
BRANCH  19  20
ATOM     20  O   UNL A   1      42.974  23.364  24.937  1.00  0.00    -0.458 OA
BRANCH  20  21
ATOM     21  C   UNL A   1      43.733  24.457  25.196  1.00  0.00     0.338 C 
ATOM     22  O   UNL A   1      44.756  24.786  24.626  1.00  0.00    -0.246 OA
BRANCH  21  23
ATOM     23  C   UNL A   1      43.036  25.314  26.181  1.00  0.00     0.060 A 
ATOM     24  C   UNL A   1      42.010  24.831  27.001  1.00  0.00     0.016 A 
ATOM     25  C   UNL A   1      43.430  26.655  26.264  1.00  0.00     0.016 A 
ATOM     26  C   UNL A   1      41.413  25.682  27.933  1.00  0.00     0.010 A 
ATOM     27  C   UNL A   1      42.840  27.502  27.201  1.00  0.00     0.010 A 
ATOM     28  C   UNL A   1      41.846  27.013  28.059  1.00  0.00    -0.014 A 
BRANCH  28  29
ATOM     29  C   UNL A   1      41.391  27.835  29.203  1.00  0.00     0.031 A 
ATOM     30  C   UNL A   1      40.208  28.744  29.103  1.00  0.00     0.074 A 
ATOM     31  C   UNL A   1      42.102  27.763  30.345  1.00  0.00     0.049 A 
ATOM     32  N   UNL A   1      39.657  29.474  30.041  1.00  0.00    -0.248 NA
ATOM     33  C   UNL A   1      39.560  28.858  27.789  1.00  0.00     0.031 C 
ATOM     34  C   UNL A   1      43.297  26.941  30.536  1.00  0.00     0.029 A 
ATOM     35  N   UNL A   1      41.925  28.385  31.554  1.00  0.00    -0.354 N 
ATOM     36  C   UNL A   1      38.585  30.116  29.441  1.00  0.00     0.074 A 
ATOM     37  C   UNL A   1      38.586  29.725  28.046  1.00  0.00     0.031 C 
ATOM     38  C   UNL A   1      43.736  27.093  31.794  1.00  0.00     0.029 A 
ATOM     39  C   UNL A   1      42.867  28.036  32.489  1.00  0.00     0.049 A 
ATOM     40  H   UNL A   1      41.194  29.019  31.734  1.00  0.00     0.167 HD
ATOM     41  C   UNL A   1      37.678  30.939  30.015  1.00  0.00     0.037 A 
ATOM     42  C   UNL A   1      43.011  28.429  33.768  1.00  0.00     0.037 A 
ATOM     43  C   UNL A   1      37.691  31.329  31.402  1.00  0.00     0.049 A 
ATOM     44  C   UNL A   1      42.014  29.380  34.362  1.00  0.00     0.074 A 
ATOM     45  C   UNL A   1      36.770  32.106  32.087  1.00  0.00     0.029 A 
ATOM     46  N   UNL A   1      38.679  30.987  32.313  1.00  0.00    -0.354 N 
ATOM     47  N   UNL A   1      40.947  29.904  33.813  1.00  0.00    -0.248 NA
ATOM     48  C   UNL A   1      42.238  29.792  35.755  1.00  0.00     0.031 C 
ATOM     49  C   UNL A   1      37.227  32.275  33.398  1.00  0.00     0.029 A 
ATOM     50  C   UNL A   1      38.409  31.567  33.543  1.00  0.00     0.049 A 
ATOM     51  H   UNL A   1      39.457  30.418  32.115  1.00  0.00     0.167 HD
ATOM     52  C   UNL A   1      40.360  30.688  34.794  1.00  0.00     0.074 A 
ATOM     53  C   UNL A   1      41.184  30.566  35.978  1.00  0.00     0.031 C 
ATOM     54  C   UNL A   1      39.236  31.440  34.715  1.00  0.00     0.037 A 
BRANCH  41  55
ATOM     55  C   UNL A   1      36.563  31.468  29.164  1.00  0.00     0.064 A 
ATOM     56  C   UNL A   1      35.496  30.643  28.777  1.00  0.00     0.173 A 
ATOM     57  C   UNL A   1      36.492  32.832  28.843  1.00  0.00     0.173 A 
ATOM     58  F   UNL A   1      35.519  29.333  29.059  1.00  0.00    -0.203 F 
ATOM     59  C   UNL A   1      34.399  31.166  28.098  1.00  0.00     0.198 A 
ATOM     60  C   UNL A   1      35.384  33.354  28.182  1.00  0.00     0.198 A 
ATOM     61  F   UNL A   1      37.481  33.663  29.203  1.00  0.00    -0.203 F 
ATOM     62  F   UNL A   1      33.394  30.359  27.730  1.00  0.00    -0.200 F 
ATOM     63  C   UNL A   1      34.338  32.522  27.811  1.00  0.00     0.200 A 
ATOM     64  F   UNL A   1      35.319  34.667  27.920  1.00  0.00    -0.200 F 
ATOM     65  F   UNL A   1      33.268  33.028  27.183  1.00  0.00    -0.200 F 
ENDBRANCH  41  55
BRANCH  42  66
ATOM     66  C   UNL A   1      44.127  27.881  34.576  1.00  0.00     0.064 A 
ATOM     67  C   UNL A   1      44.014  26.630  35.195  1.00  0.00     0.173 A 
ATOM     68  C   UNL A   1      45.337  28.577  34.715  1.00  0.00     0.173 A 
ATOM     69  F   UNL A   1      42.870  25.938  35.102  1.00  0.00    -0.203 F 
ATOM     70  C   UNL A   1      45.070  26.096  35.931  1.00  0.00     0.198 A 
ATOM     71  C   UNL A   1      46.400  28.032  35.432  1.00  0.00     0.198 A 
ATOM     72  F   UNL A   1      45.494  29.775  34.133  1.00  0.00    -0.203 F 
ATOM     73  F   UNL A   1      44.929  24.909  36.536  1.00  0.00    -0.200 F 
ATOM     74  C   UNL A   1      46.264  26.794  36.042  1.00  0.00     0.200 A 
ATOM     75  F   UNL A   1      47.556  28.702  35.525  1.00  0.00    -0.200 F 
ATOM     76  F   UNL A   1      47.283  26.274  36.741  1.00  0.00    -0.200 F 
ENDBRANCH  42  66
BRANCH  54  77
ATOM     77  C   UNL A   1      38.815  32.189  35.943  1.00  0.00     0.064 A 
ATOM     78  C   UNL A   1      38.112  31.555  36.976  1.00  0.00     0.173 A 
ATOM     79  C   UNL A   1      39.189  33.529  36.125  1.00  0.00     0.173 A 
ATOM     80  F   UNL A   1      37.718  30.280  36.842  1.00  0.00    -0.203 F 
ATOM     81  C   UNL A   1      37.795  32.238  38.148  1.00  0.00     0.198 A 
ATOM     82  C   UNL A   1      38.892  34.201  37.306  1.00  0.00     0.198 A 
ATOM     83  F   UNL A   1      39.869  34.177  35.165  1.00  0.00    -0.203 F 
ATOM     84  F   UNL A   1      37.102  31.620  39.115  1.00  0.00    -0.200 F 
ATOM     85  C   UNL A   1      38.194  33.555  38.316  1.00  0.00     0.200 A 
ATOM     86  F   UNL A   1      39.288  35.470  37.471  1.00  0.00    -0.200 F 
ATOM     87  F   UNL A   1      37.906  34.205  39.452  1.00  0.00    -0.200 F 
ENDBRANCH  54  77
ENDBRANCH  28  29
ENDBRANCH  21  23
ENDBRANCH  20  21
ENDBRANCH  19  20
ENDBRANCH   1  19
TORSDOF 13
ENDMDL
MODEL 3
REMARK VINA RESULT:     -10.9      3.921      8.756
REMARK SMILES O=C(CC[C@@H]1COc2ccc(Br)cc2C1=O)OCCOC(=O)c1ccc(-c2c3nc(c(-c4c(F)c(F)c(F)c(F)c4F)c4ccc([nH]4)c(-c4c(F)c(F)c(F)c(F)c4F)c4nc(c(-c5c(F)c(F)c(F)c(F)c5F)c5ccc2[nH]5)C=C4)C=C3)cc1
REMARK SMILES IDX 18 1 17 2 2 3 1 4 3 5 4 6 5 7 6 8 15 9 7 10 14 11 16 12 8 13
REMARK SMILES IDX 13 14 9 15 11 16 10 17 12 18 19 19 20 20 21 21 22 22 23 23
REMARK SMILES IDX 24 24 85 25 25 26 84 27 26 28 27 29 28 30 78 31 29 32 83 33
REMARK SMILES IDX 77 34 79 35 30 36 82 37 76 38 75 39 31 41 63 42 43 43 62 44
REMARK SMILES IDX 44 45 47 46 61 47 80 48 45 49 46 50 60 52 81 53 48 54 32 55
REMARK SMILES IDX 33 56 41 57 34 58 35 59 39 60 42 61 36 62 37 63 40 64 38 65
REMARK SMILES IDX 64 66 65 67 73 68 66 69 67 70 71 71 74 72 68 73 69 74 72 75
REMARK SMILES IDX 70 76 49 77 50 78 58 79 51 80 52 81 56 82 59 83 53 84 54 85
REMARK SMILES IDX 57 86 55 87
REMARK H PARENT 79 40 47 51
REMARK Flexibility Score: inf
ROOT
ATOM      1  C   UNL A   1      45.233  21.796  24.361  1.00  0.00     0.274 C 
ENDROOT
BRANCH   1   2
ATOM      2  O   UNL A   1      44.595  20.796  25.184  1.00  0.00    -0.462 OA
BRANCH   2   3
ATOM      3  C   UNL A   1      44.310  19.529  24.797  1.00  0.00     0.305 C 
ATOM      4  O   UNL A   1      44.452  19.194  23.622  1.00  0.00    -0.252 OA
BRANCH   3   5
ATOM      5  C   UNL A   1      43.765  18.545  25.809  1.00  0.00     0.123 C 
BRANCH   5   6
ATOM      6  C   UNL A   1      42.230  18.552  25.901  1.00  0.00     0.027 C 
BRANCH   6   7
ATOM      7  C   UNL A   1      41.676  19.947  26.179  1.00  0.00     0.099 C 
ATOM      8  C   UNL A   1      41.873  20.450  27.600  1.00  0.00     0.241 C 
ATOM      9  C   UNL A   1      40.178  20.035  25.965  1.00  0.00     0.173 C 
ATOM     10  O   UNL A   1      41.555  21.855  27.674  1.00  0.00    -0.492 OA
ATOM     11  C   UNL A   1      39.608  21.349  26.285  1.00  0.00     0.061 A 
ATOM     12  O   UNL A   1      39.486  19.152  25.476  1.00  0.00    -0.294 OA
ATOM     13  C   UNL A   1      40.370  22.210  27.078  1.00  0.00     0.130 A 
ATOM     14  C   UNL A   1      38.406  21.759  25.704  1.00  0.00     0.031 A 
ATOM     15  C   UNL A   1      39.946  23.524  27.248  1.00  0.00     0.048 A 
ATOM     16  C   UNL A   1      37.988  23.072  25.893  1.00  0.00     0.018 A 
ATOM     17  C   UNL A   1      38.757  23.959  26.650  1.00  0.00     0.019 A 
ATOM     18  Br  UNL A   1      36.390  23.668  25.081  1.00  0.00    -0.051 Br
ENDBRANCH   6   7
ENDBRANCH   5   6
ENDBRANCH   3   5
ENDBRANCH   2   3
ENDBRANCH   1   2
BRANCH   1  19
ATOM     19  C   UNL A   1      45.765  22.982  25.158  1.00  0.00     0.275 C 
BRANCH  19  20
ATOM     20  O   UNL A   1      44.697  23.901  25.425  1.00  0.00    -0.458 OA
BRANCH  20  21
ATOM     21  C   UNL A   1      45.066  25.206  25.420  1.00  0.00     0.338 C 
ATOM     22  O   UNL A   1      45.849  25.739  24.657  1.00  0.00    -0.246 OA
BRANCH  21  23
ATOM     23  C   UNL A   1      44.235  25.954  26.389  1.00  0.00     0.060 A 
ATOM     24  C   UNL A   1      43.291  25.324  27.208  1.00  0.00     0.016 A 
ATOM     25  C   UNL A   1      44.413  27.341  26.458  1.00  0.00     0.016 A 
ATOM     26  C   UNL A   1      42.559  26.081  28.126  1.00  0.00     0.010 A 
ATOM     27  C   UNL A   1      43.688  28.095  27.379  1.00  0.00     0.010 A 
ATOM     28  C   UNL A   1      42.777  27.465  28.237  1.00  0.00    -0.014 A 
BRANCH  28  29
ATOM     29  C   UNL A   1      42.189  28.219  29.368  1.00  0.00     0.031 A 
ATOM     30  C   UNL A   1      40.902  28.970  29.234  1.00  0.00     0.074 A 
ATOM     31  C   UNL A   1      42.870  28.235  30.529  1.00  0.00     0.049 A 
ATOM     32  N   UNL A   1      40.236  29.620  30.155  1.00  0.00    -0.248 NA
ATOM     33  C   UNL A   1      40.281  29.003  27.902  1.00  0.00     0.031 C 
ATOM     34  C   UNL A   1      44.155  27.572  30.754  1.00  0.00     0.029 A 
ATOM     35  N   UNL A   1      42.581  28.825  31.732  1.00  0.00    -0.354 N 
ATOM     36  C   UNL A   1      39.108  30.121  29.525  1.00  0.00     0.074 A 
ATOM     37  C   UNL A   1      39.198  29.738  28.131  1.00  0.00     0.031 C 
ATOM     38  C   UNL A   1      44.536  27.775  32.024  1.00  0.00     0.029 A 
ATOM     39  C   UNL A   1      43.533  28.597  32.694  1.00  0.00     0.049 A 
ATOM     40  H   UNL A   1      41.770  29.360  31.891  1.00  0.00     0.167 HD
ATOM     41  C   UNL A   1      38.087  30.820  30.073  1.00  0.00     0.037 A 
ATOM     42  C   UNL A   1      43.591  29.001  33.976  1.00  0.00     0.037 A 
ATOM     43  C   UNL A   1      38.011  31.204  31.460  1.00  0.00     0.049 A 
ATOM     44  C   UNL A   1      42.464  29.815  34.542  1.00  0.00     0.074 A 
ATOM     45  C   UNL A   1      36.980  31.854  32.118  1.00  0.00     0.029 A 
ATOM     46  N   UNL A   1      39.009  30.989  32.398  1.00  0.00    -0.354 N 
ATOM     47  N   UNL A   1      41.354  30.200  33.962  1.00  0.00    -0.248 NA
ATOM     48  C   UNL A   1      42.594  30.249  35.940  1.00  0.00     0.031 C 
ATOM     49  C   UNL A   1      37.374  32.076  33.441  1.00  0.00     0.029 A 
ATOM     50  C   UNL A   1      38.632  31.525  33.620  1.00  0.00     0.049 A 
ATOM     51  H   UNL A   1      39.859  30.524  32.223  1.00  0.00     0.167 HD
ATOM     52  C   UNL A   1      40.644  30.900  34.926  1.00  0.00     0.074 A 
ATOM     53  C   UNL A   1      41.443  30.880  36.133  1.00  0.00     0.031 C 
ATOM     54  C   UNL A   1      39.436  31.502  34.814  1.00  0.00     0.037 A 
BRANCH  41  55
ATOM     55  C   UNL A   1      36.938  31.204  29.191  1.00  0.00     0.064 A 
ATOM     56  C   UNL A   1      35.932  30.280  28.871  1.00  0.00     0.173 A 
ATOM     57  C   UNL A   1      36.771  32.532  28.769  1.00  0.00     0.173 A 
ATOM     58  F   UNL A   1      36.046  28.999  29.251  1.00  0.00    -0.203 F 
ATOM     59  C   UNL A   1      34.800  30.673  28.161  1.00  0.00     0.198 A 
ATOM     60  C   UNL A   1      35.630  32.925  28.076  1.00  0.00     0.198 A 
ATOM     61  F   UNL A   1      37.700  33.455  29.061  1.00  0.00    -0.203 F 
ATOM     62  F   UNL A   1      33.855  29.773  27.860  1.00  0.00    -0.200 F 
ATOM     63  C   UNL A   1      34.644  31.996  27.774  1.00  0.00     0.200 A 
ATOM     64  F   UNL A   1      35.472  34.207  27.717  1.00  0.00    -0.200 F 
ATOM     65  F   UNL A   1      33.542  32.377  27.116  1.00  0.00    -0.200 F 
ENDBRANCH  41  55
BRANCH  42  66
ATOM     66  C   UNL A   1      44.744  28.598  34.816  1.00  0.00     0.064 A 
ATOM     67  C   UNL A   1      45.866  29.428  34.936  1.00  0.00     0.173 A 
ATOM     68  C   UNL A   1      44.734  27.398  35.541  1.00  0.00     0.173 A 
ATOM     69  F   UNL A   1      45.924  30.577  34.248  1.00  0.00    -0.203 F 
ATOM     70  C   UNL A   1      46.940  29.070  35.747  1.00  0.00     0.198 A 
ATOM     71  C   UNL A   1      45.799  27.051  36.369  1.00  0.00     0.198 A 
ATOM     72  F   UNL A   1      43.678  26.575  35.463  1.00  0.00    -0.203 F 
ATOM     73  F   UNL A   1      48.013  29.868  35.825  1.00  0.00    -0.200 F 
ATOM     74  C   UNL A   1      46.903  27.885  36.468  1.00  0.00     0.200 A 
ATOM     75  F   UNL A   1      45.753  25.913  37.075  1.00  0.00    -0.200 F 
ATOM     76  F   UNL A   1      47.932  27.546  37.256  1.00  0.00    -0.200 F 
ENDBRANCH  42  66
BRANCH  54  77
ATOM     77  C   UNL A   1      38.888  32.187  36.030  1.00  0.00     0.064 A 
ATOM     78  C   UNL A   1      38.115  31.493  36.970  1.00  0.00     0.173 A 
ATOM     79  C   UNL A   1      39.207  33.526  36.298  1.00  0.00     0.173 A 
ATOM     80  F   UNL A   1      37.771  30.215  36.750  1.00  0.00    -0.203 F 
ATOM     81  C   UNL A   1      37.678  32.116  38.136  1.00  0.00     0.198 A 
ATOM     82  C   UNL A   1      38.789  34.140  37.475  1.00  0.00     0.198 A 
ATOM     83  F   UNL A   1      39.950  34.231  35.430  1.00  0.00    -0.203 F 
ATOM     84  F   UNL A   1      36.921  31.441  39.012  1.00  0.00    -0.200 F 
ATOM     85  C   UNL A   1      38.024  33.435  38.392  1.00  0.00     0.200 A 
ATOM     86  F   UNL A   1      39.134  35.410  37.726  1.00  0.00    -0.200 F 
ATOM     87  F   UNL A   1      37.619  34.028  39.524  1.00  0.00    -0.200 F 
ENDBRANCH  54  77
ENDBRANCH  28  29
ENDBRANCH  21  23
ENDBRANCH  20  21
ENDBRANCH  19  20
ENDBRANCH   1  19
TORSDOF 13
ENDMDL
