MODEL 1
REMARK VINA RESULT:     -12.6      0.000      0.000
REMARK SMILES CCOC(=O)c1c(C)nn(-c2ncccc2NC(=O)/C=C/C(=O)OCCOC(=O)c2ccc(-c3c4nc(c(-c5c(F)c(F)c(F)c(F)c5F)c5ccc([nH]5)c(-c5c(F)c(F)c(F)c(F)c5F)c5nc(c(-c6c(F)c(F)c(F)c(F)c6F)c6ccc3[nH]6)C=C5)C=C4)cc2)c1C
REMARK SMILES IDX 22 1 23 2 21 3 20 4 18 5 17 6 19 8 16 9 11 10 12 11 13 12
REMARK SMILES IDX 15 13 14 14 10 15 6 16 7 17 93 18 8 19 9 20 94 21 4 22 5 23
REMARK SMILES IDX 3 24 2 25 1 26 24 27 25 28 26 29 27 30 28 31 29 32 30 33
REMARK SMILES IDX 31 34 92 35 32 36 91 37 33 38 34 39 35 40 85 41 36 42 90 43
REMARK SMILES IDX 84 44 86 45 37 46 89 47 83 48 82 49 38 51 70 52 50 53 69 54
REMARK SMILES IDX 51 55 54 56 68 57 87 58 52 59 53 60 67 62 88 63 55 64 39 65
REMARK SMILES IDX 40 66 48 67 41 68 42 69 46 70 49 71 43 72 44 73 47 74 45 75
REMARK SMILES IDX 71 76 72 77 80 78 73 79 74 80 78 81 81 82 75 83 76 84 79 85
REMARK SMILES IDX 77 86 56 87 57 88 65 89 58 90 59 91 63 92 66 93 60 94 61 95
REMARK SMILES IDX 64 96 62 97
REMARK H PARENT 17 7 86 50 54 61
REMARK Flexibility Score: inf
ROOT
ATOM      1  C   UNL A   1      34.404  22.066  26.926  1.00  0.00     0.331 C 
ATOM      2  O   UNL A   1      34.456  21.502  28.009  1.00  0.00    -0.247 OA
ENDROOT
BRANCH   1   3
ATOM      3  C   UNL A   1      33.048  22.639  26.247  1.00  0.00     0.099 C 
ATOM      4  C   UNL A   1      31.625  23.877  26.518  1.00  0.00     0.079 C 
BRANCH   4   5
ATOM      5  C   UNL A   1      30.395  24.651  25.772  1.00  0.00     0.248 C 
ATOM      6  N   UNL A   1      30.438  24.805  24.399  1.00  0.00    -0.319 N 
ATOM      7  H   UNL A   1      29.713  25.344  24.010  1.00  0.00     0.170 HD
ATOM      8  O   UNL A   1      29.506  25.176  26.438  1.00  0.00    -0.270 OA
BRANCH   6   9
ATOM      9  C   UNL A   1      31.380  24.297  23.474  1.00  0.00     0.086 A 
ATOM     10  C   UNL A   1      32.200  25.095  22.685  1.00  0.00     0.177 A 
ATOM     11  N   UNL A   1      33.087  24.650  21.761  1.00  0.00    -0.235 NA
ATOM     12  C   UNL A   1      33.177  23.313  21.628  1.00  0.00     0.114 A 
ATOM     13  C   UNL A   1      31.519  22.920  23.319  1.00  0.00     0.032 A 
ATOM     14  C   UNL A   1      32.436  22.419  22.389  1.00  0.00     0.022 A 
BRANCH  10  15
ATOM     15  N   UNL A   1      32.233  26.457  23.042  1.00  0.00    -0.216 N 
ATOM     16  C   UNL A   1      32.018  28.566  25.230  1.00  0.00     0.104 A 
ATOM     17  C   UNL A   1      30.637  28.922  23.815  1.00  0.00     0.075 A 
ATOM     18  C   UNL A   1      32.957  27.037  24.726  1.00  0.00     0.058 A 
ATOM     19  C   UNL A   1      29.745  30.103  23.705  1.00  0.00     0.070 C 
ATOM     20  N   UNL A   1      30.781  27.637  22.535  1.00  0.00    -0.171 NA
ATOM     21  C   UNL A   1      34.116  26.342  25.355  1.00  0.00     0.068 C 
BRANCH  16  22
ATOM     22  C   UNL A   1      32.261  29.422  26.377  1.00  0.00     0.341 C 
ATOM     23  O   UNL A   1      31.550  29.408  27.372  1.00  0.00    -0.246 OA
BRANCH  22  24
ATOM     24  O   UNL A   1      33.338  30.231  26.190  1.00  0.00    -0.462 OA
BRANCH  24  25
ATOM     25  C   UNL A   1      34.221  30.401  27.309  1.00  0.00     0.230 C 
ATOM     26  C   UNL A   1      35.254  29.295  27.435  1.00  0.00     0.049 C 
ENDBRANCH  24  25
ENDBRANCH  22  24
ENDBRANCH  16  22
ENDBRANCH  10  15
ENDBRANCH   6   9
ENDBRANCH   4   5
ENDBRANCH   1   3
BRANCH   1  27
ATOM     27  O   UNL A   1      35.448  22.653  26.269  1.00  0.00    -0.459 OA
BRANCH  27  28
ATOM     28  C   UNL A   1      35.942  21.917  25.140  1.00  0.00     0.275 C 
BRANCH  28  29
ATOM     29  C   UNL A   1      37.440  21.664  25.265  1.00  0.00     0.275 C 
BRANCH  29  30
ATOM     30  O   UNL A   1      38.073  22.632  26.108  1.00  0.00    -0.458 OA
BRANCH  30  31
ATOM     31  C   UNL A   1      39.304  22.292  26.543  1.00  0.00     0.338 C 
ATOM     32  O   UNL A   1      39.693  21.191  26.897  1.00  0.00    -0.246 OA
BRANCH  31  33
ATOM     33  C   UNL A   1      40.110  23.496  26.747  1.00  0.00     0.060 A 
ATOM     34  C   UNL A   1      41.187  23.441  27.641  1.00  0.00     0.016 A 
ATOM     35  C   UNL A   1      39.577  24.711  26.308  1.00  0.00     0.016 A 
ATOM     36  C   UNL A   1      41.633  24.612  28.226  1.00  0.00     0.010 A 
ATOM     37  C   UNL A   1      40.018  25.874  26.895  1.00  0.00     0.010 A 
ATOM     38  C   UNL A   1      40.985  25.805  27.904  1.00  0.00    -0.014 A 
BRANCH  38  39
ATOM     39  C   UNL A   1      41.303  27.015  28.643  1.00  0.00     0.031 A 
ATOM     40  C   UNL A   1      42.475  27.795  28.166  1.00  0.00     0.074 A 
ATOM     41  C   UNL A   1      40.417  27.513  29.528  1.00  0.00     0.049 A 
ATOM     42  N   UNL A   1      43.406  28.360  28.866  1.00  0.00    -0.248 NA
ATOM     43  C   UNL A   1      42.645  27.944  26.711  1.00  0.00     0.031 C 
ATOM     44  C   UNL A   1      39.082  26.994  29.847  1.00  0.00     0.029 A 
ATOM     45  N   UNL A   1      40.460  28.694  30.203  1.00  0.00    -0.354 N 
ATOM     46  C   UNL A   1      44.204  29.051  27.956  1.00  0.00     0.074 A 
ATOM     47  C   UNL A   1      43.746  28.690  26.641  1.00  0.00     0.031 C 
ATOM     48  C   UNL A   1      38.367  27.965  30.456  1.00  0.00     0.029 A 
ATOM     49  C   UNL A   1      39.220  29.126  30.651  1.00  0.00     0.049 A 
ATOM     50  H   UNL A   1      41.293  29.196  30.359  1.00  0.00     0.167 HD
ATOM     51  C   UNL A   1      45.088  30.010  28.342  1.00  0.00     0.037 A 
ATOM     52  C   UNL A   1      38.899  30.379  31.052  1.00  0.00     0.037 A 
ATOM     53  C   UNL A   1      45.446  29.891  29.726  1.00  0.00     0.049 A 
ATOM     54  C   UNL A   1      40.167  31.095  31.351  1.00  0.00     0.074 A 
ATOM     55  C   UNL A   1      46.026  28.893  30.486  1.00  0.00     0.029 A 
ATOM     56  N   UNL A   1      44.927  30.783  30.632  1.00  0.00    -0.354 N 
ATOM     57  N   UNL A   1      40.933  30.843  32.375  1.00  0.00    -0.248 NA
ATOM     58  C   UNL A   1      40.798  31.838  30.268  1.00  0.00     0.031 C 
ATOM     59  C   UNL A   1      45.387  28.975  31.757  1.00  0.00     0.029 A 
ATOM     60  C   UNL A   1      44.485  30.036  31.695  1.00  0.00     0.049 A 
ATOM     61  H   UNL A   1      44.881  31.762  30.538  1.00  0.00     0.167 HD
ATOM     62  C   UNL A   1      42.224  31.018  31.899  1.00  0.00     0.074 A 
ATOM     63  C   UNL A   1      42.077  31.735  30.638  1.00  0.00     0.031 C 
ATOM     64  C   UNL A   1      43.272  30.317  32.421  1.00  0.00     0.037 A 
BRANCH  51  65
ATOM     65  C   UNL A   1      45.414  31.224  27.518  1.00  0.00     0.064 A 
ATOM     66  C   UNL A   1      46.745  31.477  27.137  1.00  0.00     0.173 A 
ATOM     67  C   UNL A   1      44.508  32.292  27.330  1.00  0.00     0.173 A 
ATOM     68  F   UNL A   1      47.692  30.541  27.302  1.00  0.00    -0.203 F 
ATOM     69  C   UNL A   1      47.148  32.725  26.656  1.00  0.00     0.198 A 
ATOM     70  C   UNL A   1      44.903  33.518  26.799  1.00  0.00     0.198 A 
ATOM     71  F   UNL A   1      43.240  32.224  27.755  1.00  0.00    -0.203 F 
ATOM     72  F   UNL A   1      48.445  32.958  26.416  1.00  0.00    -0.200 F 
ATOM     73  C   UNL A   1      46.228  33.745  26.490  1.00  0.00     0.200 A 
ATOM     74  F   UNL A   1      44.000  34.499  26.663  1.00  0.00    -0.200 F 
ATOM     75  F   UNL A   1      46.622  34.958  26.081  1.00  0.00    -0.200 F 
ENDBRANCH  51  65
BRANCH  52  76
ATOM     76  C   UNL A   1      37.592  31.072  30.969  1.00  0.00     0.064 A 
ATOM     77  C   UNL A   1      36.836  31.328  32.124  1.00  0.00     0.173 A 
ATOM     78  C   UNL A   1      37.153  31.704  29.787  1.00  0.00     0.173 A 
ATOM     79  F   UNL A   1      37.209  30.812  33.304  1.00  0.00    -0.203 F 
ATOM     80  C   UNL A   1      35.719  32.169  32.101  1.00  0.00     0.198 A 
ATOM     81  C   UNL A   1      36.025  32.525  29.760  1.00  0.00     0.198 A 
ATOM     82  F   UNL A   1      37.858  31.615  28.650  1.00  0.00    -0.203 F 
ATOM     83  F   UNL A   1      35.060  32.436  33.237  1.00  0.00    -0.200 F 
ATOM     84  C   UNL A   1      35.315  32.767  30.919  1.00  0.00     0.200 A 
ATOM     85  F   UNL A   1      35.667  33.122  28.614  1.00  0.00    -0.200 F 
ATOM     86  F   UNL A   1      34.271  33.608  30.905  1.00  0.00    -0.200 F 
ENDBRANCH  52  76
BRANCH  64  87
ATOM     87  C   UNL A   1      43.044  29.541  33.685  1.00  0.00     0.064 A 
ATOM     88  C   UNL A   1      43.219  30.087  34.969  1.00  0.00     0.173 A 
ATOM     89  C   UNL A   1      42.480  28.261  33.601  1.00  0.00     0.173 A 
ATOM     90  F   UNL A   1      43.639  31.346  35.132  1.00  0.00    -0.203 F 
ATOM     91  C   UNL A   1      42.898  29.361  36.114  1.00  0.00     0.198 A 
ATOM     92  C   UNL A   1      42.123  27.554  34.746  1.00  0.00     0.198 A 
ATOM     93  F   UNL A   1      42.225  27.716  32.401  1.00  0.00    -0.203 F 
ATOM     94  F   UNL A   1      43.088  29.902  37.327  1.00  0.00    -0.200 F 
ATOM     95  C   UNL A   1      42.344  28.098  36.001  1.00  0.00     0.200 A 
ATOM     96  F   UNL A   1      41.535  26.355  34.632  1.00  0.00    -0.200 F 
ATOM     97  F   UNL A   1      41.993  27.418  37.102  1.00  0.00    -0.200 F 
ENDBRANCH  64  87
ENDBRANCH  38  39
ENDBRANCH  31  33
ENDBRANCH  30  31
ENDBRANCH  29  30
ENDBRANCH  28  29
ENDBRANCH  27  28
ENDBRANCH   1  27
TORSDOF 17
ENDMDL
MODEL 2
REMARK VINA RESULT:     -12.2      2.590      6.969
REMARK SMILES CCOC(=O)c1c(C)nn(-c2ncccc2NC(=O)/C=C/C(=O)OCCOC(=O)c2ccc(-c3c4nc(c(-c5c(F)c(F)c(F)c(F)c5F)c5ccc([nH]5)c(-c5c(F)c(F)c(F)c(F)c5F)c5nc(c(-c6c(F)c(F)c(F)c(F)c6F)c6ccc3[nH]6)C=C5)C=C4)cc2)c1C
REMARK SMILES IDX 22 1 23 2 21 3 20 4 18 5 17 6 19 8 16 9 11 10 12 11 13 12
REMARK SMILES IDX 15 13 14 14 10 15 6 16 7 17 93 18 8 19 9 20 94 21 4 22 5 23
REMARK SMILES IDX 3 24 2 25 1 26 24 27 25 28 26 29 27 30 28 31 29 32 30 33
REMARK SMILES IDX 31 34 92 35 32 36 91 37 33 38 34 39 35 40 85 41 36 42 90 43
REMARK SMILES IDX 84 44 86 45 37 46 89 47 83 48 82 49 38 51 70 52 50 53 69 54
REMARK SMILES IDX 51 55 54 56 68 57 87 58 52 59 53 60 67 62 88 63 55 64 39 65
REMARK SMILES IDX 40 66 48 67 41 68 42 69 46 70 49 71 43 72 44 73 47 74 45 75
REMARK SMILES IDX 71 76 72 77 80 78 73 79 74 80 78 81 81 82 75 83 76 84 79 85
REMARK SMILES IDX 77 86 56 87 57 88 65 89 58 90 59 91 63 92 66 93 60 94 61 95
REMARK SMILES IDX 64 96 62 97
REMARK H PARENT 17 7 86 50 54 61
REMARK Flexibility Score: inf
ROOT
ATOM      1  C   UNL A   1      37.042  22.794  25.774  1.00  0.00     0.331 C 
ATOM      2  O   UNL A   1      37.632  23.850  25.599  1.00  0.00    -0.247 OA
ENDROOT
BRANCH   1   3
ATOM      3  C   UNL A   1      35.430  22.640  25.859  1.00  0.00     0.099 C 
ATOM      4  C   UNL A   1      33.910  23.171  26.879  1.00  0.00     0.079 C 
BRANCH   4   5
ATOM      5  C   UNL A   1      32.279  23.242  26.867  1.00  0.00     0.248 C 
ATOM      6  N   UNL A   1      31.578  22.373  26.050  1.00  0.00    -0.319 N 
ATOM      7  H   UNL A   1      30.604  22.509  26.023  1.00  0.00     0.170 HD
ATOM      8  O   UNL A   1      31.697  24.125  27.494  1.00  0.00    -0.270 OA
BRANCH   6   9
ATOM      9  C   UNL A   1      32.066  21.316  25.248  1.00  0.00     0.086 A 
ATOM     10  C   UNL A   1      32.133  21.364  23.860  1.00  0.00     0.177 A 
ATOM     11  N   UNL A   1      32.559  20.360  23.052  1.00  0.00    -0.235 NA
ATOM     12  C   UNL A   1      32.962  19.236  23.674  1.00  0.00     0.114 A 
ATOM     13  C   UNL A   1      32.512  20.143  25.850  1.00  0.00     0.032 A 
ATOM     14  C   UNL A   1      32.975  19.089  25.054  1.00  0.00     0.022 A 
BRANCH  10  15
ATOM     15  N   UNL A   1      31.931  22.638  23.293  1.00  0.00    -0.216 N 
ATOM     16  C   UNL A   1      32.719  25.578  23.187  1.00  0.00     0.104 A 
ATOM     17  C   UNL A   1      30.771  25.421  23.648  1.00  0.00     0.075 A 
ATOM     18  C   UNL A   1      33.393  23.851  23.000  1.00  0.00     0.058 A 
ATOM     19  C   UNL A   1      29.780  26.521  23.756  1.00  0.00     0.070 C 
ATOM     20  N   UNL A   1      30.338  23.655  23.720  1.00  0.00    -0.171 NA
ATOM     21  C   UNL A   1      34.747  23.357  22.616  1.00  0.00     0.068 C 
BRANCH  16  22
ATOM     22  C   UNL A   1      33.415  26.833  22.965  1.00  0.00     0.341 C 
ATOM     23  O   UNL A   1      33.899  27.137  21.883  1.00  0.00    -0.246 OA
BRANCH  22  24
ATOM     24  O   UNL A   1      33.472  27.590  24.093  1.00  0.00    -0.462 OA
BRANCH  24  25
ATOM     25  C   UNL A   1      33.757  26.903  25.320  1.00  0.00     0.230 C 
ATOM     26  C   UNL A   1      33.273  27.644  26.554  1.00  0.00     0.049 C 
ENDBRANCH  24  25
ENDBRANCH  22  24
ENDBRANCH  16  22
ENDBRANCH  10  15
ENDBRANCH   6   9
ENDBRANCH   4   5
ENDBRANCH   1   3
BRANCH   1  27
ATOM     27  O   UNL A   1      37.542  21.542  25.557  1.00  0.00    -0.459 OA
BRANCH  27  28
ATOM     28  C   UNL A   1      38.948  21.401  25.812  1.00  0.00     0.275 C 
BRANCH  28  29
ATOM     29  C   UNL A   1      39.443  20.020  25.397  1.00  0.00     0.275 C 
BRANCH  29  30
ATOM     30  O   UNL A   1      40.448  19.527  26.288  1.00  0.00    -0.458 OA
BRANCH  30  31
ATOM     31  C   UNL A   1      41.719  19.754  25.897  1.00  0.00     0.338 C 
ATOM     32  O   UNL A   1      42.369  19.131  25.072  1.00  0.00    -0.246 OA
BRANCH  31  33
ATOM     33  C   UNL A   1      42.336  20.758  26.765  1.00  0.00     0.060 A 
ATOM     34  C   UNL A   1      41.867  20.891  28.077  1.00  0.00     0.016 A 
ATOM     35  C   UNL A   1      43.116  21.745  26.156  1.00  0.00     0.016 A 
ATOM     36  C   UNL A   1      42.046  22.095  28.735  1.00  0.00     0.010 A 
ATOM     37  C   UNL A   1      43.289  22.943  26.809  1.00  0.00     0.010 A 
ATOM     38  C   UNL A   1      42.686  23.133  28.057  1.00  0.00    -0.014 A 
BRANCH  38  39
ATOM     39  C   UNL A   1      42.718  24.461  28.647  1.00  0.00     0.031 A 
ATOM     40  C   UNL A   1      41.588  25.364  28.310  1.00  0.00     0.074 A 
ATOM     41  C   UNL A   1      43.587  24.732  29.642  1.00  0.00     0.049 A 
ATOM     42  N   UNL A   1      41.624  26.624  28.012  1.00  0.00    -0.248 NA
ATOM     43  C   UNL A   1      40.238  24.779  28.277  1.00  0.00     0.031 C 
ATOM     44  C   UNL A   1      44.539  23.811  30.274  1.00  0.00     0.029 A 
ATOM     45  N   UNL A   1      43.675  25.848  30.414  1.00  0.00    -0.354 N 
ATOM     46  C   UNL A   1      40.296  27.026  27.887  1.00  0.00     0.074 A 
ATOM     47  C   UNL A   1      39.490  25.838  27.971  1.00  0.00     0.031 C 
ATOM     48  C   UNL A   1      44.925  24.326  31.461  1.00  0.00     0.029 A 
ATOM     49  C   UNL A   1      44.326  25.640  31.622  1.00  0.00     0.049 A 
ATOM     50  H   UNL A   1      43.310  26.722  30.142  1.00  0.00     0.167 HD
ATOM     51  C   UNL A   1      39.926  28.336  27.890  1.00  0.00     0.037 A 
ATOM     52  C   UNL A   1      44.284  26.447  32.709  1.00  0.00     0.037 A 
ATOM     53  C   UNL A   1      41.017  29.206  27.555  1.00  0.00     0.049 A 
ATOM     54  C   UNL A   1      43.800  27.780  32.264  1.00  0.00     0.074 A 
ATOM     55  C   UNL A   1      41.848  29.326  26.457  1.00  0.00     0.029 A 
ATOM     56  N   UNL A   1      41.615  29.943  28.546  1.00  0.00    -0.354 N 
ATOM     57  N   UNL A   1      44.492  28.611  31.536  1.00  0.00    -0.248 NA
ATOM     58  C   UNL A   1      42.364  28.026  32.296  1.00  0.00     0.031 C 
ATOM     59  C   UNL A   1      43.118  29.687  26.990  1.00  0.00     0.029 A 
ATOM     60  C   UNL A   1      42.968  29.792  28.373  1.00  0.00     0.049 A 
ATOM     61  H   UNL A   1      41.165  30.473  29.243  1.00  0.00     0.167 HD
ATOM     62  C   UNL A   1      43.559  29.209  30.702  1.00  0.00     0.074 A 
ATOM     63  C   UNL A   1      42.261  28.895  31.288  1.00  0.00     0.031 C 
ATOM     64  C   UNL A   1      43.904  29.656  29.459  1.00  0.00     0.037 A 
BRANCH  51  65
ATOM     65  C   UNL A   1      38.632  28.836  28.467  1.00  0.00     0.064 A 
ATOM     66  C   UNL A   1      37.832  29.727  27.727  1.00  0.00     0.173 A 
ATOM     67  C   UNL A   1      38.292  28.693  29.831  1.00  0.00     0.173 A 
ATOM     68  F   UNL A   1      38.088  29.960  26.432  1.00  0.00    -0.203 F 
ATOM     69  C   UNL A   1      36.803  30.460  28.324  1.00  0.00     0.198 A 
ATOM     70  C   UNL A   1      37.230  29.385  30.409  1.00  0.00     0.198 A 
ATOM     71  F   UNL A   1      39.040  27.967  30.671  1.00  0.00    -0.203 F 
ATOM     72  F   UNL A   1      36.143  31.382  27.610  1.00  0.00    -0.200 F 
ATOM     73  C   UNL A   1      36.505  30.291  29.663  1.00  0.00     0.200 A 
ATOM     74  F   UNL A   1      36.969  29.221  31.714  1.00  0.00    -0.200 F 
ATOM     75  F   UNL A   1      35.556  31.032  30.250  1.00  0.00    -0.200 F 
ENDBRANCH  51  65
BRANCH  52  76
ATOM     76  C   UNL A   1      44.406  26.079  34.140  1.00  0.00     0.064 A 
ATOM     77  C   UNL A   1      43.269  25.778  34.907  1.00  0.00     0.173 A 
ATOM     78  C   UNL A   1      45.651  25.791  34.736  1.00  0.00     0.173 A 
ATOM     79  F   UNL A   1      42.042  25.969  34.400  1.00  0.00    -0.203 F 
ATOM     80  C   UNL A   1      43.371  25.216  36.184  1.00  0.00     0.198 A 
ATOM     81  C   UNL A   1      45.752  25.253  36.019  1.00  0.00     0.198 A 
ATOM     82  F   UNL A   1      46.796  25.941  34.056  1.00  0.00    -0.203 F 
ATOM     83  F   UNL A   1      42.260  24.886  36.858  1.00  0.00    -0.200 F 
ATOM     84  C   UNL A   1      44.612  24.953  36.738  1.00  0.00     0.200 A 
ATOM     85  F   UNL A   1      46.961  24.975  36.528  1.00  0.00    -0.200 F 
ATOM     86  F   UNL A   1      44.709  24.375  37.943  1.00  0.00    -0.200 F 
ENDBRANCH  52  76
BRANCH  64  87
ATOM     87  C   UNL A   1      45.363  29.717  29.110  1.00  0.00     0.064 A 
ATOM     88  C   UNL A   1      46.076  28.628  28.580  1.00  0.00     0.173 A 
ATOM     89  C   UNL A   1      46.019  30.954  29.162  1.00  0.00     0.173 A 
ATOM     90  F   UNL A   1      45.484  27.444  28.385  1.00  0.00    -0.203 F 
ATOM     91  C   UNL A   1      47.403  28.759  28.175  1.00  0.00     0.198 A 
ATOM     92  C   UNL A   1      47.332  31.091  28.720  1.00  0.00     0.198 A 
ATOM     93  F   UNL A   1      45.366  32.044  29.594  1.00  0.00    -0.203 F 
ATOM     94  F   UNL A   1      48.064  27.700  27.686  1.00  0.00    -0.200 F 
ATOM     95  C   UNL A   1      48.027  29.993  28.240  1.00  0.00     0.200 A 
ATOM     96  F   UNL A   1      47.915  32.298  28.731  1.00  0.00    -0.200 F 
ATOM     97  F   UNL A   1      49.289  30.130  27.808  1.00  0.00    -0.200 F 
ENDBRANCH  64  87
ENDBRANCH  38  39
ENDBRANCH  31  33
ENDBRANCH  30  31
ENDBRANCH  29  30
ENDBRANCH  28  29
ENDBRANCH  27  28
ENDBRANCH   1  27
TORSDOF 17
ENDMDL
MODEL 3
REMARK VINA RESULT:     -12.2      3.736      8.796
REMARK SMILES CCOC(=O)c1c(C)nn(-c2ncccc2NC(=O)/C=C/C(=O)OCCOC(=O)c2ccc(-c3c4nc(c(-c5c(F)c(F)c(F)c(F)c5F)c5ccc([nH]5)c(-c5c(F)c(F)c(F)c(F)c5F)c5nc(c(-c6c(F)c(F)c(F)c(F)c6F)c6ccc3[nH]6)C=C5)C=C4)cc2)c1C
REMARK SMILES IDX 22 1 23 2 21 3 20 4 18 5 17 6 19 8 16 9 11 10 12 11 13 12
REMARK SMILES IDX 15 13 14 14 10 15 6 16 7 17 93 18 8 19 9 20 94 21 4 22 5 23
REMARK SMILES IDX 3 24 2 25 1 26 24 27 25 28 26 29 27 30 28 31 29 32 30 33
REMARK SMILES IDX 31 34 92 35 32 36 91 37 33 38 34 39 35 40 85 41 36 42 90 43
REMARK SMILES IDX 84 44 86 45 37 46 89 47 83 48 82 49 38 51 70 52 50 53 69 54
REMARK SMILES IDX 51 55 54 56 68 57 87 58 52 59 53 60 67 62 88 63 55 64 39 65
REMARK SMILES IDX 40 66 48 67 41 68 42 69 46 70 49 71 43 72 44 73 47 74 45 75
REMARK SMILES IDX 71 76 72 77 80 78 73 79 74 80 78 81 81 82 75 83 76 84 79 85
REMARK SMILES IDX 77 86 56 87 57 88 65 89 58 90 59 91 63 92 66 93 60 94 61 95
REMARK SMILES IDX 64 96 62 97
REMARK H PARENT 17 7 86 50 54 61
REMARK Flexibility Score: inf
ROOT
ATOM      1  C   UNL A   1      33.280  29.290  26.630  1.00  0.00     0.331 C 
ATOM      2  O   UNL A   1      32.625  28.922  27.593  1.00  0.00    -0.247 OA
ENDROOT
BRANCH   1   3
ATOM      3  C   UNL A   1      33.309  28.541  25.192  1.00  0.00     0.099 C 
ATOM      4  C   UNL A   1      33.683  26.865  24.365  1.00  0.00     0.079 C 
BRANCH   4   5
ATOM      5  C   UNL A   1      33.499  26.009  22.987  1.00  0.00     0.248 C 
ATOM      6  N   UNL A   1      32.255  25.975  22.382  1.00  0.00    -0.319 N 
ATOM      7  H   UNL A   1      32.181  25.385  21.599  1.00  0.00     0.170 HD
ATOM      8  O   UNL A   1      34.426  25.324  22.560  1.00  0.00    -0.270 OA
BRANCH   6   9
ATOM      9  C   UNL A   1      31.075  26.671  22.733  1.00  0.00     0.086 A 
ATOM     10  C   UNL A   1      30.055  26.128  23.504  1.00  0.00     0.177 A 
ATOM     11  N   UNL A   1      28.893  26.746  23.831  1.00  0.00    -0.235 NA
ATOM     12  C   UNL A   1      28.746  28.003  23.371  1.00  0.00     0.114 A 
ATOM     13  C   UNL A   1      30.892  27.980  22.295  1.00  0.00     0.032 A 
ATOM     14  C   UNL A   1      29.715  28.661  22.625  1.00  0.00     0.022 A 
BRANCH  10  15
ATOM     15  N   UNL A   1      30.372  24.916  24.150  1.00  0.00    -0.216 N 
ATOM     16  C   UNL A   1      32.340  23.324  25.843  1.00  0.00     0.104 A 
ATOM     17  C   UNL A   1      32.023  22.369  24.105  1.00  0.00     0.075 A 
ATOM     18  C   UNL A   1      31.326  24.887  25.818  1.00  0.00     0.058 A 
ATOM     19  C   UNL A   1      32.501  21.017  23.721  1.00  0.00     0.070 C 
ATOM     20  N   UNL A   1      30.858  23.353  23.113  1.00  0.00    -0.171 NA
ATOM     21  C   UNL A   1      31.127  25.949  26.846  1.00  0.00     0.068 C 
BRANCH  16  22
ATOM     22  C   UNL A   1      33.154  22.809  26.929  1.00  0.00     0.341 C 
ATOM     23  O   UNL A   1      32.720  22.651  28.061  1.00  0.00    -0.246 OA
BRANCH  22  24
ATOM     24  O   UNL A   1      34.431  22.555  26.533  1.00  0.00    -0.462 OA
BRANCH  24  25
ATOM     25  C   UNL A   1      35.083  23.573  25.761  1.00  0.00     0.230 C 
ATOM     26  C   UNL A   1      36.574  23.677  26.036  1.00  0.00     0.049 C 
ENDBRANCH  24  25
ENDBRANCH  22  24
ENDBRANCH  16  22
ENDBRANCH  10  15
ENDBRANCH   6   9
ENDBRANCH   4   5
ENDBRANCH   1   3
BRANCH   1  27
ATOM     27  O   UNL A   1      33.789  30.541  26.428  1.00  0.00    -0.459 OA
BRANCH  27  28
ATOM     28  C   UNL A   1      33.841  31.368  27.600  1.00  0.00     0.275 C 
BRANCH  28  29
ATOM     29  C   UNL A   1      35.263  31.851  27.865  1.00  0.00     0.275 C 
BRANCH  29  30
ATOM     30  O   UNL A   1      36.068  30.828  28.458  1.00  0.00    -0.458 OA
BRANCH  30  31
ATOM     31  C   UNL A   1      37.118  31.275  29.180  1.00  0.00     0.338 C 
ATOM     32  O   UNL A   1      37.130  32.182  29.996  1.00  0.00    -0.246 OA
BRANCH  31  33
ATOM     33  C   UNL A   1      38.352  30.653  28.700  1.00  0.00     0.060 A 
ATOM     34  C   UNL A   1      38.263  29.480  27.941  1.00  0.00     0.016 A 
ATOM     35  C   UNL A   1      39.552  31.059  29.293  1.00  0.00     0.016 A 
ATOM     36  C   UNL A   1      39.347  28.620  27.905  1.00  0.00     0.010 A 
ATOM     37  C   UNL A   1      40.626  30.201  29.261  1.00  0.00     0.010 A 
ATOM     38  C   UNL A   1      40.487  28.957  28.635  1.00  0.00    -0.014 A 
BRANCH  38  39
ATOM     39  C   UNL A   1      41.562  27.989  28.771  1.00  0.00     0.031 A 
ATOM     40  C   UNL A   1      42.206  27.896  30.107  1.00  0.00     0.074 A 
ATOM     41  C   UNL A   1      41.758  27.065  27.809  1.00  0.00     0.049 A 
ATOM     42  N   UNL A   1      43.466  27.786  30.389  1.00  0.00    -0.248 NA
ATOM     43  C   UNL A   1      41.331  27.957  31.288  1.00  0.00     0.031 C 
ATOM     44  C   UNL A   1      40.971  26.865  26.586  1.00  0.00     0.029 A 
ATOM     45  N   UNL A   1      42.602  25.997  27.814  1.00  0.00    -0.354 N 
ATOM     46  C   UNL A   1      43.536  27.628  31.772  1.00  0.00     0.074 A 
ATOM     47  C   UNL A   1      42.207  27.829  32.283  1.00  0.00     0.031 C 
ATOM     48  C   UNL A   1      41.218  25.628  26.104  1.00  0.00     0.029 A 
ATOM     49  C   UNL A   1      42.240  24.997  26.923  1.00  0.00     0.049 A 
ATOM     50  H   UNL A   1      43.394  25.939  28.396  1.00  0.00     0.167 HD
ATOM     51  C   UNL A   1      44.656  27.174  32.398  1.00  0.00     0.037 A 
ATOM     52  C   UNL A   1      42.676  23.715  26.930  1.00  0.00     0.037 A 
ATOM     53  C   UNL A   1      45.831  27.342  31.593  1.00  0.00     0.049 A 
ATOM     54  C   UNL A   1      43.911  23.663  27.754  1.00  0.00     0.074 A 
ATOM     55  C   UNL A   1      46.457  28.434  31.022  1.00  0.00     0.029 A 
ATOM     56  N   UNL A   1      46.391  26.244  30.988  1.00  0.00    -0.354 N 
ATOM     57  N   UNL A   1      45.059  24.168  27.396  1.00  0.00    -0.248 NA
ATOM     58  C   UNL A   1      43.767  23.393  29.178  1.00  0.00     0.031 C 
ATOM     59  C   UNL A   1      46.966  27.962  29.779  1.00  0.00     0.029 A 
ATOM     60  C   UNL A   1      46.643  26.609  29.690  1.00  0.00     0.049 A 
ATOM     61  H   UNL A   1      46.576  25.370  31.403  1.00  0.00     0.167 HD
ATOM     62  C   UNL A   1      45.607  24.661  28.570  1.00  0.00     0.074 A 
ATOM     63  C   UNL A   1      44.825  24.059  29.644  1.00  0.00     0.031 C 
ATOM     64  C   UNL A   1      46.453  25.733  28.561  1.00  0.00     0.037 A 
BRANCH  51  65
ATOM     65  C   UNL A   1      44.631  26.326  33.639  1.00  0.00     0.064 A 
ATOM     66  C   UNL A   1      44.155  25.003  33.574  1.00  0.00     0.173 A 
ATOM     67  C   UNL A   1      44.792  26.858  34.937  1.00  0.00     0.173 A 
ATOM     68  F   UNL A   1      43.936  24.413  32.390  1.00  0.00    -0.203 F 
ATOM     69  C   UNL A   1      43.815  24.287  34.725  1.00  0.00     0.198 A 
ATOM     70  C   UNL A   1      44.504  26.122  36.084  1.00  0.00     0.198 A 
ATOM     71  F   UNL A   1      45.128  28.139  35.137  1.00  0.00    -0.203 F 
ATOM     72  F   UNL A   1      43.256  23.075  34.613  1.00  0.00    -0.200 F 
ATOM     73  C   UNL A   1      43.987  24.848  35.978  1.00  0.00     0.200 A 
ATOM     74  F   UNL A   1      44.659  26.690  37.288  1.00  0.00    -0.200 F 
ATOM     75  F   UNL A   1      43.609  24.185  37.079  1.00  0.00    -0.200 F 
ENDBRANCH  51  65
BRANCH  52  76
ATOM     76  C   UNL A   1      41.970  22.494  26.473  1.00  0.00     0.064 A 
ATOM     77  C   UNL A   1      42.683  21.333  26.134  1.00  0.00     0.173 A 
ATOM     78  C   UNL A   1      40.570  22.357  26.573  1.00  0.00     0.173 A 
ATOM     79  F   UNL A   1      44.022  21.357  26.068  1.00  0.00    -0.203 F 
ATOM     80  C   UNL A   1      42.038  20.111  25.917  1.00  0.00     0.198 A 
ATOM     81  C   UNL A   1      39.926  21.143  26.334  1.00  0.00     0.198 A 
ATOM     82  F   UNL A   1      39.802  23.372  26.991  1.00  0.00    -0.203 F 
ATOM     83  F   UNL A   1      42.760  19.012  25.656  1.00  0.00    -0.200 F 
ATOM     84  C   UNL A   1      40.660  20.017  26.018  1.00  0.00     0.200 A 
ATOM     85  F   UNL A   1      38.594  21.061  26.467  1.00  0.00    -0.200 F 
ATOM     86  F   UNL A   1      40.046  18.837  25.854  1.00  0.00    -0.200 F 
ENDBRANCH  52  76
BRANCH  64  87
ATOM     87  C   UNL A   1      46.977  26.209  27.237  1.00  0.00     0.064 A 
ATOM     88  C   UNL A   1      48.182  25.753  26.675  1.00  0.00     0.173 A 
ATOM     89  C   UNL A   1      46.163  27.025  26.442  1.00  0.00     0.173 A 
ATOM     90  F   UNL A   1      48.957  24.876  27.322  1.00  0.00    -0.203 F 
ATOM     91  C   UNL A   1      48.579  26.146  25.399  1.00  0.00     0.198 A 
ATOM     92  C   UNL A   1      46.543  27.384  25.152  1.00  0.00     0.198 A 
ATOM     93  F   UNL A   1      44.969  27.434  26.900  1.00  0.00    -0.203 F 
ATOM     94  F   UNL A   1      49.741  25.707  24.892  1.00  0.00    -0.200 F 
ATOM     95  C   UNL A   1      47.756  26.956  24.636  1.00  0.00     0.200 A 
ATOM     96  F   UNL A   1      45.719  28.121  24.395  1.00  0.00    -0.200 F 
ATOM     97  F   UNL A   1      48.116  27.296  23.390  1.00  0.00    -0.200 F 
ENDBRANCH  64  87
ENDBRANCH  38  39
ENDBRANCH  31  33
ENDBRANCH  30  31
ENDBRANCH  29  30
ENDBRANCH  28  29
ENDBRANCH  27  28
ENDBRANCH   1  27
TORSDOF 17
ENDMDL
