MODEL 1
REMARK VINA RESULT:     -13.5      0.000      0.000
REMARK SMILES CC1(C)Oc2ccc(NC(=O)[C@H]3CC=CC[C@@H]3C(=O)OCCOC(=O)c3ccc(-c4c5nc(c(-c6c(F)c(F)c(F)c(F)c6F)c6ccc([nH]6)c(-c6c(F)c(F)c(F)c(F)c6F)c6nc(c(-c7c(F)c(F)c(F)c(F)c7F)c7ccc4[nH]7)C=C6)C=C5)cc3)cc2NC1=O
REMARK SMILES IDX 21 1 20 2 18 3 19 4 17 5 12 6 13 7 14 8 16 9 15 10 10 11
REMARK SMILES IDX 9 12 11 14 8 15 1 16 2 17 3 18 4 19 92 20 5 21 91 22 93 23
REMARK SMILES IDX 6 24 90 25 7 27 89 28 22 29 23 30 24 31 25 32 26 33 27 34
REMARK SMILES IDX 88 35 28 36 87 37 29 38 30 39 31 40 81 41 32 42 86 43 80 44
REMARK SMILES IDX 82 45 33 46 85 47 79 48 78 49 34 51 66 52 46 53 65 54 47 55
REMARK SMILES IDX 50 56 64 57 83 58 48 59 49 60 63 62 84 63 51 64 35 65 36 66
REMARK SMILES IDX 44 67 37 68 38 69 42 70 45 71 39 72 40 73 43 74 41 75 67 76
REMARK SMILES IDX 68 77 76 78 69 79 70 80 74 81 77 82 71 83 72 84 75 85 73 86
REMARK SMILES IDX 52 87 53 88 61 89 54 90 55 91 59 92 62 93 56 94 57 95 60 96
REMARK SMILES IDX 58 97
REMARK H PARENT 9 13 91 26 82 50 50 61
REMARK Flexibility Score: inf
ROOT
ATOM      1  C   UNL A   1      31.737  29.058  27.295  1.00  0.00     0.274 C 
ENDROOT
BRANCH   1   2
ATOM      2  O   UNL A   1      31.430  27.882  26.507  1.00  0.00    -0.462 OA
BRANCH   2   3
ATOM      3  C   UNL A   1      32.494  27.231  25.947  1.00  0.00     0.310 C 
ATOM      4  O   UNL A   1      33.576  27.094  26.500  1.00  0.00    -0.252 OA
BRANCH   3   5
ATOM      5  C   UNL A   1      32.159  26.699  24.546  1.00  0.00     0.116 C 
ATOM      6  C   UNL A   1      33.431  26.672  23.676  1.00  0.00     0.097 C 
ATOM      7  C   UNL A   1      33.866  28.127  23.345  1.00  0.00     0.041 C 
ATOM      8  C   UNL A   1      32.732  29.026  22.942  1.00  0.00    -0.030 C 
ATOM      9  C   UNL A   1      31.014  27.505  23.922  1.00  0.00     0.043 C 
ATOM     10  C   UNL A   1      31.448  28.736  23.190  1.00  0.00    -0.030 C 
BRANCH   6  11
ATOM     11  C   UNL A   1      33.427  25.838  22.389  1.00  0.00     0.228 C 
ATOM     12  N   UNL A   1      33.278  24.489  22.333  1.00  0.00    -0.326 N 
ATOM     13  H   UNL A   1      33.405  24.128  21.427  1.00  0.00     0.169 HD
ATOM     14  O   UNL A   1      33.620  26.371  21.287  1.00  0.00    -0.274 OA
BRANCH  12  15
ATOM     15  C   UNL A   1      32.986  23.496  23.273  1.00  0.00     0.043 A 
ATOM     16  C   UNL A   1      32.528  17.606  25.499  1.00  0.00     0.067 C 
ATOM     17  C   UNL A   1      32.856  18.787  24.584  1.00  0.00     0.182 C 
ATOM     18  C   UNL A   1      32.526  18.389  23.131  1.00  0.00     0.067 C 
ATOM     19  O   UNL A   1      32.001  19.866  25.000  1.00  0.00    -0.476 OA
ATOM     20  C   UNL A   1      34.368  19.104  24.654  1.00  0.00     0.268 C 
ATOM     21  C   UNL A   1      32.401  21.094  24.542  1.00  0.00     0.144 A 
ATOM     22  N   UNL A   1      34.687  20.378  24.254  1.00  0.00    -0.319 N 
ATOM     23  O   UNL A   1      35.242  18.283  24.913  1.00  0.00    -0.270 OA
ATOM     24  C   UNL A   1      31.456  22.113  24.529  1.00  0.00     0.051 A 
ATOM     25  C   UNL A   1      33.699  21.349  24.103  1.00  0.00     0.086 A 
ATOM     26  H   UNL A   1      35.628  20.608  24.072  1.00  0.00     0.170 HD
ATOM     27  C   UNL A   1      31.760  23.331  23.914  1.00  0.00     0.030 A 
ATOM     28  C   UNL A   1      34.003  22.559  23.491  1.00  0.00     0.056 A 
ENDBRANCH  12  15
ENDBRANCH   6  11
ENDBRANCH   3   5
ENDBRANCH   2   3
ENDBRANCH   1   2
BRANCH   1  29
ATOM     29  C   UNL A   1      31.931  30.309  26.435  1.00  0.00     0.275 C 
BRANCH  29  30
ATOM     30  O   UNL A   1      33.316  30.703  26.432  1.00  0.00    -0.458 OA
BRANCH  30  31
ATOM     31  C   UNL A   1      33.637  31.726  27.251  1.00  0.00     0.338 C 
ATOM     32  O   UNL A   1      32.916  32.652  27.607  1.00  0.00    -0.246 OA
BRANCH  31  33
ATOM     33  C   UNL A   1      34.909  31.408  27.910  1.00  0.00     0.060 A 
ATOM     34  C   UNL A   1      35.956  32.308  28.088  1.00  0.00     0.016 A 
ATOM     35  C   UNL A   1      35.012  30.112  28.401  1.00  0.00     0.016 A 
ATOM     36  C   UNL A   1      37.120  31.871  28.740  1.00  0.00     0.010 A 
ATOM     37  C   UNL A   1      36.159  29.672  29.042  1.00  0.00     0.010 A 
ATOM     38  C   UNL A   1      37.233  30.544  29.204  1.00  0.00    -0.014 A 
BRANCH  38  39
ATOM     39  C   UNL A   1      38.412  30.064  29.957  1.00  0.00     0.031 A 
ATOM     40  C   UNL A   1      38.695  30.533  31.355  1.00  0.00     0.074 A 
ATOM     41  C   UNL A   1      39.322  29.315  29.312  1.00  0.00     0.049 A 
ATOM     42  N   UNL A   1      39.617  30.120  32.188  1.00  0.00    -0.248 NA
ATOM     43  C   UNL A   1      37.865  31.631  31.872  1.00  0.00     0.031 C 
ATOM     44  C   UNL A   1      39.253  28.952  27.897  1.00  0.00     0.029 A 
ATOM     45  N   UNL A   1      40.489  28.746  29.752  1.00  0.00    -0.354 N 
ATOM     46  C   UNL A   1      39.462  30.885  33.335  1.00  0.00     0.074 A 
ATOM     47  C   UNL A   1      38.409  31.841  33.064  1.00  0.00     0.031 C 
ATOM     48  C   UNL A   1      40.318  28.196  27.590  1.00  0.00     0.029 A 
ATOM     49  C   UNL A   1      41.130  28.010  28.791  1.00  0.00     0.049 A 
ATOM     50  H   UNL A   1      40.832  28.856  30.669  1.00  0.00     0.167 HD
ATOM     51  C   UNL A   1      40.118  30.770  34.514  1.00  0.00     0.037 A 
ATOM     52  C   UNL A   1      42.227  27.235  28.878  1.00  0.00     0.037 A 
ATOM     53  C   UNL A   1      41.175  29.820  34.758  1.00  0.00     0.049 A 
ATOM     54  C   UNL A   1      42.901  27.059  30.207  1.00  0.00     0.074 A 
ATOM     55  C   UNL A   1      41.809  29.517  35.949  1.00  0.00     0.029 A 
ATOM     56  N   UNL A   1      41.774  29.041  33.778  1.00  0.00    -0.354 N 
ATOM     57  N   UNL A   1      42.614  27.621  31.356  1.00  0.00    -0.248 NA
ATOM     58  C   UNL A   1      44.028  26.119  30.261  1.00  0.00     0.031 C 
ATOM     59  C   UNL A   1      42.829  28.596  35.680  1.00  0.00     0.029 A 
ATOM     60  C   UNL A   1      42.796  28.285  34.331  1.00  0.00     0.049 A 
ATOM     61  H   UNL A   1      41.512  29.028  32.828  1.00  0.00     0.167 HD
ATOM     62  C   UNL A   1      43.513  27.095  32.273  1.00  0.00     0.074 A 
ATOM     63  C   UNL A   1      44.343  26.154  31.549  1.00  0.00     0.031 C 
ATOM     64  C   UNL A   1      43.633  27.367  33.597  1.00  0.00     0.037 A 
BRANCH  51  65
ATOM     65  C   UNL A   1      39.688  31.655  35.650  1.00  0.00     0.064 A 
ATOM     66  C   UNL A   1      40.301  32.898  35.875  1.00  0.00     0.173 A 
ATOM     67  C   UNL A   1      38.606  31.304  36.472  1.00  0.00     0.173 A 
ATOM     68  F   UNL A   1      41.336  33.288  35.116  1.00  0.00    -0.203 F 
ATOM     69  C   UNL A   1      39.863  33.743  36.892  1.00  0.00     0.198 A 
ATOM     70  C   UNL A   1      38.153  32.164  37.470  1.00  0.00     0.198 A 
ATOM     71  F   UNL A   1      37.972  30.134  36.295  1.00  0.00    -0.203 F 
ATOM     72  F   UNL A   1      40.489  34.909  37.106  1.00  0.00    -0.200 F 
ATOM     73  C   UNL A   1      38.785  33.380  37.683  1.00  0.00     0.200 A 
ATOM     74  F   UNL A   1      37.097  31.821  38.221  1.00  0.00    -0.200 F 
ATOM     75  F   UNL A   1      38.354  34.201  38.649  1.00  0.00    -0.200 F 
ENDBRANCH  51  65
BRANCH  52  76
ATOM     76  C   UNL A   1      42.647  26.471  27.679  1.00  0.00     0.064 A 
ATOM     77  C   UNL A   1      43.646  26.975  26.837  1.00  0.00     0.173 A 
ATOM     78  C   UNL A   1      42.149  25.187  27.416  1.00  0.00     0.173 A 
ATOM     79  F   UNL A   1      44.146  28.201  27.050  1.00  0.00    -0.203 F 
ATOM     80  C   UNL A   1      44.140  26.219  25.778  1.00  0.00     0.198 A 
ATOM     81  C   UNL A   1      42.656  24.425  26.366  1.00  0.00     0.198 A 
ATOM     82  F   UNL A   1      41.204  24.658  28.207  1.00  0.00    -0.203 F 
ATOM     83  F   UNL A   1      45.097  26.724  24.986  1.00  0.00    -0.200 F 
ATOM     84  C   UNL A   1      43.653  24.941  25.549  1.00  0.00     0.200 A 
ATOM     85  F   UNL A   1      42.198  23.183  26.160  1.00  0.00    -0.200 F 
ATOM     86  F   UNL A   1      44.150  24.202  24.548  1.00  0.00    -0.200 F 
ENDBRANCH  52  76
BRANCH  64  87
ATOM     87  C   UNL A   1      44.711  26.651  34.355  1.00  0.00     0.064 A 
ATOM     88  C   UNL A   1      45.977  27.226  34.542  1.00  0.00     0.173 A 
ATOM     89  C   UNL A   1      44.459  25.409  34.956  1.00  0.00     0.173 A 
ATOM     90  F   UNL A   1      46.272  28.406  33.977  1.00  0.00    -0.203 F 
ATOM     91  C   UNL A   1      46.954  26.576  35.291  1.00  0.00     0.198 A 
ATOM     92  C   UNL A   1      45.429  24.775  35.728  1.00  0.00     0.198 A 
ATOM     93  F   UNL A   1      43.261  24.819  34.814  1.00  0.00    -0.203 F 
ATOM     94  F   UNL A   1      48.169  27.128  35.427  1.00  0.00    -0.200 F 
ATOM     95  C   UNL A   1      46.677  25.356  35.890  1.00  0.00     0.200 A 
ATOM     96  F   UNL A   1      45.155  23.603  36.317  1.00  0.00    -0.200 F 
ATOM     97  F   UNL A   1      47.615  24.739  36.622  1.00  0.00    -0.200 F 
ENDBRANCH  64  87
ENDBRANCH  38  39
ENDBRANCH  31  33
ENDBRANCH  30  31
ENDBRANCH  29  30
ENDBRANCH   1  29
TORSDOF 13
ENDMDL
MODEL 2
REMARK VINA RESULT:     -13.3      0.506      1.223
REMARK SMILES CC1(C)Oc2ccc(NC(=O)[C@H]3CC=CC[C@@H]3C(=O)OCCOC(=O)c3ccc(-c4c5nc(c(-c6c(F)c(F)c(F)c(F)c6F)c6ccc([nH]6)c(-c6c(F)c(F)c(F)c(F)c6F)c6nc(c(-c7c(F)c(F)c(F)c(F)c7F)c7ccc4[nH]7)C=C6)C=C5)cc3)cc2NC1=O
REMARK SMILES IDX 21 1 20 2 18 3 19 4 17 5 12 6 13 7 14 8 16 9 15 10 10 11
REMARK SMILES IDX 9 12 11 14 8 15 1 16 2 17 3 18 4 19 92 20 5 21 91 22 93 23
REMARK SMILES IDX 6 24 90 25 7 27 89 28 22 29 23 30 24 31 25 32 26 33 27 34
REMARK SMILES IDX 88 35 28 36 87 37 29 38 30 39 31 40 81 41 32 42 86 43 80 44
REMARK SMILES IDX 82 45 33 46 85 47 79 48 78 49 34 51 66 52 46 53 65 54 47 55
REMARK SMILES IDX 50 56 64 57 83 58 48 59 49 60 63 62 84 63 51 64 35 65 36 66
REMARK SMILES IDX 44 67 37 68 38 69 42 70 45 71 39 72 40 73 43 74 41 75 67 76
REMARK SMILES IDX 68 77 76 78 69 79 70 80 74 81 77 82 71 83 72 84 75 85 73 86
REMARK SMILES IDX 52 87 53 88 61 89 54 90 55 91 59 92 62 93 56 94 57 95 60 96
REMARK SMILES IDX 58 97
REMARK H PARENT 9 13 91 26 82 50 50 61
REMARK Flexibility Score: inf
ROOT
ATOM      1  C   UNL A   1      31.754  28.930  27.099  1.00  0.00     0.274 C 
ENDROOT
BRANCH   1   2
ATOM      2  O   UNL A   1      31.024  28.100  26.162  1.00  0.00    -0.462 OA
BRANCH   2   3
ATOM      3  C   UNL A   1      31.444  26.804  26.045  1.00  0.00     0.310 C 
ATOM      4  O   UNL A   1      31.587  26.046  26.993  1.00  0.00    -0.252 OA
BRANCH   3   5
ATOM      5  C   UNL A   1      31.711  26.426  24.580  1.00  0.00     0.116 C 
ATOM      6  C   UNL A   1      33.199  26.075  24.391  1.00  0.00     0.097 C 
ATOM      7  C   UNL A   1      34.059  27.363  24.527  1.00  0.00     0.041 C 
ATOM      8  C   UNL A   1      33.498  28.550  23.799  1.00  0.00    -0.030 C 
ATOM      9  C   UNL A   1      31.225  27.535  23.639  1.00  0.00     0.043 C 
ATOM     10  C   UNL A   1      32.225  28.619  23.388  1.00  0.00    -0.030 C 
BRANCH   6  11
ATOM     11  C   UNL A   1      33.623  25.312  23.130  1.00  0.00     0.228 C 
ATOM     12  N   UNL A   1      33.703  23.960  23.025  1.00  0.00    -0.326 N 
ATOM     13  H   UNL A   1      34.090  23.666  22.170  1.00  0.00     0.169 HD
ATOM     14  O   UNL A   1      33.980  25.920  22.111  1.00  0.00    -0.274 OA
BRANCH  12  15
ATOM     15  C   UNL A   1      33.359  22.891  23.858  1.00  0.00     0.043 A 
ATOM     16  C   UNL A   1      32.529  16.835  25.438  1.00  0.00     0.067 C 
ATOM     17  C   UNL A   1      32.922  18.085  24.649  1.00  0.00     0.182 C 
ATOM     18  C   UNL A   1      32.538  17.875  23.170  1.00  0.00     0.067 C 
ATOM     19  O   UNL A   1      32.153  19.168  25.203  1.00  0.00    -0.476 OA
ATOM     20  C   UNL A   1      34.453  18.288  24.712  1.00  0.00     0.268 C 
ATOM     21  C   UNL A   1      32.630  20.408  24.872  1.00  0.00     0.144 A 
ATOM     22  N   UNL A   1      34.855  19.574  24.446  1.00  0.00    -0.319 N 
ATOM     23  O   UNL A   1      35.273  17.386  24.856  1.00  0.00    -0.270 OA
ATOM     24  C   UNL A   1      31.760  21.484  24.996  1.00  0.00     0.051 A 
ATOM     25  C   UNL A   1      33.935  20.622  24.428  1.00  0.00     0.086 A 
ATOM     26  H   UNL A   1      35.805  19.759  24.265  1.00  0.00     0.170 HD
ATOM     27  C   UNL A   1      32.137  22.740  24.509  1.00  0.00     0.030 A 
ATOM     28  C   UNL A   1      34.312  21.869  23.945  1.00  0.00     0.056 A 
ENDBRANCH  12  15
ENDBRANCH   6  11
ENDBRANCH   3   5
ENDBRANCH   2   3
ENDBRANCH   1   2
BRANCH   1  29
ATOM     29  C   UNL A   1      31.804  30.399  26.670  1.00  0.00     0.275 C 
BRANCH  29  30
ATOM     30  O   UNL A   1      33.169  30.824  26.501  1.00  0.00    -0.458 OA
BRANCH  30  31
ATOM     31  C   UNL A   1      33.554  31.876  27.253  1.00  0.00     0.338 C 
ATOM     32  O   UNL A   1      32.882  32.852  27.570  1.00  0.00    -0.246 OA
BRANCH  31  33
ATOM     33  C   UNL A   1      34.826  31.539  27.902  1.00  0.00     0.060 A 
ATOM     34  C   UNL A   1      35.880  32.428  28.090  1.00  0.00     0.016 A 
ATOM     35  C   UNL A   1      34.922  30.234  28.373  1.00  0.00     0.016 A 
ATOM     36  C   UNL A   1      37.044  31.973  28.731  1.00  0.00     0.010 A 
ATOM     37  C   UNL A   1      36.067  29.776  29.003  1.00  0.00     0.010 A 
ATOM     38  C   UNL A   1      37.149  30.638  29.174  1.00  0.00    -0.014 A 
BRANCH  38  39
ATOM     39  C   UNL A   1      38.326  30.138  29.916  1.00  0.00     0.031 A 
ATOM     40  C   UNL A   1      38.625  30.593  31.315  1.00  0.00     0.074 A 
ATOM     41  C   UNL A   1      39.222  29.382  29.259  1.00  0.00     0.049 A 
ATOM     42  N   UNL A   1      39.548  30.164  32.138  1.00  0.00    -0.248 NA
ATOM     43  C   UNL A   1      37.813  31.698  31.845  1.00  0.00     0.031 C 
ATOM     44  C   UNL A   1      39.139  29.030  27.842  1.00  0.00     0.029 A 
ATOM     45  N   UNL A   1      40.385  28.796  29.687  1.00  0.00    -0.354 N 
ATOM     46  C   UNL A   1      39.410  30.923  33.291  1.00  0.00     0.074 A 
ATOM     47  C   UNL A   1      38.368  31.893  33.035  1.00  0.00     0.031 C 
ATOM     48  C   UNL A   1      40.193  28.263  27.522  1.00  0.00     0.029 A 
ATOM     49  C   UNL A   1      41.011  28.059  28.716  1.00  0.00     0.049 A 
ATOM     50  H   UNL A   1      40.736  28.895  30.601  1.00  0.00     0.167 HD
ATOM     51  C   UNL A   1      40.073  30.791  34.465  1.00  0.00     0.037 A 
ATOM     52  C   UNL A   1      42.098  27.270  28.789  1.00  0.00     0.037 A 
ATOM     53  C   UNL A   1      41.119  29.827  34.695  1.00  0.00     0.049 A 
ATOM     54  C   UNL A   1      42.779  27.076  30.113  1.00  0.00     0.074 A 
ATOM     55  C   UNL A   1      41.759  29.506  35.879  1.00  0.00     0.029 A 
ATOM     56  N   UNL A   1      41.702  29.047  33.705  1.00  0.00    -0.354 N 
ATOM     57  N   UNL A   1      42.508  27.634  31.267  1.00  0.00    -0.248 NA
ATOM     58  C   UNL A   1      43.894  26.122  30.152  1.00  0.00     0.031 C 
ATOM     59  C   UNL A   1      42.765  28.575  35.597  1.00  0.00     0.029 A 
ATOM     60  C   UNL A   1      42.718  28.274  34.245  1.00  0.00     0.049 A 
ATOM     61  H   UNL A   1      41.433  29.043  32.758  1.00  0.00     0.167 HD
ATOM     62  C   UNL A   1      43.406  27.090  32.175  1.00  0.00     0.074 A 
ATOM     63  C   UNL A   1      44.220  26.143  31.438  1.00  0.00     0.031 C 
ATOM     64  C   UNL A   1      43.539  27.351  33.499  1.00  0.00     0.037 A 
BRANCH  51  65
ATOM     65  C   UNL A   1      39.662  31.673  35.610  1.00  0.00     0.064 A 
ATOM     66  C   UNL A   1      40.291  32.907  35.839  1.00  0.00     0.173 A 
ATOM     67  C   UNL A   1      38.582  31.329  36.437  1.00  0.00     0.173 A 
ATOM     68  F   UNL A   1      41.326  33.290  35.076  1.00  0.00    -0.203 F 
ATOM     69  C   UNL A   1      39.872  33.750  36.865  1.00  0.00     0.198 A 
ATOM     70  C   UNL A   1      38.146  32.188  37.444  1.00  0.00     0.198 A 
ATOM     71  F   UNL A   1      37.932  30.168  36.257  1.00  0.00    -0.203 F 
ATOM     72  F   UNL A   1      40.513  34.907  37.083  1.00  0.00    -0.200 F 
ATOM     73  C   UNL A   1      38.795  33.394  37.662  1.00  0.00     0.200 A 
ATOM     74  F   UNL A   1      37.092  31.853  38.201  1.00  0.00    -0.200 F 
ATOM     75  F   UNL A   1      38.382  34.215  38.637  1.00  0.00    -0.200 F 
ENDBRANCH  51  65
BRANCH  52  76
ATOM     76  C   UNL A   1      42.500  26.509  27.583  1.00  0.00     0.064 A 
ATOM     77  C   UNL A   1      43.491  27.012  26.730  1.00  0.00     0.173 A 
ATOM     78  C   UNL A   1      41.994  25.228  27.321  1.00  0.00     0.173 A 
ATOM     79  F   UNL A   1      43.997  28.236  26.942  1.00  0.00    -0.203 F 
ATOM     80  C   UNL A   1      43.968  26.259  25.661  1.00  0.00     0.198 A 
ATOM     81  C   UNL A   1      42.485  24.469  26.262  1.00  0.00     0.198 A 
ATOM     82  F   UNL A   1      41.057  24.699  28.121  1.00  0.00    -0.203 F 
ATOM     83  F   UNL A   1      44.916  26.764  24.860  1.00  0.00    -0.200 F 
ATOM     84  C   UNL A   1      43.473  24.984  25.434  1.00  0.00     0.200 A 
ATOM     85  F   UNL A   1      42.020  23.229  26.056  1.00  0.00    -0.200 F 
ATOM     86  F   UNL A   1      43.955  24.247  24.423  1.00  0.00    -0.200 F 
ENDBRANCH  52  76
BRANCH  64  87
ATOM     87  C   UNL A   1      44.613  26.616  34.245  1.00  0.00     0.064 A 
ATOM     88  C   UNL A   1      44.364  25.376  34.850  1.00  0.00     0.173 A 
ATOM     89  C   UNL A   1      45.920  27.123  34.300  1.00  0.00     0.173 A 
ATOM     90  F   UNL A   1      43.128  24.855  34.837  1.00  0.00    -0.203 F 
ATOM     91  C   UNL A   1      45.380  24.677  35.496  1.00  0.00     0.198 A 
ATOM     92  C   UNL A   1      46.941  26.409  34.921  1.00  0.00     0.198 A 
ATOM     93  F   UNL A   1      46.213  28.302  33.729  1.00  0.00    -0.203 F 
ATOM     94  F   UNL A   1      45.111  23.510  36.099  1.00  0.00    -0.200 F 
ATOM     95  C   UNL A   1      46.669  25.190  35.523  1.00  0.00     0.200 A 
ATOM     96  F   UNL A   1      48.188  26.898  34.935  1.00  0.00    -0.200 F 
ATOM     97  F   UNL A   1      47.650  24.508  36.133  1.00  0.00    -0.200 F 
ENDBRANCH  64  87
ENDBRANCH  38  39
ENDBRANCH  31  33
ENDBRANCH  30  31
ENDBRANCH  29  30
ENDBRANCH   1  29
TORSDOF 13
ENDMDL
MODEL 3
REMARK VINA RESULT:     -13.2      1.119      1.634
REMARK SMILES CC1(C)Oc2ccc(NC(=O)[C@H]3CC=CC[C@@H]3C(=O)OCCOC(=O)c3ccc(-c4c5nc(c(-c6c(F)c(F)c(F)c(F)c6F)c6ccc([nH]6)c(-c6c(F)c(F)c(F)c(F)c6F)c6nc(c(-c7c(F)c(F)c(F)c(F)c7F)c7ccc4[nH]7)C=C6)C=C5)cc3)cc2NC1=O
REMARK SMILES IDX 21 1 20 2 18 3 19 4 17 5 12 6 13 7 14 8 16 9 15 10 10 11
REMARK SMILES IDX 9 12 11 14 8 15 1 16 2 17 3 18 4 19 92 20 5 21 91 22 93 23
REMARK SMILES IDX 6 24 90 25 7 27 89 28 22 29 23 30 24 31 25 32 26 33 27 34
REMARK SMILES IDX 88 35 28 36 87 37 29 38 30 39 31 40 81 41 32 42 86 43 80 44
REMARK SMILES IDX 82 45 33 46 85 47 79 48 78 49 34 51 66 52 46 53 65 54 47 55
REMARK SMILES IDX 50 56 64 57 83 58 48 59 49 60 63 62 84 63 51 64 35 65 36 66
REMARK SMILES IDX 44 67 37 68 38 69 42 70 45 71 39 72 40 73 43 74 41 75 67 76
REMARK SMILES IDX 68 77 76 78 69 79 70 80 74 81 77 82 71 83 72 84 75 85 73 86
REMARK SMILES IDX 52 87 53 88 61 89 54 90 55 91 59 92 62 93 56 94 57 95 60 96
REMARK SMILES IDX 58 97
REMARK H PARENT 9 13 91 26 82 50 50 61
REMARK Flexibility Score: inf
ROOT
ATOM      1  C   UNL A   1      32.119  28.979  27.235  1.00  0.00     0.274 C 
ENDROOT
BRANCH   1   2
ATOM      2  O   UNL A   1      33.013  28.283  26.332  1.00  0.00    -0.462 OA
BRANCH   2   3
ATOM      3  C   UNL A   1      32.471  27.855  25.152  1.00  0.00     0.310 C 
ATOM      4  O   UNL A   1      32.896  28.175  24.051  1.00  0.00    -0.252 OA
BRANCH   3   5
ATOM      5  C   UNL A   1      31.269  26.927  25.384  1.00  0.00     0.116 C 
ATOM      6  C   UNL A   1      31.755  25.479  25.593  1.00  0.00     0.097 C 
ATOM      7  C   UNL A   1      32.309  24.918  24.253  1.00  0.00     0.041 C 
ATOM      8  C   UNL A   1      31.450  25.230  23.061  1.00  0.00    -0.030 C 
ATOM      9  C   UNL A   1      30.251  27.067  24.247  1.00  0.00     0.043 C 
ATOM     10  C   UNL A   1      30.514  26.188  23.065  1.00  0.00    -0.030 C 
BRANCH   6  11
ATOM     11  C   UNL A   1      30.791  24.459  26.211  1.00  0.00     0.228 C 
ATOM     12  N   UNL A   1      30.949  23.110  26.167  1.00  0.00    -0.326 N 
ATOM     13  H   UNL A   1      30.175  22.624  26.531  1.00  0.00     0.169 HD
ATOM     14  O   UNL A   1      29.744  24.828  26.762  1.00  0.00    -0.274 OA
BRANCH  12  15
ATOM     15  C   UNL A   1      31.963  22.257  25.722  1.00  0.00     0.043 A 
ATOM     16  C   UNL A   1      34.483  16.804  23.782  1.00  0.00     0.067 C 
ATOM     17  C   UNL A   1      33.458  17.850  24.221  1.00  0.00     0.182 C 
ATOM     18  C   UNL A   1      32.450  17.179  25.178  1.00  0.00     0.067 C 
ATOM     19  O   UNL A   1      34.195  18.865  24.923  1.00  0.00    -0.476 OA
ATOM     20  C   UNL A   1      32.670  18.363  22.993  1.00  0.00     0.268 C 
ATOM     21  C   UNL A   1      33.510  20.041  25.072  1.00  0.00     0.144 A 
ATOM     22  N   UNL A   1      32.073  19.584  23.187  1.00  0.00    -0.319 N 
ATOM     23  O   UNL A   1      32.467  17.714  21.972  1.00  0.00    -0.270 OA
ATOM     24  C   UNL A   1      33.942  20.916  26.061  1.00  0.00     0.051 A 
ATOM     25  C   UNL A   1      32.417  20.384  24.276  1.00  0.00     0.086 A 
ATOM     26  H   UNL A   1      31.392  19.899  22.549  1.00  0.00     0.170 HD
ATOM     27  C   UNL A   1      33.178  22.045  26.371  1.00  0.00     0.030 A 
ATOM     28  C   UNL A   1      31.656  21.506  24.582  1.00  0.00     0.056 A 
ENDBRANCH  12  15
ENDBRANCH   6  11
ENDBRANCH   3   5
ENDBRANCH   2   3
ENDBRANCH   1   2
BRANCH   1  29
ATOM     29  C   UNL A   1      31.964  30.461  26.884  1.00  0.00     0.275 C 
BRANCH  29  30
ATOM     30  O   UNL A   1      33.244  31.035  26.560  1.00  0.00    -0.458 OA
BRANCH  30  31
ATOM     31  C   UNL A   1      33.629  32.078  27.323  1.00  0.00     0.338 C 
ATOM     32  O   UNL A   1      32.958  33.051  27.652  1.00  0.00    -0.246 OA
BRANCH  31  33
ATOM     33  C   UNL A   1      34.902  31.735  27.967  1.00  0.00     0.060 A 
ATOM     34  C   UNL A   1      35.971  32.611  28.129  1.00  0.00     0.016 A 
ATOM     35  C   UNL A   1      34.984  30.438  28.462  1.00  0.00     0.016 A 
ATOM     36  C   UNL A   1      37.134  32.151  28.768  1.00  0.00     0.010 A 
ATOM     37  C   UNL A   1      36.128  29.975  29.090  1.00  0.00     0.010 A 
ATOM     38  C   UNL A   1      37.224  30.824  29.235  1.00  0.00    -0.014 A 
BRANCH  38  39
ATOM     39  C   UNL A   1      38.400  30.320  29.975  1.00  0.00     0.031 A 
ATOM     40  C   UNL A   1      38.700  30.772  31.375  1.00  0.00     0.074 A 
ATOM     41  C   UNL A   1      39.296  29.565  29.316  1.00  0.00     0.049 A 
ATOM     42  N   UNL A   1      39.622  30.339  32.197  1.00  0.00    -0.248 NA
ATOM     43  C   UNL A   1      37.890  31.876  31.908  1.00  0.00     0.031 C 
ATOM     44  C   UNL A   1      39.211  29.217  27.898  1.00  0.00     0.029 A 
ATOM     45  N   UNL A   1      40.458  28.976  29.742  1.00  0.00    -0.354 N 
ATOM     46  C   UNL A   1      39.486  31.095  33.352  1.00  0.00     0.074 A 
ATOM     47  C   UNL A   1      38.445  32.067  33.098  1.00  0.00     0.031 C 
ATOM     48  C   UNL A   1      40.264  28.449  27.576  1.00  0.00     0.029 A 
ATOM     49  C   UNL A   1      41.082  28.241  28.769  1.00  0.00     0.049 A 
ATOM     50  H   UNL A   1      40.809  29.072  30.657  1.00  0.00     0.167 HD
ATOM     51  C   UNL A   1      40.149  30.959  34.526  1.00  0.00     0.037 A 
ATOM     52  C   UNL A   1      42.168  27.450  28.840  1.00  0.00     0.037 A 
ATOM     53  C   UNL A   1      41.194  29.993  34.752  1.00  0.00     0.049 A 
ATOM     54  C   UNL A   1      42.849  27.252  30.163  1.00  0.00     0.074 A 
ATOM     55  C   UNL A   1      41.833  29.669  35.936  1.00  0.00     0.029 A 
ATOM     56  N   UNL A   1      41.776  29.215  33.760  1.00  0.00    -0.354 N 
ATOM     57  N   UNL A   1      42.579  27.807  31.319  1.00  0.00    -0.248 NA
ATOM     58  C   UNL A   1      43.964  26.296  30.200  1.00  0.00     0.031 C 
ATOM     59  C   UNL A   1      42.838  28.736  35.651  1.00  0.00     0.029 A 
ATOM     60  C   UNL A   1      42.791  28.439  34.299  1.00  0.00     0.049 A 
ATOM     61  H   UNL A   1      41.507  29.214  32.813  1.00  0.00     0.167 HD
ATOM     62  C   UNL A   1      43.477  27.260  32.225  1.00  0.00     0.074 A 
ATOM     63  C   UNL A   1      44.289  26.314  31.486  1.00  0.00     0.031 C 
ATOM     64  C   UNL A   1      43.610  27.517  33.550  1.00  0.00     0.037 A 
BRANCH  51  65
ATOM     65  C   UNL A   1      39.739  31.838  35.673  1.00  0.00     0.064 A 
ATOM     66  C   UNL A   1      40.381  33.065  35.913  1.00  0.00     0.173 A 
ATOM     67  C   UNL A   1      38.649  31.502  36.490  1.00  0.00     0.173 A 
ATOM     68  F   UNL A   1      41.424  33.440  35.160  1.00  0.00    -0.203 F 
ATOM     69  C   UNL A   1      39.963  33.906  36.942  1.00  0.00     0.198 A 
ATOM     70  C   UNL A   1      38.216  32.359  37.499  1.00  0.00     0.198 A 
ATOM     71  F   UNL A   1      37.989  30.349  36.298  1.00  0.00    -0.203 F 
ATOM     72  F   UNL A   1      40.615  35.054  37.171  1.00  0.00    -0.200 F 
ATOM     73  C   UNL A   1      38.877  33.557  37.729  1.00  0.00     0.200 A 
ATOM     74  F   UNL A   1      37.153  32.031  38.246  1.00  0.00    -0.200 F 
ATOM     75  F   UNL A   1      38.465  34.376  38.706  1.00  0.00    -0.200 F 
ENDBRANCH  51  65
BRANCH  52  76
ATOM     76  C   UNL A   1      42.569  26.691  27.631  1.00  0.00     0.064 A 
ATOM     77  C   UNL A   1      43.542  27.208  26.766  1.00  0.00     0.173 A 
ATOM     78  C   UNL A   1      42.082  25.401  27.379  1.00  0.00     0.173 A 
ATOM     79  F   UNL A   1      44.030  28.441  26.968  1.00  0.00    -0.203 F 
ATOM     80  C   UNL A   1      44.020  26.460  25.695  1.00  0.00     0.198 A 
ATOM     81  C   UNL A   1      42.573  24.647  26.317  1.00  0.00     0.198 A 
ATOM     82  F   UNL A   1      41.162  24.860  28.192  1.00  0.00    -0.203 F 
ATOM     83  F   UNL A   1      44.950  26.977  24.880  1.00  0.00    -0.200 F 
ATOM     84  C   UNL A   1      43.543  25.175  25.477  1.00  0.00     0.200 A 
ATOM     85  F   UNL A   1      42.126  23.399  26.121  1.00  0.00    -0.200 F 
ATOM     86  F   UNL A   1      44.026  24.444  24.463  1.00  0.00    -0.200 F 
ENDBRANCH  52  76
BRANCH  64  87
ATOM     87  C   UNL A   1      44.684  26.779  34.294  1.00  0.00     0.064 A 
ATOM     88  C   UNL A   1      45.961  27.331  34.469  1.00  0.00     0.173 A 
ATOM     89  C   UNL A   1      44.417  25.539  34.892  1.00  0.00     0.173 A 
ATOM     90  F   UNL A   1      46.271  28.508  33.906  1.00  0.00    -0.203 F 
ATOM     91  C   UNL A   1      46.935  26.661  35.204  1.00  0.00     0.198 A 
ATOM     92  C   UNL A   1      45.383  24.885  35.650  1.00  0.00     0.198 A 
ATOM     93  F   UNL A   1      43.207  24.971  34.760  1.00  0.00    -0.203 F 
ATOM     94  F   UNL A   1      48.161  27.190  35.329  1.00  0.00    -0.200 F 
ATOM     95  C   UNL A   1      46.643  25.443  35.801  1.00  0.00     0.200 A 
ATOM     96  F   UNL A   1      45.095  23.716  36.238  1.00  0.00    -0.200 F 
ATOM     97  F   UNL A   1      47.578  24.807  36.521  1.00  0.00    -0.200 F 
ENDBRANCH  64  87
ENDBRANCH  38  39
ENDBRANCH  31  33
ENDBRANCH  30  31
ENDBRANCH  29  30
ENDBRANCH   1  29
TORSDOF 13
ENDMDL
