MODEL 1
REMARK VINA RESULT:     -15.0      0.000      0.000
REMARK SMILES O=C(OCCOC(=O)[C@@H]1C=C[C@H](NC(=O)[C@@H]2Cc3ccccc3O2)C1)c1ccc(-c2c3nc(c(-c4c(F)c(F)c(F)c(F)c4F)c4ccc([nH]4)c(-c4c(F)c(F)c(F)c(F)c4F)c4nc(c(-c5c(F)c(F)c(F)c(F)c5F)c5ccc2[nH]5)C=C4)C=C3)cc1
REMARK SMILES IDX 4 1 3 2 2 3 1 4 26 5 27 6 88 7 28 8 87 9 29 10 30 11 31 12
REMARK SMILES IDX 81 13 32 14 86 15 80 16 82 17 33 18 85 19 79 20 78 21 34 23
REMARK SMILES IDX 66 24 46 25 65 26 47 27 50 28 64 29 83 30 48 31 49 32 63 34
REMARK SMILES IDX 84 35 51 36 35 37 36 38 44 39 37 40 38 41 42 42 45 43 39 44
REMARK SMILES IDX 40 45 43 46 41 47 67 48 68 49 76 50 69 51 70 52 74 53 77 54
REMARK SMILES IDX 71 55 72 56 75 57 73 58 52 59 53 60 61 61 54 62 55 63 59 64
REMARK SMILES IDX 62 65 56 66 57 67 60 68 58 69 5 70 6 71 7 72 8 73 9 74 10 75
REMARK SMILES IDX 25 76 11 77 12 78 13 79 14 80 15 82 16 83 17 84 24 85 18 86
REMARK SMILES IDX 23 87 19 88 22 89 20 90 21 91
REMARK H PARENT 82 22 50 33 13 81
REMARK Flexibility Score: inf
ROOT
ATOM      1  C   UNL A   1      33.791  34.883  30.590  1.00  0.00     0.275 C 
ENDROOT
BRANCH   1   2
ATOM      2  O   UNL A   1      35.002  34.270  31.007  1.00  0.00    -0.458 OA
BRANCH   2   3
ATOM      3  C   UNL A   1      34.939  33.087  31.635  1.00  0.00     0.338 C 
ATOM      4  O   UNL A   1      34.004  32.857  32.386  1.00  0.00    -0.246 OA
BRANCH   3   5
ATOM      5  C   UNL A   1      36.059  32.084  31.430  1.00  0.00     0.060 A 
ATOM      6  C   UNL A   1      36.343  30.768  31.853  1.00  0.00     0.016 A 
ATOM      7  C   UNL A   1      36.941  32.541  30.520  1.00  0.00     0.016 A 
ATOM      8  C   UNL A   1      37.482  29.954  31.329  1.00  0.00     0.010 A 
ATOM      9  C   UNL A   1      37.928  31.668  30.034  1.00  0.00     0.010 A 
ATOM     10  C   UNL A   1      38.366  30.386  30.331  1.00  0.00    -0.014 A 
BRANCH  10  11
ATOM     11  C   UNL A   1      39.717  29.651  29.620  1.00  0.00     0.031 A 
ATOM     12  C   UNL A   1      40.156  28.104  29.076  1.00  0.00     0.074 A 
ATOM     13  C   UNL A   1      40.847  30.376  29.565  1.00  0.00     0.049 A 
ATOM     14  N   UNL A   1      40.936  27.737  28.038  1.00  0.00    -0.248 NA
ATOM     15  C   UNL A   1      39.866  26.890  29.842  1.00  0.00     0.031 C 
ATOM     16  C   UNL A   1      41.014  31.679  30.164  1.00  0.00     0.029 A 
ATOM     17  N   UNL A   1      42.075  30.082  29.004  1.00  0.00    -0.354 N 
ATOM     18  C   UNL A   1      40.916  26.313  27.924  1.00  0.00     0.074 A 
ATOM     19  C   UNL A   1      40.104  25.859  29.025  1.00  0.00     0.031 C 
ATOM     20  C   UNL A   1      42.240  32.125  29.878  1.00  0.00     0.029 A 
ATOM     21  C   UNL A   1      42.974  31.104  29.122  1.00  0.00     0.049 A 
ATOM     22  H   UNL A   1      42.282  29.226  28.565  1.00  0.00     0.167 HD
ATOM     23  C   UNL A   1      41.607  25.371  27.191  1.00  0.00     0.037 A 
ATOM     24  C   UNL A   1      44.241  31.262  28.697  1.00  0.00     0.037 A 
ATOM     25  C   UNL A   1      42.867  25.558  26.505  1.00  0.00     0.049 A 
ATOM     26  C   UNL A   1      45.024  30.272  27.877  1.00  0.00     0.074 A 
ATOM     27  C   UNL A   1      43.612  24.652  25.750  1.00  0.00     0.029 A 
ATOM     28  N   UNL A   1      43.663  26.670  26.658  1.00  0.00    -0.354 N 
ATOM     29  N   UNL A   1      44.705  29.079  27.458  1.00  0.00    -0.248 NA
ATOM     30  C   UNL A   1      46.372  30.703  27.457  1.00  0.00     0.031 C 
ATOM     31  C   UNL A   1      44.884  25.197  25.511  1.00  0.00     0.029 A 
ATOM     32  C   UNL A   1      44.894  26.468  26.050  1.00  0.00     0.049 A 
ATOM     33  H   UNL A   1      43.398  27.491  27.131  1.00  0.00     0.167 HD
ATOM     34  C   UNL A   1      45.791  28.640  26.696  1.00  0.00     0.074 A 
ATOM     35  C   UNL A   1      46.777  29.687  26.709  1.00  0.00     0.031 C 
ATOM     36  C   UNL A   1      45.926  27.467  26.031  1.00  0.00     0.037 A 
BRANCH  23  37
ATOM     37  C   UNL A   1      41.052  23.944  27.111  1.00  0.00     0.064 A 
ATOM     38  C   UNL A   1      39.908  23.690  26.336  1.00  0.00     0.173 A 
ATOM     39  C   UNL A   1      41.719  22.821  27.644  1.00  0.00     0.173 A 
ATOM     40  F   UNL A   1      39.270  24.703  25.733  1.00  0.00    -0.203 F 
ATOM     41  C   UNL A   1      39.427  22.391  26.141  1.00  0.00     0.198 A 
ATOM     42  C   UNL A   1      41.243  21.521  27.434  1.00  0.00     0.198 A 
ATOM     43  F   UNL A   1      42.856  22.975  28.339  1.00  0.00    -0.203 F 
ATOM     44  F   UNL A   1      38.326  22.188  25.404  1.00  0.00    -0.200 F 
ATOM     45  C   UNL A   1      40.092  21.308  26.693  1.00  0.00     0.200 A 
ATOM     46  F   UNL A   1      41.908  20.470  27.938  1.00  0.00    -0.200 F 
ATOM     47  F   UNL A   1      39.630  20.063  26.502  1.00  0.00    -0.200 F 
ENDBRANCH  23  37
BRANCH  24  48
ATOM     48  C   UNL A   1      44.886  32.543  29.051  1.00  0.00     0.064 A 
ATOM     49  C   UNL A   1      44.693  33.675  28.253  1.00  0.00     0.173 A 
ATOM     50  C   UNL A   1      45.673  32.650  30.204  1.00  0.00     0.173 A 
ATOM     51  F   UNL A   1      43.946  33.593  27.142  1.00  0.00    -0.203 F 
ATOM     52  C   UNL A   1      45.303  34.876  28.580  1.00  0.00     0.198 A 
ATOM     53  C   UNL A   1      46.252  33.861  30.547  1.00  0.00     0.198 A 
ATOM     54  F   UNL A   1      45.840  31.587  31.005  1.00  0.00    -0.203 F 
ATOM     55  F   UNL A   1      45.153  35.938  27.779  1.00  0.00    -0.200 F 
ATOM     56  C   UNL A   1      46.077  34.970  29.729  1.00  0.00     0.200 A 
ATOM     57  F   UNL A   1      46.973  33.959  31.672  1.00  0.00    -0.200 F 
ATOM     58  F   UNL A   1      46.661  36.132  30.047  1.00  0.00    -0.200 F 
ENDBRANCH  24  48
BRANCH  36  59
ATOM     59  C   UNL A   1      47.162  27.226  25.205  1.00  0.00     0.064 A 
ATOM     60  C   UNL A   1      47.289  27.682  23.884  1.00  0.00     0.173 A 
ATOM     61  C   UNL A   1      48.264  26.560  25.768  1.00  0.00     0.173 A 
ATOM     62  F   UNL A   1      46.269  28.317  23.286  1.00  0.00    -0.203 F 
ATOM     63  C   UNL A   1      48.459  27.463  23.154  1.00  0.00     0.198 A 
ATOM     64  C   UNL A   1      49.440  26.364  25.046  1.00  0.00     0.198 A 
ATOM     65  F   UNL A   1      48.205  26.101  27.027  1.00  0.00    -0.203 F 
ATOM     66  F   UNL A   1      48.541  27.875  21.882  1.00  0.00    -0.200 F 
ATOM     67  C   UNL A   1      49.535  26.810  23.737  1.00  0.00     0.200 A 
ATOM     68  F   UNL A   1      50.481  25.743  25.617  1.00  0.00    -0.200 F 
ATOM     69  F   UNL A   1      50.661  26.607  23.038  1.00  0.00    -0.200 F 
ENDBRANCH  36  59
ENDBRANCH  10  11
ENDBRANCH   3   5
ENDBRANCH   2   3
ENDBRANCH   1   2
BRANCH   1  70
ATOM     70  C   UNL A   1      33.490  34.910  29.060  1.00  0.00     0.274 C 
BRANCH  70  71
ATOM     71  O   UNL A   1      33.266  33.625  28.352  1.00  0.00    -0.462 OA
BRANCH  71  72
ATOM     72  C   UNL A   1      34.366  32.890  27.975  1.00  0.00     0.312 C 
ATOM     73  O   UNL A   1      35.389  33.433  27.556  1.00  0.00    -0.252 OA
BRANCH  72  74
ATOM     74  C   UNL A   1      34.287  31.298  28.010  1.00  0.00     0.124 C 
ATOM     75  C   UNL A   1      35.425  30.323  28.032  1.00  0.00    -0.014 C 
ATOM     76  C   UNL A   1      33.296  30.600  26.987  1.00  0.00     0.048 C 
ATOM     77  C   UNL A   1      35.190  29.206  27.298  1.00  0.00    -0.006 C 
ATOM     78  C   UNL A   1      33.897  29.229  26.487  1.00  0.00     0.106 C 
BRANCH  78  79
ATOM     79  N   UNL A   1      33.799  28.816  24.809  1.00  0.00    -0.347 N 
ATOM     80  C   UNL A   1      33.083  28.706  23.525  1.00  0.00     0.261 C 
ATOM     81  H   UNL A   1      34.699  28.474  24.601  1.00  0.00     0.164 HD
ATOM     82  O   UNL A   1      33.808  28.266  22.614  1.00  0.00    -0.271 OA
BRANCH  80  83
ATOM     83  C   UNL A   1      31.431  29.174  23.029  1.00  0.00     0.266 C 
ATOM     84  C   UNL A   1      30.531  29.612  24.216  1.00  0.00     0.095 C 
ATOM     85  O   UNL A   1      30.406  28.902  22.006  1.00  0.00    -0.480 OA
ATOM     86  C   UNL A   1      29.531  30.452  23.480  1.00  0.00    -0.002 A 
ATOM     87  C   UNL A   1      29.492  29.977  22.176  1.00  0.00     0.123 A 
ATOM     88  C   UNL A   1      28.793  31.571  23.876  1.00  0.00     0.008 A 
ATOM     89  C   UNL A   1      28.719  30.636  21.216  1.00  0.00     0.047 A 
ATOM     90  C   UNL A   1      28.046  32.267  22.915  1.00  0.00     0.001 A 
ATOM     91  C   UNL A   1      28.007  31.801  21.592  1.00  0.00     0.004 A 
ENDBRANCH  80  83
ENDBRANCH  78  79
ENDBRANCH  72  74
ENDBRANCH  71  72
ENDBRANCH  70  71
ENDBRANCH   1  70
TORSDOF 13
ENDMDL
MODEL 2
REMARK VINA RESULT:     -14.8      5.834     11.531
REMARK SMILES O=C(OCCOC(=O)[C@@H]1C=C[C@H](NC(=O)[C@@H]2Cc3ccccc3O2)C1)c1ccc(-c2c3nc(c(-c4c(F)c(F)c(F)c(F)c4F)c4ccc([nH]4)c(-c4c(F)c(F)c(F)c(F)c4F)c4nc(c(-c5c(F)c(F)c(F)c(F)c5F)c5ccc2[nH]5)C=C4)C=C3)cc1
REMARK SMILES IDX 4 1 3 2 2 3 1 4 26 5 27 6 88 7 28 8 87 9 29 10 30 11 31 12
REMARK SMILES IDX 81 13 32 14 86 15 80 16 82 17 33 18 85 19 79 20 78 21 34 23
REMARK SMILES IDX 66 24 46 25 65 26 47 27 50 28 64 29 83 30 48 31 49 32 63 34
REMARK SMILES IDX 84 35 51 36 35 37 36 38 44 39 37 40 38 41 42 42 45 43 39 44
REMARK SMILES IDX 40 45 43 46 41 47 67 48 68 49 76 50 69 51 70 52 74 53 77 54
REMARK SMILES IDX 71 55 72 56 75 57 73 58 52 59 53 60 61 61 54 62 55 63 59 64
REMARK SMILES IDX 62 65 56 66 57 67 60 68 58 69 5 70 6 71 7 72 8 73 9 74 10 75
REMARK SMILES IDX 25 76 11 77 12 78 13 79 14 80 15 82 16 83 17 84 24 85 18 86
REMARK SMILES IDX 23 87 19 88 22 89 20 90 21 91
REMARK H PARENT 82 22 50 33 13 81
REMARK Flexibility Score: inf
ROOT
ATOM      1  C   UNL A   1      43.102  20.093  25.637  1.00  0.00     0.275 C 
ENDROOT
BRANCH   1   2
ATOM      2  O   UNL A   1      42.816  21.401  25.163  1.00  0.00    -0.458 OA
BRANCH   2   3
ATOM      3  C   UNL A   1      43.709  22.375  25.387  1.00  0.00     0.338 C 
ATOM      4  O   UNL A   1      44.896  22.154  25.197  1.00  0.00    -0.246 OA
BRANCH   3   5
ATOM      5  C   UNL A   1      43.224  23.712  25.916  1.00  0.00     0.060 A 
ATOM      6  C   UNL A   1      42.716  24.907  25.363  1.00  0.00     0.016 A 
ATOM      7  C   UNL A   1      43.165  23.693  27.261  1.00  0.00     0.016 A 
ATOM      8  C   UNL A   1      42.145  26.022  26.178  1.00  0.00     0.010 A 
ATOM      9  C   UNL A   1      42.537  24.758  27.928  1.00  0.00     0.010 A 
ATOM     10  C   UNL A   1      42.010  25.991  27.572  1.00  0.00    -0.014 A 
BRANCH  10  11
ATOM     11  C   UNL A   1      41.427  27.133  28.679  1.00  0.00     0.031 A 
ATOM     12  C   UNL A   1      40.191  28.296  28.741  1.00  0.00     0.074 A 
ATOM     13  C   UNL A   1      42.168  27.352  29.778  1.00  0.00     0.049 A 
ATOM     14  N   UNL A   1      39.436  28.707  29.781  1.00  0.00    -0.248 NA
ATOM     15  C   UNL A   1      39.900  29.194  27.620  1.00  0.00     0.031 C 
ATOM     16  C   UNL A   1      43.467  26.769  30.019  1.00  0.00     0.029 A 
ATOM     17  N   UNL A   1      41.935  28.163  30.872  1.00  0.00    -0.354 N 
ATOM     18  C   UNL A   1      38.455  29.631  29.304  1.00  0.00     0.074 A 
ATOM     19  C   UNL A   1      38.732  29.781  27.898  1.00  0.00     0.031 C 
ATOM     20  C   UNL A   1      43.895  27.163  31.221  1.00  0.00     0.029 A 
ATOM     21  C   UNL A   1      42.921  28.086  31.814  1.00  0.00     0.049 A 
ATOM     22  H   UNL A   1      41.140  28.737  30.964  1.00  0.00     0.167 HD
ATOM     23  C   UNL A   1      37.535  30.479  29.883  1.00  0.00     0.037 A 
ATOM     24  C   UNL A   1      43.079  28.659  33.022  1.00  0.00     0.037 A 
ATOM     25  C   UNL A   1      37.521  30.940  31.255  1.00  0.00     0.049 A 
ATOM     26  C   UNL A   1      42.093  29.571  33.700  1.00  0.00     0.074 A 
ATOM     27  C   UNL A   1      36.623  31.793  31.897  1.00  0.00     0.029 A 
ATOM     28  N   UNL A   1      38.559  30.747  32.136  1.00  0.00    -0.354 N 
ATOM     29  N   UNL A   1      40.950  30.041  33.284  1.00  0.00    -0.248 NA
ATOM     30  C   UNL A   1      42.449  30.010  35.063  1.00  0.00     0.031 C 
ATOM     31  C   UNL A   1      37.160  32.165  33.140  1.00  0.00     0.029 A 
ATOM     32  C   UNL A   1      38.350  31.481  33.295  1.00  0.00     0.049 A 
ATOM     33  H   UNL A   1      39.339  30.171  31.969  1.00  0.00     0.167 HD
ATOM     34  C   UNL A   1      40.437  30.792  34.345  1.00  0.00     0.074 A 
ATOM     35  C   UNL A   1      41.390  30.720  35.422  1.00  0.00     0.031 C 
ATOM     36  C   UNL A   1      39.260  31.461  34.405  1.00  0.00     0.037 A 
BRANCH  23  37
ATOM     37  C   UNL A   1      36.422  31.070  29.009  1.00  0.00     0.064 A 
ATOM     38  C   UNL A   1      35.325  30.267  28.652  1.00  0.00     0.173 A 
ATOM     39  C   UNL A   1      36.347  32.436  28.666  1.00  0.00     0.173 A 
ATOM     40  F   UNL A   1      35.293  28.978  29.017  1.00  0.00    -0.203 F 
ATOM     41  C   UNL A   1      34.232  30.788  27.952  1.00  0.00     0.198 A 
ATOM     42  C   UNL A   1      35.244  32.956  27.977  1.00  0.00     0.198 A 
ATOM     43  F   UNL A   1      37.323  33.281  29.029  1.00  0.00    -0.203 F 
ATOM     44  F   UNL A   1      33.208  29.989  27.619  1.00  0.00    -0.200 F 
ATOM     45  C   UNL A   1      34.194  32.130  27.611  1.00  0.00     0.200 A 
ATOM     46  F   UNL A   1      35.191  34.264  27.679  1.00  0.00    -0.200 F 
ATOM     47  F   UNL A   1      33.144  32.627  26.940  1.00  0.00    -0.200 F 
ENDBRANCH  23  37
BRANCH  24  48
ATOM     48  C   UNL A   1      44.325  28.318  33.739  1.00  0.00     0.064 A 
ATOM     49  C   UNL A   1      44.362  27.225  34.611  1.00  0.00     0.173 A 
ATOM     50  C   UNL A   1      45.492  29.064  33.534  1.00  0.00     0.173 A 
ATOM     51  F   UNL A   1      43.254  26.501  34.824  1.00  0.00    -0.203 F 
ATOM     52  C   UNL A   1      45.529  26.909  35.290  1.00  0.00     0.198 A 
ATOM     53  C   UNL A   1      46.666  28.723  34.187  1.00  0.00     0.198 A 
ATOM     54  F   UNL A   1      45.491  30.092  32.673  1.00  0.00    -0.203 F 
ATOM     55  F   UNL A   1      45.535  25.893  36.162  1.00  0.00    -0.200 F 
ATOM     56  C   UNL A   1      46.680  27.654  35.073  1.00  0.00     0.200 A 
ATOM     57  F   UNL A   1      47.784  29.423  33.955  1.00  0.00    -0.200 F 
ATOM     58  F   UNL A   1      47.808  27.344  35.726  1.00  0.00    -0.200 F 
ENDBRANCH  24  48
BRANCH  36  59
ATOM     59  C   UNL A   1      38.871  32.152  35.684  1.00  0.00     0.064 A 
ATOM     60  C   UNL A   1      38.199  31.493  36.726  1.00  0.00     0.173 A 
ATOM     61  C   UNL A   1      39.218  33.498  35.890  1.00  0.00     0.173 A 
ATOM     62  F   UNL A   1      37.831  30.211  36.588  1.00  0.00    -0.203 F 
ATOM     63  C   UNL A   1      37.874  32.158  37.909  1.00  0.00     0.198 A 
ATOM     64  C   UNL A   1      38.914  34.153  37.082  1.00  0.00     0.198 A 
ATOM     65  F   UNL A   1      39.862  34.183  34.933  1.00  0.00    -0.203 F 
ATOM     66  F   UNL A   1      37.199  31.517  38.874  1.00  0.00    -0.200 F 
ATOM     67  C   UNL A   1      38.237  33.484  38.089  1.00  0.00     0.200 A 
ATOM     68  F   UNL A   1      39.277  35.432  37.256  1.00  0.00    -0.200 F 
ATOM     69  F   UNL A   1      37.930  34.119  39.230  1.00  0.00    -0.200 F 
ENDBRANCH  36  59
ENDBRANCH  10  11
ENDBRANCH   3   5
ENDBRANCH   2   3
ENDBRANCH   1   2
BRANCH   1  70
ATOM     70  C   UNL A   1      41.901  19.234  26.139  1.00  0.00     0.274 C 
BRANCH  70  71
ATOM     71  O   UNL A   1      40.544  19.835  26.144  1.00  0.00    -0.462 OA
BRANCH  71  72
ATOM     72  C   UNL A   1      40.347  20.990  26.863  1.00  0.00     0.312 C 
ATOM     73  O   UNL A   1      40.743  21.100  28.024  1.00  0.00    -0.252 OA
BRANCH  72  74
ATOM     74  C   UNL A   1      39.523  22.186  26.205  1.00  0.00     0.124 C 
ATOM     75  C   UNL A   1      39.355  23.581  26.726  1.00  0.00    -0.014 C 
ATOM     76  C   UNL A   1      38.055  21.861  25.700  1.00  0.00     0.048 C 
ATOM     77  C   UNL A   1      38.115  24.089  26.511  1.00  0.00    -0.006 C 
ATOM     78  C   UNL A   1      37.108  23.103  25.925  1.00  0.00     0.106 C 
BRANCH  78  79
ATOM     79  N   UNL A   1      35.514  22.859  26.555  1.00  0.00    -0.347 N 
ATOM     80  C   UNL A   1      34.234  22.132  26.638  1.00  0.00     0.261 C 
ATOM     81  H   UNL A   1      35.405  23.594  27.202  1.00  0.00     0.164 HD
ATOM     82  O   UNL A   1      33.461  22.628  27.479  1.00  0.00    -0.271 OA
BRANCH  80  83
ATOM     83  C   UNL A   1      33.646  20.644  25.842  1.00  0.00     0.266 C 
ATOM     84  C   UNL A   1      34.532  20.188  24.651  1.00  0.00     0.095 C 
ATOM     85  O   UNL A   1      32.411  19.892  25.555  1.00  0.00    -0.480 OA
ATOM     86  C   UNL A   1      34.173  18.734  24.609  1.00  0.00    -0.002 A 
ATOM     87  C   UNL A   1      32.899  18.621  25.150  1.00  0.00     0.123 A 
ATOM     88  C   UNL A   1      34.909  17.610  24.222  1.00  0.00     0.008 A 
ATOM     89  C   UNL A   1      32.332  17.358  25.340  1.00  0.00     0.047 A 
ATOM     90  C   UNL A   1      34.370  16.335  24.446  1.00  0.00     0.001 A 
ATOM     91  C   UNL A   1      33.087  16.209  25.000  1.00  0.00     0.004 A 
ENDBRANCH  80  83
ENDBRANCH  78  79
ENDBRANCH  72  74
ENDBRANCH  71  72
ENDBRANCH  70  71
ENDBRANCH   1  70
TORSDOF 13
ENDMDL
MODEL 3
REMARK VINA RESULT:     -14.6      5.582     11.012
REMARK SMILES O=C(OCCOC(=O)[C@@H]1C=C[C@H](NC(=O)[C@@H]2Cc3ccccc3O2)C1)c1ccc(-c2c3nc(c(-c4c(F)c(F)c(F)c(F)c4F)c4ccc([nH]4)c(-c4c(F)c(F)c(F)c(F)c4F)c4nc(c(-c5c(F)c(F)c(F)c(F)c5F)c5ccc2[nH]5)C=C4)C=C3)cc1
REMARK SMILES IDX 4 1 3 2 2 3 1 4 26 5 27 6 88 7 28 8 87 9 29 10 30 11 31 12
REMARK SMILES IDX 81 13 32 14 86 15 80 16 82 17 33 18 85 19 79 20 78 21 34 23
REMARK SMILES IDX 66 24 46 25 65 26 47 27 50 28 64 29 83 30 48 31 49 32 63 34
REMARK SMILES IDX 84 35 51 36 35 37 36 38 44 39 37 40 38 41 42 42 45 43 39 44
REMARK SMILES IDX 40 45 43 46 41 47 67 48 68 49 76 50 69 51 70 52 74 53 77 54
REMARK SMILES IDX 71 55 72 56 75 57 73 58 52 59 53 60 61 61 54 62 55 63 59 64
REMARK SMILES IDX 62 65 56 66 57 67 60 68 58 69 5 70 6 71 7 72 8 73 9 74 10 75
REMARK SMILES IDX 25 76 11 77 12 78 13 79 14 80 15 82 16 83 17 84 24 85 18 86
REMARK SMILES IDX 23 87 19 88 22 89 20 90 21 91
REMARK H PARENT 82 22 50 33 13 81
REMARK Flexibility Score: inf
ROOT
ATOM      1  C   UNL A   1      43.391  20.295  25.679  1.00  0.00     0.275 C 
ENDROOT
BRANCH   1   2
ATOM      2  O   UNL A   1      43.611  21.627  26.118  1.00  0.00    -0.458 OA
BRANCH   2   3
ATOM      3  C   UNL A   1      43.317  22.635  25.284  1.00  0.00     0.338 C 
ATOM      4  O   UNL A   1      43.470  22.481  24.082  1.00  0.00    -0.246 OA
BRANCH   3   5
ATOM      5  C   UNL A   1      42.845  23.956  25.862  1.00  0.00     0.060 A 
ATOM      6  C   UNL A   1      42.303  25.158  25.358  1.00  0.00     0.016 A 
ATOM      7  C   UNL A   1      42.845  23.908  27.208  1.00  0.00     0.016 A 
ATOM      8  C   UNL A   1      41.760  26.250  26.221  1.00  0.00     0.010 A 
ATOM      9  C   UNL A   1      42.238  24.953  27.924  1.00  0.00     0.010 A 
ATOM     10  C   UNL A   1      41.686  26.188  27.619  1.00  0.00    -0.014 A 
BRANCH  10  11
ATOM     11  C   UNL A   1      41.142  27.302  28.774  1.00  0.00     0.031 A 
ATOM     12  C   UNL A   1      39.953  28.509  28.884  1.00  0.00     0.074 A 
ATOM     13  C   UNL A   1      41.885  27.440  29.885  1.00  0.00     0.049 A 
ATOM     14  N   UNL A   1      39.209  28.903  29.938  1.00  0.00    -0.248 NA
ATOM     15  C   UNL A   1      39.705  29.468  27.804  1.00  0.00     0.031 C 
ATOM     16  C   UNL A   1      43.158  26.795  30.104  1.00  0.00     0.029 A 
ATOM     17  N   UNL A   1      41.678  28.209  31.014  1.00  0.00    -0.354 N 
ATOM     18  C   UNL A   1      38.269  29.886  29.500  1.00  0.00     0.074 A 
ATOM     19  C   UNL A   1      38.560  30.089  28.104  1.00  0.00     0.031 C 
ATOM     20  C   UNL A   1      43.594  27.117  31.325  1.00  0.00     0.029 A 
ATOM     21  C   UNL A   1      42.655  28.050  31.956  1.00  0.00     0.049 A 
ATOM     22  H   UNL A   1      40.907  28.811  31.128  1.00  0.00     0.167 HD
ATOM     23  C   UNL A   1      37.380  30.743  30.113  1.00  0.00     0.037 A 
ATOM     24  C   UNL A   1      42.829  28.560  33.189  1.00  0.00     0.037 A 
ATOM     25  C   UNL A   1      37.377  31.142  31.505  1.00  0.00     0.049 A 
ATOM     26  C   UNL A   1      41.876  29.479  33.903  1.00  0.00     0.074 A 
ATOM     27  C   UNL A   1      36.510  31.999  32.182  1.00  0.00     0.029 A 
ATOM     28  N   UNL A   1      38.401  30.867  32.381  1.00  0.00    -0.354 N 
ATOM     29  N   UNL A   1      40.755  30.014  33.505  1.00  0.00    -0.248 NA
ATOM     30  C   UNL A   1      42.241  29.842  35.287  1.00  0.00     0.031 C 
ATOM     31  C   UNL A   1      37.054  32.293  33.443  1.00  0.00     0.029 A 
ATOM     32  C   UNL A   1      38.214  31.556  33.572  1.00  0.00     0.049 A 
ATOM     33  H   UNL A   1      39.158  30.268  32.191  1.00  0.00     0.167 HD
ATOM     34  C   UNL A   1      40.266  30.736  34.597  1.00  0.00     0.074 A 
ATOM     35  C   UNL A   1      41.208  30.577  35.673  1.00  0.00     0.031 C 
ATOM     36  C   UNL A   1      39.117  31.448  34.683  1.00  0.00     0.037 A 
BRANCH  23  37
ATOM     37  C   UNL A   1      36.297  31.418  29.263  1.00  0.00     0.064 A 
ATOM     38  C   UNL A   1      35.226  30.650  28.773  1.00  0.00     0.173 A 
ATOM     39  C   UNL A   1      36.218  32.812  29.070  1.00  0.00     0.173 A 
ATOM     40  F   UNL A   1      35.196  29.328  28.992  1.00  0.00    -0.203 F 
ATOM     41  C   UNL A   1      34.157  31.235  28.088  1.00  0.00     0.198 A 
ATOM     42  C   UNL A   1      35.138  33.396  28.395  1.00  0.00     0.198 A 
ATOM     43  F   UNL A   1      37.167  33.620  29.565  1.00  0.00    -0.203 F 
ATOM     44  F   UNL A   1      33.158  30.470  27.627  1.00  0.00    -0.200 F 
ATOM     45  C   UNL A   1      34.115  32.606  27.896  1.00  0.00     0.200 A 
ATOM     46  F   UNL A   1      35.080  34.728  28.241  1.00  0.00    -0.200 F 
ATOM     47  F   UNL A   1      33.087  33.166  27.239  1.00  0.00    -0.200 F 
ENDBRANCH  23  37
BRANCH  24  48
ATOM     48  C   UNL A   1      44.056  28.138  33.894  1.00  0.00     0.064 A 
ATOM     49  C   UNL A   1      44.061  26.969  34.662  1.00  0.00     0.173 A 
ATOM     50  C   UNL A   1      45.236  28.883  33.781  1.00  0.00     0.173 A 
ATOM     51  F   UNL A   1      42.940  26.243  34.788  1.00  0.00    -0.203 F 
ATOM     52  C   UNL A   1      45.211  26.575  35.331  1.00  0.00     0.198 A 
ATOM     53  C   UNL A   1      46.392  28.466  34.422  1.00  0.00     0.198 A 
ATOM     54  F   UNL A   1      45.264  29.986  33.018  1.00  0.00    -0.203 F 
ATOM     55  F   UNL A   1      45.187  25.483  36.106  1.00  0.00    -0.200 F 
ATOM     56  C   UNL A   1      46.375  27.321  35.206  1.00  0.00     0.200 A 
ATOM     57  F   UNL A   1      47.523  29.169  34.276  1.00  0.00    -0.200 F 
ATOM     58  F   UNL A   1      47.485  26.935  35.848  1.00  0.00    -0.200 F 
ENDBRANCH  24  48
BRANCH  36  59
ATOM     59  C   UNL A   1      38.747  32.096  35.991  1.00  0.00     0.064 A 
ATOM     60  C   UNL A   1      39.035  33.440  36.276  1.00  0.00     0.173 A 
ATOM     61  C   UNL A   1      38.047  31.364  36.964  1.00  0.00     0.173 A 
ATOM     62  F   UNL A   1      39.709  34.190  35.392  1.00  0.00    -0.203 F 
ATOM     63  C   UNL A   1      38.657  34.016  37.490  1.00  0.00     0.198 A 
ATOM     64  C   UNL A   1      37.649  31.949  38.166  1.00  0.00     0.198 A 
ATOM     65  F   UNL A   1      37.742  30.076  36.750  1.00  0.00    -0.203 F 
ATOM     66  F   UNL A   1      38.977  35.291  37.755  1.00  0.00    -0.200 F 
ATOM     67  C   UNL A   1      37.959  33.273  38.431  1.00  0.00     0.200 A 
ATOM     68  F   UNL A   1      36.966  31.230  39.067  1.00  0.00    -0.200 F 
ATOM     69  F   UNL A   1      37.590  33.831  39.593  1.00  0.00    -0.200 F 
ENDBRANCH  36  59
ENDBRANCH  10  11
ENDBRANCH   3   5
ENDBRANCH   2   3
ENDBRANCH   1   2
BRANCH   1  70
ATOM     70  C   UNL A   1      42.202  19.515  26.319  1.00  0.00     0.274 C 
BRANCH  70  71
ATOM     71  O   UNL A   1      40.820  20.015  26.104  1.00  0.00    -0.462 OA
BRANCH  71  72
ATOM     72  C   UNL A   1      40.407  21.112  26.822  1.00  0.00     0.312 C 
ATOM     73  O   UNL A   1      40.728  21.267  28.000  1.00  0.00    -0.252 OA
BRANCH  72  74
ATOM     74  C   UNL A   1      39.427  22.167  26.136  1.00  0.00     0.124 C 
ATOM     75  C   UNL A   1      39.105  23.556  26.598  1.00  0.00    -0.014 C 
ATOM     76  C   UNL A   1      37.996  21.644  25.694  1.00  0.00     0.048 C 
ATOM     77  C   UNL A   1      37.808  23.900  26.400  1.00  0.00    -0.006 C 
ATOM     78  C   UNL A   1      36.912  22.774  25.891  1.00  0.00     0.106 C 
BRANCH  78  79
ATOM     79  N   UNL A   1      35.376  22.372  26.582  1.00  0.00    -0.347 N 
ATOM     80  C   UNL A   1      33.966  22.660  26.900  1.00  0.00     0.261 C 
ATOM     81  H   UNL A   1      35.521  21.476  26.964  1.00  0.00     0.164 HD
ATOM     82  O   UNL A   1      33.412  21.717  27.495  1.00  0.00    -0.271 OA
BRANCH  80  83
ATOM     83  C   UNL A   1      32.905  24.043  26.503  1.00  0.00     0.266 C 
ATOM     84  C   UNL A   1      33.639  25.190  25.757  1.00  0.00     0.095 C 
ATOM     85  O   UNL A   1      31.707  24.759  26.976  1.00  0.00    -0.480 OA
ATOM     86  C   UNL A   1      32.471  25.843  25.083  1.00  0.00    -0.002 A 
ATOM     87  C   UNL A   1      31.353  25.561  25.858  1.00  0.00     0.123 A 
ATOM     88  C   UNL A   1      32.369  26.538  23.874  1.00  0.00     0.008 A 
ATOM     89  C   UNL A   1      30.085  25.955  25.423  1.00  0.00     0.047 A 
ATOM     90  C   UNL A   1      31.099  26.902  23.405  1.00  0.00     0.001 A 
ATOM     91  C   UNL A   1      29.963  26.614  24.175  1.00  0.00     0.004 A 
ENDBRANCH  80  83
ENDBRANCH  78  79
ENDBRANCH  72  74
ENDBRANCH  71  72
ENDBRANCH  70  71
ENDBRANCH   1  70
TORSDOF 13
ENDMDL
