MODEL 1
REMARK VINA RESULT:     -11.3      0.000      0.000
REMARK SMILES CCCc1nc(C[N@H+]2CCCC[C@@H]2C(=O)OCCOC(=O)c2ccc(-c3c4nc(c(-c5c(F)c(F)c(F)c(F)c5F)c5ccc([nH]5)c(-c5c(F)c(F)c(F)c(F)c5F)c5nc(c(-c6c(F)c(F)c(F)c(F)c6F)c6ccc3[nH]6)C=C5)C=C4)cc2)cs1
REMARK SMILES IDX 17 1 16 2 14 3 15 4 13 5 8 6 9 7 10 9 12 10 11 11 7 12 6 13
REMARK SMILES IDX 4 14 5 15 86 16 85 17 3 18 2 19 1 20 18 21 19 22 20 23 21 24
REMARK SMILES IDX 22 25 23 26 84 27 24 28 83 29 25 30 26 31 27 32 77 33 28 34
REMARK SMILES IDX 82 35 76 36 78 37 29 38 81 39 75 40 74 41 30 43 62 44 42 45
REMARK SMILES IDX 61 46 43 47 46 48 60 49 79 50 44 51 45 52 59 54 80 55 47 56
REMARK SMILES IDX 31 57 32 58 40 59 33 60 34 61 38 62 41 63 35 64 36 65 39 66
REMARK SMILES IDX 37 67 63 68 64 69 72 70 65 71 66 72 70 73 73 74 67 75 68 76
REMARK SMILES IDX 71 77 69 78 48 79 49 80 57 81 50 82 51 83 55 84 58 85 52 86
REMARK SMILES IDX 53 87 56 88 54 89
REMARK H PARENT 8 8 78 42 46 53
REMARK Flexibility Score: inf
ROOT
ATOM      1  C   UNL A   1      36.662  22.593  23.506  1.00  0.00     0.274 C 
ENDROOT
BRANCH   1   2
ATOM      2  O   UNL A   1      35.932  23.555  24.291  1.00  0.00    -0.458 OA
BRANCH   2   3
ATOM      3  C   UNL A   1      34.625  23.750  23.960  1.00  0.00     0.365 C 
ATOM      4  O   UNL A   1      34.205  23.691  22.808  1.00  0.00    -0.245 OA
BRANCH   3   5
ATOM      5  C   UNL A   1      33.702  23.952  25.189  1.00  0.00     0.295 C 
ATOM      6  N   UNL A   1      32.958  22.724  25.580  1.00  0.00    -0.318 N 
ATOM      7  C   UNL A   1      32.055  22.924  26.725  1.00  0.00     0.263 C 
ATOM      8  H   UNL A   1      32.399  22.563  24.742  1.00  0.00     0.349 HD
ATOM      9  C   UNL A   1      31.110  24.109  26.542  1.00  0.00     0.062 C 
ATOM     10  C   UNL A   1      32.745  25.144  24.989  1.00  0.00     0.078 C 
ATOM     11  C   UNL A   1      31.886  25.376  26.223  1.00  0.00     0.013 C 
BRANCH   6  12
ATOM     12  C   UNL A   1      33.741  21.474  25.736  1.00  0.00     0.321 C 
BRANCH  12  13
ATOM     13  C   UNL A   1      33.411  20.316  24.818  1.00  0.00     0.106 A 
ATOM     14  C   UNL A   1      33.768  18.215  24.127  1.00  0.00     0.093 A 
ATOM     15  N   UNL A   1      34.179  19.155  24.952  1.00  0.00    -0.240 NA
ATOM     16  S   UNL A   1      32.453  18.660  23.116  1.00  0.00    -0.127 S 
ATOM     17  C   UNL A   1      32.434  20.206  23.846  1.00  0.00     0.096 A 
BRANCH  14  18
ATOM     18  C   UNL A   1      34.362  16.845  23.986  1.00  0.00     0.067 C 
BRANCH  18  19
ATOM     19  C   UNL A   1      34.139  15.941  25.199  1.00  0.00     0.004 C 
ATOM     20  C   UNL A   1      32.704  15.449  25.322  1.00  0.00     0.004 C 
ENDBRANCH  18  19
ENDBRANCH  14  18
ENDBRANCH  12  13
ENDBRANCH   6  12
ENDBRANCH   3   5
ENDBRANCH   2   3
ENDBRANCH   1   2
BRANCH   1  21
ATOM     21  C   UNL A   1      37.135  21.405  24.351  1.00  0.00     0.275 C 
BRANCH  21  22
ATOM     22  O   UNL A   1      37.492  21.805  25.689  1.00  0.00    -0.458 OA
BRANCH  22  23
ATOM     23  C   UNL A   1      38.759  21.512  26.059  1.00  0.00     0.338 C 
ATOM     24  O   UNL A   1      39.373  20.477  25.858  1.00  0.00    -0.246 OA
BRANCH  23  25
ATOM     25  C   UNL A   1      39.400  22.703  26.636  1.00  0.00     0.060 A 
ATOM     26  C   UNL A   1      38.987  23.945  26.157  1.00  0.00     0.016 A 
ATOM     27  C   UNL A   1      40.467  22.611  27.528  1.00  0.00     0.016 A 
ATOM     28  C   UNL A   1      39.652  25.104  26.537  1.00  0.00     0.010 A 
ATOM     29  C   UNL A   1      41.124  23.783  27.930  1.00  0.00     0.010 A 
ATOM     30  C   UNL A   1      40.730  25.036  27.424  1.00  0.00    -0.014 A 
BRANCH  30  31
ATOM     31  C   UNL A   1      41.475  26.276  27.750  1.00  0.00     0.031 A 
ATOM     32  C   UNL A   1      40.835  27.324  28.615  1.00  0.00     0.074 A 
ATOM     33  C   UNL A   1      42.745  26.436  27.335  1.00  0.00     0.049 A 
ATOM     34  N   UNL A   1      41.268  28.520  28.925  1.00  0.00    -0.248 NA
ATOM     35  C   UNL A   1      39.540  26.977  29.221  1.00  0.00     0.031 C 
ATOM     36  C   UNL A   1      43.516  25.454  26.574  1.00  0.00     0.029 A 
ATOM     37  N   UNL A   1      43.615  27.484  27.508  1.00  0.00    -0.354 N 
ATOM     38  C   UNL A   1      40.283  29.082  29.725  1.00  0.00     0.074 A 
ATOM     39  C   UNL A   1      39.234  28.094  29.867  1.00  0.00     0.031 C 
ATOM     40  C   UNL A   1      44.750  25.940  26.356  1.00  0.00     0.029 A 
ATOM     41  C   UNL A   1      44.835  27.290  26.907  1.00  0.00     0.049 A 
ATOM     42  H   UNL A   1      43.386  28.297  28.013  1.00  0.00     0.167 HD
ATOM     43  C   UNL A   1      40.256  30.314  30.285  1.00  0.00     0.037 A 
ATOM     44  C   UNL A   1      45.886  28.121  26.784  1.00  0.00     0.037 A 
ATOM     45  C   UNL A   1      41.315  31.281  30.182  1.00  0.00     0.049 A 
ATOM     46  C   UNL A   1      45.800  29.511  27.355  1.00  0.00     0.074 A 
ATOM     47  C   UNL A   1      41.374  32.559  30.713  1.00  0.00     0.029 A 
ATOM     48  N   UNL A   1      42.509  31.071  29.510  1.00  0.00    -0.354 N 
ATOM     49  N   UNL A   1      44.838  30.060  28.056  1.00  0.00    -0.248 NA
ATOM     50  C   UNL A   1      46.937  30.405  27.094  1.00  0.00     0.031 C 
ATOM     51  C   UNL A   1      42.594  33.131  30.340  1.00  0.00     0.029 A 
ATOM     52  C   UNL A   1      43.305  32.201  29.601  1.00  0.00     0.049 A 
ATOM     53  H   UNL A   1      42.754  30.242  29.039  1.00  0.00     0.167 HD
ATOM     54  C   UNL A   1      45.257  31.354  28.329  1.00  0.00     0.074 A 
ATOM     55  C   UNL A   1      46.567  31.507  27.732  1.00  0.00     0.031 C 
ATOM     56  C   UNL A   1      44.611  32.331  29.009  1.00  0.00     0.037 A 
BRANCH  43  57
ATOM     57  C   UNL A   1      39.018  30.707  31.030  1.00  0.00     0.064 A 
ATOM     58  C   UNL A   1      38.910  30.551  32.418  1.00  0.00     0.173 A 
ATOM     59  C   UNL A   1      37.944  31.291  30.343  1.00  0.00     0.173 A 
ATOM     60  F   UNL A   1      39.907  29.982  33.113  1.00  0.00    -0.203 F 
ATOM     61  C   UNL A   1      37.762  30.958  33.093  1.00  0.00     0.198 A 
ATOM     62  C   UNL A   1      36.805  31.713  31.023  1.00  0.00     0.198 A 
ATOM     63  F   UNL A   1      38.004  31.461  29.013  1.00  0.00    -0.203 F 
ATOM     64  F   UNL A   1      37.665  30.778  34.417  1.00  0.00    -0.200 F 
ATOM     65  C   UNL A   1      36.714  31.544  32.395  1.00  0.00     0.200 A 
ATOM     66  F   UNL A   1      35.796  32.283  30.348  1.00  0.00    -0.200 F 
ATOM     67  F   UNL A   1      35.613  31.942  33.049  1.00  0.00    -0.200 F 
ENDBRANCH  43  57
BRANCH  44  68
ATOM     68  C   UNL A   1      47.098  27.684  26.050  1.00  0.00     0.064 A 
ATOM     69  C   UNL A   1      47.151  27.735  24.651  1.00  0.00     0.173 A 
ATOM     70  C   UNL A   1      48.219  27.182  26.731  1.00  0.00     0.173 A 
ATOM     71  F   UNL A   1      46.093  28.178  23.957  1.00  0.00    -0.203 F 
ATOM     72  C   UNL A   1      48.276  27.290  23.958  1.00  0.00     0.198 A 
ATOM     73  C   UNL A   1      49.351  26.760  26.039  1.00  0.00     0.198 A 
ATOM     74  F   UNL A   1      48.211  27.105  28.069  1.00  0.00    -0.203 F 
ATOM     75  F   UNL A   1      48.285  27.310  22.619  1.00  0.00    -0.200 F 
ATOM     76  C   UNL A   1      49.375  26.808  24.652  1.00  0.00     0.200 A 
ATOM     77  F   UNL A   1      50.413  26.301  26.712  1.00  0.00    -0.200 F 
ATOM     78  F   UNL A   1      50.456  26.379  23.985  1.00  0.00    -0.200 F 
ENDBRANCH  44  68
BRANCH  56  79
ATOM     79  C   UNL A   1      45.319  33.641  29.165  1.00  0.00     0.064 A 
ATOM     80  C   UNL A   1      46.182  33.879  30.244  1.00  0.00     0.173 A 
ATOM     81  C   UNL A   1      45.164  34.651  28.205  1.00  0.00     0.173 A 
ATOM     82  F   UNL A   1      46.347  32.947  31.195  1.00  0.00    -0.203 F 
ATOM     83  C   UNL A   1      46.858  35.089  30.362  1.00  0.00     0.198 A 
ATOM     84  C   UNL A   1      45.856  35.854  28.317  1.00  0.00     0.198 A 
ATOM     85  F   UNL A   1      44.351  34.467  27.155  1.00  0.00    -0.203 F 
ATOM     86  F   UNL A   1      47.655  35.310  31.417  1.00  0.00    -0.200 F 
ATOM     87  C   UNL A   1      46.699  36.074  29.396  1.00  0.00     0.200 A 
ATOM     88  F   UNL A   1      45.707  36.801  27.380  1.00  0.00    -0.200 F 
ATOM     89  F   UNL A   1      47.354  37.237  29.511  1.00  0.00    -0.200 F 
ENDBRANCH  56  79
ENDBRANCH  30  31
ENDBRANCH  23  25
ENDBRANCH  22  23
ENDBRANCH  21  22
ENDBRANCH   1  21
TORSDOF 15
ENDMDL
MODEL 2
REMARK VINA RESULT:     -11.2      1.060      7.608
REMARK SMILES CCCc1nc(C[N@H+]2CCCC[C@@H]2C(=O)OCCOC(=O)c2ccc(-c3c4nc(c(-c5c(F)c(F)c(F)c(F)c5F)c5ccc([nH]5)c(-c5c(F)c(F)c(F)c(F)c5F)c5nc(c(-c6c(F)c(F)c(F)c(F)c6F)c6ccc3[nH]6)C=C5)C=C4)cc2)cs1
REMARK SMILES IDX 17 1 16 2 14 3 15 4 13 5 8 6 9 7 10 9 12 10 11 11 7 12 6 13
REMARK SMILES IDX 4 14 5 15 86 16 85 17 3 18 2 19 1 20 18 21 19 22 20 23 21 24
REMARK SMILES IDX 22 25 23 26 84 27 24 28 83 29 25 30 26 31 27 32 77 33 28 34
REMARK SMILES IDX 82 35 76 36 78 37 29 38 81 39 75 40 74 41 30 43 62 44 42 45
REMARK SMILES IDX 61 46 43 47 46 48 60 49 79 50 44 51 45 52 59 54 80 55 47 56
REMARK SMILES IDX 31 57 32 58 40 59 33 60 34 61 38 62 41 63 35 64 36 65 39 66
REMARK SMILES IDX 37 67 63 68 64 69 72 70 65 71 66 72 70 73 73 74 67 75 68 76
REMARK SMILES IDX 71 77 69 78 48 79 49 80 57 81 50 82 51 83 55 84 58 85 52 86
REMARK SMILES IDX 53 87 56 88 54 89
REMARK H PARENT 8 8 78 42 46 53
REMARK Flexibility Score: inf
ROOT
ATOM      1  C   UNL A   1      35.864  20.690  25.316  1.00  0.00     0.274 C 
ENDROOT
BRANCH   1   2
ATOM      2  O   UNL A   1      35.772  21.872  26.137  1.00  0.00    -0.458 OA
BRANCH   2   3
ATOM      3  C   UNL A   1      34.562  22.126  26.708  1.00  0.00     0.365 C 
ATOM      4  O   UNL A   1      34.138  21.521  27.688  1.00  0.00    -0.245 OA
BRANCH   3   5
ATOM      5  C   UNL A   1      33.817  23.323  26.063  1.00  0.00     0.295 C 
ATOM      6  N   UNL A   1      32.907  22.927  24.954  1.00  0.00    -0.318 N 
ATOM      7  C   UNL A   1      32.226  24.066  24.317  1.00  0.00     0.263 C 
ATOM      8  H   UNL A   1      33.573  22.528  24.292  1.00  0.00     0.349 HD
ATOM      9  C   UNL A   1      33.187  25.168  23.877  1.00  0.00     0.062 C 
ATOM     10  C   UNL A   1      34.797  24.424  25.613  1.00  0.00     0.078 C 
ATOM     11  C   UNL A   1      34.057  25.623  25.038  1.00  0.00     0.013 C 
BRANCH   6  12
ATOM     12  C   UNL A   1      31.954  21.821  25.218  1.00  0.00     0.321 C 
BRANCH  12  13
ATOM     13  C   UNL A   1      32.221  20.486  24.553  1.00  0.00     0.106 A 
ATOM     14  C   UNL A   1      32.661  18.295  24.690  1.00  0.00     0.093 A 
ATOM     15  N   UNL A   1      32.486  19.397  25.388  1.00  0.00    -0.240 NA
ATOM     16  S   UNL A   1      32.549  18.486  22.988  1.00  0.00    -0.127 S 
ATOM     17  C   UNL A   1      32.232  20.152  23.211  1.00  0.00     0.096 A 
BRANCH  14  18
ATOM     18  C   UNL A   1      32.973  16.939  25.250  1.00  0.00     0.067 C 
BRANCH  18  19
ATOM     19  C   UNL A   1      34.041  16.172  24.469  1.00  0.00     0.004 C 
ATOM     20  C   UNL A   1      35.254  15.808  25.314  1.00  0.00     0.004 C 
ENDBRANCH  18  19
ENDBRANCH  14  18
ENDBRANCH  12  13
ENDBRANCH   6  12
ENDBRANCH   3   5
ENDBRANCH   2   3
ENDBRANCH   1   2
BRANCH   1  21
ATOM     21  C   UNL A   1      37.313  20.373  24.932  1.00  0.00     0.275 C 
BRANCH  21  22
ATOM     22  O   UNL A   1      38.194  21.484  25.190  1.00  0.00    -0.458 OA
BRANCH  22  23
ATOM     23  C   UNL A   1      39.211  21.228  26.042  1.00  0.00     0.338 C 
ATOM     24  O   UNL A   1      39.756  20.156  26.250  1.00  0.00    -0.246 OA
BRANCH  23  25
ATOM     25  C   UNL A   1      39.712  22.485  26.618  1.00  0.00     0.060 A 
ATOM     26  C   UNL A   1      39.193  23.673  26.106  1.00  0.00     0.016 A 
ATOM     27  C   UNL A   1      40.753  22.513  27.544  1.00  0.00     0.016 A 
ATOM     28  C   UNL A   1      39.725  24.897  26.487  1.00  0.00     0.010 A 
ATOM     29  C   UNL A   1      41.277  23.750  27.945  1.00  0.00     0.010 A 
ATOM     30  C   UNL A   1      40.776  24.950  27.406  1.00  0.00    -0.014 A 
BRANCH  30  31
ATOM     31  C   UNL A   1      41.383  26.263  27.734  1.00  0.00     0.031 A 
ATOM     32  C   UNL A   1      42.790  26.563  27.304  1.00  0.00     0.074 A 
ATOM     33  C   UNL A   1      40.656  27.213  28.352  1.00  0.00     0.049 A 
ATOM     34  N   UNL A   1      43.539  27.599  27.585  1.00  0.00    -0.248 NA
ATOM     35  C   UNL A   1      43.438  25.570  26.433  1.00  0.00     0.031 C 
ATOM     36  C   UNL A   1      39.249  27.086  28.734  1.00  0.00     0.029 A 
ATOM     37  N   UNL A   1      40.999  28.479  28.755  1.00  0.00    -0.354 N 
ATOM     38  C   UNL A   1      44.756  27.365  26.962  1.00  0.00     0.074 A 
ATOM     39  C   UNL A   1      44.646  26.094  26.276  1.00  0.00     0.031 C 
ATOM     40  C   UNL A   1      38.847  28.234  29.306  1.00  0.00     0.029 A 
ATOM     41  C   UNL A   1      39.980  29.150  29.385  1.00  0.00     0.049 A 
ATOM     42  H   UNL A   1      41.892  28.868  28.608  1.00  0.00     0.167 HD
ATOM     43  C   UNL A   1      45.867  28.138  26.969  1.00  0.00     0.037 A 
ATOM     44  C   UNL A   1      39.975  30.353  29.989  1.00  0.00     0.037 A 
ATOM     45  C   UNL A   1      45.967  29.419  27.613  1.00  0.00     0.049 A 
ATOM     46  C   UNL A   1      41.243  31.159  30.044  1.00  0.00     0.074 A 
ATOM     47  C   UNL A   1      47.054  30.273  27.677  1.00  0.00     0.029 A 
ATOM     48  N   UNL A   1      44.931  30.038  28.296  1.00  0.00    -0.354 N 
ATOM     49  N   UNL A   1      42.411  30.902  29.508  1.00  0.00    -0.248 NA
ATOM     50  C   UNL A   1      41.199  32.413  30.810  1.00  0.00     0.031 C 
ATOM     51  C   UNL A   1      46.685  31.399  28.422  1.00  0.00     0.029 A 
ATOM     52  C   UNL A   1      45.359  31.256  28.798  1.00  0.00     0.049 A 
ATOM     53  H   UNL A   1      44.027  29.666  28.408  1.00  0.00     0.167 HD
ATOM     54  C   UNL A   1      43.234  31.962  29.861  1.00  0.00     0.074 A 
ATOM     55  C   UNL A   1      42.430  32.876  30.644  1.00  0.00     0.031 C 
ATOM     56  C   UNL A   1      44.542  32.157  29.566  1.00  0.00     0.037 A 
BRANCH  43  57
ATOM     57  C   UNL A   1      47.088  27.598  26.290  1.00  0.00     0.064 A 
ATOM     58  C   UNL A   1      47.314  27.783  24.920  1.00  0.00     0.173 A 
ATOM     59  C   UNL A   1      48.066  26.927  27.038  1.00  0.00     0.173 A 
ATOM     60  F   UNL A   1      46.398  28.406  24.163  1.00  0.00    -0.203 F 
ATOM     61  C   UNL A   1      48.475  27.304  24.319  1.00  0.00     0.198 A 
ATOM     62  C   UNL A   1      49.233  26.464  26.438  1.00  0.00     0.198 A 
ATOM     63  F   UNL A   1      47.892  26.728  28.354  1.00  0.00    -0.203 F 
ATOM     64  F   UNL A   1      48.663  27.467  23.002  1.00  0.00    -0.200 F 
ATOM     65  C   UNL A   1      49.436  26.651  25.080  1.00  0.00     0.200 A 
ATOM     66  F   UNL A   1      50.162  25.838  27.175  1.00  0.00    -0.200 F 
ATOM     67  F   UNL A   1      50.556  26.196  24.500  1.00  0.00    -0.200 F 
ENDBRANCH  43  57
BRANCH  44  68
ATOM     68  C   UNL A   1      38.737  30.854  30.636  1.00  0.00     0.064 A 
ATOM     69  C   UNL A   1      38.501  30.643  32.002  1.00  0.00     0.173 A 
ATOM     70  C   UNL A   1      37.754  31.531  29.898  1.00  0.00     0.173 A 
ATOM     71  F   UNL A   1      39.399  29.975  32.740  1.00  0.00    -0.203 F 
ATOM     72  C   UNL A   1      37.323  31.081  32.602  1.00  0.00     0.198 A 
ATOM     73  C   UNL A   1      36.588  31.989  30.505  1.00  0.00     0.198 A 
ATOM     74  F   UNL A   1      37.930  31.748  28.587  1.00  0.00    -0.203 F 
ATOM     75  F   UNL A   1      37.103  30.830  33.900  1.00  0.00    -0.200 F 
ATOM     76  C   UNL A   1      36.370  31.758  31.856  1.00  0.00     0.200 A 
ATOM     77  F   UNL A   1      35.672  32.647  29.782  1.00  0.00    -0.200 F 
ATOM     78  F   UNL A   1      35.236  32.177  32.435  1.00  0.00    -0.200 F 
ENDBRANCH  44  68
BRANCH  56  79
ATOM     79  C   UNL A   1      45.177  33.416  30.071  1.00  0.00     0.064 A 
ATOM     80  C   UNL A   1      45.834  33.453  31.310  1.00  0.00     0.173 A 
ATOM     81  C   UNL A   1      45.165  34.581  29.292  1.00  0.00     0.173 A 
ATOM     82  F   UNL A   1      45.855  32.366  32.096  1.00  0.00    -0.203 F 
ATOM     83  C   UNL A   1      46.446  34.621  31.756  1.00  0.00     0.198 A 
ATOM     84  C   UNL A   1      45.795  35.741  29.734  1.00  0.00     0.198 A 
ATOM     85  F   UNL A   1      44.552  34.590  28.099  1.00  0.00    -0.203 F 
ATOM     86  F   UNL A   1      47.042  34.646  32.956  1.00  0.00    -0.200 F 
ATOM     87  C   UNL A   1      46.432  35.762  30.965  1.00  0.00     0.200 A 
ATOM     88  F   UNL A   1      45.786  36.840  28.966  1.00  0.00    -0.200 F 
ATOM     89  F   UNL A   1      47.026  36.883  31.396  1.00  0.00    -0.200 F 
ENDBRANCH  56  79
ENDBRANCH  30  31
ENDBRANCH  23  25
ENDBRANCH  22  23
ENDBRANCH  21  22
ENDBRANCH   1  21
TORSDOF 15
ENDMDL
MODEL 3
REMARK VINA RESULT:     -11.1      4.850     10.158
REMARK SMILES CCCc1nc(C[N@H+]2CCCC[C@@H]2C(=O)OCCOC(=O)c2ccc(-c3c4nc(c(-c5c(F)c(F)c(F)c(F)c5F)c5ccc([nH]5)c(-c5c(F)c(F)c(F)c(F)c5F)c5nc(c(-c6c(F)c(F)c(F)c(F)c6F)c6ccc3[nH]6)C=C5)C=C4)cc2)cs1
REMARK SMILES IDX 17 1 16 2 14 3 15 4 13 5 8 6 9 7 10 9 12 10 11 11 7 12 6 13
REMARK SMILES IDX 4 14 5 15 86 16 85 17 3 18 2 19 1 20 18 21 19 22 20 23 21 24
REMARK SMILES IDX 22 25 23 26 84 27 24 28 83 29 25 30 26 31 27 32 77 33 28 34
REMARK SMILES IDX 82 35 76 36 78 37 29 38 81 39 75 40 74 41 30 43 62 44 42 45
REMARK SMILES IDX 61 46 43 47 46 48 60 49 79 50 44 51 45 52 59 54 80 55 47 56
REMARK SMILES IDX 31 57 32 58 40 59 33 60 34 61 38 62 41 63 35 64 36 65 39 66
REMARK SMILES IDX 37 67 63 68 64 69 72 70 65 71 66 72 70 73 73 74 67 75 68 76
REMARK SMILES IDX 71 77 69 78 48 79 49 80 57 81 50 82 51 83 55 84 58 85 52 86
REMARK SMILES IDX 53 87 56 88 54 89
REMARK H PARENT 8 8 78 42 46 53
REMARK Flexibility Score: inf
ROOT
ATOM      1  C   UNL A   1      31.703  28.561  27.072  1.00  0.00     0.274 C 
ENDROOT
BRANCH   1   2
ATOM      2  O   UNL A   1      32.778  27.630  26.837  1.00  0.00    -0.458 OA
BRANCH   2   3
ATOM      3  C   UNL A   1      32.423  26.358  26.502  1.00  0.00     0.365 C 
ATOM      4  O   UNL A   1      31.374  25.833  26.862  1.00  0.00    -0.245 OA
BRANCH   3   5
ATOM      5  C   UNL A   1      33.427  25.674  25.538  1.00  0.00     0.295 C 
ATOM      6  N   UNL A   1      33.093  25.864  24.101  1.00  0.00    -0.318 N 
ATOM      7  C   UNL A   1      34.024  25.186  23.186  1.00  0.00     0.263 C 
ATOM      8  H   UNL A   1      32.185  25.401  24.052  1.00  0.00     0.349 HD
ATOM      9  C   UNL A   1      34.220  23.708  23.518  1.00  0.00     0.062 C 
ATOM     10  C   UNL A   1      33.608  24.181  25.876  1.00  0.00     0.078 C 
ATOM     11  C   UNL A   1      34.640  23.530  24.968  1.00  0.00     0.013 C 
BRANCH   6  12
ATOM     12  C   UNL A   1      32.816  27.248  23.644  1.00  0.00     0.321 C 
BRANCH  12  13
ATOM     13  C   UNL A   1      31.373  27.632  23.390  1.00  0.00     0.106 A 
ATOM     14  C   UNL A   1      29.851  29.067  22.589  1.00  0.00     0.093 A 
ATOM     15  N   UNL A   1      31.138  28.872  22.788  1.00  0.00    -0.240 NA
ATOM     16  S   UNL A   1      28.831  27.797  23.130  1.00  0.00    -0.127 S 
ATOM     17  C   UNL A   1      30.211  26.930  23.651  1.00  0.00     0.096 A 
BRANCH  14  18
ATOM     18  C   UNL A   1      29.230  30.287  21.976  1.00  0.00     0.067 C 
BRANCH  18  19
ATOM     19  C   UNL A   1      29.064  31.457  22.946  1.00  0.00     0.004 C 
ATOM     20  C   UNL A   1      27.651  31.581  23.496  1.00  0.00     0.004 C 
ENDBRANCH  18  19
ENDBRANCH  14  18
ENDBRANCH  12  13
ENDBRANCH   6  12
ENDBRANCH   3   5
ENDBRANCH   2   3
ENDBRANCH   1   2
BRANCH   1  21
ATOM     21  C   UNL A   1      31.848  29.829  26.224  1.00  0.00     0.275 C 
BRANCH  21  22
ATOM     22  O   UNL A   1      33.216  30.281  26.161  1.00  0.00    -0.458 OA
BRANCH  22  23
ATOM     23  C   UNL A   1      33.533  31.277  27.017  1.00  0.00     0.338 C 
ATOM     24  O   UNL A   1      32.832  32.214  27.361  1.00  0.00    -0.246 OA
BRANCH  23  25
ATOM     25  C   UNL A   1      34.841  31.011  27.634  1.00  0.00     0.060 A 
ATOM     26  C   UNL A   1      35.130  29.689  27.970  1.00  0.00     0.016 A 
ATOM     27  C   UNL A   1      35.713  32.036  27.995  1.00  0.00     0.016 A 
ATOM     28  C   UNL A   1      36.273  29.379  28.694  1.00  0.00     0.010 A 
ATOM     29  C   UNL A   1      36.880  31.721  28.707  1.00  0.00     0.010 A 
ATOM     30  C   UNL A   1      37.158  30.392  29.075  1.00  0.00    -0.014 A 
BRANCH  30  31
ATOM     31  C   UNL A   1      38.329  30.047  29.919  1.00  0.00     0.031 A 
ATOM     32  C   UNL A   1      39.413  29.167  29.365  1.00  0.00     0.074 A 
ATOM     33  C   UNL A   1      38.460  30.575  31.150  1.00  0.00     0.049 A 
ATOM     34  N   UNL A   1      40.457  28.660  29.970  1.00  0.00    -0.248 NA
ATOM     35  C   UNL A   1      39.316  28.820  27.939  1.00  0.00     0.031 C 
ATOM     36  C   UNL A   1      37.530  31.521  31.768  1.00  0.00     0.029 A 
ATOM     37  N   UNL A   1      39.437  30.399  32.097  1.00  0.00    -0.354 N 
ATOM     38  C   UNL A   1      41.117  27.902  29.012  1.00  0.00     0.074 A 
ATOM     39  C   UNL A   1      40.365  28.025  27.781  1.00  0.00     0.031 C 
ATOM     40  C   UNL A   1      37.989  31.851  32.987  1.00  0.00     0.029 A 
ATOM     41  C   UNL A   1      39.208  31.095  33.259  1.00  0.00     0.049 A 
ATOM     42  H   UNL A   1      40.226  29.827  31.958  1.00  0.00     0.167 HD
ATOM     43  C   UNL A   1      42.244  27.166  29.152  1.00  0.00     0.037 A 
ATOM     44  C   UNL A   1      39.886  31.093  34.422  1.00  0.00     0.037 A 
ATOM     45  C   UNL A   1      43.016  27.076  30.361  1.00  0.00     0.049 A 
ATOM     46  C   UNL A   1      41.094  30.210  34.572  1.00  0.00     0.074 A 
ATOM     47  C   UNL A   1      44.171  26.351  30.598  1.00  0.00     0.029 A 
ATOM     48  N   UNL A   1      42.716  27.746  31.537  1.00  0.00    -0.354 N 
ATOM     49  N   UNL A   1      41.676  29.445  33.681  1.00  0.00    -0.248 NA
ATOM     50  C   UNL A   1      41.726  30.172  35.899  1.00  0.00     0.031 C 
ATOM     51  C   UNL A   1      44.556  26.562  31.926  1.00  0.00     0.029 A 
ATOM     52  C   UNL A   1      43.656  27.439  32.507  1.00  0.00     0.049 A 
ATOM     53  H   UNL A   1      41.949  28.350  31.663  1.00  0.00     0.167 HD
ATOM     54  C   UNL A   1      42.744  28.846  34.333  1.00  0.00     0.074 A 
ATOM     55  C   UNL A   1      42.742  29.346  35.692  1.00  0.00     0.031 C 
ATOM     56  C   UNL A   1      43.644  27.955  33.850  1.00  0.00     0.037 A 
BRANCH  43  57
ATOM     57  C   UNL A   1      42.692  26.359  27.973  1.00  0.00     0.064 A 
ATOM     58  C   UNL A   1      42.175  25.083  27.712  1.00  0.00     0.173 A 
ATOM     59  C   UNL A   1      43.618  26.896  27.068  1.00  0.00     0.173 A 
ATOM     60  F   UNL A   1      41.298  24.524  28.560  1.00  0.00    -0.203 F 
ATOM     61  C   UNL A   1      42.580  24.367  26.588  1.00  0.00     0.198 A 
ATOM     62  C   UNL A   1      44.007  26.185  25.936  1.00  0.00     0.198 A 
ATOM     63  F   UNL A   1      44.139  28.116  27.277  1.00  0.00    -0.203 F 
ATOM     64  F   UNL A   1      42.095  23.137  26.369  1.00  0.00    -0.200 F 
ATOM     65  C   UNL A   1      43.490  24.922  25.699  1.00  0.00     0.200 A 
ATOM     66  F   UNL A   1      44.883  26.724  25.076  1.00  0.00    -0.200 F 
ATOM     67  F   UNL A   1      43.873  24.233  24.614  1.00  0.00    -0.200 F 
ENDBRANCH  43  57
BRANCH  44  68
ATOM     68  C   UNL A   1      39.412  31.920  35.559  1.00  0.00     0.064 A 
ATOM     69  C   UNL A   1      39.892  33.222  35.753  1.00  0.00     0.173 A 
ATOM     70  C   UNL A   1      38.490  31.416  36.490  1.00  0.00     0.173 A 
ATOM     71  F   UNL A   1      40.797  33.734  34.905  1.00  0.00    -0.203 F 
ATOM     72  C   UNL A   1      39.476  33.987  36.841  1.00  0.00     0.198 A 
ATOM     73  C   UNL A   1      38.057  32.190  37.563  1.00  0.00     0.198 A 
ATOM     74  F   UNL A   1      38.011  30.172  36.353  1.00  0.00    -0.203 F 
ATOM     75  F   UNL A   1      39.982  35.213  37.027  1.00  0.00    -0.200 F 
ATOM     76  C   UNL A   1      38.556  33.472  37.742  1.00  0.00     0.200 A 
ATOM     77  F   UNL A   1      37.165  31.692  38.429  1.00  0.00    -0.200 F 
ATOM     78  F   UNL A   1      38.158  34.207  38.789  1.00  0.00    -0.200 F 
ENDBRANCH  44  68
BRANCH  56  79
ATOM     79  C   UNL A   1      44.712  27.484  34.788  1.00  0.00     0.064 A 
ATOM     80  C   UNL A   1      44.546  26.323  35.557  1.00  0.00     0.173 A 
ATOM     81  C   UNL A   1      45.927  28.176  34.886  1.00  0.00     0.173 A 
ATOM     82  F   UNL A   1      43.393  25.640  35.506  1.00  0.00    -0.203 F 
ATOM     83  C   UNL A   1      45.558  25.878  36.402  1.00  0.00     0.198 A 
ATOM     84  C   UNL A   1      46.944  27.717  35.719  1.00  0.00     0.198 A 
ATOM     85  F   UNL A   1      46.132  29.289  34.167  1.00  0.00    -0.203 F 
ATOM     86  F   UNL A   1      45.369  24.784  37.153  1.00  0.00    -0.200 F 
ATOM     87  C   UNL A   1      46.758  26.572  36.479  1.00  0.00     0.200 A 
ATOM     88  F   UNL A   1      48.105  28.384  35.787  1.00  0.00    -0.200 F 
ATOM     89  F   UNL A   1      47.732  26.139  37.291  1.00  0.00    -0.200 F 
ENDBRANCH  56  79
ENDBRANCH  30  31
ENDBRANCH  23  25
ENDBRANCH  22  23
ENDBRANCH  21  22
ENDBRANCH   1  21
TORSDOF 15
ENDMDL
