MODEL 1
REMARK VINA RESULT:     -11.5      0.000      0.000
REMARK SMILES COCC[N@H+]1C[C@@H]2CN(c3nc(CO)cs3)C[C@]2(C(=O)OCCOC(=O)c2ccc(-c3c4nc(c(-c5c(F)c(F)c(F)c(F)c5F)c5ccc([nH]5)c(-c5c(F)c(F)c(F)c(F)c5F)c5nc(c(-c6c(F)c(F)c(F)c(F)c6F)c6ccc3[nH]6)C=C5)C=C4)cc2)C1
REMARK SMILES IDX 22 1 21 2 19 3 20 4 18 5 5 6 6 7 90 8 7 10 8 11 17 12 9 13
REMARK SMILES IDX 4 14 3 15 2 16 1 17 10 18 11 19 16 20 12 21 15 22 13 23
REMARK SMILES IDX 14 24 23 26 24 27 25 28 26 29 27 30 28 31 89 32 29 33 88 34
REMARK SMILES IDX 30 35 31 36 32 37 82 38 33 39 87 40 81 41 83 42 34 43 86 44
REMARK SMILES IDX 80 45 79 46 35 48 67 49 47 50 66 51 48 52 51 53 65 54 84 55
REMARK SMILES IDX 49 56 50 57 64 59 85 60 52 61 36 62 37 63 45 64 38 65 39 66
REMARK SMILES IDX 43 67 46 68 40 69 41 70 44 71 42 72 68 73 69 74 77 75 70 76
REMARK SMILES IDX 71 77 75 78 78 79 72 80 73 81 76 82 74 83 53 84 54 85 62 86
REMARK SMILES IDX 55 87 56 88 60 89 63 90 57 91 58 92 61 93 59 94
REMARK H PARENT 5 9 14 25 83 47 51 58
REMARK Flexibility Score: inf
ROOT
ATOM      1  C   UNL A   1      31.935  28.862  27.386  1.00  0.00     0.274 C 
ENDROOT
BRANCH   1   2
ATOM      2  O   UNL A   1      31.517  27.844  26.453  1.00  0.00    -0.461 OA
BRANCH   2   3
ATOM      3  C   UNL A   1      32.300  27.572  25.367  1.00  0.00     0.320 C 
ATOM      4  O   UNL A   1      33.517  27.690  25.412  1.00  0.00    -0.251 OA
BRANCH   3   5
ATOM      5  C   UNL A   1      31.475  27.352  24.063  1.00  0.00     0.144 C 
ATOM      6  N   UNL A   1      31.532  25.210  22.742  1.00  0.00    -0.332 N 
ATOM      7  C   UNL A   1      30.139  25.459  23.081  1.00  0.00     0.269 C 
ATOM      8  C   UNL A   1      32.342  26.219  23.445  1.00  0.00     0.283 C 
ATOM      9  H   UNL A   1      31.700  25.294  21.740  1.00  0.00     0.348 HD
ATOM     10  C   UNL A   1      30.056  26.733  23.927  1.00  0.00     0.089 C 
ATOM     11  C   UNL A   1      29.133  27.697  23.157  1.00  0.00     0.129 C 
ATOM     12  C   UNL A   1      31.212  28.799  23.575  1.00  0.00     0.144 C 
ATOM     13  N   UNL A   1      29.899  28.888  22.972  1.00  0.00    -0.346 N 
BRANCH   6  14
ATOM     14  C   UNL A   1      31.900  23.811  23.117  1.00  0.00     0.291 C 
BRANCH  14  15
ATOM     15  C   UNL A   1      31.160  23.259  24.359  1.00  0.00     0.221 C 
BRANCH  15  16
ATOM     16  O   UNL A   1      31.844  23.508  25.588  1.00  0.00    -0.379 OA
ATOM     17  C   UNL A   1      31.025  24.148  26.558  1.00  0.00     0.195 C 
ENDBRANCH  15  16
ENDBRANCH  14  15
ENDBRANCH   6  14
BRANCH  13  18
ATOM     18  C   UNL A   1      29.365  30.107  22.690  1.00  0.00     0.185 A 
ATOM     19  N   UNL A   1      28.997  30.455  21.475  1.00  0.00    -0.223 NA
ATOM     20  S   UNL A   1      29.122  31.358  23.868  1.00  0.00    -0.105 S 
ATOM     21  C   UNL A   1      28.455  31.731  21.453  1.00  0.00     0.079 A 
ATOM     22  C   UNL A   1      28.485  32.390  22.665  1.00  0.00     0.095 A 
BRANCH  21  23
ATOM     23  C   UNL A   1      27.851  32.228  20.186  1.00  0.00     0.213 C 
BRANCH  23  24
ATOM     24  O   UNL A   1      27.343  33.553  20.340  1.00  0.00    -0.390 OA
ATOM     25  H   UNL A   1      27.244  33.753  21.284  1.00  0.00     0.211 HD
ENDBRANCH  23  24
ENDBRANCH  21  23
ENDBRANCH  13  18
ENDBRANCH   3   5
ENDBRANCH   2   3
ENDBRANCH   1   2
BRANCH   1  26
ATOM     26  C   UNL A   1      31.850  30.268  26.778  1.00  0.00     0.275 C 
BRANCH  26  27
ATOM     27  O   UNL A   1      33.157  30.801  26.466  1.00  0.00    -0.458 OA
BRANCH  27  28
ATOM     28  C   UNL A   1      33.576  31.831  27.237  1.00  0.00     0.338 C 
ATOM     29  O   UNL A   1      32.929  32.836  27.530  1.00  0.00    -0.246 OA
BRANCH  28  30
ATOM     30  C   UNL A   1      34.856  31.507  27.900  1.00  0.00     0.060 A 
ATOM     31  C   UNL A   1      35.015  30.209  28.400  1.00  0.00     0.016 A 
ATOM     32  C   UNL A   1      35.872  32.439  28.080  1.00  0.00     0.016 A 
ATOM     33  C   UNL A   1      36.167  29.815  29.058  1.00  0.00     0.010 A 
ATOM     34  C   UNL A   1      37.033  32.056  28.769  1.00  0.00     0.010 A 
ATOM     35  C   UNL A   1      37.183  30.745  29.264  1.00  0.00    -0.014 A 
BRANCH  35  36
ATOM     36  C   UNL A   1      38.348  30.346  30.082  1.00  0.00     0.031 A 
ATOM     37  C   UNL A   1      39.387  29.448  29.484  1.00  0.00     0.074 A 
ATOM     38  C   UNL A   1      38.515  30.849  31.319  1.00  0.00     0.049 A 
ATOM     39  N   UNL A   1      40.427  28.892  30.048  1.00  0.00    -0.248 NA
ATOM     40  C   UNL A   1      39.236  29.137  28.053  1.00  0.00     0.031 C 
ATOM     41  C   UNL A   1      37.626  31.812  31.967  1.00  0.00     0.029 A 
ATOM     42  N   UNL A   1      39.496  30.617  32.249  1.00  0.00    -0.354 N 
ATOM     43  C   UNL A   1      41.034  28.136  29.054  1.00  0.00     0.074 A 
ATOM     44  C   UNL A   1      40.248  28.305  27.851  1.00  0.00     0.031 C 
ATOM     45  C   UNL A   1      38.100  32.087  33.194  1.00  0.00     0.029 A 
ATOM     46  C   UNL A   1      39.290  31.275  33.436  1.00  0.00     0.049 A 
ATOM     47  H   UNL A   1      40.273  30.036  32.081  1.00  0.00     0.167 HD
ATOM     48  C   UNL A   1      42.143  27.367  29.148  1.00  0.00     0.037 A 
ATOM     49  C   UNL A   1      39.965  31.197  34.599  1.00  0.00     0.037 A 
ATOM     50  C   UNL A   1      42.930  27.222  30.344  1.00  0.00     0.049 A 
ATOM     51  C   UNL A   1      41.150  30.274  34.698  1.00  0.00     0.074 A 
ATOM     52  C   UNL A   1      44.065  26.456  30.545  1.00  0.00     0.029 A 
ATOM     53  N   UNL A   1      42.663  27.864  31.545  1.00  0.00    -0.354 N 
ATOM     54  N   UNL A   1      41.692  29.521  33.773  1.00  0.00    -0.248 NA
ATOM     55  C   UNL A   1      41.810  30.181  36.009  1.00  0.00     0.031 C 
ATOM     56  C   UNL A   1      44.461  26.603  31.879  1.00  0.00     0.029 A 
ATOM     57  C   UNL A   1      43.601  27.498  32.496  1.00  0.00     0.049 A 
ATOM     58  H   UNL A   1      41.917  28.487  31.698  1.00  0.00     0.167 HD
ATOM     59  C   UNL A   1      42.763  28.878  34.381  1.00  0.00     0.074 A 
ATOM     60  C   UNL A   1      42.806  29.345  35.751  1.00  0.00     0.031 C 
ATOM     61  C   UNL A   1      43.630  27.978  33.854  1.00  0.00     0.037 A 
BRANCH  48  62
ATOM     62  C   UNL A   1      42.542  26.583  27.933  1.00  0.00     0.064 A 
ATOM     63  C   UNL A   1      42.021  25.308  27.670  1.00  0.00     0.173 A 
ATOM     64  C   UNL A   1      43.445  27.129  27.009  1.00  0.00     0.173 A 
ATOM     65  F   UNL A   1      41.168  24.734  28.532  1.00  0.00    -0.203 F 
ATOM     66  C   UNL A   1      42.410  24.598  26.536  1.00  0.00     0.198 A 
ATOM     67  C   UNL A   1      43.811  26.427  25.863  1.00  0.00     0.198 A 
ATOM     68  F   UNL A   1      43.972  28.345  27.215  1.00  0.00    -0.203 F 
ATOM     69  F   UNL A   1      41.936  23.361  26.326  1.00  0.00    -0.200 F 
ATOM     70  C   UNL A   1      43.299  25.160  25.631  1.00  0.00     0.200 A 
ATOM     71  F   UNL A   1      44.663  26.977  24.987  1.00  0.00    -0.200 F 
ATOM     72  F   UNL A   1      43.668  24.477  24.540  1.00  0.00    -0.200 F 
ENDBRANCH  48  62
BRANCH  49  73
ATOM     73  C   UNL A   1      39.508  31.979  35.778  1.00  0.00     0.064 A 
ATOM     74  C   UNL A   1      40.067  33.228  36.079  1.00  0.00     0.173 A 
ATOM     75  C   UNL A   1      38.510  31.488  36.633  1.00  0.00     0.173 A 
ATOM     76  F   UNL A   1      41.045  33.727  35.309  1.00  0.00    -0.203 F 
ATOM     77  C   UNL A   1      39.656  33.949  37.198  1.00  0.00     0.198 A 
ATOM     78  C   UNL A   1      38.079  32.224  37.734  1.00  0.00     0.198 A 
ATOM     79  F   UNL A   1      37.947  30.295  36.394  1.00  0.00    -0.203 F 
ATOM     80  F   UNL A   1      40.240  35.120  37.490  1.00  0.00    -0.200 F 
ATOM     81  C   UNL A   1      38.657  33.451  38.020  1.00  0.00     0.200 A 
ATOM     82  F   UNL A   1      37.106  31.741  38.519  1.00  0.00    -0.200 F 
ATOM     83  F   UNL A   1      38.259  34.147  39.094  1.00  0.00    -0.200 F 
ENDBRANCH  49  73
BRANCH  61  84
ATOM     84  C   UNL A   1      44.716  27.466  34.752  1.00  0.00     0.064 A 
ATOM     85  C   UNL A   1      45.938  28.141  34.885  1.00  0.00     0.173 A 
ATOM     86  C   UNL A   1      44.518  26.307  35.517  1.00  0.00     0.173 A 
ATOM     87  F   UNL A   1      46.181  29.245  34.162  1.00  0.00    -0.203 F 
ATOM     88  C   UNL A   1      46.930  27.662  35.735  1.00  0.00     0.198 A 
ATOM     89  C   UNL A   1      45.502  25.846  36.387  1.00  0.00     0.198 A 
ATOM     90  F   UNL A   1      43.364  25.629  35.430  1.00  0.00    -0.203 F 
ATOM     91  F   UNL A   1      48.107  28.299  35.815  1.00  0.00    -0.200 F 
ATOM     92  C   UNL A   1      46.710  26.519  36.490  1.00  0.00     0.200 A 
ATOM     93  F   UNL A   1      45.282  24.748  37.123  1.00  0.00    -0.200 F 
ATOM     94  F   UNL A   1      47.664  26.063  37.313  1.00  0.00    -0.200 F 
ENDBRANCH  61  84
ENDBRANCH  35  36
ENDBRANCH  28  30
ENDBRANCH  27  28
ENDBRANCH  26  27
ENDBRANCH   1  26
TORSDOF 17
ENDMDL
MODEL 2
REMARK VINA RESULT:     -11.4      1.884      4.296
REMARK SMILES COCC[N@H+]1C[C@@H]2CN(c3nc(CO)cs3)C[C@]2(C(=O)OCCOC(=O)c2ccc(-c3c4nc(c(-c5c(F)c(F)c(F)c(F)c5F)c5ccc([nH]5)c(-c5c(F)c(F)c(F)c(F)c5F)c5nc(c(-c6c(F)c(F)c(F)c(F)c6F)c6ccc3[nH]6)C=C5)C=C4)cc2)C1
REMARK SMILES IDX 22 1 21 2 19 3 20 4 18 5 5 6 6 7 90 8 7 10 8 11 17 12 9 13
REMARK SMILES IDX 4 14 3 15 2 16 1 17 10 18 11 19 16 20 12 21 15 22 13 23
REMARK SMILES IDX 14 24 23 26 24 27 25 28 26 29 27 30 28 31 89 32 29 33 88 34
REMARK SMILES IDX 30 35 31 36 32 37 82 38 33 39 87 40 81 41 83 42 34 43 86 44
REMARK SMILES IDX 80 45 79 46 35 48 67 49 47 50 66 51 48 52 51 53 65 54 84 55
REMARK SMILES IDX 49 56 50 57 64 59 85 60 52 61 36 62 37 63 45 64 38 65 39 66
REMARK SMILES IDX 43 67 46 68 40 69 41 70 44 71 42 72 68 73 69 74 77 75 70 76
REMARK SMILES IDX 71 77 75 78 78 79 72 80 73 81 76 82 74 83 53 84 54 85 62 86
REMARK SMILES IDX 55 87 56 88 60 89 63 90 57 91 58 92 61 93 59 94
REMARK H PARENT 5 9 14 25 83 47 51 58
REMARK Flexibility Score: inf
ROOT
ATOM      1  C   UNL A   1      31.758  28.450  27.301  1.00  0.00     0.274 C 
ENDROOT
BRANCH   1   2
ATOM      2  O   UNL A   1      31.237  27.186  26.841  1.00  0.00    -0.461 OA
BRANCH   2   3
ATOM      3  C   UNL A   1      32.087  26.288  26.256  1.00  0.00     0.320 C 
ATOM      4  O   UNL A   1      33.301  26.415  26.333  1.00  0.00    -0.251 OA
BRANCH   3   5
ATOM      5  C   UNL A   1      31.354  25.284  25.316  1.00  0.00     0.144 C 
ATOM      6  N   UNL A   1      29.172  25.807  24.176  1.00  0.00    -0.332 N 
ATOM      7  C   UNL A   1      30.117  25.446  23.130  1.00  0.00     0.269 C 
ATOM      8  C   UNL A   1      29.922  25.875  25.441  1.00  0.00     0.283 C 
ATOM      9  H   UNL A   1      28.427  25.117  24.271  1.00  0.00     0.348 HD
ATOM     10  C   UNL A   1      31.479  25.160  23.772  1.00  0.00     0.089 C 
ATOM     11  C   UNL A   1      31.836  23.713  23.387  1.00  0.00     0.129 C 
ATOM     12  C   UNL A   1      31.922  23.914  25.766  1.00  0.00     0.144 C 
ATOM     13  N   UNL A   1      32.065  23.037  24.623  1.00  0.00    -0.346 N 
BRANCH   6  14
ATOM     14  C   UNL A   1      28.507  27.100  23.829  1.00  0.00     0.291 C 
BRANCH  14  15
ATOM     15  C   UNL A   1      29.479  28.257  23.496  1.00  0.00     0.221 C 
BRANCH  15  16
ATOM     16  O   UNL A   1      28.825  29.423  22.990  1.00  0.00    -0.379 OA
ATOM     17  C   UNL A   1      29.538  30.040  21.927  1.00  0.00     0.195 C 
ENDBRANCH  15  16
ENDBRANCH  14  15
ENDBRANCH   6  14
BRANCH  13  18
ATOM     18  C   UNL A   1      32.763  21.875  24.746  1.00  0.00     0.185 A 
ATOM     19  N   UNL A   1      32.178  20.720  24.980  1.00  0.00    -0.223 NA
ATOM     20  S   UNL A   1      34.491  21.763  24.635  1.00  0.00    -0.105 S 
ATOM     21  C   UNL A   1      33.098  19.684  25.029  1.00  0.00     0.079 A 
ATOM     22  C   UNL A   1      34.415  20.078  24.907  1.00  0.00     0.095 A 
BRANCH  21  23
ATOM     23  C   UNL A   1      32.595  18.287  25.139  1.00  0.00     0.213 C 
BRANCH  23  24
ATOM     24  O   UNL A   1      32.536  17.864  26.500  1.00  0.00    -0.390 OA
ATOM     25  H   UNL A   1      32.565  16.895  26.539  1.00  0.00     0.211 HD
ENDBRANCH  23  24
ENDBRANCH  21  23
ENDBRANCH  13  18
ENDBRANCH   3   5
ENDBRANCH   2   3
ENDBRANCH   1   2
BRANCH   1  26
ATOM     26  C   UNL A   1      31.776  29.504  26.186  1.00  0.00     0.275 C 
BRANCH  26  27
ATOM     27  O   UNL A   1      33.072  30.135  26.060  1.00  0.00    -0.458 OA
BRANCH  27  28
ATOM     28  C   UNL A   1      33.323  31.147  26.921  1.00  0.00     0.338 C 
ATOM     29  O   UNL A   1      32.541  32.038  27.252  1.00  0.00    -0.246 OA
BRANCH  28  30
ATOM     30  C   UNL A   1      34.607  30.938  27.621  1.00  0.00     0.060 A 
ATOM     31  C   UNL A   1      34.936  29.628  27.989  1.00  0.00     0.016 A 
ATOM     32  C   UNL A   1      35.464  31.980  27.959  1.00  0.00     0.016 A 
ATOM     33  C   UNL A   1      36.105  29.332  28.670  1.00  0.00     0.010 A 
ATOM     34  C   UNL A   1      36.638  31.692  28.672  1.00  0.00     0.010 A 
ATOM     35  C   UNL A   1      36.960  30.368  29.033  1.00  0.00    -0.014 A 
BRANCH  35  36
ATOM     36  C   UNL A   1      38.135  30.051  29.873  1.00  0.00     0.031 A 
ATOM     37  C   UNL A   1      39.218  29.180  29.314  1.00  0.00     0.074 A 
ATOM     38  C   UNL A   1      38.269  30.603  31.092  1.00  0.00     0.049 A 
ATOM     39  N   UNL A   1      40.277  28.692  29.904  1.00  0.00    -0.248 NA
ATOM     40  C   UNL A   1      39.093  28.813  27.894  1.00  0.00     0.031 C 
ATOM     41  C   UNL A   1      37.332  31.548  31.701  1.00  0.00     0.029 A 
ATOM     42  N   UNL A   1      39.252  30.449  32.037  1.00  0.00    -0.354 N 
ATOM     43  C   UNL A   1      40.925  27.929  28.942  1.00  0.00     0.074 A 
ATOM     44  C   UNL A   1      40.143  28.020  27.729  1.00  0.00     0.031 C 
ATOM     45  C   UNL A   1      37.784  31.886  32.920  1.00  0.00     0.029 A 
ATOM     46  C   UNL A   1      39.007  31.137  33.199  1.00  0.00     0.049 A 
ATOM     47  H   UNL A   1      40.055  29.897  31.895  1.00  0.00     0.167 HD
ATOM     48  C   UNL A   1      42.067  27.215  29.070  1.00  0.00     0.037 A 
ATOM     49  C   UNL A   1      39.674  31.131  34.368  1.00  0.00     0.037 A 
ATOM     50  C   UNL A   1      42.849  27.146  30.276  1.00  0.00     0.049 A 
ATOM     51  C   UNL A   1      40.899  30.266  34.508  1.00  0.00     0.074 A 
ATOM     52  C   UNL A   1      44.015  26.440  30.511  1.00  0.00     0.029 A 
ATOM     53  N   UNL A   1      42.544  27.817  31.452  1.00  0.00    -0.354 N 
ATOM     54  N   UNL A   1      41.482  29.505  33.613  1.00  0.00    -0.248 NA
ATOM     55  C   UNL A   1      41.551  30.248  35.825  1.00  0.00     0.031 C 
ATOM     56  C   UNL A   1      44.393  26.650  31.842  1.00  0.00     0.029 A 
ATOM     57  C   UNL A   1      43.490  27.527  32.422  1.00  0.00     0.049 A 
ATOM     58  H   UNL A   1      41.770  28.412  31.578  1.00  0.00     0.167 HD
ATOM     59  C   UNL A   1      42.574  28.933  34.251  1.00  0.00     0.074 A 
ATOM     60  C   UNL A   1      42.585  29.449  35.604  1.00  0.00     0.031 C 
ATOM     61  C   UNL A   1      43.485  28.055  33.762  1.00  0.00     0.037 A 
BRANCH  48  62
ATOM     62  C   UNL A   1      42.510  26.407  27.886  1.00  0.00     0.064 A 
ATOM     63  C   UNL A   1      43.466  26.885  26.979  1.00  0.00     0.173 A 
ATOM     64  C   UNL A   1      41.981  25.126  27.671  1.00  0.00     0.173 A 
ATOM     65  F   UNL A   1      43.988  28.112  27.130  1.00  0.00    -0.203 F 
ATOM     66  C   UNL A   1      43.859  26.117  25.885  1.00  0.00     0.198 A 
ATOM     67  C   UNL A   1      42.396  24.350  26.592  1.00  0.00     0.198 A 
ATOM     68  F   UNL A   1      41.063  24.623  28.511  1.00  0.00    -0.203 F 
ATOM     69  F   UNL A   1      44.740  26.611  25.003  1.00  0.00    -0.200 F 
ATOM     70  C   UNL A   1      43.329  24.849  25.696  1.00  0.00     0.200 A 
ATOM     71  F   UNL A   1      41.888  23.122  26.417  1.00  0.00    -0.200 F 
ATOM     72  F   UNL A   1      43.710  24.111  24.645  1.00  0.00    -0.200 F 
ENDBRANCH  48  62
BRANCH  49  73
ATOM     73  C   UNL A   1      39.173  31.932  35.515  1.00  0.00     0.064 A 
ATOM     74  C   UNL A   1      39.532  33.277  35.671  1.00  0.00     0.173 A 
ATOM     75  C   UNL A   1      38.333  31.365  36.486  1.00  0.00     0.173 A 
ATOM     76  F   UNL A   1      40.357  33.856  34.786  1.00  0.00    -0.203 F 
ATOM     77  C   UNL A   1      39.083  34.021  36.760  1.00  0.00     0.198 A 
ATOM     78  C   UNL A   1      37.860  32.118  37.558  1.00  0.00     0.198 A 
ATOM     79  F   UNL A   1      37.965  30.080  36.388  1.00  0.00    -0.203 F 
ATOM     80  F   UNL A   1      39.479  35.293  36.910  1.00  0.00    -0.200 F 
ATOM     81  C   UNL A   1      38.240  33.444  37.698  1.00  0.00     0.200 A 
ATOM     82  F   UNL A   1      37.038  31.557  38.456  1.00  0.00    -0.200 F 
ATOM     83  F   UNL A   1      37.804  34.161  38.743  1.00  0.00    -0.200 F 
ENDBRANCH  49  73
BRANCH  61  84
ATOM     84  C   UNL A   1      44.585  27.624  34.685  1.00  0.00     0.064 A 
ATOM     85  C   UNL A   1      45.779  28.353  34.796  1.00  0.00     0.173 A 
ATOM     86  C   UNL A   1      44.429  26.490  35.495  1.00  0.00     0.173 A 
ATOM     87  F   UNL A   1      45.981  29.436  34.030  1.00  0.00    -0.203 F 
ATOM     88  C   UNL A   1      46.784  27.949  35.669  1.00  0.00     0.198 A 
ATOM     89  C   UNL A   1      45.426  26.104  36.387  1.00  0.00     0.198 A 
ATOM     90  F   UNL A   1      43.305  25.762  35.430  1.00  0.00    -0.203 F 
ATOM     91  F   UNL A   1      47.934  28.635  35.729  1.00  0.00    -0.200 F 
ATOM     92  C   UNL A   1      46.605  26.829  36.469  1.00  0.00     0.200 A 
ATOM     93  F   UNL A   1      45.246  25.028  37.166  1.00  0.00    -0.200 F 
ATOM     94  F   UNL A   1      47.572  26.445  37.314  1.00  0.00    -0.200 F 
ENDBRANCH  61  84
ENDBRANCH  35  36
ENDBRANCH  28  30
ENDBRANCH  27  28
ENDBRANCH  26  27
ENDBRANCH   1  26
TORSDOF 17
ENDMDL
MODEL 3
REMARK VINA RESULT:     -11.4      1.879      4.209
REMARK SMILES COCC[N@H+]1C[C@@H]2CN(c3nc(CO)cs3)C[C@]2(C(=O)OCCOC(=O)c2ccc(-c3c4nc(c(-c5c(F)c(F)c(F)c(F)c5F)c5ccc([nH]5)c(-c5c(F)c(F)c(F)c(F)c5F)c5nc(c(-c6c(F)c(F)c(F)c(F)c6F)c6ccc3[nH]6)C=C5)C=C4)cc2)C1
REMARK SMILES IDX 22 1 21 2 19 3 20 4 18 5 5 6 6 7 90 8 7 10 8 11 17 12 9 13
REMARK SMILES IDX 4 14 3 15 2 16 1 17 10 18 11 19 16 20 12 21 15 22 13 23
REMARK SMILES IDX 14 24 23 26 24 27 25 28 26 29 27 30 28 31 89 32 29 33 88 34
REMARK SMILES IDX 30 35 31 36 32 37 82 38 33 39 87 40 81 41 83 42 34 43 86 44
REMARK SMILES IDX 80 45 79 46 35 48 67 49 47 50 66 51 48 52 51 53 65 54 84 55
REMARK SMILES IDX 49 56 50 57 64 59 85 60 52 61 36 62 37 63 45 64 38 65 39 66
REMARK SMILES IDX 43 67 46 68 40 69 41 70 44 71 42 72 68 73 69 74 77 75 70 76
REMARK SMILES IDX 71 77 75 78 78 79 72 80 73 81 76 82 74 83 53 84 54 85 62 86
REMARK SMILES IDX 55 87 56 88 60 89 63 90 57 91 58 92 61 93 59 94
REMARK H PARENT 5 9 14 25 83 47 51 58
REMARK Flexibility Score: inf
ROOT
ATOM      1  C   UNL A   1      31.749  28.498  27.468  1.00  0.00     0.274 C 
ENDROOT
BRANCH   1   2
ATOM      2  O   UNL A   1      31.227  27.375  26.728  1.00  0.00    -0.461 OA
BRANCH   2   3
ATOM      3  C   UNL A   1      32.095  26.440  26.236  1.00  0.00     0.320 C 
ATOM      4  O   UNL A   1      33.306  26.572  26.348  1.00  0.00    -0.251 OA
BRANCH   3   5
ATOM      5  C   UNL A   1      31.394  25.372  25.342  1.00  0.00     0.144 C 
ATOM      6  N   UNL A   1      29.160  25.750  24.244  1.00  0.00    -0.332 N 
ATOM      7  C   UNL A   1      30.098  25.409  23.185  1.00  0.00     0.269 C 
ATOM      8  C   UNL A   1      29.936  25.892  25.488  1.00  0.00     0.283 C 
ATOM      9  H   UNL A   1      28.456  25.025  24.376  1.00  0.00     0.348 HD
ATOM     10  C   UNL A   1      31.488  25.213  23.799  1.00  0.00     0.089 C 
ATOM     11  C   UNL A   1      31.912  23.776  23.444  1.00  0.00     0.129 C 
ATOM     12  C   UNL A   1      32.044  24.047  25.814  1.00  0.00     0.144 C 
ATOM     13  N   UNL A   1      32.205  23.148  24.692  1.00  0.00    -0.346 N 
BRANCH   6  14
ATOM     14  C   UNL A   1      28.421  26.997  23.880  1.00  0.00     0.291 C 
BRANCH  14  15
ATOM     15  C   UNL A   1      29.245  28.023  23.066  1.00  0.00     0.221 C 
BRANCH  15  16
ATOM     16  O   UNL A   1      30.332  28.590  23.799  1.00  0.00    -0.379 OA
ATOM     17  C   UNL A   1      31.438  28.930  22.973  1.00  0.00     0.195 C 
ENDBRANCH  15  16
ENDBRANCH  14  15
ENDBRANCH   6  14
BRANCH  13  18
ATOM     18  C   UNL A   1      32.966  22.027  24.828  1.00  0.00     0.185 A 
ATOM     19  N   UNL A   1      32.443  20.838  25.036  1.00  0.00    -0.223 NA
ATOM     20  S   UNL A   1      34.700  22.017  24.768  1.00  0.00    -0.105 S 
ATOM     21  C   UNL A   1      33.420  19.857  25.107  1.00  0.00     0.079 A 
ATOM     22  C   UNL A   1      34.715  20.328  25.027  1.00  0.00     0.095 A 
BRANCH  21  23
ATOM     23  C   UNL A   1      32.997  18.432  25.191  1.00  0.00     0.213 C 
BRANCH  23  24
ATOM     24  O   UNL A   1      32.528  18.109  26.500  1.00  0.00    -0.390 OA
ATOM     25  H   UNL A   1      32.272  17.174  26.530  1.00  0.00     0.211 HD
ENDBRANCH  23  24
ENDBRANCH  21  23
ENDBRANCH  13  18
ENDBRANCH   3   5
ENDBRANCH   2   3
ENDBRANCH   1   2
BRANCH   1  26
ATOM     26  C   UNL A   1      31.784  29.777  26.622  1.00  0.00     0.275 C 
BRANCH  26  27
ATOM     27  O   UNL A   1      33.135  30.249  26.412  1.00  0.00    -0.458 OA
BRANCH  27  28
ATOM     28  C   UNL A   1      33.514  31.311  27.160  1.00  0.00     0.338 C 
ATOM     29  O   UNL A   1      32.830  32.297  27.430  1.00  0.00    -0.246 OA
BRANCH  28  30
ATOM     30  C   UNL A   1      34.806  31.050  27.829  1.00  0.00     0.060 A 
ATOM     31  C   UNL A   1      35.033  29.757  28.315  1.00  0.00     0.016 A 
ATOM     32  C   UNL A   1      35.767  32.035  28.027  1.00  0.00     0.016 A 
ATOM     33  C   UNL A   1      36.200  29.420  28.977  1.00  0.00     0.010 A 
ATOM     34  C   UNL A   1      36.942  31.708  28.721  1.00  0.00     0.010 A 
ATOM     35  C   UNL A   1      37.161  30.402  29.202  1.00  0.00    -0.014 A 
BRANCH  35  36
ATOM     36  C   UNL A   1      38.340  30.058  30.025  1.00  0.00     0.031 A 
ATOM     37  C   UNL A   1      39.397  29.166  29.450  1.00  0.00     0.074 A 
ATOM     38  C   UNL A   1      38.503  30.606  31.243  1.00  0.00     0.049 A 
ATOM     39  N   UNL A   1      40.453  28.654  30.025  1.00  0.00    -0.248 NA
ATOM     40  C   UNL A   1      39.244  28.803  28.031  1.00  0.00     0.031 C 
ATOM     41  C   UNL A   1      37.595  31.569  31.865  1.00  0.00     0.029 A 
ATOM     42  N   UNL A   1      39.495  30.429  32.173  1.00  0.00    -0.354 N 
ATOM     43  C   UNL A   1      41.072  27.880  29.053  1.00  0.00     0.074 A 
ATOM     44  C   UNL A   1      40.275  27.989  27.850  1.00  0.00     0.031 C 
ATOM     45  C   UNL A   1      38.070  31.896  33.079  1.00  0.00     0.029 A 
ATOM     46  C   UNL A   1      39.281  31.121  33.340  1.00  0.00     0.049 A 
ATOM     47  H   UNL A   1      40.284  29.861  32.020  1.00  0.00     0.167 HD
ATOM     48  C   UNL A   1      42.200  27.141  29.164  1.00  0.00     0.037 A 
ATOM     49  C   UNL A   1      39.964  31.098  34.500  1.00  0.00     0.037 A 
ATOM     50  C   UNL A   1      42.997  27.054  30.359  1.00  0.00     0.049 A 
ATOM     51  C   UNL A   1      41.172  30.207  34.621  1.00  0.00     0.074 A 
ATOM     52  C   UNL A   1      44.151  26.323  30.577  1.00  0.00     0.029 A 
ATOM     53  N   UNL A   1      42.723  27.730  31.539  1.00  0.00    -0.354 N 
ATOM     54  N   UNL A   1      41.726  29.436  33.718  1.00  0.00    -0.248 NA
ATOM     55  C   UNL A   1      41.842  30.174  35.930  1.00  0.00     0.031 C 
ATOM     56  C   UNL A   1      44.552  26.523  31.902  1.00  0.00     0.029 A 
ATOM     57  C   UNL A   1      43.675  27.418  32.496  1.00  0.00     0.049 A 
ATOM     58  H   UNL A   1      41.963  28.340  31.677  1.00  0.00     0.167 HD
ATOM     59  C   UNL A   1      42.815  28.840  34.339  1.00  0.00     0.074 A 
ATOM     60  C   UNL A   1      42.856  29.353  35.693  1.00  0.00     0.031 C 
ATOM     61  C   UNL A   1      43.701  27.944  33.837  1.00  0.00     0.037 A 
BRANCH  48  62
ATOM     62  C   UNL A   1      42.610  26.326  27.973  1.00  0.00     0.064 A 
ATOM     63  C   UNL A   1      42.119  25.031  27.756  1.00  0.00     0.173 A 
ATOM     64  C   UNL A   1      43.494  26.862  27.025  1.00  0.00     0.173 A 
ATOM     65  F   UNL A   1      41.285  24.467  28.643  1.00  0.00    -0.203 F 
ATOM     66  C   UNL A   1      42.517  24.293  26.644  1.00  0.00     0.198 A 
ATOM     67  C   UNL A   1      43.870  26.132  25.901  1.00  0.00     0.198 A 
ATOM     68  F   UNL A   1      43.993  28.097  27.187  1.00  0.00    -0.203 F 
ATOM     69  F   UNL A   1      42.072  23.039  26.479  1.00  0.00    -0.200 F 
ATOM     70  C   UNL A   1      43.386  24.846  25.714  1.00  0.00     0.200 A 
ATOM     71  F   UNL A   1      44.703  26.672  25.000  1.00  0.00    -0.200 F 
ATOM     72  F   UNL A   1      43.766  24.135  24.644  1.00  0.00    -0.200 F 
ENDBRANCH  48  62
BRANCH  49  73
ATOM     73  C   UNL A   1      39.496  31.908  35.655  1.00  0.00     0.064 A 
ATOM     74  C   UNL A   1      38.526  31.416  36.538  1.00  0.00     0.173 A 
ATOM     75  C   UNL A   1      40.000  33.196  35.891  1.00  0.00     0.173 A 
ATOM     76  F   UNL A   1      37.991  30.203  36.337  1.00  0.00    -0.203 F 
ATOM     77  C   UNL A   1      38.068  32.186  37.605  1.00  0.00     0.198 A 
ATOM     78  C   UNL A   1      39.564  33.952  36.976  1.00  0.00     0.198 A 
ATOM     79  F   UNL A   1      40.925  33.717  35.072  1.00  0.00    -0.203 F 
ATOM     80  F   UNL A   1      37.106  31.710  38.408  1.00  0.00    -0.200 F 
ATOM     81  C   UNL A   1      38.593  33.450  37.829  1.00  0.00     0.200 A 
ATOM     82  F   UNL A   1      40.082  35.169  37.192  1.00  0.00    -0.200 F 
ATOM     83  F   UNL A   1      38.156  34.188  38.858  1.00  0.00    -0.200 F 
ENDBRANCH  49  73
BRANCH  61  84
ATOM     84  C   UNL A   1      44.804  27.488  34.744  1.00  0.00     0.064 A 
ATOM     85  C   UNL A   1      46.012  28.195  34.844  1.00  0.00     0.173 A 
ATOM     86  C   UNL A   1      44.638  26.352  35.549  1.00  0.00     0.173 A 
ATOM     87  F   UNL A   1      46.224  29.278  34.082  1.00  0.00    -0.203 F 
ATOM     88  C   UNL A   1      47.020  27.768  35.703  1.00  0.00     0.198 A 
ATOM     89  C   UNL A   1      45.638  25.943  36.427  1.00  0.00     0.198 A 
ATOM     90  F   UNL A   1      43.500  25.645  35.494  1.00  0.00    -0.203 F 
ATOM     91  F   UNL A   1      48.182  28.434  35.752  1.00  0.00    -0.200 F 
ATOM     92  C   UNL A   1      46.831  26.647  36.498  1.00  0.00     0.200 A 
ATOM     93  F   UNL A   1      45.448  24.867  37.202  1.00  0.00    -0.200 F 
ATOM     94  F   UNL A   1      47.801  26.241  37.329  1.00  0.00    -0.200 F 
ENDBRANCH  61  84
ENDBRANCH  35  36
ENDBRANCH  28  30
ENDBRANCH  27  28
ENDBRANCH  26  27
ENDBRANCH   1  26
TORSDOF 17
ENDMDL
