MODEL 1
REMARK VINA RESULT:     -11.4      0.000      0.000
REMARK SMILES O=C(OCCOC(=O)[C@@H](NC(=O)[C@H]1CC[C@@H]2CCCC[C@H]2[NH2+]1)C1CC1)c1ccc(-c2c3nc(c(-c4c(F)c(F)c(F)c(F)c4F)c4ccc([nH]4)c(-c4c(F)c(F)c(F)c(F)c4F)c4nc(c(-c5c(F)c(F)c(F)c(F)c5F)c5ccc2[nH]5)C=C4)C=C3)cc1
REMARK SMILES IDX 4 1 3 2 2 3 1 4 26 5 27 6 88 7 28 8 87 9 29 10 30 11 31 12
REMARK SMILES IDX 81 13 32 14 86 15 80 16 82 17 33 18 85 19 79 20 78 21 34 23
REMARK SMILES IDX 66 24 46 25 65 26 47 27 50 28 64 29 83 30 48 31 49 32 63 34
REMARK SMILES IDX 84 35 51 36 35 37 36 38 44 39 37 40 38 41 42 42 45 43 39 44
REMARK SMILES IDX 40 45 43 46 41 47 67 48 68 49 76 50 69 51 70 52 74 53 77 54
REMARK SMILES IDX 71 55 72 56 75 57 73 58 52 59 53 60 61 61 54 62 55 63 59 64
REMARK SMILES IDX 62 65 56 66 57 67 60 68 58 69 5 70 6 71 7 72 8 73 9 74 10 75
REMARK SMILES IDX 11 76 12 78 13 79 14 80 22 81 15 82 21 83 16 86 20 87 17 88
REMARK SMILES IDX 19 89 18 90 23 91 24 92 25 93
REMARK H PARENT 82 22 50 33 10 77 22 84 22 85
REMARK Flexibility Score: inf
ROOT
ATOM      1  C   UNL A   1      34.306  33.083  28.640  1.00  0.00     0.275 C 
ENDROOT
BRANCH   1   2
ATOM      2  O   UNL A   1      34.060  32.102  27.620  1.00  0.00    -0.458 OA
BRANCH   2   3
ATOM      3  C   UNL A   1      34.347  30.784  27.659  1.00  0.00     0.338 C 
ATOM      4  O   UNL A   1      33.465  29.987  27.327  1.00  0.00    -0.246 OA
BRANCH   3   5
ATOM      5  C   UNL A   1      35.697  30.208  27.989  1.00  0.00     0.060 A 
ATOM      6  C   UNL A   1      36.849  30.209  27.194  1.00  0.00     0.016 A 
ATOM      7  C   UNL A   1      35.830  29.722  29.302  1.00  0.00     0.016 A 
ATOM      8  C   UNL A   1      38.090  29.754  27.697  1.00  0.00     0.010 A 
ATOM      9  C   UNL A   1      37.070  29.324  29.815  1.00  0.00     0.010 A 
ATOM     10  C   UNL A   1      38.227  29.338  29.025  1.00  0.00    -0.014 A 
BRANCH  10  11
ATOM     11  C   UNL A   1      39.501  28.906  29.673  1.00  0.00     0.031 A 
ATOM     12  C   UNL A   1      40.043  29.626  30.842  1.00  0.00     0.074 A 
ATOM     13  C   UNL A   1      40.198  27.804  29.346  1.00  0.00     0.049 A 
ATOM     14  N   UNL A   1      41.023  29.240  31.614  1.00  0.00    -0.248 NA
ATOM     15  C   UNL A   1      39.324  30.816  31.293  1.00  0.00     0.031 C 
ATOM     16  C   UNL A   1      39.551  26.633  28.829  1.00  0.00     0.029 A 
ATOM     17  N   UNL A   1      41.506  27.394  29.541  1.00  0.00    -0.354 N 
ATOM     18  C   UNL A   1      40.998  30.086  32.689  1.00  0.00     0.074 A 
ATOM     19  C   UNL A   1      39.960  31.070  32.426  1.00  0.00     0.031 C 
ATOM     20  C   UNL A   1      40.472  25.685  28.649  1.00  0.00     0.029 A 
ATOM     21  C   UNL A   1      41.779  26.194  28.927  1.00  0.00     0.049 A 
ATOM     22  H   UNL A   1      42.168  27.905  30.062  1.00  0.00     0.167 HD
ATOM     23  C   UNL A   1      41.747  30.000  33.810  1.00  0.00     0.037 A 
ATOM     24  C   UNL A   1      42.868  25.431  28.731  1.00  0.00     0.037 A 
ATOM     25  C   UNL A   1      42.797  29.040  34.038  1.00  0.00     0.049 A 
ATOM     26  C   UNL A   1      43.834  25.498  29.851  1.00  0.00     0.074 A 
ATOM     27  C   UNL A   1      43.673  28.974  35.106  1.00  0.00     0.029 A 
ATOM     28  N   UNL A   1      43.140  27.995  33.178  1.00  0.00    -0.354 N 
ATOM     29  N   UNL A   1      43.745  26.254  30.910  1.00  0.00    -0.248 NA
ATOM     30  C   UNL A   1      44.893  24.486  29.894  1.00  0.00     0.031 C 
ATOM     31  C   UNL A   1      44.584  27.937  34.868  1.00  0.00     0.029 A 
ATOM     32  C   UNL A   1      44.259  27.323  33.671  1.00  0.00     0.049 A 
ATOM     33  H   UNL A   1      42.664  27.767  32.347  1.00  0.00     0.167 HD
ATOM     34  C   UNL A   1      44.663  25.753  31.796  1.00  0.00     0.074 A 
ATOM     35  C   UNL A   1      45.301  24.619  31.149  1.00  0.00     0.031 C 
ATOM     36  C   UNL A   1      44.923  26.208  33.040  1.00  0.00     0.037 A 
BRANCH  23  37
ATOM     37  C   UNL A   1      41.476  31.092  34.789  1.00  0.00     0.064 A 
ATOM     38  C   UNL A   1      40.437  30.995  35.729  1.00  0.00     0.173 A 
ATOM     39  C   UNL A   1      42.103  32.331  34.608  1.00  0.00     0.173 A 
ATOM     40  F   UNL A   1      39.775  29.838  35.890  1.00  0.00    -0.203 F 
ATOM     41  C   UNL A   1      39.981  32.129  36.394  1.00  0.00     0.198 A 
ATOM     42  C   UNL A   1      41.659  33.454  35.292  1.00  0.00     0.198 A 
ATOM     43  F   UNL A   1      43.083  32.466  33.703  1.00  0.00    -0.203 F 
ATOM     44  F   UNL A   1      38.905  32.049  37.190  1.00  0.00    -0.200 F 
ATOM     45  C   UNL A   1      40.584  33.358  36.164  1.00  0.00     0.200 A 
ATOM     46  F   UNL A   1      42.228  34.645  35.058  1.00  0.00    -0.200 F 
ATOM     47  F   UNL A   1      40.098  34.461  36.751  1.00  0.00    -0.200 F 
ENDBRANCH  23  37
BRANCH  24  48
ATOM     48  C   UNL A   1      42.908  24.313  27.739  1.00  0.00     0.064 A 
ATOM     49  C   UNL A   1      42.536  23.002  28.067  1.00  0.00     0.173 A 
ATOM     50  C   UNL A   1      43.376  24.537  26.432  1.00  0.00     0.173 A 
ATOM     51  F   UNL A   1      42.078  22.727  29.296  1.00  0.00    -0.203 F 
ATOM     52  C   UNL A   1      42.649  21.959  27.145  1.00  0.00     0.198 A 
ATOM     53  C   UNL A   1      43.481  23.494  25.507  1.00  0.00     0.198 A 
ATOM     54  F   UNL A   1      43.753  25.766  26.054  1.00  0.00    -0.203 F 
ATOM     55  F   UNL A   1      42.292  20.716  27.497  1.00  0.00    -0.200 F 
ATOM     56  C   UNL A   1      43.120  22.204  25.865  1.00  0.00     0.200 A 
ATOM     57  F   UNL A   1      43.924  23.736  24.265  1.00  0.00    -0.200 F 
ATOM     58  F   UNL A   1      43.213  21.204  24.978  1.00  0.00    -0.200 F 
ENDBRANCH  24  48
BRANCH  36  59
ATOM     59  C   UNL A   1      46.033  25.514  33.757  1.00  0.00     0.064 A 
ATOM     60  C   UNL A   1      45.756  24.465  34.648  1.00  0.00     0.173 A 
ATOM     61  C   UNL A   1      47.368  25.884  33.561  1.00  0.00     0.173 A 
ATOM     62  F   UNL A   1      44.487  24.103  34.894  1.00  0.00    -0.203 F 
ATOM     63  C   UNL A   1      46.778  23.822  35.333  1.00  0.00     0.198 A 
ATOM     64  C   UNL A   1      48.392  25.215  34.224  1.00  0.00     0.198 A 
ATOM     65  F   UNL A   1      47.679  26.895  32.736  1.00  0.00    -0.203 F 
ATOM     66  F   UNL A   1      46.484  22.863  36.221  1.00  0.00    -0.200 F 
ATOM     67  C   UNL A   1      48.096  24.188  35.111  1.00  0.00     0.200 A 
ATOM     68  F   UNL A   1      49.668  25.564  34.009  1.00  0.00    -0.200 F 
ATOM     69  F   UNL A   1      49.083  23.557  35.760  1.00  0.00    -0.200 F 
ENDBRANCH  36  59
ENDBRANCH  10  11
ENDBRANCH   3   5
ENDBRANCH   2   3
ENDBRANCH   1   2
BRANCH   1  70
ATOM     70  C   UNL A   1      33.585  34.407  28.385  1.00  0.00     0.274 C 
BRANCH  70  71
ATOM     71  O   UNL A   1      32.702  34.747  29.468  1.00  0.00    -0.461 OA
BRANCH  71  72
ATOM     72  C   UNL A   1      32.991  35.900  30.138  1.00  0.00     0.329 C 
ATOM     73  O   UNL A   1      33.272  36.973  29.588  1.00  0.00    -0.250 OA
BRANCH  72  74
ATOM     74  C   UNL A   1      33.176  35.662  31.646  1.00  0.00     0.195 C 
BRANCH  74  75
ATOM     75  N   UNL A   1      33.577  34.278  31.961  1.00  0.00    -0.337 N 
ATOM     76  C   UNL A   1      34.591  33.765  32.720  1.00  0.00     0.278 C 
ATOM     77  H   UNL A   1      33.005  33.593  31.545  1.00  0.00     0.164 HD
ATOM     78  O   UNL A   1      34.333  32.756  33.380  1.00  0.00    -0.268 OA
BRANCH  76  79
ATOM     79  C   UNL A   1      36.011  34.361  32.642  1.00  0.00     0.272 C 
ATOM     80  C   UNL A   1      36.898  33.870  33.780  1.00  0.00     0.076 C 
ATOM     81  N   UNL A   1      36.583  34.154  31.299  1.00  0.00    -0.333 N 
ATOM     82  C   UNL A   1      38.244  34.598  33.684  1.00  0.00     0.016 C 
ATOM     83  C   UNL A   1      37.959  34.629  31.142  1.00  0.00     0.186 C 
ATOM     84  H   UNL A   1      35.997  34.645  30.624  1.00  0.00     0.347 HD
ATOM     85  H   UNL A   1      36.607  33.145  31.148  1.00  0.00     0.347 HD
ATOM     86  C   UNL A   1      38.872  34.268  32.335  1.00  0.00     0.048 C 
ATOM     87  C   UNL A   1      38.533  34.070  29.817  1.00  0.00     0.065 C 
ATOM     88  C   UNL A   1      40.272  34.818  32.099  1.00  0.00     0.010 C 
ATOM     89  C   UNL A   1      40.022  34.355  29.618  1.00  0.00     0.006 C 
ATOM     90  C   UNL A   1      40.865  34.122  30.870  1.00  0.00     0.001 C 
ENDBRANCH  76  79
ENDBRANCH  74  75
BRANCH  74  91
ATOM     91  C   UNL A   1      34.112  36.699  32.188  1.00  0.00     0.023 C 
ATOM     92  C   UNL A   1      33.723  38.130  32.444  1.00  0.00     0.007 C 
ATOM     93  C   UNL A   1      33.902  37.202  33.604  1.00  0.00     0.007 C 
ENDBRANCH  74  91
ENDBRANCH  72  74
ENDBRANCH  71  72
ENDBRANCH  70  71
ENDBRANCH   1  70
TORSDOF 14
ENDMDL
MODEL 2
REMARK VINA RESULT:     -11.4      4.064      7.066
REMARK SMILES O=C(OCCOC(=O)[C@@H](NC(=O)[C@H]1CC[C@@H]2CCCC[C@H]2[NH2+]1)C1CC1)c1ccc(-c2c3nc(c(-c4c(F)c(F)c(F)c(F)c4F)c4ccc([nH]4)c(-c4c(F)c(F)c(F)c(F)c4F)c4nc(c(-c5c(F)c(F)c(F)c(F)c5F)c5ccc2[nH]5)C=C4)C=C3)cc1
REMARK SMILES IDX 4 1 3 2 2 3 1 4 26 5 27 6 88 7 28 8 87 9 29 10 30 11 31 12
REMARK SMILES IDX 81 13 32 14 86 15 80 16 82 17 33 18 85 19 79 20 78 21 34 23
REMARK SMILES IDX 66 24 46 25 65 26 47 27 50 28 64 29 83 30 48 31 49 32 63 34
REMARK SMILES IDX 84 35 51 36 35 37 36 38 44 39 37 40 38 41 42 42 45 43 39 44
REMARK SMILES IDX 40 45 43 46 41 47 67 48 68 49 76 50 69 51 70 52 74 53 77 54
REMARK SMILES IDX 71 55 72 56 75 57 73 58 52 59 53 60 61 61 54 62 55 63 59 64
REMARK SMILES IDX 62 65 56 66 57 67 60 68 58 69 5 70 6 71 7 72 8 73 9 74 10 75
REMARK SMILES IDX 11 76 12 78 13 79 14 80 22 81 15 82 21 83 16 86 20 87 17 88
REMARK SMILES IDX 19 89 18 90 23 91 24 92 25 93
REMARK H PARENT 82 22 50 33 10 77 22 84 22 85
REMARK Flexibility Score: inf
ROOT
ATOM      1  C   UNL A   1      31.398  29.995  25.328  1.00  0.00     0.275 C 
ENDROOT
BRANCH   1   2
ATOM      2  O   UNL A   1      32.731  30.058  25.862  1.00  0.00    -0.458 OA
BRANCH   2   3
ATOM      3  C   UNL A   1      33.204  30.911  26.795  1.00  0.00     0.338 C 
ATOM      4  O   UNL A   1      32.437  31.770  27.240  1.00  0.00    -0.246 OA
BRANCH   3   5
ATOM      5  C   UNL A   1      34.576  30.841  27.408  1.00  0.00     0.060 A 
ATOM      6  C   UNL A   1      35.421  31.904  27.746  1.00  0.00     0.016 A 
ATOM      7  C   UNL A   1      34.991  29.552  27.787  1.00  0.00     0.016 A 
ATOM      8  C   UNL A   1      36.628  31.688  28.451  1.00  0.00     0.010 A 
ATOM      9  C   UNL A   1      36.158  29.345  28.531  1.00  0.00     0.010 A 
ATOM     10  C   UNL A   1      36.998  30.411  28.884  1.00  0.00    -0.014 A 
BRANCH  10  11
ATOM     11  C   UNL A   1      38.212  30.084  29.690  1.00  0.00     0.031 A 
ATOM     12  C   UNL A   1      38.463  30.740  30.989  1.00  0.00     0.074 A 
ATOM     13  C   UNL A   1      39.105  29.126  29.386  1.00  0.00     0.049 A 
ATOM     14  N   UNL A   1      39.364  30.406  31.873  1.00  0.00    -0.248 NA
ATOM     15  C   UNL A   1      37.517  31.769  31.417  1.00  0.00     0.031 C 
ATOM     16  C   UNL A   1      38.721  27.942  28.674  1.00  0.00     0.029 A 
ATOM     17  N   UNL A   1      40.415  28.875  29.755  1.00  0.00    -0.354 N 
ATOM     18  C   UNL A   1      39.055  31.122  32.998  1.00  0.00     0.074 A 
ATOM     19  C   UNL A   1      37.934  31.981  32.656  1.00  0.00     0.031 C 
ATOM     20  C   UNL A   1      39.789  27.149  28.564  1.00  0.00     0.029 A 
ATOM     21  C   UNL A   1      40.951  27.795  29.093  1.00  0.00     0.049 A 
ATOM     22  H   UNL A   1      40.910  29.410  30.418  1.00  0.00     0.167 HD
ATOM     23  C   UNL A   1      39.635  31.016  34.214  1.00  0.00     0.037 A 
ATOM     24  C   UNL A   1      42.158  27.208  29.010  1.00  0.00     0.037 A 
ATOM     25  C   UNL A   1      40.770  30.184  34.525  1.00  0.00     0.049 A 
ATOM     26  C   UNL A   1      42.927  27.283  30.273  1.00  0.00     0.074 A 
ATOM     27  C   UNL A   1      41.479  30.120  35.711  1.00  0.00     0.029 A 
ATOM     28  N   UNL A   1      41.387  29.292  33.646  1.00  0.00    -0.354 N 
ATOM     29  N   UNL A   1      42.571  27.902  31.365  1.00  0.00    -0.248 NA
ATOM     30  C   UNL A   1      44.105  26.421  30.400  1.00  0.00     0.031 C 
ATOM     31  C   UNL A   1      42.557  29.245  35.536  1.00  0.00     0.029 A 
ATOM     32  C   UNL A   1      42.507  28.726  34.254  1.00  0.00     0.049 A 
ATOM     33  H   UNL A   1      41.079  29.094  32.732  1.00  0.00     0.167 HD
ATOM     34  C   UNL A   1      43.412  27.435  32.341  1.00  0.00     0.074 A 
ATOM     35  C   UNL A   1      44.299  26.471  31.711  1.00  0.00     0.031 C 
ATOM     36  C   UNL A   1      43.415  27.783  33.645  1.00  0.00     0.037 A 
BRANCH  23  37
ATOM     37  C   UNL A   1      39.063  31.950  35.226  1.00  0.00     0.064 A 
ATOM     38  C   UNL A   1      39.500  33.281  35.325  1.00  0.00     0.173 A 
ATOM     39  C   UNL A   1      38.261  31.429  36.248  1.00  0.00     0.173 A 
ATOM     40  F   UNL A   1      40.315  33.799  34.394  1.00  0.00    -0.203 F 
ATOM     41  C   UNL A   1      39.217  34.031  36.463  1.00  0.00     0.198 A 
ATOM     42  C   UNL A   1      37.963  32.190  37.370  1.00  0.00     0.198 A 
ATOM     43  F   UNL A   1      37.845  30.155  36.196  1.00  0.00    -0.203 F 
ATOM     44  F   UNL A   1      39.747  35.254  36.606  1.00  0.00    -0.200 F 
ATOM     45  C   UNL A   1      38.461  33.479  37.488  1.00  0.00     0.200 A 
ATOM     46  F   UNL A   1      37.249  31.652  38.368  1.00  0.00    -0.200 F 
ATOM     47  F   UNL A   1      38.251  34.176  38.614  1.00  0.00    -0.200 F 
ENDBRANCH  23  37
BRANCH  24  48
ATOM     48  C   UNL A   1      42.509  26.219  27.946  1.00  0.00     0.064 A 
ATOM     49  C   UNL A   1      43.212  26.578  26.787  1.00  0.00     0.173 A 
ATOM     50  C   UNL A   1      42.094  24.880  28.053  1.00  0.00     0.173 A 
ATOM     51  F   UNL A   1      43.638  27.839  26.630  1.00  0.00    -0.203 F 
ATOM     52  C   UNL A   1      43.467  25.653  25.773  1.00  0.00     0.198 A 
ATOM     53  C   UNL A   1      42.357  23.952  27.041  1.00  0.00     0.198 A 
ATOM     54  F   UNL A   1      41.413  24.471  29.132  1.00  0.00    -0.203 F 
ATOM     55  F   UNL A   1      44.135  26.034  24.675  1.00  0.00    -0.200 F 
ATOM     56  C   UNL A   1      43.041  24.341  25.899  1.00  0.00     0.200 A 
ATOM     57  F   UNL A   1      41.956  22.680  27.171  1.00  0.00    -0.200 F 
ATOM     58  F   UNL A   1      43.301  23.452  24.930  1.00  0.00    -0.200 F 
ENDBRANCH  24  48
BRANCH  36  59
ATOM     59  C   UNL A   1      44.497  27.170  34.470  1.00  0.00     0.064 A 
ATOM     60  C   UNL A   1      44.272  25.964  35.153  1.00  0.00     0.173 A 
ATOM     61  C   UNL A   1      45.756  27.772  34.583  1.00  0.00     0.173 A 
ATOM     62  F   UNL A   1      43.069  25.372  35.103  1.00  0.00    -0.203 F 
ATOM     63  C   UNL A   1      45.265  25.391  35.937  1.00  0.00     0.198 A 
ATOM     64  C   UNL A   1      46.759  27.177  35.341  1.00  0.00     0.198 A 
ATOM     65  F   UNL A   1      46.010  28.936  33.966  1.00  0.00    -0.203 F 
ATOM     66  F   UNL A   1      45.007  24.271  36.624  1.00  0.00    -0.200 F 
ATOM     67  C   UNL A   1      46.511  25.991  36.019  1.00  0.00     0.200 A 
ATOM     68  F   UNL A   1      47.966  27.752  35.421  1.00  0.00    -0.200 F 
ATOM     69  F   UNL A   1      47.474  25.430  36.763  1.00  0.00    -0.200 F 
ENDBRANCH  36  59
ENDBRANCH  10  11
ENDBRANCH   3   5
ENDBRANCH   2   3
ENDBRANCH   1   2
BRANCH   1  70
ATOM     70  C   UNL A   1      31.187  28.811  24.386  1.00  0.00     0.274 C 
BRANCH  70  71
ATOM     71  O   UNL A   1      31.045  27.577  25.109  1.00  0.00    -0.461 OA
BRANCH  71  72
ATOM     72  C   UNL A   1      30.329  26.595  24.487  1.00  0.00     0.329 C 
ATOM     73  O   UNL A   1      29.156  26.721  24.111  1.00  0.00    -0.250 OA
BRANCH  72  74
ATOM     74  C   UNL A   1      31.051  25.237  24.529  1.00  0.00     0.195 C 
BRANCH  74  75
ATOM     75  N   UNL A   1      30.384  24.263  25.412  1.00  0.00    -0.337 N 
ATOM     76  C   UNL A   1      30.853  23.460  26.414  1.00  0.00     0.278 C 
ATOM     77  H   UNL A   1      29.418  24.173  25.249  1.00  0.00     0.164 HD
ATOM     78  O   UNL A   1      30.118  23.309  27.392  1.00  0.00    -0.268 OA
BRANCH  76  79
ATOM     79  C   UNL A   1      32.181  22.692  26.249  1.00  0.00     0.272 C 
ATOM     80  C   UNL A   1      32.115  21.678  25.114  1.00  0.00     0.076 C 
ATOM     81  N   UNL A   1      33.311  23.632  26.152  1.00  0.00    -0.333 N 
ATOM     82  C   UNL A   1      33.430  20.891  25.099  1.00  0.00     0.016 C 
ATOM     83  C   UNL A   1      34.613  23.001  25.929  1.00  0.00     0.186 C 
ATOM     84  H   UNL A   1      33.359  24.163  27.022  1.00  0.00     0.347 HD
ATOM     85  H   UNL A   1      33.131  24.218  25.337  1.00  0.00     0.347 HD
ATOM     86  C   UNL A   1      34.574  21.872  24.875  1.00  0.00     0.048 C 
ATOM     87  C   UNL A   1      35.636  24.093  25.532  1.00  0.00     0.065 C 
ATOM     88  C   UNL A   1      35.959  21.258  24.722  1.00  0.00     0.010 C 
ATOM     89  C   UNL A   1      36.997  23.540  25.106  1.00  0.00     0.006 C 
ATOM     90  C   UNL A   1      36.907  22.332  24.177  1.00  0.00     0.001 C 
ENDBRANCH  76  79
ENDBRANCH  74  75
BRANCH  74  91
ATOM     91  C   UNL A   1      31.243  24.748  23.126  1.00  0.00     0.023 C 
ATOM     92  C   UNL A   1      31.861  25.570  22.026  1.00  0.00     0.007 C 
ATOM     93  C   UNL A   1      32.651  24.457  22.641  1.00  0.00     0.007 C 
ENDBRANCH  74  91
ENDBRANCH  72  74
ENDBRANCH  71  72
ENDBRANCH  70  71
ENDBRANCH   1  70
TORSDOF 14
ENDMDL
MODEL 3
REMARK VINA RESULT:     -11.3      4.080      7.152
REMARK SMILES O=C(OCCOC(=O)[C@@H](NC(=O)[C@H]1CC[C@@H]2CCCC[C@H]2[NH2+]1)C1CC1)c1ccc(-c2c3nc(c(-c4c(F)c(F)c(F)c(F)c4F)c4ccc([nH]4)c(-c4c(F)c(F)c(F)c(F)c4F)c4nc(c(-c5c(F)c(F)c(F)c(F)c5F)c5ccc2[nH]5)C=C4)C=C3)cc1
REMARK SMILES IDX 4 1 3 2 2 3 1 4 26 5 27 6 88 7 28 8 87 9 29 10 30 11 31 12
REMARK SMILES IDX 81 13 32 14 86 15 80 16 82 17 33 18 85 19 79 20 78 21 34 23
REMARK SMILES IDX 66 24 46 25 65 26 47 27 50 28 64 29 83 30 48 31 49 32 63 34
REMARK SMILES IDX 84 35 51 36 35 37 36 38 44 39 37 40 38 41 42 42 45 43 39 44
REMARK SMILES IDX 40 45 43 46 41 47 67 48 68 49 76 50 69 51 70 52 74 53 77 54
REMARK SMILES IDX 71 55 72 56 75 57 73 58 52 59 53 60 61 61 54 62 55 63 59 64
REMARK SMILES IDX 62 65 56 66 57 67 60 68 58 69 5 70 6 71 7 72 8 73 9 74 10 75
REMARK SMILES IDX 11 76 12 78 13 79 14 80 22 81 15 82 21 83 16 86 20 87 17 88
REMARK SMILES IDX 19 89 18 90 23 91 24 92 25 93
REMARK H PARENT 82 22 50 33 10 77 22 84 22 85
REMARK Flexibility Score: inf
ROOT
ATOM      1  C   UNL A   1      31.365  30.104  25.071  1.00  0.00     0.275 C 
ENDROOT
BRANCH   1   2
ATOM      2  O   UNL A   1      32.627  30.044  25.755  1.00  0.00    -0.458 OA
BRANCH   2   3
ATOM      3  C   UNL A   1      33.060  30.839  26.755  1.00  0.00     0.338 C 
ATOM      4  O   UNL A   1      32.253  31.620  27.268  1.00  0.00    -0.246 OA
BRANCH   3   5
ATOM      5  C   UNL A   1      34.436  30.786  27.362  1.00  0.00     0.060 A 
ATOM      6  C   UNL A   1      35.274  31.859  27.684  1.00  0.00     0.016 A 
ATOM      7  C   UNL A   1      34.861  29.505  27.757  1.00  0.00     0.016 A 
ATOM      8  C   UNL A   1      36.487  31.660  28.385  1.00  0.00     0.010 A 
ATOM      9  C   UNL A   1      36.033  29.316  28.498  1.00  0.00     0.010 A 
ATOM     10  C   UNL A   1      36.867  30.391  28.833  1.00  0.00    -0.014 A 
BRANCH  10  11
ATOM     11  C   UNL A   1      38.087  30.083  29.637  1.00  0.00     0.031 A 
ATOM     12  C   UNL A   1      38.332  30.747  30.933  1.00  0.00     0.074 A 
ATOM     13  C   UNL A   1      38.991  29.135  29.336  1.00  0.00     0.049 A 
ATOM     14  N   UNL A   1      39.239  30.429  31.816  1.00  0.00    -0.248 NA
ATOM     15  C   UNL A   1      37.374  31.766  31.360  1.00  0.00     0.031 C 
ATOM     16  C   UNL A   1      38.620  27.943  28.629  1.00  0.00     0.029 A 
ATOM     17  N   UNL A   1      40.305  28.902  29.702  1.00  0.00    -0.354 N 
ATOM     18  C   UNL A   1      38.925  31.145  32.939  1.00  0.00     0.074 A 
ATOM     19  C   UNL A   1      37.792  31.988  32.597  1.00  0.00     0.031 C 
ATOM     20  C   UNL A   1      39.698  27.164  28.520  1.00  0.00     0.029 A 
ATOM     21  C   UNL A   1      40.853  27.826  29.044  1.00  0.00     0.049 A 
ATOM     22  H   UNL A   1      40.795  29.446  30.362  1.00  0.00     0.167 HD
ATOM     23  C   UNL A   1      39.508  31.051  34.155  1.00  0.00     0.037 A 
ATOM     24  C   UNL A   1      42.067  27.254  28.960  1.00  0.00     0.037 A 
ATOM     25  C   UNL A   1      40.654  30.235  34.466  1.00  0.00     0.049 A 
ATOM     26  C   UNL A   1      42.838  27.344  30.221  1.00  0.00     0.074 A 
ATOM     27  C   UNL A   1      41.366  30.185  35.651  1.00  0.00     0.029 A 
ATOM     28  N   UNL A   1      41.281  29.348  33.589  1.00  0.00    -0.354 N 
ATOM     29  N   UNL A   1      42.477  27.963  31.311  1.00  0.00    -0.248 NA
ATOM     30  C   UNL A   1      44.027  26.498  30.349  1.00  0.00     0.031 C 
ATOM     31  C   UNL A   1      42.456  29.323  35.477  1.00  0.00     0.029 A 
ATOM     32  C   UNL A   1      42.409  28.798  34.197  1.00  0.00     0.049 A 
ATOM     33  H   UNL A   1      40.972  29.142  32.677  1.00  0.00     0.167 HD
ATOM     34  C   UNL A   1      43.325  27.510  32.288  1.00  0.00     0.074 A 
ATOM     35  C   UNL A   1      44.223  26.556  31.659  1.00  0.00     0.031 C 
ATOM     36  C   UNL A   1      43.327  27.864  33.590  1.00  0.00     0.037 A 
BRANCH  23  37
ATOM     37  C   UNL A   1      38.927  31.983  35.164  1.00  0.00     0.064 A 
ATOM     38  C   UNL A   1      39.301  33.335  35.216  1.00  0.00     0.173 A 
ATOM     39  C   UNL A   1      38.187  31.449  36.226  1.00  0.00     0.173 A 
ATOM     40  F   UNL A   1      40.057  33.868  34.244  1.00  0.00    -0.203 F 
ATOM     41  C   UNL A   1      39.022  34.099  36.345  1.00  0.00     0.198 A 
ATOM     42  C   UNL A   1      37.892  32.223  37.340  1.00  0.00     0.198 A 
ATOM     43  F   UNL A   1      37.832  30.156  36.220  1.00  0.00    -0.203 F 
ATOM     44  F   UNL A   1      39.497  35.350  36.440  1.00  0.00    -0.200 F 
ATOM     45  C   UNL A   1      38.330  33.538  37.409  1.00  0.00     0.200 A 
ATOM     46  F   UNL A   1      37.240  31.678  38.376  1.00  0.00    -0.200 F 
ATOM     47  F   UNL A   1      38.125  34.253  38.525  1.00  0.00    -0.200 F 
ENDBRANCH  23  37
BRANCH  24  48
ATOM     48  C   UNL A   1      42.428  26.266  27.900  1.00  0.00     0.064 A 
ATOM     49  C   UNL A   1      43.127  26.628  26.739  1.00  0.00     0.173 A 
ATOM     50  C   UNL A   1      42.027  24.923  28.011  1.00  0.00     0.173 A 
ATOM     51  F   UNL A   1      43.540  27.892  26.578  1.00  0.00    -0.203 F 
ATOM     52  C   UNL A   1      43.392  25.702  25.728  1.00  0.00     0.198 A 
ATOM     53  C   UNL A   1      42.299  23.994  27.002  1.00  0.00     0.198 A 
ATOM     54  F   UNL A   1      41.350  24.510  29.092  1.00  0.00    -0.203 F 
ATOM     55  F   UNL A   1      44.055  26.086  24.629  1.00  0.00    -0.200 F 
ATOM     56  C   UNL A   1      42.979  24.385  25.859  1.00  0.00     0.200 A 
ATOM     57  F   UNL A   1      41.911  22.718  27.136  1.00  0.00    -0.200 F 
ATOM     58  F   UNL A   1      43.248  23.496  24.893  1.00  0.00    -0.200 F 
ENDBRANCH  24  48
BRANCH  36  59
ATOM     59  C   UNL A   1      44.419  27.268  34.415  1.00  0.00     0.064 A 
ATOM     60  C   UNL A   1      45.677  27.887  34.482  1.00  0.00     0.173 A 
ATOM     61  C   UNL A   1      44.220  26.088  35.142  1.00  0.00     0.173 A 
ATOM     62  F   UNL A   1      45.923  28.999  33.771  1.00  0.00    -0.203 F 
ATOM     63  C   UNL A   1      46.706  27.334  35.232  1.00  0.00     0.198 A 
ATOM     64  C   UNL A   1      45.243  25.556  35.920  1.00  0.00     0.198 A 
ATOM     65  F   UNL A   1      43.041  25.450  35.091  1.00  0.00    -0.203 F 
ATOM     66  F   UNL A   1      47.914  27.912  35.233  1.00  0.00    -0.200 F 
ATOM     67  C   UNL A   1      46.484  26.177  35.962  1.00  0.00     0.200 A 
ATOM     68  F   UNL A   1      45.031  24.439  36.629  1.00  0.00    -0.200 F 
ATOM     69  F   UNL A   1      47.472  25.653  36.699  1.00  0.00    -0.200 F 
ENDBRANCH  36  59
ENDBRANCH  10  11
ENDBRANCH   3   5
ENDBRANCH   2   3
ENDBRANCH   1   2
BRANCH   1  70
ATOM     70  C   UNL A   1      31.073  28.855  24.241  1.00  0.00     0.274 C 
BRANCH  70  71
ATOM     71  O   UNL A   1      30.806  27.714  25.075  1.00  0.00    -0.461 OA
BRANCH  71  72
ATOM     72  C   UNL A   1      30.175  26.665  24.473  1.00  0.00     0.329 C 
ATOM     73  O   UNL A   1      29.013  26.705  24.045  1.00  0.00    -0.250 OA
BRANCH  72  74
ATOM     74  C   UNL A   1      30.969  25.355  24.610  1.00  0.00     0.195 C 
BRANCH  74  75
ATOM     75  N   UNL A   1      30.303  24.371  25.484  1.00  0.00    -0.337 N 
ATOM     76  C   UNL A   1      30.777  23.543  26.462  1.00  0.00     0.278 C 
ATOM     77  H   UNL A   1      29.334  24.297  25.334  1.00  0.00     0.164 HD
ATOM     78  O   UNL A   1      30.055  23.382  27.448  1.00  0.00    -0.268 OA
BRANCH  76  79
ATOM     79  C   UNL A   1      32.093  22.762  26.263  1.00  0.00     0.272 C 
ATOM     80  C   UNL A   1      31.997  21.772  25.108  1.00  0.00     0.076 C 
ATOM     81  N   UNL A   1      33.233  23.691  26.167  1.00  0.00    -0.333 N 
ATOM     82  C   UNL A   1      33.302  20.970  25.059  1.00  0.00     0.016 C 
ATOM     83  C   UNL A   1      34.524  23.049  25.912  1.00  0.00     0.186 C 
ATOM     84  H   UNL A   1      33.301  24.204  27.047  1.00  0.00     0.347 HD
ATOM     85  H   UNL A   1      33.048  24.295  25.366  1.00  0.00     0.347 HD
ATOM     86  C   UNL A   1      34.455  21.941  24.836  1.00  0.00     0.048 C 
ATOM     87  C   UNL A   1      35.555  24.135  25.521  1.00  0.00     0.065 C 
ATOM     88  C   UNL A   1      35.829  21.314  24.651  1.00  0.00     0.010 C 
ATOM     89  C   UNL A   1      36.902  23.574  25.064  1.00  0.00     0.006 C 
ATOM     90  C   UNL A   1      36.782  22.386  24.112  1.00  0.00     0.001 C 
ENDBRANCH  76  79
ENDBRANCH  74  75
BRANCH  74  91
ATOM     91  C   UNL A   1      31.280  24.833  23.240  1.00  0.00     0.023 C 
ATOM     92  C   UNL A   1      31.709  25.701  22.087  1.00  0.00     0.007 C 
ATOM     93  C   UNL A   1      32.723  24.835  22.769  1.00  0.00     0.007 C 
ENDBRANCH  74  91
ENDBRANCH  72  74
ENDBRANCH  71  72
ENDBRANCH  70  71
ENDBRANCH   1  70
TORSDOF 14
ENDMDL
