MODEL 1
REMARK VINA RESULT:     -12.9      0.000      0.000
REMARK SMILES O=C(Cc1ccn[nH]1)Nc1sc2c(c1C(=O)OCCOC(=O)c1ccc(-c3c4nc(c(-c5c(F)c(F)c(F)c(F)c5F)c5ccc([nH]5)c(-c5c(F)c(F)c(F)c(F)c5F)c5nc(c(-c6c(F)c(F)c(F)c(F)c6F)c6ccc3[nH]6)C=C5)C=C4)cc1)CCC2
REMARK SMILES IDX 18 1 17 2 15 3 16 4 14 5 10 6 11 7 12 8 13 9 88 10 86 11
REMARK SMILES IDX 87 12 9 13 1 14 2 15 3 17 4 18 5 19 8 20 6 21 7 22 19 24
REMARK SMILES IDX 20 25 21 26 22 27 23 28 24 29 85 30 25 31 84 32 26 33 27 34
REMARK SMILES IDX 28 35 78 36 29 37 83 38 77 39 79 40 30 41 82 42 76 43 75 44
REMARK SMILES IDX 31 46 63 47 43 48 62 49 44 50 47 51 61 52 80 53 45 54 46 55
REMARK SMILES IDX 60 57 81 58 48 59 32 60 33 61 41 62 34 63 35 64 39 65 42 66
REMARK SMILES IDX 36 67 37 68 40 69 38 70 64 71 65 72 73 73 66 74 67 75 71 76
REMARK SMILES IDX 74 77 68 78 69 79 72 80 70 81 49 82 50 83 58 84 51 85 52 86
REMARK SMILES IDX 56 87 59 88 53 89 54 90 57 91 55 92
REMARK H PARENT 9 16 8 23 79 45 47 56
REMARK Flexibility Score: inf
ROOT
ATOM      1  C   UNL A   1      33.351  29.106  26.321  1.00  0.00     0.275 C 
ENDROOT
BRANCH   1   2
ATOM      2  O   UNL A   1      32.058  28.772  25.782  1.00  0.00    -0.458 OA
BRANCH   2   3
ATOM      3  C   UNL A   1      31.498  27.588  26.179  1.00  0.00     0.341 C 
ATOM      4  O   UNL A   1      31.034  27.398  27.304  1.00  0.00    -0.246 OA
BRANCH   3   5
ATOM      5  C   UNL A   1      31.576  26.546  25.154  1.00  0.00     0.098 A 
ATOM      6  C   UNL A   1      30.532  26.192  24.304  1.00  0.00     0.110 A 
ATOM      7  S   UNL A   1      30.823  24.783  23.375  1.00  0.00    -0.122 S 
ATOM      8  C   UNL A   1      32.394  24.734  23.935  1.00  0.00     0.011 A 
ATOM      9  C   UNL A   1      32.678  25.677  24.887  1.00  0.00    -0.017 A 
ATOM     10  C   UNL A   1      33.512  23.814  23.630  1.00  0.00     0.047 C 
ATOM     11  C   UNL A   1      34.058  25.498  25.410  1.00  0.00     0.038 C 
ATOM     12  C   UNL A   1      34.688  24.502  24.387  1.00  0.00     0.010 C 
BRANCH   6  13
ATOM     13  N   UNL A   1      29.293  26.761  24.098  1.00  0.00    -0.317 N 
ATOM     14  O   UNL A   1      30.058  28.057  22.338  1.00  0.00    -0.274 OA
ATOM     15  C   UNL A   1      29.186  27.774  23.159  1.00  0.00     0.230 C 
ATOM     16  H   UNL A   1      28.506  26.457  24.604  1.00  0.00     0.170 HD
BRANCH  15  17
ATOM     17  C   UNL A   1      27.836  28.478  23.152  1.00  0.00     0.155 C 
BRANCH  17  18
ATOM     18  C   UNL A   1      27.895  29.861  22.586  1.00  0.00     0.044 A 
ATOM     19  C   UNL A   1      27.948  31.088  23.218  1.00  0.00     0.045 A 
ATOM     20  N   UNL A   1      27.959  30.142  21.243  1.00  0.00    -0.282 N 
ATOM     21  C   UNL A   1      27.984  32.033  22.178  1.00  0.00     0.135 A 
ATOM     22  N   UNL A   1      27.966  31.460  20.975  1.00  0.00    -0.184 NA
ATOM     23  H   UNL A   1      27.996  29.448  20.546  1.00  0.00     0.190 HD
ENDBRANCH  17  18
ENDBRANCH  15  17
ENDBRANCH   6  13
ENDBRANCH   3   5
ENDBRANCH   2   3
ENDBRANCH   1   2
BRANCH   1  24
ATOM     24  C   UNL A   1      33.513  30.598  26.606  1.00  0.00     0.275 C 
BRANCH  24  25
ATOM     25  O   UNL A   1      33.988  30.846  27.931  1.00  0.00    -0.458 OA
BRANCH  25  26
ATOM     26  C   UNL A   1      35.087  31.632  27.970  1.00  0.00     0.338 C 
ATOM     27  O   UNL A   1      35.223  32.720  27.440  1.00  0.00    -0.246 OA
BRANCH  26  28
ATOM     28  C   UNL A   1      36.193  30.930  28.628  1.00  0.00     0.060 A 
ATOM     29  C   UNL A   1      37.316  31.699  28.938  1.00  0.00     0.016 A 
ATOM     30  C   UNL A   1      36.216  29.533  28.720  1.00  0.00     0.016 A 
ATOM     31  C   UNL A   1      38.506  31.068  29.221  1.00  0.00     0.010 A 
ATOM     32  C   UNL A   1      37.411  28.897  29.001  1.00  0.00     0.010 A 
ATOM     33  C   UNL A   1      38.558  29.671  29.179  1.00  0.00    -0.014 A 
BRANCH  33  34
ATOM     34  C   UNL A   1      39.865  29.060  29.358  1.00  0.00     0.031 A 
ATOM     35  C   UNL A   1      40.243  28.848  30.782  1.00  0.00     0.074 A 
ATOM     36  C   UNL A   1      40.626  28.701  28.306  1.00  0.00     0.049 A 
ATOM     37  N   UNL A   1      41.289  29.286  31.400  1.00  0.00    -0.248 NA
ATOM     38  C   UNL A   1      39.271  28.170  31.658  1.00  0.00     0.031 C 
ATOM     39  C   UNL A   1      40.263  28.684  26.885  1.00  0.00     0.029 A 
ATOM     40  N   UNL A   1      41.883  28.181  28.298  1.00  0.00    -0.354 N 
ATOM     41  C   UNL A   1      41.187  28.822  32.709  1.00  0.00     0.074 A 
ATOM     42  C   UNL A   1      39.879  28.237  32.842  1.00  0.00     0.031 C 
ATOM     43  C   UNL A   1      41.172  27.956  26.198  1.00  0.00     0.029 A 
ATOM     44  C   UNL A   1      42.243  27.572  27.101  1.00  0.00     0.049 A 
ATOM     45  H   UNL A   1      42.487  28.232  29.073  1.00  0.00     0.167 HD
ATOM     46  C   UNL A   1      42.271  28.775  33.527  1.00  0.00     0.037 A 
ATOM     47  C   UNL A   1      43.299  26.744  26.910  1.00  0.00     0.037 A 
ATOM     48  C   UNL A   1      43.298  29.680  33.091  1.00  0.00     0.049 A 
ATOM     49  C   UNL A   1      44.257  26.981  28.022  1.00  0.00     0.074 A 
ATOM     50  C   UNL A   1      43.395  31.053  32.986  1.00  0.00     0.029 A 
ATOM     51  N   UNL A   1      44.330  29.172  32.344  1.00  0.00    -0.354 N 
ATOM     52  N   UNL A   1      44.940  28.082  28.162  1.00  0.00    -0.248 NA
ATOM     53  C   UNL A   1      44.095  26.185  29.230  1.00  0.00     0.031 C 
ATOM     54  C   UNL A   1      44.170  31.280  31.812  1.00  0.00     0.029 A 
ATOM     55  C   UNL A   1      44.550  30.037  31.305  1.00  0.00     0.049 A 
ATOM     56  H   UNL A   1      44.823  28.338  32.522  1.00  0.00     0.167 HD
ATOM     57  C   UNL A   1      44.914  28.338  29.526  1.00  0.00     0.074 A 
ATOM     58  C   UNL A   1      44.446  27.098  30.139  1.00  0.00     0.031 C 
ATOM     59  C   UNL A   1      44.995  29.615  30.000  1.00  0.00     0.037 A 
BRANCH  46  60
ATOM     60  C   UNL A   1      42.548  27.645  34.484  1.00  0.00     0.064 A 
ATOM     61  C   UNL A   1      43.097  26.444  33.992  1.00  0.00     0.173 A 
ATOM     62  C   UNL A   1      41.995  27.581  35.780  1.00  0.00     0.173 A 
ATOM     63  F   UNL A   1      43.637  26.390  32.765  1.00  0.00    -0.203 F 
ATOM     64  C   UNL A   1      43.011  25.249  34.711  1.00  0.00     0.198 A 
ATOM     65  C   UNL A   1      41.953  26.398  36.513  1.00  0.00     0.198 A 
ATOM     66  F   UNL A   1      41.370  28.624  36.341  1.00  0.00    -0.203 F 
ATOM     67  F   UNL A   1      43.427  24.105  34.151  1.00  0.00    -0.200 F 
ATOM     68  C   UNL A   1      42.430  25.224  35.965  1.00  0.00     0.200 A 
ATOM     69  F   UNL A   1      41.369  26.390  37.719  1.00  0.00    -0.200 F 
ATOM     70  F   UNL A   1      42.283  24.069  36.625  1.00  0.00    -0.200 F 
ENDBRANCH  46  60
BRANCH  47  71
ATOM     71  C   UNL A   1      43.352  25.525  26.066  1.00  0.00     0.064 A 
ATOM     72  C   UNL A   1      44.469  25.245  25.263  1.00  0.00     0.173 A 
ATOM     73  C   UNL A   1      42.431  24.473  26.244  1.00  0.00     0.173 A 
ATOM     74  F   UNL A   1      45.420  26.173  25.083  1.00  0.00    -0.203 F 
ATOM     75  C   UNL A   1      44.664  23.982  24.691  1.00  0.00     0.198 A 
ATOM     76  C   UNL A   1      42.623  23.216  25.667  1.00  0.00     0.198 A 
ATOM     77  F   UNL A   1      41.376  24.609  27.060  1.00  0.00    -0.203 F 
ATOM     78  F   UNL A   1      45.773  23.732  23.980  1.00  0.00    -0.200 F 
ATOM     79  C   UNL A   1      43.746  22.966  24.902  1.00  0.00     0.200 A 
ATOM     80  F   UNL A   1      41.745  22.233  25.913  1.00  0.00    -0.200 F 
ATOM     81  F   UNL A   1      43.961  21.740  24.406  1.00  0.00    -0.200 F 
ENDBRANCH  47  71
BRANCH  59  82
ATOM     82  C   UNL A   1      45.359  30.699  29.026  1.00  0.00     0.064 A 
ATOM     83  C   UNL A   1      44.429  31.372  28.216  1.00  0.00     0.173 A 
ATOM     84  C   UNL A   1      46.678  31.169  29.023  1.00  0.00     0.173 A 
ATOM     85  F   UNL A   1      43.130  31.046  28.237  1.00  0.00    -0.203 F 
ATOM     86  C   UNL A   1      44.816  32.439  27.406  1.00  0.00     0.198 A 
ATOM     87  C   UNL A   1      47.055  32.257  28.243  1.00  0.00     0.198 A 
ATOM     88  F   UNL A   1      47.596  30.598  29.819  1.00  0.00    -0.203 F 
ATOM     89  F   UNL A   1      43.915  33.058  26.629  1.00  0.00    -0.200 F 
ATOM     90  C   UNL A   1      46.128  32.885  27.426  1.00  0.00     0.200 A 
ATOM     91  F   UNL A   1      48.313  32.714  28.304  1.00  0.00    -0.200 F 
ATOM     92  F   UNL A   1      46.494  33.934  26.679  1.00  0.00    -0.200 F 
ENDBRANCH  59  82
ENDBRANCH  33  34
ENDBRANCH  26  28
ENDBRANCH  25  26
ENDBRANCH  24  25
ENDBRANCH   1  24
TORSDOF 14
ENDMDL
MODEL 2
REMARK VINA RESULT:     -12.8      4.213      5.874
REMARK SMILES O=C(Cc1ccn[nH]1)Nc1sc2c(c1C(=O)OCCOC(=O)c1ccc(-c3c4nc(c(-c5c(F)c(F)c(F)c(F)c5F)c5ccc([nH]5)c(-c5c(F)c(F)c(F)c(F)c5F)c5nc(c(-c6c(F)c(F)c(F)c(F)c6F)c6ccc3[nH]6)C=C5)C=C4)cc1)CCC2
REMARK SMILES IDX 18 1 17 2 15 3 16 4 14 5 10 6 11 7 12 8 13 9 88 10 86 11
REMARK SMILES IDX 87 12 9 13 1 14 2 15 3 17 4 18 5 19 8 20 6 21 7 22 19 24
REMARK SMILES IDX 20 25 21 26 22 27 23 28 24 29 85 30 25 31 84 32 26 33 27 34
REMARK SMILES IDX 28 35 78 36 29 37 83 38 77 39 79 40 30 41 82 42 76 43 75 44
REMARK SMILES IDX 31 46 63 47 43 48 62 49 44 50 47 51 61 52 80 53 45 54 46 55
REMARK SMILES IDX 60 57 81 58 48 59 32 60 33 61 41 62 34 63 35 64 39 65 42 66
REMARK SMILES IDX 36 67 37 68 40 69 38 70 64 71 65 72 73 73 66 74 67 75 71 76
REMARK SMILES IDX 74 77 68 78 69 79 72 80 70 81 49 82 50 83 58 84 51 85 52 86
REMARK SMILES IDX 56 87 59 88 53 89 54 90 57 91 55 92
REMARK H PARENT 9 16 8 23 79 45 47 56
REMARK Flexibility Score: inf
ROOT
ATOM      1  C   UNL A   1      34.996  33.251  29.972  1.00  0.00     0.275 C 
ENDROOT
BRANCH   1   2
ATOM      2  O   UNL A   1      35.814  34.350  30.417  1.00  0.00    -0.458 OA
BRANCH   2   3
ATOM      3  C   UNL A   1      37.003  34.044  31.022  1.00  0.00     0.341 C 
ATOM      4  O   UNL A   1      38.081  34.010  30.426  1.00  0.00    -0.246 OA
BRANCH   3   5
ATOM      5  C   UNL A   1      36.852  33.687  32.434  1.00  0.00     0.098 A 
ATOM      6  C   UNL A   1      36.056  34.376  33.344  1.00  0.00     0.110 A 
ATOM      7  S   UNL A   1      36.258  33.889  34.973  1.00  0.00    -0.122 S 
ATOM      8  C   UNL A   1      37.248  32.639  34.479  1.00  0.00     0.011 A 
ATOM      9  C   UNL A   1      37.525  32.642  33.138  1.00  0.00    -0.017 A 
ATOM     10  C   UNL A   1      37.926  31.569  35.243  1.00  0.00     0.047 C 
ATOM     11  C   UNL A   1      38.494  31.567  32.798  1.00  0.00     0.038 C 
ATOM     12  C   UNL A   1      38.509  30.695  34.092  1.00  0.00     0.010 C 
BRANCH   6  13
ATOM     13  N   UNL A   1      35.151  35.403  33.167  1.00  0.00    -0.317 N 
ATOM     14  O   UNL A   1      33.355  33.947  33.045  1.00  0.00    -0.274 OA
ATOM     15  C   UNL A   1      33.831  35.074  32.911  1.00  0.00     0.230 C 
ATOM     16  H   UNL A   1      35.436  36.343  33.221  1.00  0.00     0.170 HD
BRANCH  15  17
ATOM     17  C   UNL A   1      32.957  36.260  32.526  1.00  0.00     0.155 C 
BRANCH  17  18
ATOM     18  C   UNL A   1      32.997  36.572  31.063  1.00  0.00     0.044 A 
ATOM     19  C   UNL A   1      32.617  35.813  29.973  1.00  0.00     0.045 A 
ATOM     20  N   UNL A   1      33.404  37.776  30.543  1.00  0.00    -0.282 N 
ATOM     21  C   UNL A   1      32.888  36.621  28.855  1.00  0.00     0.135 A 
ATOM     22  N   UNL A   1      33.390  37.808  29.199  1.00  0.00    -0.184 NA
ATOM     23  H   UNL A   1      33.681  38.540  31.099  1.00  0.00     0.190 HD
ENDBRANCH  17  18
ENDBRANCH  15  17
ENDBRANCH   6  13
ENDBRANCH   3   5
ENDBRANCH   2   3
ENDBRANCH   1   2
BRANCH   1  24
ATOM     24  C   UNL A   1      34.626  33.343  28.493  1.00  0.00     0.275 C 
BRANCH  24  25
ATOM     25  O   UNL A   1      35.553  32.644  27.660  1.00  0.00    -0.458 OA
BRANCH  25  26
ATOM     26  C   UNL A   1      35.331  31.312  27.607  1.00  0.00     0.338 C 
ATOM     27  O   UNL A   1      34.332  30.756  27.184  1.00  0.00    -0.246 OA
BRANCH  26  28
ATOM     28  C   UNL A   1      36.412  30.587  28.281  1.00  0.00     0.060 A 
ATOM     29  C   UNL A   1      37.506  31.350  28.692  1.00  0.00     0.016 A 
ATOM     30  C   UNL A   1      36.451  29.187  28.296  1.00  0.00     0.016 A 
ATOM     31  C   UNL A   1      38.690  30.718  29.000  1.00  0.00     0.010 A 
ATOM     32  C   UNL A   1      37.638  28.551  28.603  1.00  0.00     0.010 A 
ATOM     33  C   UNL A   1      38.764  29.327  28.883  1.00  0.00    -0.014 A 
BRANCH  33  34
ATOM     34  C   UNL A   1      40.068  28.721  29.095  1.00  0.00     0.031 A 
ATOM     35  C   UNL A   1      40.446  28.585  30.528  1.00  0.00     0.074 A 
ATOM     36  C   UNL A   1      40.828  28.302  28.064  1.00  0.00     0.049 A 
ATOM     37  N   UNL A   1      41.494  29.053  31.121  1.00  0.00    -0.248 NA
ATOM     38  C   UNL A   1      39.471  27.960  31.440  1.00  0.00     0.031 C 
ATOM     39  C   UNL A   1      40.464  28.210  26.646  1.00  0.00     0.029 A 
ATOM     40  N   UNL A   1      42.083  27.778  28.084  1.00  0.00    -0.354 N 
ATOM     41  C   UNL A   1      41.390  28.661  32.453  1.00  0.00     0.074 A 
ATOM     42  C   UNL A   1      40.081  28.089  32.618  1.00  0.00     0.031 C 
ATOM     43  C   UNL A   1      41.371  27.442  26.000  1.00  0.00     0.029 A 
ATOM     44  C   UNL A   1      42.440  27.104  26.922  1.00  0.00     0.049 A 
ATOM     45  H   UNL A   1      42.688  27.869  28.856  1.00  0.00     0.167 HD
ATOM     46  C   UNL A   1      42.474  28.654  33.273  1.00  0.00     0.037 A 
ATOM     47  C   UNL A   1      43.494  26.263  26.777  1.00  0.00     0.037 A 
ATOM     48  C   UNL A   1      43.505  29.531  32.789  1.00  0.00     0.049 A 
ATOM     49  C   UNL A   1      44.452  26.556  27.874  1.00  0.00     0.074 A 
ATOM     50  C   UNL A   1      43.606  30.895  32.609  1.00  0.00     0.029 A 
ATOM     51  N   UNL A   1      44.534  28.978  32.070  1.00  0.00    -0.354 N 
ATOM     52  N   UNL A   1      45.139  27.661  27.954  1.00  0.00    -0.248 NA
ATOM     53  C   UNL A   1      44.288  25.827  29.123  1.00  0.00     0.031 C 
ATOM     54  C   UNL A   1      44.382  31.055  31.425  1.00  0.00     0.029 A 
ATOM     55  C   UNL A   1      44.758  29.785  30.986  1.00  0.00     0.049 A 
ATOM     56  H   UNL A   1      45.024  28.153  32.293  1.00  0.00     0.167 HD
ATOM     57  C   UNL A   1      45.114  27.991  29.301  1.00  0.00     0.074 A 
ATOM     58  C   UNL A   1      44.643  26.787  29.982  1.00  0.00     0.031 C 
ATOM     59  C   UNL A   1      45.200  29.291  29.706  1.00  0.00     0.037 A 
BRANCH  46  60
ATOM     60  C   UNL A   1      42.748  27.577  34.290  1.00  0.00     0.064 A 
ATOM     61  C   UNL A   1      43.282  26.345  33.862  1.00  0.00     0.173 A 
ATOM     62  C   UNL A   1      42.202  27.591  35.591  1.00  0.00     0.173 A 
ATOM     63  F   UNL A   1      43.814  26.218  32.637  1.00  0.00    -0.203 F 
ATOM     64  C   UNL A   1      43.191  25.193  34.648  1.00  0.00     0.198 A 
ATOM     65  C   UNL A   1      42.155  26.450  36.389  1.00  0.00     0.198 A 
ATOM     66  F   UNL A   1      41.590  28.669  36.096  1.00  0.00    -0.203 F 
ATOM     67  F   UNL A   1      43.593  24.016  34.151  1.00  0.00    -0.200 F 
ATOM     68  C   UNL A   1      42.617  25.244  35.905  1.00  0.00     0.200 A 
ATOM     69  F   UNL A   1      41.578  26.515  37.597  1.00  0.00    -0.200 F 
ATOM     70  F   UNL A   1      42.464  24.128  36.630  1.00  0.00    -0.200 F 
ENDBRANCH  46  60
BRANCH  47  71
ATOM     71  C   UNL A   1      43.542  24.999  26.000  1.00  0.00     0.064 A 
ATOM     72  C   UNL A   1      44.588  24.738  25.101  1.00  0.00     0.173 A 
ATOM     73  C   UNL A   1      42.715  23.907  26.331  1.00  0.00     0.173 A 
ATOM     74  F   UNL A   1      45.452  25.709  24.771  1.00  0.00    -0.203 F 
ATOM     75  C   UNL A   1      44.808  23.456  24.582  1.00  0.00     0.198 A 
ATOM     76  C   UNL A   1      42.931  22.631  25.808  1.00  0.00     0.198 A 
ATOM     77  F   UNL A   1      41.742  24.029  27.244  1.00  0.00    -0.203 F 
ATOM     78  F   UNL A   1      45.853  23.231  23.774  1.00  0.00    -0.200 F 
ATOM     79  C   UNL A   1      43.985  22.402  24.944  1.00  0.00     0.200 A 
ATOM     80  F   UNL A   1      42.150  21.613  26.198  1.00  0.00    -0.200 F 
ATOM     81  F   UNL A   1      44.229  21.163  24.496  1.00  0.00    -0.200 F 
ENDBRANCH  47  71
BRANCH  59  82
ATOM     82  C   UNL A   1      45.568  30.319  28.674  1.00  0.00     0.064 A 
ATOM     83  C   UNL A   1      44.643  30.938  27.818  1.00  0.00     0.173 A 
ATOM     84  C   UNL A   1      46.885  30.796  28.657  1.00  0.00     0.173 A 
ATOM     85  F   UNL A   1      43.346  30.607  27.845  1.00  0.00    -0.203 F 
ATOM     86  C   UNL A   1      45.033  31.959  26.951  1.00  0.00     0.198 A 
ATOM     87  C   UNL A   1      47.264  31.840  27.819  1.00  0.00     0.198 A 
ATOM     88  F   UNL A   1      47.798  30.277  29.493  1.00  0.00    -0.203 F 
ATOM     89  F   UNL A   1      44.136  32.527  26.131  1.00  0.00    -0.200 F 
ATOM     90  C   UNL A   1      46.341  32.413  26.958  1.00  0.00     0.200 A 
ATOM     91  F   UNL A   1      48.518  32.307  27.865  1.00  0.00    -0.200 F 
ATOM     92  F   UNL A   1      46.710  33.420  26.155  1.00  0.00    -0.200 F 
ENDBRANCH  59  82
ENDBRANCH  33  34
ENDBRANCH  26  28
ENDBRANCH  25  26
ENDBRANCH  24  25
ENDBRANCH   1  24
TORSDOF 14
ENDMDL
MODEL 3
REMARK VINA RESULT:     -12.7      4.107      9.288
REMARK SMILES O=C(Cc1ccn[nH]1)Nc1sc2c(c1C(=O)OCCOC(=O)c1ccc(-c3c4nc(c(-c5c(F)c(F)c(F)c(F)c5F)c5ccc([nH]5)c(-c5c(F)c(F)c(F)c(F)c5F)c5nc(c(-c6c(F)c(F)c(F)c(F)c6F)c6ccc3[nH]6)C=C5)C=C4)cc1)CCC2
REMARK SMILES IDX 18 1 17 2 15 3 16 4 14 5 10 6 11 7 12 8 13 9 88 10 86 11
REMARK SMILES IDX 87 12 9 13 1 14 2 15 3 17 4 18 5 19 8 20 6 21 7 22 19 24
REMARK SMILES IDX 20 25 21 26 22 27 23 28 24 29 85 30 25 31 84 32 26 33 27 34
REMARK SMILES IDX 28 35 78 36 29 37 83 38 77 39 79 40 30 41 82 42 76 43 75 44
REMARK SMILES IDX 31 46 63 47 43 48 62 49 44 50 47 51 61 52 80 53 45 54 46 55
REMARK SMILES IDX 60 57 81 58 48 59 32 60 33 61 41 62 34 63 35 64 39 65 42 66
REMARK SMILES IDX 36 67 37 68 40 69 38 70 64 71 65 72 73 73 66 74 67 75 71 76
REMARK SMILES IDX 74 77 68 78 69 79 72 80 70 81 49 82 50 83 58 84 51 85 52 86
REMARK SMILES IDX 56 87 59 88 53 89 54 90 57 91 55 92
REMARK H PARENT 9 16 8 23 79 45 47 56
REMARK Flexibility Score: inf
ROOT
ATOM      1  C   UNL A   1      36.923  22.709  25.721  1.00  0.00     0.275 C 
ENDROOT
BRANCH   1   2
ATOM      2  O   UNL A   1      35.767  22.106  25.107  1.00  0.00    -0.458 OA
BRANCH   2   3
ATOM      3  C   UNL A   1      35.245  22.727  24.004  1.00  0.00     0.341 C 
ATOM      4  O   UNL A   1      35.893  22.954  22.981  1.00  0.00    -0.246 OA
BRANCH   3   5
ATOM      5  C   UNL A   1      33.860  23.159  24.193  1.00  0.00     0.098 A 
ATOM      6  C   UNL A   1      32.745  22.475  23.718  1.00  0.00     0.110 A 
ATOM      7  S   UNL A   1      31.270  23.332  23.870  1.00  0.00    -0.122 S 
ATOM      8  C   UNL A   1      32.050  24.527  24.735  1.00  0.00     0.011 A 
ATOM      9  C   UNL A   1      33.407  24.362  24.817  1.00  0.00    -0.017 A 
ATOM     10  C   UNL A   1      31.542  25.762  25.372  1.00  0.00     0.047 C 
ATOM     11  C   UNL A   1      34.037  25.519  25.506  1.00  0.00     0.038 C 
ATOM     12  C   UNL A   1      32.812  26.260  26.127  1.00  0.00     0.010 C 
BRANCH   6  13
ATOM     13  N   UNL A   1      32.622  21.237  23.122  1.00  0.00    -0.317 N 
ATOM     14  O   UNL A   1      32.173  20.188  25.136  1.00  0.00    -0.274 OA
ATOM     15  C   UNL A   1      32.448  20.132  23.938  1.00  0.00     0.230 C 
ATOM     16  H   UNL A   1      32.659  21.141  22.143  1.00  0.00     0.170 HD
BRANCH  15  17
ATOM     17  C   UNL A   1      32.533  18.798  23.208  1.00  0.00     0.155 C 
BRANCH  17  18
ATOM     18  C   UNL A   1      32.967  17.670  24.090  1.00  0.00     0.044 A 
ATOM     19  C   UNL A   1      34.201  17.065  24.230  1.00  0.00     0.045 A 
ATOM     20  N   UNL A   1      32.152  17.047  25.003  1.00  0.00    -0.282 N 
ATOM     21  C   UNL A   1      34.009  16.065  25.198  1.00  0.00     0.135 A 
ATOM     22  N   UNL A   1      32.755  16.036  25.653  1.00  0.00    -0.184 NA
ATOM     23  H   UNL A   1      31.218  17.313  25.164  1.00  0.00     0.190 HD
ENDBRANCH  17  18
ENDBRANCH  15  17
ENDBRANCH   6  13
ENDBRANCH   3   5
ENDBRANCH   2   3
ENDBRANCH   1   2
BRANCH   1  24
ATOM     24  C   UNL A   1      38.135  21.782  25.752  1.00  0.00     0.275 C 
BRANCH  24  25
ATOM     25  O   UNL A   1      39.366  22.500  25.644  1.00  0.00    -0.458 OA
BRANCH  25  26
ATOM     26  C   UNL A   1      40.050  22.574  26.807  1.00  0.00     0.338 C 
ATOM     27  O   UNL A   1      40.225  21.672  27.608  1.00  0.00    -0.246 OA
BRANCH  26  28
ATOM     28  C   UNL A   1      40.448  23.958  27.077  1.00  0.00     0.060 A 
ATOM     29  C   UNL A   1      41.462  24.137  28.020  1.00  0.00     0.016 A 
ATOM     30  C   UNL A   1      39.696  25.038  26.600  1.00  0.00     0.016 A 
ATOM     31  C   UNL A   1      41.644  25.380  28.584  1.00  0.00     0.010 A 
ATOM     32  C   UNL A   1      39.876  26.286  27.166  1.00  0.00     0.010 A 
ATOM     33  C   UNL A   1      40.799  26.427  28.202  1.00  0.00    -0.014 A 
BRANCH  33  34
ATOM     34  C   UNL A   1      40.949  27.682  28.919  1.00  0.00     0.031 A 
ATOM     35  C   UNL A   1      42.134  28.480  28.499  1.00  0.00     0.074 A 
ATOM     36  C   UNL A   1      40.059  28.073  29.851  1.00  0.00     0.049 A 
ATOM     37  N   UNL A   1      43.105  28.907  29.237  1.00  0.00    -0.248 NA
ATOM     38  C   UNL A   1      42.325  28.723  27.058  1.00  0.00     0.031 C 
ATOM     39  C   UNL A   1      38.769  27.462  30.189  1.00  0.00     0.029 A 
ATOM     40  N   UNL A   1      40.084  29.175  30.650  1.00  0.00    -0.354 N 
ATOM     41  C   UNL A   1      43.962  29.598  28.383  1.00  0.00     0.074 A 
ATOM     42  C   UNL A   1      43.494  29.362  27.043  1.00  0.00     0.031 C 
ATOM     43  C   UNL A   1      38.041  28.330  30.928  1.00  0.00     0.029 A 
ATOM     44  C   UNL A   1      38.860  29.492  31.225  1.00  0.00     0.049 A 
ATOM     45  H   UNL A   1      40.900  29.702  30.806  1.00  0.00     0.167 HD
ATOM     46  C   UNL A   1      44.875  30.482  28.865  1.00  0.00     0.037 A 
ATOM     47  C   UNL A   1      38.535  30.667  31.820  1.00  0.00     0.037 A 
ATOM     48  C   UNL A   1      45.179  30.224  30.245  1.00  0.00     0.049 A 
ATOM     49  C   UNL A   1      39.805  31.347  32.183  1.00  0.00     0.074 A 
ATOM     50  C   UNL A   1      45.779  29.182  30.923  1.00  0.00     0.029 A 
ATOM     51  N   UNL A   1      44.535  30.972  31.197  1.00  0.00    -0.354 N 
ATOM     52  N   UNL A   1      40.613  30.916  33.111  1.00  0.00    -0.248 NA
ATOM     53  C   UNL A   1      40.401  32.233  31.194  1.00  0.00     0.031 C 
ATOM     54  C   UNL A   1      45.074  29.090  32.158  1.00  0.00     0.029 A 
ATOM     55  C   UNL A   1      44.128  30.116  32.186  1.00  0.00     0.049 A 
ATOM     56  H   UNL A   1      44.391  31.946  31.175  1.00  0.00     0.167 HD
ATOM     57  C   UNL A   1      41.883  31.107  32.585  1.00  0.00     0.074 A 
ATOM     58  C   UNL A   1      41.692  31.990  31.437  1.00  0.00     0.031 C 
ATOM     59  C   UNL A   1      42.922  30.304  32.953  1.00  0.00     0.037 A 
BRANCH  46  60
ATOM     60  C   UNL A   1      45.197  31.797  28.203  1.00  0.00     0.064 A 
ATOM     61  C   UNL A   1      44.155  32.708  27.937  1.00  0.00     0.173 A 
ATOM     62  C   UNL A   1      46.414  32.044  27.533  1.00  0.00     0.173 A 
ATOM     63  F   UNL A   1      42.951  32.558  28.510  1.00  0.00    -0.203 F 
ATOM     64  C   UNL A   1      44.298  33.732  26.998  1.00  0.00     0.198 A 
ATOM     65  C   UNL A   1      46.566  33.095  26.633  1.00  0.00     0.198 A 
ATOM     66  F   UNL A   1      47.462  31.216  27.630  1.00  0.00    -0.203 F 
ATOM     67  F   UNL A   1      43.243  34.494  26.679  1.00  0.00    -0.200 F 
ATOM     68  C   UNL A   1      45.499  33.918  26.339  1.00  0.00     0.200 A 
ATOM     69  F   UNL A   1      47.732  33.247  25.990  1.00  0.00    -0.200 F 
ATOM     70  F   UNL A   1      45.617  34.854  25.388  1.00  0.00    -0.200 F 
ENDBRANCH  46  60
BRANCH  47  71
ATOM     71  C   UNL A   1      37.242  31.391  31.746  1.00  0.00     0.064 A 
ATOM     72  C   UNL A   1      36.593  31.839  32.908  1.00  0.00     0.173 A 
ATOM     73  C   UNL A   1      36.758  31.901  30.525  1.00  0.00     0.173 A 
ATOM     74  F   UNL A   1      37.022  31.443  34.116  1.00  0.00    -0.203 F 
ATOM     75  C   UNL A   1      35.540  32.760  32.852  1.00  0.00     0.198 A 
ATOM     76  C   UNL A   1      35.703  32.813  30.469  1.00  0.00     0.198 A 
ATOM     77  F   UNL A   1      37.362  31.603  29.365  1.00  0.00    -0.203 F 
ATOM     78  F   UNL A   1      34.984  33.212  33.985  1.00  0.00    -0.200 F 
ATOM     79  C   UNL A   1      35.103  33.253  31.633  1.00  0.00     0.200 A 
ATOM     80  F   UNL A   1      35.318  33.311  29.285  1.00  0.00    -0.200 F 
ATOM     81  F   UNL A   1      34.135  34.179  31.581  1.00  0.00    -0.200 F 
ENDBRANCH  47  71
BRANCH  59  82
ATOM     82  C   UNL A   1      42.709  29.377  34.117  1.00  0.00     0.064 A 
ATOM     83  C   UNL A   1      42.014  28.159  34.033  1.00  0.00     0.173 A 
ATOM     84  C   UNL A   1      43.358  29.670  35.322  1.00  0.00     0.173 A 
ATOM     85  F   UNL A   1      41.450  27.762  32.886  1.00  0.00    -0.203 F 
ATOM     86  C   UNL A   1      41.938  27.296  35.125  1.00  0.00     0.198 A 
ATOM     87  C   UNL A   1      43.313  28.790  36.399  1.00  0.00     0.198 A 
ATOM     88  F   UNL A   1      44.082  30.795  35.439  1.00  0.00    -0.203 F 
ATOM     89  F   UNL A   1      41.257  26.144  35.029  1.00  0.00    -0.200 F 
ATOM     90  C   UNL A   1      42.594  27.609  36.305  1.00  0.00     0.200 A 
ATOM     91  F   UNL A   1      43.989  29.076  37.519  1.00  0.00    -0.200 F 
ATOM     92  F   UNL A   1      42.555  26.763  37.343  1.00  0.00    -0.200 F 
ENDBRANCH  59  82
ENDBRANCH  33  34
ENDBRANCH  26  28
ENDBRANCH  25  26
ENDBRANCH  24  25
ENDBRANCH   1  24
TORSDOF 14
ENDMDL
