MODEL 1
REMARK VINA RESULT:     -13.4      0.000      0.000
REMARK SMILES C[C@@H]1CC[C@H](C)[N@H+]1Cc1cc2c(cc1Cl)C=C(C(=O)OCCOC(=O)c1ccc(-c3c4nc(c(-c5c(F)c(F)c(F)c(F)c5F)c5ccc([nH]5)c(-c5c(F)c(F)c(F)c(F)c5F)c5nc(c(-c6c(F)c(F)c(F)c(F)c6F)c6ccc3[nH]6)C=C5)C=C4)cc1)[C@@H](C(F)(F)F)O2
REMARK SMILES IDX 21 1 20 2 18 3 19 4 17 5 9 6 10 7 14 8 11 9 13 10 15 11
REMARK SMILES IDX 12 12 94 13 16 14 89 15 8 16 7 17 6 18 5 19 4 20 3 21 2 22
REMARK SMILES IDX 1 24 90 25 91 26 92 27 93 28 22 29 23 30 24 31 25 32 26 33
REMARK SMILES IDX 27 34 88 35 28 36 87 37 29 38 30 39 31 40 81 41 32 42 86 43
REMARK SMILES IDX 80 44 82 45 33 46 85 47 79 48 78 49 34 51 66 52 46 53 65 54
REMARK SMILES IDX 47 55 50 56 64 57 83 58 48 59 49 60 63 62 84 63 51 64 35 65
REMARK SMILES IDX 36 66 44 67 37 68 38 69 42 70 45 71 39 72 40 73 43 74 41 75
REMARK SMILES IDX 67 76 68 77 76 78 69 79 70 80 74 81 77 82 71 83 72 84 75 85
REMARK SMILES IDX 73 86 52 87 53 88 61 89 54 90 55 91 59 92 62 93 56 94 57 95
REMARK SMILES IDX 60 96 58 97
REMARK H PARENT 7 23 82 50 50 61
REMARK Flexibility Score: inf
ROOT
ATOM      1  C   UNL A   1      32.976  29.142  24.886  1.00  0.00     0.275 C 
ENDROOT
BRANCH   1   2
ATOM      2  O   UNL A   1      32.877  27.731  25.190  1.00  0.00    -0.459 OA
BRANCH   2   3
ATOM      3  C   UNL A   1      33.318  26.901  24.210  1.00  0.00     0.338 C 
ATOM      4  O   UNL A   1      33.958  27.223  23.230  1.00  0.00    -0.246 OA
BRANCH   3   5
ATOM      5  C   UNL A   1      33.010  25.488  24.532  1.00  0.00     0.087 C 
ATOM      6  C   UNL A   1      33.431  20.569  25.611  1.00  0.00     0.029 A 
ATOM      7  C   UNL A   1      32.346  21.480  25.547  1.00  0.00     0.058 A 
ATOM      8  C   UNL A   1      34.703  21.043  25.251  1.00  0.00     0.050 A 
ATOM      9  C   UNL A   1      32.538  22.822  25.194  1.00  0.00     0.128 A 
ATOM     10  C   UNL A   1      34.905  22.395  24.980  1.00  0.00     0.033 A 
ATOM     11  Cl  UNL A   1      36.074  20.020  25.000  1.00  0.00    -0.084 Cl
ATOM     12  C   UNL A   1      33.827  23.278  24.947  1.00  0.00     0.019 A 
ATOM     13  O   UNL A   1      31.441  23.640  25.140  1.00  0.00    -0.475 OA
ATOM     14  C   UNL A   1      34.062  24.673  24.651  1.00  0.00     0.027 C 
ATOM     15  C   UNL A   1      31.598  24.973  24.556  1.00  0.00     0.316 C 
BRANCH   6  16
ATOM     16  C   UNL A   1      33.178  19.132  26.047  1.00  0.00     0.301 C 
BRANCH  16  17
ATOM     17  N   UNL A   1      32.929  18.137  24.994  1.00  0.00    -0.327 N 
ATOM     18  C   UNL A   1      32.154  15.990  25.939  1.00  0.00     0.075 C 
ATOM     19  C   UNL A   1      33.305  16.750  25.294  1.00  0.00     0.181 C 
ATOM     20  C   UNL A   1      33.691  16.143  23.946  1.00  0.00     0.071 C 
ATOM     21  C   UNL A   1      34.261  17.328  23.196  1.00  0.00     0.071 C 
ATOM     22  C   UNL A   1      33.373  18.485  23.639  1.00  0.00     0.181 C 
ATOM     23  H   UNL A   1      31.909  18.179  24.997  1.00  0.00     0.348 HD
ATOM     24  C   UNL A   1      32.152  18.655  22.734  1.00  0.00     0.075 C 
ENDBRANCH  16  17
ENDBRANCH   6  16
BRANCH  15  25
ATOM     25  C   UNL A   1      31.034  24.998  23.124  1.00  0.00     0.430 C 
ATOM     26  F   UNL A   1      30.096  24.043  22.934  1.00  0.00    -0.167 F 
ATOM     27  F   UNL A   1      30.441  26.188  22.853  1.00  0.00    -0.167 F 
ATOM     28  F   UNL A   1      31.998  24.813  22.193  1.00  0.00    -0.167 F 
ENDBRANCH  15  25
ENDBRANCH   3   5
ENDBRANCH   2   3
ENDBRANCH   1   2
BRANCH   1  29
ATOM     29  C   UNL A   1      32.017  29.974  25.740  1.00  0.00     0.275 C 
BRANCH  29  30
ATOM     30  O   UNL A   1      32.565  30.168  27.059  1.00  0.00    -0.458 OA
BRANCH  30  31
ATOM     31  C   UNL A   1      33.207  31.340  27.262  1.00  0.00     0.338 C 
ATOM     32  O   UNL A   1      32.743  32.467  27.207  1.00  0.00    -0.246 OA
BRANCH  31  33
ATOM     33  C   UNL A   1      34.584  31.076  27.707  1.00  0.00     0.060 A 
ATOM     34  C   UNL A   1      35.476  32.097  28.000  1.00  0.00     0.016 A 
ATOM     35  C   UNL A   1      34.916  29.759  28.003  1.00  0.00     0.016 A 
ATOM     36  C   UNL A   1      36.715  31.773  28.573  1.00  0.00     0.010 A 
ATOM     37  C   UNL A   1      36.096  29.449  28.675  1.00  0.00     0.010 A 
ATOM     38  C   UNL A   1      37.031  30.448  28.956  1.00  0.00    -0.014 A 
BRANCH  38  39
ATOM     39  C   UNL A   1      38.297  30.140  29.690  1.00  0.00     0.031 A 
ATOM     40  C   UNL A   1      38.564  30.649  31.088  1.00  0.00     0.074 A 
ATOM     41  C   UNL A   1      39.247  29.402  29.078  1.00  0.00     0.049 A 
ATOM     42  N   UNL A   1      39.551  30.347  31.899  1.00  0.00    -0.248 NA
ATOM     43  C   UNL A   1      37.644  31.658  31.636  1.00  0.00     0.031 C 
ATOM     44  C   UNL A   1      39.205  28.970  27.679  1.00  0.00     0.029 A 
ATOM     45  N   UNL A   1      40.415  28.854  29.555  1.00  0.00    -0.354 N 
ATOM     46  C   UNL A   1      39.368  31.126  33.035  1.00  0.00     0.074 A 
ATOM     47  C   UNL A   1      38.234  31.983  32.776  1.00  0.00     0.031 C 
ATOM     48  C   UNL A   1      40.227  28.134  27.445  1.00  0.00     0.029 A 
ATOM     49  C   UNL A   1      41.018  27.996  28.665  1.00  0.00     0.049 A 
ATOM     50  H   UNL A   1      40.783  29.056  30.446  1.00  0.00     0.167 HD
ATOM     51  C   UNL A   1      40.043  31.096  34.210  1.00  0.00     0.037 A 
ATOM     52  C   UNL A   1      42.059  27.155  28.823  1.00  0.00     0.037 A 
ATOM     53  C   UNL A   1      41.141  30.210  34.488  1.00  0.00     0.049 A 
ATOM     54  C   UNL A   1      42.752  27.076  30.155  1.00  0.00     0.074 A 
ATOM     55  C   UNL A   1      41.832  30.037  35.676  1.00  0.00     0.029 A 
ATOM     56  N   UNL A   1      41.703  29.340  33.568  1.00  0.00    -0.354 N 
ATOM     57  N   UNL A   1      42.484  27.722  31.262  1.00  0.00    -0.248 NA
ATOM     58  C   UNL A   1      43.885  26.145  30.261  1.00  0.00     0.031 C 
ATOM     59  C   UNL A   1      42.835  29.089  35.463  1.00  0.00     0.029 A 
ATOM     60  C   UNL A   1      42.741  28.637  34.157  1.00  0.00     0.049 A 
ATOM     61  H   UNL A   1      41.410  29.237  32.633  1.00  0.00     0.167 HD
ATOM     62  C   UNL A   1      43.399  27.265  32.201  1.00  0.00     0.074 A 
ATOM     63  C   UNL A   1      44.221  26.274  31.539  1.00  0.00     0.031 C 
ATOM     64  C   UNL A   1      43.542  27.640  33.495  1.00  0.00     0.037 A 
BRANCH  51  65
ATOM     65  C   UNL A   1      39.576  32.003  35.315  1.00  0.00     0.064 A 
ATOM     66  C   UNL A   1      40.026  33.331  35.401  1.00  0.00     0.173 A 
ATOM     67  C   UNL A   1      38.622  31.576  36.250  1.00  0.00     0.173 A 
ATOM     68  F   UNL A   1      40.937  33.793  34.532  1.00  0.00    -0.203 F 
ATOM     69  C   UNL A   1      39.562  34.185  36.398  1.00  0.00     0.198 A 
ATOM     70  C   UNL A   1      38.135  32.444  37.226  1.00  0.00     0.198 A 
ATOM     71  F   UNL A   1      38.144  30.324  36.205  1.00  0.00    -0.203 F 
ATOM     72  F   UNL A   1      40.041  35.434  36.484  1.00  0.00    -0.200 F 
ATOM     73  C   UNL A   1      38.610  33.744  37.304  1.00  0.00     0.200 A 
ATOM     74  F   UNL A   1      37.198  32.023  38.089  1.00  0.00    -0.200 F 
ATOM     75  F   UNL A   1      38.153  34.572  38.252  1.00  0.00    -0.200 F 
ENDBRANCH  51  65
BRANCH  52  76
ATOM     76  C   UNL A   1      42.427  26.236  27.713  1.00  0.00     0.064 A 
ATOM     77  C   UNL A   1      41.736  25.029  27.534  1.00  0.00     0.173 A 
ATOM     78  C   UNL A   1      43.425  26.561  26.784  1.00  0.00     0.173 A 
ATOM     79  F   UNL A   1      40.782  24.667  28.405  1.00  0.00    -0.203 F 
ATOM     80  C   UNL A   1      42.032  24.180  26.469  1.00  0.00     0.198 A 
ATOM     81  C   UNL A   1      43.703  25.723  25.705  1.00  0.00     0.198 A 
ATOM     82  F   UNL A   1      44.106  27.709  26.905  1.00  0.00    -0.203 F 
ATOM     83  F   UNL A   1      41.371  23.021  26.335  1.00  0.00    -0.200 F 
ATOM     84  C   UNL A   1      43.008  24.532  25.550  1.00  0.00     0.200 A 
ATOM     85  F   UNL A   1      44.633  26.076  24.808  1.00  0.00    -0.200 F 
ATOM     86  F   UNL A   1      43.280  23.726  24.515  1.00  0.00    -0.200 F 
ENDBRANCH  52  76
BRANCH  64  87
ATOM     87  C   UNL A   1      44.610  26.974  34.308  1.00  0.00     0.064 A 
ATOM     88  C   UNL A   1      45.879  27.552  34.456  1.00  0.00     0.173 A 
ATOM     89  C   UNL A   1      44.321  25.816  35.046  1.00  0.00     0.173 A 
ATOM     90  F   UNL A   1      46.203  28.655  33.764  1.00  0.00    -0.203 F 
ATOM     91  C   UNL A   1      46.821  26.994  35.315  1.00  0.00     0.198 A 
ATOM     92  C   UNL A   1      45.258  25.275  35.922  1.00  0.00     0.198 A 
ATOM     93  F   UNL A   1      43.118  25.232  34.944  1.00  0.00    -0.203 F 
ATOM     94  F   UNL A   1      48.032  27.554  35.433  1.00  0.00    -0.200 F 
ATOM     95  C   UNL A   1      46.506  25.865  36.057  1.00  0.00     0.200 A 
ATOM     96  F   UNL A   1      44.946  24.193  36.650  1.00  0.00    -0.200 F 
ATOM     97  F   UNL A   1      47.404  25.347  36.906  1.00  0.00    -0.200 F 
ENDBRANCH  64  87
ENDBRANCH  38  39
ENDBRANCH  31  33
ENDBRANCH  30  31
ENDBRANCH  29  30
ENDBRANCH   1  29
TORSDOF 14
ENDMDL
MODEL 2
REMARK VINA RESULT:     -13.4      4.704     10.119
REMARK SMILES C[C@@H]1CC[C@H](C)[N@H+]1Cc1cc2c(cc1Cl)C=C(C(=O)OCCOC(=O)c1ccc(-c3c4nc(c(-c5c(F)c(F)c(F)c(F)c5F)c5ccc([nH]5)c(-c5c(F)c(F)c(F)c(F)c5F)c5nc(c(-c6c(F)c(F)c(F)c(F)c6F)c6ccc3[nH]6)C=C5)C=C4)cc1)[C@@H](C(F)(F)F)O2
REMARK SMILES IDX 21 1 20 2 18 3 19 4 17 5 9 6 10 7 14 8 11 9 13 10 15 11
REMARK SMILES IDX 12 12 94 13 16 14 89 15 8 16 7 17 6 18 5 19 4 20 3 21 2 22
REMARK SMILES IDX 1 24 90 25 91 26 92 27 93 28 22 29 23 30 24 31 25 32 26 33
REMARK SMILES IDX 27 34 88 35 28 36 87 37 29 38 30 39 31 40 81 41 32 42 86 43
REMARK SMILES IDX 80 44 82 45 33 46 85 47 79 48 78 49 34 51 66 52 46 53 65 54
REMARK SMILES IDX 47 55 50 56 64 57 83 58 48 59 49 60 63 62 84 63 51 64 35 65
REMARK SMILES IDX 36 66 44 67 37 68 38 69 42 70 45 71 39 72 40 73 43 74 41 75
REMARK SMILES IDX 67 76 68 77 76 78 69 79 70 80 74 81 77 82 71 83 72 84 75 85
REMARK SMILES IDX 73 86 52 87 53 88 61 89 54 90 55 91 59 92 62 93 56 94 57 95
REMARK SMILES IDX 60 96 58 97
REMARK H PARENT 7 23 82 50 50 61
REMARK Flexibility Score: inf
ROOT
ATOM      1  C   UNL A   1      36.020  20.712  25.001  1.00  0.00     0.275 C 
ENDROOT
BRANCH   1   2
ATOM      2  O   UNL A   1      35.826  22.036  24.451  1.00  0.00    -0.459 OA
BRANCH   2   3
ATOM      3  C   UNL A   1      35.278  22.938  25.307  1.00  0.00     0.338 C 
ATOM      4  O   UNL A   1      35.517  23.039  26.492  1.00  0.00    -0.246 OA
BRANCH   3   5
ATOM      5  C   UNL A   1      34.400  23.889  24.586  1.00  0.00     0.087 C 
ATOM      6  C   UNL A   1      31.846  28.029  23.217  1.00  0.00     0.029 A 
ATOM      7  C   UNL A   1      32.048  26.751  22.636  1.00  0.00     0.058 A 
ATOM      8  C   UNL A   1      32.396  28.261  24.488  1.00  0.00     0.050 A 
ATOM      9  C   UNL A   1      32.816  25.770  23.275  1.00  0.00     0.128 A 
ATOM     10  C   UNL A   1      33.227  27.314  25.085  1.00  0.00     0.033 A 
ATOM     11  Cl  UNL A   1      32.019  29.640  25.461  1.00  0.00    -0.084 Cl
ATOM     12  C   UNL A   1      33.432  26.074  24.483  1.00  0.00     0.019 A 
ATOM     13  O   UNL A   1      32.956  24.555  22.658  1.00  0.00    -0.475 OA
ATOM     14  C   UNL A   1      34.288  25.106  25.128  1.00  0.00     0.027 C 
ATOM     15  C   UNL A   1      33.560  23.458  23.417  1.00  0.00     0.316 C 
BRANCH   6  16
ATOM     16  C   UNL A   1      31.043  29.079  22.461  1.00  0.00     0.301 C 
BRANCH  16  17
ATOM     17  N   UNL A   1      29.702  29.404  22.969  1.00  0.00    -0.327 N 
ATOM     18  C   UNL A   1      28.536  27.394  23.805  1.00  0.00     0.075 C 
ATOM     19  C   UNL A   1      28.638  28.430  22.695  1.00  0.00     0.181 C 
ATOM     20  C   UNL A   1      27.360  29.261  22.585  1.00  0.00     0.071 C 
ATOM     21  C   UNL A   1      27.861  30.573  22.018  1.00  0.00     0.071 C 
ATOM     22  C   UNL A   1      29.208  30.760  22.705  1.00  0.00     0.181 C 
ATOM     23  H   UNL A   1      29.911  29.349  23.966  1.00  0.00     0.348 HD
ATOM     24  C   UNL A   1      29.082  31.520  24.026  1.00  0.00     0.075 C 
ENDBRANCH  16  17
ENDBRANCH   6  16
BRANCH  15  25
ATOM     25  C   UNL A   1      32.470  22.491  23.915  1.00  0.00     0.430 C 
ATOM     26  F   UNL A   1      31.360  22.543  23.146  1.00  0.00    -0.167 F 
ATOM     27  F   UNL A   1      32.907  21.207  23.885  1.00  0.00    -0.167 F 
ATOM     28  F   UNL A   1      32.099  22.755  25.189  1.00  0.00    -0.167 F 
ENDBRANCH  15  25
ENDBRANCH   3   5
ENDBRANCH   2   3
ENDBRANCH   1   2
BRANCH   1  29
ATOM     29  C   UNL A   1      37.491  20.291  24.956  1.00  0.00     0.275 C 
BRANCH  29  30
ATOM     30  O   UNL A   1      38.337  21.394  25.333  1.00  0.00    -0.458 OA
BRANCH  30  31
ATOM     31  C   UNL A   1      39.381  21.087  26.136  1.00  0.00     0.338 C 
ATOM     32  O   UNL A   1      39.927  20.004  26.270  1.00  0.00    -0.246 OA
BRANCH  31  33
ATOM     33  C   UNL A   1      39.891  22.311  26.770  1.00  0.00     0.060 A 
ATOM     34  C   UNL A   1      40.932  22.292  27.687  1.00  0.00     0.016 A 
ATOM     35  C   UNL A   1      39.417  23.525  26.287  1.00  0.00     0.016 A 
ATOM     36  C   UNL A   1      41.473  23.509  28.128  1.00  0.00     0.010 A 
ATOM     37  C   UNL A   1      40.028  24.726  26.636  1.00  0.00     0.010 A 
ATOM     38  C   UNL A   1      41.057  24.745  27.581  1.00  0.00    -0.014 A 
BRANCH  38  39
ATOM     39  C   UNL A   1      41.738  26.022  27.959  1.00  0.00     0.031 A 
ATOM     40  C   UNL A   1      43.117  26.382  27.456  1.00  0.00     0.074 A 
ATOM     41  C   UNL A   1      41.113  26.875  28.799  1.00  0.00     0.049 A 
ATOM     42  N   UNL A   1      43.772  27.512  27.586  1.00  0.00    -0.248 NA
ATOM     43  C   UNL A   1      43.885  25.337  26.761  1.00  0.00     0.031 C 
ATOM     44  C   UNL A   1      39.851  26.601  29.490  1.00  0.00     0.029 A 
ATOM     45  N   UNL A   1      41.429  28.156  29.188  1.00  0.00    -0.354 N 
ATOM     46  C   UNL A   1      45.014  27.307  26.998  1.00  0.00     0.074 A 
ATOM     47  C   UNL A   1      45.062  25.921  26.594  1.00  0.00     0.031 C 
ATOM     48  C   UNL A   1      39.444  27.712  30.120  1.00  0.00     0.029 A 
ATOM     49  C   UNL A   1      40.429  28.769  29.907  1.00  0.00     0.049 A 
ATOM     50  H   UNL A   1      42.286  28.591  28.974  1.00  0.00     0.167 HD
ATOM     51  C   UNL A   1      46.005  28.201  26.762  1.00  0.00     0.037 A 
ATOM     52  C   UNL A   1      40.294  30.048  30.310  1.00  0.00     0.037 A 
ATOM     53  C   UNL A   1      45.940  29.593  27.118  1.00  0.00     0.049 A 
ATOM     54  C   UNL A   1      41.367  31.047  29.976  1.00  0.00     0.074 A 
ATOM     55  C   UNL A   1      46.851  30.598  26.841  1.00  0.00     0.029 A 
ATOM     56  N   UNL A   1      44.900  30.177  27.823  1.00  0.00    -0.354 N 
ATOM     57  N   UNL A   1      42.476  30.869  29.303  1.00  0.00    -0.248 NA
ATOM     58  C   UNL A   1      41.165  32.424  30.449  1.00  0.00     0.031 C 
ATOM     59  C   UNL A   1      46.378  31.784  27.410  1.00  0.00     0.029 A 
ATOM     60  C   UNL A   1      45.152  31.527  28.001  1.00  0.00     0.049 A 
ATOM     61  H   UNL A   1      44.101  29.703  28.149  1.00  0.00     0.167 HD
ATOM     62  C   UNL A   1      43.095  32.112  29.253  1.00  0.00     0.074 A 
ATOM     63  C   UNL A   1      42.230  33.040  29.952  1.00  0.00     0.031 C 
ATOM     64  C   UNL A   1      44.276  32.446  28.682  1.00  0.00     0.037 A 
BRANCH  51  65
ATOM     65  C   UNL A   1      47.226  27.722  26.025  1.00  0.00     0.064 A 
ATOM     66  C   UNL A   1      47.274  27.725  24.622  1.00  0.00     0.173 A 
ATOM     67  C   UNL A   1      48.382  27.328  26.717  1.00  0.00     0.173 A 
ATOM     68  F   UNL A   1      46.198  28.093  23.911  1.00  0.00    -0.203 F 
ATOM     69  C   UNL A   1      48.419  27.323  23.939  1.00  0.00     0.198 A 
ATOM     70  C   UNL A   1      49.537  26.958  26.031  1.00  0.00     0.198 A 
ATOM     71  F   UNL A   1      48.400  27.322  28.058  1.00  0.00    -0.203 F 
ATOM     72  F   UNL A   1      48.422  27.292  22.599  1.00  0.00    -0.200 F 
ATOM     73  C   UNL A   1      49.552  26.948  24.644  1.00  0.00     0.200 A 
ATOM     74  F   UNL A   1      50.640  26.616  26.712  1.00  0.00    -0.200 F 
ATOM     75  F   UNL A   1      50.659  26.577  23.986  1.00  0.00    -0.200 F 
ENDBRANCH  51  65
BRANCH  52  76
ATOM     76  C   UNL A   1      39.033  30.473  30.974  1.00  0.00     0.064 A 
ATOM     77  C   UNL A   1      38.924  30.447  32.372  1.00  0.00     0.173 A 
ATOM     78  C   UNL A   1      37.941  30.959  30.243  1.00  0.00     0.173 A 
ATOM     79  F   UNL A   1      39.938  29.977  33.114  1.00  0.00    -0.203 F 
ATOM     80  C   UNL A   1      37.769  30.890  33.014  1.00  0.00     0.198 A 
ATOM     81  C   UNL A   1      36.795  31.425  30.887  1.00  0.00     0.198 A 
ATOM     82  F   UNL A   1      37.999  31.014  28.905  1.00  0.00    -0.203 F 
ATOM     83  F   UNL A   1      37.684  30.833  34.350  1.00  0.00    -0.200 F 
ATOM     84  C   UNL A   1      36.709  31.387  32.271  1.00  0.00     0.200 A 
ATOM     85  F   UNL A   1      35.781  31.923  30.168  1.00  0.00    -0.200 F 
ATOM     86  F   UNL A   1      35.606  31.831  32.888  1.00  0.00    -0.200 F 
ENDBRANCH  52  76
BRANCH  64  87
ATOM     87  C   UNL A   1      44.717  33.877  28.758  1.00  0.00     0.064 A 
ATOM     88  C   UNL A   1      45.574  34.322  29.774  1.00  0.00     0.173 A 
ATOM     89  C   UNL A   1      44.381  34.777  27.735  1.00  0.00     0.173 A 
ATOM     90  F   UNL A   1      45.916  33.499  30.777  1.00  0.00    -0.203 F 
ATOM     91  C   UNL A   1      46.079  35.618  29.763  1.00  0.00     0.198 A 
ATOM     92  C   UNL A   1      44.908  36.065  27.715  1.00  0.00     0.198 A 
ATOM     93  F   UNL A   1      43.572  34.394  26.736  1.00  0.00    -0.203 F 
ATOM     94  F   UNL A   1      46.887  36.029  30.751  1.00  0.00    -0.200 F 
ATOM     95  C   UNL A   1      45.757  36.484  28.728  1.00  0.00     0.200 A 
ATOM     96  F   UNL A   1      44.608  36.894  26.705  1.00  0.00    -0.200 F 
ATOM     97  F   UNL A   1      46.269  37.722  28.705  1.00  0.00    -0.200 F 
ENDBRANCH  64  87
ENDBRANCH  38  39
ENDBRANCH  31  33
ENDBRANCH  30  31
ENDBRANCH  29  30
ENDBRANCH   1  29
TORSDOF 14
ENDMDL
MODEL 3
REMARK VINA RESULT:     -13.4      4.634     10.115
REMARK SMILES C[C@@H]1CC[C@H](C)[N@H+]1Cc1cc2c(cc1Cl)C=C(C(=O)OCCOC(=O)c1ccc(-c3c4nc(c(-c5c(F)c(F)c(F)c(F)c5F)c5ccc([nH]5)c(-c5c(F)c(F)c(F)c(F)c5F)c5nc(c(-c6c(F)c(F)c(F)c(F)c6F)c6ccc3[nH]6)C=C5)C=C4)cc1)[C@@H](C(F)(F)F)O2
REMARK SMILES IDX 21 1 20 2 18 3 19 4 17 5 9 6 10 7 14 8 11 9 13 10 15 11
REMARK SMILES IDX 12 12 94 13 16 14 89 15 8 16 7 17 6 18 5 19 4 20 3 21 2 22
REMARK SMILES IDX 1 24 90 25 91 26 92 27 93 28 22 29 23 30 24 31 25 32 26 33
REMARK SMILES IDX 27 34 88 35 28 36 87 37 29 38 30 39 31 40 81 41 32 42 86 43
REMARK SMILES IDX 80 44 82 45 33 46 85 47 79 48 78 49 34 51 66 52 46 53 65 54
REMARK SMILES IDX 47 55 50 56 64 57 83 58 48 59 49 60 63 62 84 63 51 64 35 65
REMARK SMILES IDX 36 66 44 67 37 68 38 69 42 70 45 71 39 72 40 73 43 74 41 75
REMARK SMILES IDX 67 76 68 77 76 78 69 79 70 80 74 81 77 82 71 83 72 84 75 85
REMARK SMILES IDX 73 86 52 87 53 88 61 89 54 90 55 91 59 92 62 93 56 94 57 95
REMARK SMILES IDX 60 96 58 97
REMARK H PARENT 7 23 82 50 50 61
REMARK Flexibility Score: inf
ROOT
ATOM      1  C   UNL A   1      35.994  20.566  25.011  1.00  0.00     0.275 C 
ENDROOT
BRANCH   1   2
ATOM      2  O   UNL A   1      35.729  21.868  24.438  1.00  0.00    -0.459 OA
BRANCH   2   3
ATOM      3  C   UNL A   1      35.168  22.766  25.289  1.00  0.00     0.338 C 
ATOM      4  O   UNL A   1      35.379  22.855  26.481  1.00  0.00    -0.246 OA
BRANCH   3   5
ATOM      5  C   UNL A   1      34.312  23.728  24.557  1.00  0.00     0.087 C 
ATOM      6  C   UNL A   1      31.764  27.877  23.200  1.00  0.00     0.029 A 
ATOM      7  C   UNL A   1      32.017  26.623  22.587  1.00  0.00     0.058 A 
ATOM      8  C   UNL A   1      32.244  28.072  24.506  1.00  0.00     0.050 A 
ATOM      9  C   UNL A   1      32.768  25.632  23.231  1.00  0.00     0.128 A 
ATOM     10  C   UNL A   1      33.058  27.117  25.112  1.00  0.00     0.033 A 
ATOM     11  Cl  UNL A   1      31.795  29.409  25.504  1.00  0.00    -0.084 Cl
ATOM     12  C   UNL A   1      33.315  25.902  24.479  1.00  0.00     0.019 A 
ATOM     13  O   UNL A   1      32.959  24.441  22.581  1.00  0.00    -0.475 OA
ATOM     14  C   UNL A   1      34.152  24.924  25.135  1.00  0.00     0.027 C 
ATOM     15  C   UNL A   1      33.541  23.327  23.331  1.00  0.00     0.316 C 
BRANCH   6  16
ATOM     16  C   UNL A   1      30.985  28.941  22.440  1.00  0.00     0.301 C 
BRANCH  16  17
ATOM     17  N   UNL A   1      29.670  29.330  22.973  1.00  0.00    -0.327 N 
ATOM     18  C   UNL A   1      28.404  27.371  23.786  1.00  0.00     0.075 C 
ATOM     19  C   UNL A   1      28.550  28.423  22.695  1.00  0.00     0.181 C 
ATOM     20  C   UNL A   1      27.319  29.325  22.618  1.00  0.00     0.071 C 
ATOM     21  C   UNL A   1      27.885  30.618  22.071  1.00  0.00     0.071 C 
ATOM     22  C   UNL A   1      29.250  30.716  22.742  1.00  0.00     0.181 C 
ATOM     23  H   UNL A   1      29.889  29.243  23.966  1.00  0.00     0.348 HD
ATOM     24  C   UNL A   1      29.182  31.455  24.080  1.00  0.00     0.075 C 
ENDBRANCH  16  17
ENDBRANCH   6  16
BRANCH  15  25
ATOM     25  C   UNL A   1      32.443  22.327  23.738  1.00  0.00     0.430 C 
ATOM     26  F   UNL A   1      31.374  22.389  22.914  1.00  0.00    -0.167 F 
ATOM     27  F   UNL A   1      32.903  21.052  23.688  1.00  0.00    -0.167 F 
ATOM     28  F   UNL A   1      32.001  22.541  24.999  1.00  0.00    -0.167 F 
ENDBRANCH  15  25
ENDBRANCH   3   5
ENDBRANCH   2   3
ENDBRANCH   1   2
BRANCH   1  29
ATOM     29  C   UNL A   1      37.488  20.236  25.001  1.00  0.00     0.275 C 
BRANCH  29  30
ATOM     30  O   UNL A   1      38.256  21.386  25.405  1.00  0.00    -0.458 OA
BRANCH  30  31
ATOM     31  C   UNL A   1      39.372  21.126  26.121  1.00  0.00     0.338 C 
ATOM     32  O   UNL A   1      39.991  20.076  26.187  1.00  0.00    -0.246 OA
BRANCH  31  33
ATOM     33  C   UNL A   1      39.852  22.365  26.751  1.00  0.00     0.060 A 
ATOM     34  C   UNL A   1      40.872  22.371  27.692  1.00  0.00     0.016 A 
ATOM     35  C   UNL A   1      39.376  23.566  26.240  1.00  0.00     0.016 A 
ATOM     36  C   UNL A   1      41.389  23.600  28.128  1.00  0.00     0.010 A 
ATOM     37  C   UNL A   1      39.964  24.780  26.587  1.00  0.00     0.010 A 
ATOM     38  C   UNL A   1      40.970  24.824  27.555  1.00  0.00    -0.014 A 
BRANCH  38  39
ATOM     39  C   UNL A   1      41.627  26.114  27.931  1.00  0.00     0.031 A 
ATOM     40  C   UNL A   1      43.011  26.486  27.449  1.00  0.00     0.074 A 
ATOM     41  C   UNL A   1      40.976  26.967  28.749  1.00  0.00     0.049 A 
ATOM     42  N   UNL A   1      43.648  27.627  27.578  1.00  0.00    -0.248 NA
ATOM     43  C   UNL A   1      43.805  25.444  26.780  1.00  0.00     0.031 C 
ATOM     44  C   UNL A   1      39.705  26.684  29.420  1.00  0.00     0.029 A 
ATOM     45  N   UNL A   1      41.267  28.256  29.130  1.00  0.00    -0.354 N 
ATOM     46  C   UNL A   1      44.903  27.432  27.016  1.00  0.00     0.074 A 
ATOM     47  C   UNL A   1      44.977  26.042  26.629  1.00  0.00     0.031 C 
ATOM     48  C   UNL A   1      39.272  27.797  30.030  1.00  0.00     0.029 A 
ATOM     49  C   UNL A   1      40.247  28.864  29.824  1.00  0.00     0.049 A 
ATOM     50  H   UNL A   1      42.122  28.700  28.927  1.00  0.00     0.167 HD
ATOM     51  C   UNL A   1      45.886  28.336  26.788  1.00  0.00     0.037 A 
ATOM     52  C   UNL A   1      40.087  30.145  30.210  1.00  0.00     0.037 A 
ATOM     53  C   UNL A   1      45.797  29.732  27.127  1.00  0.00     0.049 A 
ATOM     54  C   UNL A   1      41.152  31.155  29.884  1.00  0.00     0.074 A 
ATOM     55  C   UNL A   1      46.699  30.746  26.856  1.00  0.00     0.029 A 
ATOM     56  N   UNL A   1      44.736  30.309  27.806  1.00  0.00    -0.354 N 
ATOM     57  N   UNL A   1      42.276  30.985  29.233  1.00  0.00    -0.248 NA
ATOM     58  C   UNL A   1      40.923  32.535  30.338  1.00  0.00     0.031 C 
ATOM     59  C   UNL A   1      46.200  31.931  27.403  1.00  0.00     0.029 A 
ATOM     60  C   UNL A   1      44.966  31.664  27.974  1.00  0.00     0.049 A 
ATOM     61  H   UNL A   1      43.937  29.828  28.123  1.00  0.00     0.167 HD
ATOM     62  C   UNL A   1      42.879  32.235  29.181  1.00  0.00     0.074 A 
ATOM     63  C   UNL A   1      41.989  33.159  29.853  1.00  0.00     0.031 C 
ATOM     64  C   UNL A   1      44.067  32.579  28.628  1.00  0.00     0.037 A 
BRANCH  51  65
ATOM     65  C   UNL A   1      47.128  27.866  26.079  1.00  0.00     0.064 A 
ATOM     66  C   UNL A   1      48.252  27.432  26.800  1.00  0.00     0.173 A 
ATOM     67  C   UNL A   1      47.173  27.775  24.680  1.00  0.00     0.173 A 
ATOM     68  F   UNL A   1      48.262  27.495  28.139  1.00  0.00    -0.203 F 
ATOM     69  C   UNL A   1      49.385  26.954  26.147  1.00  0.00     0.198 A 
ATOM     70  C   UNL A   1      48.297  27.266  24.031  1.00  0.00     0.198 A 
ATOM     71  F   UNL A   1      46.121  28.158  23.942  1.00  0.00    -0.203 F 
ATOM     72  F   UNL A   1      50.462  26.589  26.856  1.00  0.00    -0.200 F 
ATOM     73  C   UNL A   1      49.404  26.864  24.763  1.00  0.00     0.200 A 
ATOM     74  F   UNL A   1      48.306  27.157  22.695  1.00  0.00    -0.200 F 
ATOM     75  F   UNL A   1      50.489  26.389  24.137  1.00  0.00    -0.200 F 
ENDBRANCH  51  65
BRANCH  52  76
ATOM     76  C   UNL A   1      38.808  30.560  30.845  1.00  0.00     0.064 A 
ATOM     77  C   UNL A   1      38.690  30.597  32.242  1.00  0.00     0.173 A 
ATOM     78  C   UNL A   1      37.706  30.976  30.086  1.00  0.00     0.173 A 
ATOM     79  F   UNL A   1      39.713  30.195  33.012  1.00  0.00    -0.203 F 
ATOM     80  C   UNL A   1      37.517  31.033  32.856  1.00  0.00     0.198 A 
ATOM     81  C   UNL A   1      36.542  31.436  30.700  1.00  0.00     0.198 A 
ATOM     82  F   UNL A   1      37.773  30.970  28.747  1.00  0.00    -0.203 F 
ATOM     83  F   UNL A   1      37.424  31.036  34.193  1.00  0.00    -0.200 F 
ATOM     84  C   UNL A   1      36.447  31.460  32.085  1.00  0.00     0.200 A 
ATOM     85  F   UNL A   1      35.517  31.866  29.953  1.00  0.00    -0.200 F 
ATOM     86  F   UNL A   1      35.326  31.897  32.674  1.00  0.00    -0.200 F 
ENDBRANCH  52  76
BRANCH  64  87
ATOM     87  C   UNL A   1      44.487  34.016  28.696  1.00  0.00     0.064 A 
ATOM     88  C   UNL A   1      44.104  34.934  27.709  1.00  0.00     0.173 A 
ATOM     89  C   UNL A   1      45.170  34.502  29.822  1.00  0.00     0.173 A 
ATOM     90  F   UNL A   1      43.458  34.514  26.610  1.00  0.00    -0.203 F 
ATOM     91  C   UNL A   1      44.390  36.289  27.846  1.00  0.00     0.198 A 
ATOM     92  C   UNL A   1      45.432  35.861  29.967  1.00  0.00     0.198 A 
ATOM     93  F   UNL A   1      45.548  33.663  30.798  1.00  0.00    -0.203 F 
ATOM     94  F   UNL A   1      44.028  37.150  26.885  1.00  0.00    -0.200 F 
ATOM     95  C   UNL A   1      45.041  36.754  28.980  1.00  0.00     0.200 A 
ATOM     96  F   UNL A   1      46.046  36.309  31.071  1.00  0.00    -0.200 F 
ATOM     97  F   UNL A   1      45.288  38.063  29.123  1.00  0.00    -0.200 F 
ENDBRANCH  64  87
ENDBRANCH  38  39
ENDBRANCH  31  33
ENDBRANCH  30  31
ENDBRANCH  29  30
ENDBRANCH   1  29
TORSDOF 14
ENDMDL
