MODEL 1
REMARK VINA RESULT:     -11.5      0.000      0.000
REMARK SMILES Cc1nc(CSCC(=O)N2CCCC[C@@H]2C(=O)OCCOC(=O)c2ccc(-c3c4nc(c(-c5c(F)c(F)c(F)c(F)c5F)c5ccc([nH]5)c(-c5c(F)c(F)c(F)c(F)c5F)c5nc(c(-c6c(F)c(F)c(F)c(F)c6F)c6ccc3[nH]6)C=C5)C=C4)cc2)cs1
REMARK SMILES IDX 18 1 16 2 17 3 15 4 10 5 11 6 12 7 14 8 13 9 8 10 9 11 7 12
REMARK SMILES IDX 6 13 5 14 4 15 1 16 2 17 3 18 88 19 87 20 19 21 20 22 21 23
REMARK SMILES IDX 22 24 23 25 24 26 25 27 86 28 26 29 85 30 27 31 28 32 29 33
REMARK SMILES IDX 79 34 30 35 84 36 78 37 80 38 31 39 83 40 77 41 76 42 32 44
REMARK SMILES IDX 64 45 44 46 63 47 45 48 48 49 62 50 81 51 46 52 47 53 61 55
REMARK SMILES IDX 82 56 49 57 33 58 34 59 42 60 35 61 36 62 40 63 43 64 37 65
REMARK SMILES IDX 38 66 41 67 39 68 65 69 66 70 74 71 67 72 68 73 72 74 75 75
REMARK SMILES IDX 69 76 70 77 73 78 71 79 50 80 51 81 59 82 52 83 53 84 57 85
REMARK SMILES IDX 60 86 54 87 55 88 58 89 56 90
REMARK H PARENT 80 43 48 54
REMARK Flexibility Score: inf
ROOT
ATOM      1  O   UNL A   1      33.177  28.271  25.080  1.00  0.00    -0.461 OA
ENDROOT
BRANCH   1   2
ATOM      2  C   UNL A   1      33.672  27.634  23.988  1.00  0.00     0.328 C 
ATOM      3  O   UNL A   1      34.004  28.195  22.945  1.00  0.00    -0.250 OA
BRANCH   2   4
ATOM      4  C   UNL A   1      33.779  26.112  24.151  1.00  0.00     0.195 C 
ATOM      5  N   UNL A   1      32.951  25.377  23.187  1.00  0.00    -0.328 N 
ATOM      6  C   UNL A   1      33.077  23.926  23.169  1.00  0.00     0.120 C 
ATOM      7  C   UNL A   1      33.069  23.331  24.583  1.00  0.00     0.022 C 
ATOM      8  C   UNL A   1      33.719  25.547  25.563  1.00  0.00     0.037 C 
ATOM      9  C   UNL A   1      34.046  24.053  25.511  1.00  0.00     0.005 C 
BRANCH   5  10
ATOM     10  C   UNL A   1      31.776  25.956  22.713  1.00  0.00     0.233 C 
ATOM     11  O   UNL A   1      31.619  26.217  21.528  1.00  0.00    -0.274 OA
BRANCH  10  12
ATOM     12  C   UNL A   1      30.719  26.062  23.815  1.00  0.00     0.170 C 
BRANCH  12  13
ATOM     13  S   UNL A   1      29.401  27.279  23.503  1.00  0.00    -0.146 SA
BRANCH  13  14
ATOM     14  C   UNL A   1      30.374  28.635  22.762  1.00  0.00     0.127 C 
BRANCH  14  15
ATOM     15  C   UNL A   1      29.565  29.882  22.611  1.00  0.00     0.061 A 
ATOM     16  C   UNL A   1      27.946  32.033  20.154  1.00  0.00     0.079 C 
ATOM     17  C   UNL A   1      28.458  31.353  21.372  1.00  0.00     0.090 A 
ATOM     18  N   UNL A   1      29.163  30.248  21.335  1.00  0.00    -0.246 NA
ATOM     19  S   UNL A   1      28.169  31.986  22.939  1.00  0.00    -0.127 S 
ATOM     20  C   UNL A   1      29.082  30.699  23.616  1.00  0.00     0.091 A 
ENDBRANCH  14  15
ENDBRANCH  13  14
ENDBRANCH  12  13
ENDBRANCH  10  12
ENDBRANCH   5  10
ENDBRANCH   2   4
ENDBRANCH   1   2
BRANCH   1  21
ATOM     21  C   UNL A   1      32.938  29.684  24.930  1.00  0.00     0.274 C 
BRANCH  21  22
ATOM     22  C   UNL A   1      31.902  30.223  25.924  1.00  0.00     0.275 C 
BRANCH  22  23
ATOM     23  O   UNL A   1      32.453  30.445  27.237  1.00  0.00    -0.458 OA
BRANCH  23  24
ATOM     24  C   UNL A   1      33.208  31.558  27.353  1.00  0.00     0.338 C 
ATOM     25  O   UNL A   1      32.826  32.722  27.254  1.00  0.00    -0.246 OA
BRANCH  24  26
ATOM     26  C   UNL A   1      34.572  31.232  27.794  1.00  0.00     0.060 A 
ATOM     27  C   UNL A   1      34.828  29.902  28.144  1.00  0.00     0.016 A 
ATOM     28  C   UNL A   1      35.549  32.210  27.979  1.00  0.00     0.016 A 
ATOM     29  C   UNL A   1      36.039  29.537  28.709  1.00  0.00     0.010 A 
ATOM     30  C   UNL A   1      36.766  31.849  28.571  1.00  0.00     0.010 A 
ATOM     31  C   UNL A   1      36.998  30.520  28.966  1.00  0.00    -0.014 A 
BRANCH  31  32
ATOM     32  C   UNL A   1      38.154  30.165  29.814  1.00  0.00     0.031 A 
ATOM     33  C   UNL A   1      39.220  29.278  29.240  1.00  0.00     0.074 A 
ATOM     34  C   UNL A   1      38.296  30.702  31.037  1.00  0.00     0.049 A 
ATOM     35  N   UNL A   1      40.290  28.786  29.808  1.00  0.00    -0.248 NA
ATOM     36  C   UNL A   1      39.061  28.903  27.825  1.00  0.00     0.031 C 
ATOM     37  C   UNL A   1      37.381  31.665  31.646  1.00  0.00     0.029 A 
ATOM     38  N   UNL A   1      39.274  30.519  31.979  1.00  0.00    -0.354 N 
ATOM     39  C   UNL A   1      40.918  28.027  28.830  1.00  0.00     0.074 A 
ATOM     40  C   UNL A   1      40.106  28.113  27.636  1.00  0.00     0.031 C 
ATOM     41  C   UNL A   1      37.842  31.992  32.863  1.00  0.00     0.029 A 
ATOM     42  C   UNL A   1      39.056  31.224  33.136  1.00  0.00     0.049 A 
ATOM     43  H   UNL A   1      40.056  29.938  31.840  1.00  0.00     0.167 HD
ATOM     44  C   UNL A   1      42.069  27.321  28.925  1.00  0.00     0.037 A 
ATOM     45  C   UNL A   1      39.746  31.219  34.290  1.00  0.00     0.037 A 
ATOM     46  C   UNL A   1      42.869  27.247  30.118  1.00  0.00     0.049 A 
ATOM     47  C   UNL A   1      40.959  30.336  34.411  1.00  0.00     0.074 A 
ATOM     48  C   UNL A   1      44.041  26.546  30.335  1.00  0.00     0.029 A 
ATOM     49  N   UNL A   1      42.571  27.905  31.304  1.00  0.00    -0.354 N 
ATOM     50  N   UNL A   1      41.526  29.579  33.502  1.00  0.00    -0.248 NA
ATOM     51  C   UNL A   1      41.619  30.296  35.723  1.00  0.00     0.031 C 
ATOM     52  C   UNL A   1      44.429  26.746  31.665  1.00  0.00     0.029 A 
ATOM     53  C   UNL A   1      43.524  27.607  32.265  1.00  0.00     0.049 A 
ATOM     54  H   UNL A   1      41.796  28.496  31.442  1.00  0.00     0.167 HD
ATOM     55  C   UNL A   1      42.619  28.989  34.123  1.00  0.00     0.074 A 
ATOM     56  C   UNL A   1      42.641  29.485  35.485  1.00  0.00     0.031 C 
ATOM     57  C   UNL A   1      43.524  28.117  33.613  1.00  0.00     0.037 A 
BRANCH  44  58
ATOM     58  C   UNL A   1      42.487  26.532  27.720  1.00  0.00     0.064 A 
ATOM     59  C   UNL A   1      41.976  25.252  27.457  1.00  0.00     0.173 A 
ATOM     60  C   UNL A   1      43.434  27.056  26.828  1.00  0.00     0.173 A 
ATOM     61  F   UNL A   1      41.085  24.697  28.293  1.00  0.00    -0.203 F 
ATOM     62  C   UNL A   1      42.424  24.512  26.366  1.00  0.00     0.198 A 
ATOM     63  C   UNL A   1      43.860  26.324  25.722  1.00  0.00     0.198 A 
ATOM     64  F   UNL A   1      43.956  28.274  27.034  1.00  0.00    -0.203 F 
ATOM     65  F   UNL A   1      41.968  23.267  26.168  1.00  0.00    -0.200 F 
ATOM     66  C   UNL A   1      43.362  25.050  25.498  1.00  0.00     0.200 A 
ATOM     67  F   UNL A   1      44.763  26.849  24.881  1.00  0.00    -0.200 F 
ATOM     68  F   UNL A   1      43.800  24.334  24.453  1.00  0.00    -0.200 F 
ENDBRANCH  44  58
BRANCH  45  69
ATOM     69  C   UNL A   1      39.294  32.061  35.426  1.00  0.00     0.064 A 
ATOM     70  C   UNL A   1      38.481  31.530  36.436  1.00  0.00     0.173 A 
ATOM     71  C   UNL A   1      39.671  33.409  35.529  1.00  0.00     0.173 A 
ATOM     72  F   UNL A   1      38.074  30.255  36.365  1.00  0.00    -0.203 F 
ATOM     73  C   UNL A   1      38.061  32.317  37.507  1.00  0.00     0.198 A 
ATOM     74  C   UNL A   1      39.270  34.186  36.614  1.00  0.00     0.198 A 
ATOM     75  F   UNL A   1      40.442  33.965  34.585  1.00  0.00    -0.203 F 
ATOM     76  F   UNL A   1      37.259  31.793  38.445  1.00  0.00    -0.200 F 
ATOM     77  C   UNL A   1      38.463  33.641  37.600  1.00  0.00     0.200 A 
ATOM     78  F   UNL A   1      39.669  35.463  36.703  1.00  0.00    -0.200 F 
ATOM     79  F   UNL A   1      38.065  34.393  38.635  1.00  0.00    -0.200 F 
ENDBRANCH  45  69
BRANCH  57  80
ATOM     80  C   UNL A   1      44.630  27.671  34.522  1.00  0.00     0.064 A 
ATOM     81  C   UNL A   1      45.822  28.400  34.640  1.00  0.00     0.173 A 
ATOM     82  C   UNL A   1      44.479  26.521  35.311  1.00  0.00     0.173 A 
ATOM     83  F   UNL A   1      46.019  29.498  33.893  1.00  0.00    -0.203 F 
ATOM     84  C   UNL A   1      46.832  27.981  35.501  1.00  0.00     0.198 A 
ATOM     85  C   UNL A   1      45.480  26.120  36.189  1.00  0.00     0.198 A 
ATOM     86  F   UNL A   1      43.354  25.794  35.237  1.00  0.00    -0.203 F 
ATOM     87  F   UNL A   1      47.981  28.669  35.568  1.00  0.00    -0.200 F 
ATOM     88  C   UNL A   1      46.657  26.846  36.280  1.00  0.00     0.200 A 
ATOM     89  F   UNL A   1      45.306  25.030  36.949  1.00  0.00    -0.200 F 
ATOM     90  F   UNL A   1      47.630  26.447  37.112  1.00  0.00    -0.200 F 
ENDBRANCH  57  80
ENDBRANCH  31  32
ENDBRANCH  24  26
ENDBRANCH  23  24
ENDBRANCH  22  23
ENDBRANCH  21  22
ENDBRANCH   1  21
TORSDOF 16
ENDMDL
MODEL 2
REMARK VINA RESULT:     -11.3      4.535      9.652
REMARK SMILES Cc1nc(CSCC(=O)N2CCCC[C@@H]2C(=O)OCCOC(=O)c2ccc(-c3c4nc(c(-c5c(F)c(F)c(F)c(F)c5F)c5ccc([nH]5)c(-c5c(F)c(F)c(F)c(F)c5F)c5nc(c(-c6c(F)c(F)c(F)c(F)c6F)c6ccc3[nH]6)C=C5)C=C4)cc2)cs1
REMARK SMILES IDX 18 1 16 2 17 3 15 4 10 5 11 6 12 7 14 8 13 9 8 10 9 11 7 12
REMARK SMILES IDX 6 13 5 14 4 15 1 16 2 17 3 18 88 19 87 20 19 21 20 22 21 23
REMARK SMILES IDX 22 24 23 25 24 26 25 27 86 28 26 29 85 30 27 31 28 32 29 33
REMARK SMILES IDX 79 34 30 35 84 36 78 37 80 38 31 39 83 40 77 41 76 42 32 44
REMARK SMILES IDX 64 45 44 46 63 47 45 48 48 49 62 50 81 51 46 52 47 53 61 55
REMARK SMILES IDX 82 56 49 57 33 58 34 59 42 60 35 61 36 62 40 63 43 64 37 65
REMARK SMILES IDX 38 66 41 67 39 68 65 69 66 70 74 71 67 72 68 73 72 74 75 75
REMARK SMILES IDX 69 76 70 77 73 78 71 79 50 80 51 81 59 82 52 83 53 84 57 85
REMARK SMILES IDX 60 86 54 87 55 88 58 89 56 90
REMARK H PARENT 80 43 48 54
REMARK Flexibility Score: inf
ROOT
ATOM      1  O   UNL A   1      35.604  21.450  26.242  1.00  0.00    -0.461 OA
ENDROOT
BRANCH   1   2
ATOM      2  C   UNL A   1      35.070  22.678  26.018  1.00  0.00     0.328 C 
ATOM      3  O   UNL A   1      35.685  23.737  26.136  1.00  0.00    -0.250 OA
BRANCH   2   4
ATOM      4  C   UNL A   1      33.593  22.648  25.604  1.00  0.00     0.195 C 
ATOM      5  N   UNL A   1      33.398  22.900  24.171  1.00  0.00    -0.328 N 
ATOM      6  C   UNL A   1      32.045  22.767  23.648  1.00  0.00     0.120 C 
ATOM      7  C   UNL A   1      31.010  23.450  24.551  1.00  0.00     0.022 C 
ATOM      8  C   UNL A   1      32.596  23.378  26.494  1.00  0.00     0.037 C 
ATOM      9  C   UNL A   1      31.178  23.051  26.017  1.00  0.00     0.005 C 
BRANCH   5  10
ATOM     10  C   UNL A   1      34.306  23.706  23.489  1.00  0.00     0.233 C 
ATOM     11  O   UNL A   1      35.158  23.231  22.749  1.00  0.00    -0.274 OA
BRANCH  10  12
ATOM     12  C   UNL A   1      33.990  25.192  23.675  1.00  0.00     0.170 C 
BRANCH  12  13
ATOM     13  S   UNL A   1      33.054  25.956  22.314  1.00  0.00    -0.146 SA
BRANCH  13  14
ATOM     14  C   UNL A   1      33.651  27.679  22.431  1.00  0.00     0.127 C 
BRANCH  14  15
ATOM     15  C   UNL A   1      33.128  28.366  23.651  1.00  0.00     0.061 A 
ATOM     16  C   UNL A   1      34.005  29.358  27.046  1.00  0.00     0.079 C 
ATOM     17  C   UNL A   1      33.375  29.126  25.720  1.00  0.00     0.090 A 
ATOM     18  N   UNL A   1      33.977  28.498  24.739  1.00  0.00    -0.246 NA
ATOM     19  S   UNL A   1      31.782  29.662  25.380  1.00  0.00    -0.127 S 
ATOM     20  C   UNL A   1      31.897  28.974  23.812  1.00  0.00     0.091 A 
ENDBRANCH  14  15
ENDBRANCH  13  14
ENDBRANCH  12  13
ENDBRANCH  10  12
ENDBRANCH   5  10
ENDBRANCH   2   4
ENDBRANCH   1   2
BRANCH   1  21
ATOM     21  C   UNL A   1      35.934  20.682  25.067  1.00  0.00     0.274 C 
BRANCH  21  22
ATOM     22  C   UNL A   1      37.429  20.359  24.966  1.00  0.00     0.275 C 
BRANCH  22  23
ATOM     23  O   UNL A   1      38.265  21.499  25.249  1.00  0.00    -0.458 OA
BRANCH  23  24
ATOM     24  C   UNL A   1      39.284  21.256  26.101  1.00  0.00     0.338 C 
ATOM     25  O   UNL A   1      39.857  20.183  26.277  1.00  0.00    -0.246 OA
BRANCH  24  26
ATOM     26  C   UNL A   1      39.775  22.500  26.711  1.00  0.00     0.060 A 
ATOM     27  C   UNL A   1      39.246  23.701  26.226  1.00  0.00     0.016 A 
ATOM     28  C   UNL A   1      40.811  22.513  27.645  1.00  0.00     0.016 A 
ATOM     29  C   UNL A   1      39.758  24.920  26.637  1.00  0.00     0.010 A 
ATOM     30  C   UNL A   1      41.347  23.742  28.045  1.00  0.00     0.010 A 
ATOM     31  C   UNL A   1      40.843  24.944  27.517  1.00  0.00    -0.014 A 
BRANCH  31  32
ATOM     32  C   UNL A   1      41.548  26.226  27.723  1.00  0.00     0.031 A 
ATOM     33  C   UNL A   1      40.863  27.304  28.511  1.00  0.00     0.074 A 
ATOM     34  C   UNL A   1      42.812  26.387  27.298  1.00  0.00     0.049 A 
ATOM     35  N   UNL A   1      41.255  28.523  28.770  1.00  0.00    -0.248 NA
ATOM     36  C   UNL A   1      39.558  26.952  29.095  1.00  0.00     0.031 C 
ATOM     37  C   UNL A   1      43.612  25.365  26.626  1.00  0.00     0.029 A 
ATOM     38  N   UNL A   1      43.645  27.471  27.382  1.00  0.00    -0.354 N 
ATOM     39  C   UNL A   1      40.239  29.091  29.527  1.00  0.00     0.074 A 
ATOM     40  C   UNL A   1      39.207  28.088  29.676  1.00  0.00     0.031 C 
ATOM     41  C   UNL A   1      44.827  25.871  26.359  1.00  0.00     0.029 A 
ATOM     42  C   UNL A   1      44.869  27.265  26.796  1.00  0.00     0.049 A 
ATOM     43  H   UNL A   1      43.391  28.316  27.818  1.00  0.00     0.167 HD
ATOM     44  C   UNL A   1      40.175  30.339  30.046  1.00  0.00     0.037 A 
ATOM     45  C   UNL A   1      45.890  28.121  26.612  1.00  0.00     0.037 A 
ATOM     46  C   UNL A   1      41.211  31.326  29.893  1.00  0.00     0.049 A 
ATOM     47  C   UNL A   1      45.750  29.539  27.097  1.00  0.00     0.074 A 
ATOM     48  C   UNL A   1      41.244  32.628  30.358  1.00  0.00     0.029 A 
ATOM     49  N   UNL A   1      42.404  31.112  29.216  1.00  0.00    -0.354 N 
ATOM     50  N   UNL A   1      44.768  30.091  27.769  1.00  0.00    -0.248 NA
ATOM     51  C   UNL A   1      46.855  30.456  26.786  1.00  0.00     0.031 C 
ATOM     52  C   UNL A   1      42.439  33.215  29.926  1.00  0.00     0.029 A 
ATOM     53  C   UNL A   1      43.171  32.265  29.229  1.00  0.00     0.049 A 
ATOM     54  H   UNL A   1      42.666  30.265  28.788  1.00  0.00     0.167 HD
ATOM     55  C   UNL A   1      45.143  31.411  27.979  1.00  0.00     0.074 A 
ATOM     56  C   UNL A   1      46.448  31.574  27.370  1.00  0.00     0.031 C 
ATOM     57  C   UNL A   1      44.469  32.400  28.618  1.00  0.00     0.037 A 
BRANCH  44  58
ATOM     58  C   UNL A   1      38.918  30.712  30.773  1.00  0.00     0.064 A 
ATOM     59  C   UNL A   1      37.804  31.243  30.106  1.00  0.00     0.173 A 
ATOM     60  C   UNL A   1      38.837  30.559  32.165  1.00  0.00     0.173 A 
ATOM     61  F   UNL A   1      37.839  31.431  28.778  1.00  0.00    -0.203 F 
ATOM     62  C   UNL A   1      36.670  31.640  30.810  1.00  0.00     0.198 A 
ATOM     63  C   UNL A   1      37.691  30.932  32.863  1.00  0.00     0.198 A 
ATOM     64  F   UNL A   1      39.874  30.058  32.852  1.00  0.00    -0.203 F 
ATOM     65  F   UNL A   1      35.640  32.202  30.159  1.00  0.00    -0.200 F 
ATOM     66  C   UNL A   1      36.612  31.481  32.186  1.00  0.00     0.200 A 
ATOM     67  F   UNL A   1      37.636  30.772  34.193  1.00  0.00    -0.200 F 
ATOM     68  F   UNL A   1      35.524  31.872  32.864  1.00  0.00    -0.200 F 
ENDBRANCH  44  58
BRANCH  45  69
ATOM     69  C   UNL A   1      47.121  27.665  25.920  1.00  0.00     0.064 A 
ATOM     70  C   UNL A   1      48.208  27.157  26.645  1.00  0.00     0.173 A 
ATOM     71  C   UNL A   1      47.233  27.716  24.522  1.00  0.00     0.173 A 
ATOM     72  F   UNL A   1      48.156  27.113  27.983  1.00  0.00    -0.203 F 
ATOM     73  C   UNL A   1      49.362  26.720  25.997  1.00  0.00     0.198 A 
ATOM     74  C   UNL A   1      48.379  27.256  23.876  1.00  0.00     0.198 A 
ATOM     75  F   UNL A   1      46.224  28.199  23.784  1.00  0.00    -0.203 F 
ATOM     76  F   UNL A   1      50.399  26.267  26.715  1.00  0.00    -0.200 F 
ATOM     77  C   UNL A   1      49.443  26.762  24.613  1.00  0.00     0.200 A 
ATOM     78  F   UNL A   1      48.448  27.290  22.537  1.00  0.00    -0.200 F 
ATOM     79  F   UNL A   1      50.549  26.333  23.992  1.00  0.00    -0.200 F 
ENDBRANCH  45  69
BRANCH  57  80
ATOM     80  C   UNL A   1      45.147  33.734  28.719  1.00  0.00     0.064 A 
ATOM     81  C   UNL A   1      46.027  34.033  29.769  1.00  0.00     0.173 A 
ATOM     82  C   UNL A   1      44.941  34.710  27.733  1.00  0.00     0.173 A 
ATOM     83  F   UNL A   1      46.242  33.136  30.745  1.00  0.00    -0.203 F 
ATOM     84  C   UNL A   1      46.661  35.270  29.839  1.00  0.00     0.198 A 
ATOM     85  C   UNL A   1      45.597  35.935  27.792  1.00  0.00     0.198 A 
ATOM     86  F   UNL A   1      44.113  34.468  26.705  1.00  0.00    -0.203 F 
ATOM     87  F   UNL A   1      47.465  35.551  30.874  1.00  0.00    -0.200 F 
ATOM     88  C   UNL A   1      46.451  36.217  28.847  1.00  0.00     0.200 A 
ATOM     89  F   UNL A   1      45.402  36.845  26.827  1.00  0.00    -0.200 F 
ATOM     90  F   UNL A   1      47.066  37.406  28.914  1.00  0.00    -0.200 F 
ENDBRANCH  57  80
ENDBRANCH  31  32
ENDBRANCH  24  26
ENDBRANCH  23  24
ENDBRANCH  22  23
ENDBRANCH  21  22
ENDBRANCH   1  21
TORSDOF 16
ENDMDL
MODEL 3
REMARK VINA RESULT:     -11.2      1.972      8.309
REMARK SMILES Cc1nc(CSCC(=O)N2CCCC[C@@H]2C(=O)OCCOC(=O)c2ccc(-c3c4nc(c(-c5c(F)c(F)c(F)c(F)c5F)c5ccc([nH]5)c(-c5c(F)c(F)c(F)c(F)c5F)c5nc(c(-c6c(F)c(F)c(F)c(F)c6F)c6ccc3[nH]6)C=C5)C=C4)cc2)cs1
REMARK SMILES IDX 18 1 16 2 17 3 15 4 10 5 11 6 12 7 14 8 13 9 8 10 9 11 7 12
REMARK SMILES IDX 6 13 5 14 4 15 1 16 2 17 3 18 88 19 87 20 19 21 20 22 21 23
REMARK SMILES IDX 22 24 23 25 24 26 25 27 86 28 26 29 85 30 27 31 28 32 29 33
REMARK SMILES IDX 79 34 30 35 84 36 78 37 80 38 31 39 83 40 77 41 76 42 32 44
REMARK SMILES IDX 64 45 44 46 63 47 45 48 48 49 62 50 81 51 46 52 47 53 61 55
REMARK SMILES IDX 82 56 49 57 33 58 34 59 42 60 35 61 36 62 40 63 43 64 37 65
REMARK SMILES IDX 38 66 41 67 39 68 65 69 66 70 74 71 67 72 68 73 72 74 75 75
REMARK SMILES IDX 69 76 70 77 73 78 71 79 50 80 51 81 59 82 52 83 53 84 57 85
REMARK SMILES IDX 60 86 54 87 55 88 58 89 56 90
REMARK H PARENT 80 43 48 54
REMARK Flexibility Score: inf
ROOT
ATOM      1  O   UNL A   1      32.504  30.419  27.214  1.00  0.00    -0.461 OA
ENDROOT
BRANCH   1   2
ATOM      2  C   UNL A   1      33.190  29.533  26.447  1.00  0.00     0.328 C 
ATOM      3  O   UNL A   1      34.300  29.083  26.726  1.00  0.00    -0.250 OA
BRANCH   2   4
ATOM      4  C   UNL A   1      32.462  29.133  25.157  1.00  0.00     0.195 C 
ATOM      5  N   UNL A   1      31.403  28.141  25.385  1.00  0.00    -0.328 N 
ATOM      6  C   UNL A   1      30.564  27.788  24.249  1.00  0.00     0.120 C 
ATOM      7  C   UNL A   1      31.389  27.542  22.979  1.00  0.00     0.022 C 
ATOM      8  C   UNL A   1      33.311  28.847  23.926  1.00  0.00     0.037 C 
ATOM      9  C   UNL A   1      32.386  28.671  22.719  1.00  0.00     0.005 C 
BRANCH   5  10
ATOM     10  C   UNL A   1      31.532  27.235  26.435  1.00  0.00     0.233 C 
ATOM     11  O   UNL A   1      31.032  27.447  27.532  1.00  0.00    -0.274 OA
BRANCH  10  12
ATOM     12  C   UNL A   1      32.216  25.943  25.982  1.00  0.00     0.170 C 
BRANCH  12  13
ATOM     13  S   UNL A   1      31.208  24.437  26.156  1.00  0.00    -0.146 SA
BRANCH  13  14
ATOM     14  C   UNL A   1      32.449  23.290  26.849  1.00  0.00     0.127 C 
BRANCH  14  15
ATOM     15  C   UNL A   1      33.649  23.171  25.968  1.00  0.00     0.061 A 
ATOM     16  C   UNL A   1      37.253  23.702  25.855  1.00  0.00     0.079 C 
ATOM     17  C   UNL A   1      35.831  23.350  25.607  1.00  0.00     0.090 A 
ATOM     18  N   UNL A   1      34.884  23.516  26.498  1.00  0.00    -0.246 NA
ATOM     19  S   UNL A   1      35.319  22.705  24.103  1.00  0.00    -0.127 S 
ATOM     20  C   UNL A   1      33.702  22.673  24.679  1.00  0.00     0.091 A 
ENDBRANCH  14  15
ENDBRANCH  13  14
ENDBRANCH  12  13
ENDBRANCH  10  12
ENDBRANCH   5  10
ENDBRANCH   2   4
ENDBRANCH   1   2
BRANCH   1  21
ATOM     21  C   UNL A   1      31.761  31.427  26.500  1.00  0.00     0.274 C 
BRANCH  21  22
ATOM     22  C   UNL A   1      31.777  32.789  27.203  1.00  0.00     0.275 C 
BRANCH  22  23
ATOM     23  O   UNL A   1      33.044  33.465  27.079  1.00  0.00    -0.458 OA
BRANCH  23  24
ATOM     24  C   UNL A   1      33.596  33.850  28.249  1.00  0.00     0.338 C 
ATOM     25  O   UNL A   1      33.110  34.619  29.076  1.00  0.00    -0.246 OA
BRANCH  24  26
ATOM     26  C   UNL A   1      34.826  33.095  28.531  1.00  0.00     0.060 A 
ATOM     27  C   UNL A   1      34.678  31.773  28.964  1.00  0.00     0.016 A 
ATOM     28  C   UNL A   1      36.088  33.687  28.493  1.00  0.00     0.016 A 
ATOM     29  C   UNL A   1      35.772  31.040  29.392  1.00  0.00     0.010 A 
ATOM     30  C   UNL A   1      37.193  32.957  28.946  1.00  0.00     0.010 A 
ATOM     31  C   UNL A   1      37.031  31.645  29.426  1.00  0.00    -0.014 A 
BRANCH  31  32
ATOM     32  C   UNL A   1      38.122  30.951  30.140  1.00  0.00     0.031 A 
ATOM     33  C   UNL A   1      38.323  31.239  31.599  1.00  0.00     0.074 A 
ATOM     34  C   UNL A   1      38.856  30.013  29.520  1.00  0.00     0.049 A 
ATOM     35  N   UNL A   1      39.244  30.799  32.415  1.00  0.00    -0.248 NA
ATOM     36  C   UNL A   1      37.340  32.139  32.225  1.00  0.00     0.031 C 
ATOM     37  C   UNL A   1      38.669  29.572  28.139  1.00  0.00     0.029 A 
ATOM     38  N   UNL A   1      39.899  29.253  29.981  1.00  0.00    -0.354 N 
ATOM     39  C   UNL A   1      38.967  31.386  33.643  1.00  0.00     0.074 A 
ATOM     40  C   UNL A   1      37.799  32.220  33.464  1.00  0.00     0.031 C 
ATOM     41  C   UNL A   1      39.569  28.615  27.863  1.00  0.00     0.029 A 
ATOM     42  C   UNL A   1      40.424  28.414  29.031  1.00  0.00     0.049 A 
ATOM     43  H   UNL A   1      40.240  29.306  30.903  1.00  0.00     0.167 HD
ATOM     44  C   UNL A   1      39.632  31.240  34.813  1.00  0.00     0.037 A 
ATOM     45  C   UNL A   1      41.494  27.601  29.098  1.00  0.00     0.037 A 
ATOM     46  C   UNL A   1      40.791  30.403  34.979  1.00  0.00     0.049 A 
ATOM     47  C   UNL A   1      42.287  27.542  30.375  1.00  0.00     0.074 A 
ATOM     48  C   UNL A   1      41.556  30.195  36.111  1.00  0.00     0.029 A 
ATOM     49  N   UNL A   1      41.351  29.631  33.969  1.00  0.00    -0.354 N 
ATOM     50  N   UNL A   1      42.055  28.135  31.522  1.00  0.00    -0.248 NA
ATOM     51  C   UNL A   1      43.500  26.713  30.362  1.00  0.00     0.031 C 
ATOM     52  C   UNL A   1      42.605  29.331  35.776  1.00  0.00     0.029 A 
ATOM     53  C   UNL A   1      42.467  28.965  34.447  1.00  0.00     0.049 A 
ATOM     54  H   UNL A   1      41.006  29.568  33.050  1.00  0.00     0.167 HD
ATOM     55  C   UNL A   1      43.077  27.736  32.373  1.00  0.00     0.074 A 
ATOM     56  C   UNL A   1      43.927  26.841  31.611  1.00  0.00     0.031 C 
ATOM     57  C   UNL A   1      43.294  28.077  33.667  1.00  0.00     0.037 A 
BRANCH  44  58
ATOM     58  C   UNL A   1      39.149  32.050  35.978  1.00  0.00     0.064 A 
ATOM     59  C   UNL A   1      39.599  33.358  36.211  1.00  0.00     0.173 A 
ATOM     60  C   UNL A   1      38.238  31.498  36.892  1.00  0.00     0.173 A 
ATOM     61  F   UNL A   1      40.488  33.924  35.379  1.00  0.00    -0.203 F 
ATOM     62  C   UNL A   1      39.184  34.070  37.334  1.00  0.00     0.198 A 
ATOM     63  C   UNL A   1      37.804  32.222  37.999  1.00  0.00     0.198 A 
ATOM     64  F   UNL A   1      37.778  30.250  36.718  1.00  0.00    -0.203 F 
ATOM     65  F   UNL A   1      39.674  35.295  37.569  1.00  0.00    -0.200 F 
ATOM     66  C   UNL A   1      38.284  33.503  38.224  1.00  0.00     0.200 A 
ATOM     67  F   UNL A   1      36.930  31.675  38.856  1.00  0.00    -0.200 F 
ATOM     68  F   UNL A   1      37.893  34.185  39.309  1.00  0.00    -0.200 F 
ENDBRANCH  44  58
BRANCH  45  69
ATOM     69  C   UNL A   1      41.885  26.796  27.913  1.00  0.00     0.064 A 
ATOM     70  C   UNL A   1      42.837  27.273  27.002  1.00  0.00     0.173 A 
ATOM     71  C   UNL A   1      41.325  25.533  27.673  1.00  0.00     0.173 A 
ATOM     72  F   UNL A   1      43.381  28.486  27.177  1.00  0.00    -0.203 F 
ATOM     73  C   UNL A   1      43.213  26.516  25.894  1.00  0.00     0.198 A 
ATOM     74  C   UNL A   1      41.720  24.768  26.577  1.00  0.00     0.198 A 
ATOM     75  F   UNL A   1      40.405  25.035  28.511  1.00  0.00    -0.203 F 
ATOM     76  F   UNL A   1      44.104  27.008  25.021  1.00  0.00    -0.200 F 
ATOM     77  C   UNL A   1      42.660  25.261  25.687  1.00  0.00     0.200 A 
ATOM     78  F   UNL A   1      41.189  23.551  26.387  1.00  0.00    -0.200 F 
ATOM     79  F   UNL A   1      43.028  24.532  24.626  1.00  0.00    -0.200 F 
ENDBRANCH  45  69
BRANCH  57  80
ATOM     80  C   UNL A   1      44.477  27.455  34.349  1.00  0.00     0.064 A 
ATOM     81  C   UNL A   1      44.388  26.206  34.978  1.00  0.00     0.173 A 
ATOM     82  C   UNL A   1      45.721  28.102  34.339  1.00  0.00     0.173 A 
ATOM     83  F   UNL A   1      43.213  25.557  35.028  1.00  0.00    -0.203 F 
ATOM     84  C   UNL A   1      45.499  25.635  35.592  1.00  0.00     0.198 A 
ATOM     85  C   UNL A   1      46.836  27.517  34.931  1.00  0.00     0.198 A 
ATOM     86  F   UNL A   1      45.857  29.297  33.744  1.00  0.00    -0.203 F 
ATOM     87  F   UNL A   1      45.382  24.459  36.225  1.00  0.00    -0.200 F 
ATOM     88  C   UNL A   1      46.723  26.287  35.562  1.00  0.00     0.200 A 
ATOM     89  F   UNL A   1      48.020  28.143  34.891  1.00  0.00    -0.200 F 
ATOM     90  F   UNL A   1      47.793  25.734  36.149  1.00  0.00    -0.200 F 
ENDBRANCH  57  80
ENDBRANCH  31  32
ENDBRANCH  24  26
ENDBRANCH  23  24
ENDBRANCH  22  23
ENDBRANCH  21  22
ENDBRANCH   1  21
TORSDOF 16
ENDMDL
