MODEL 1
REMARK VINA RESULT:     -11.4      0.000      0.000
REMARK SMILES CC[NH2+][C@]1(C(=O)OCCOC(=O)c2ccc(-c3c4nc(c(-c5c(F)c(F)c(F)c(F)c5F)c5ccc([nH]5)c(-c5c(F)c(F)c(F)c(F)c5F)c5nc(c(-c6c(F)c(F)c(F)c(F)c6F)c6ccc3[nH]6)C=C5)C=C4)cc2)CCC[C@@H]1CC[N@H+]1C[C@H](C)OC[C@@H]1C
REMARK SMILES IDX 8 1 7 2 5 3 6 4 4 5 76 6 79 7 77 8 78 9 3 10 2 13 1 14 80 15
REMARK SMILES IDX 81 16 82 17 83 18 88 19 84 21 87 22 89 23 86 24 85 25 9 26
REMARK SMILES IDX 10 27 11 28 12 29 13 30 14 31 75 32 15 33 74 34 16 35 17 36
REMARK SMILES IDX 18 37 68 38 19 39 73 40 67 41 69 42 20 43 72 44 66 45 65 46
REMARK SMILES IDX 21 48 53 49 33 50 52 51 34 52 37 53 51 54 70 55 35 56 36 57
REMARK SMILES IDX 50 59 71 60 38 61 22 62 23 63 31 64 24 65 25 66 29 67 32 68
REMARK SMILES IDX 26 69 27 70 30 71 28 72 54 73 55 74 63 75 56 76 57 77 61 78
REMARK SMILES IDX 64 79 58 80 59 81 62 82 60 83 39 84 40 85 48 86 41 87 42 88
REMARK SMILES IDX 46 89 49 90 43 91 44 92 47 93 45 94
REMARK H PARENT 3 11 3 12 82 20 69 47 37 58
REMARK Flexibility Score: inf
ROOT
ATOM      1  C   UNL A   1      31.776  29.083  26.957  1.00  0.00     0.274 C 
ENDROOT
BRANCH   1   2
ATOM      2  O   UNL A   1      31.411  28.315  25.805  1.00  0.00    -0.457 OA
BRANCH   2   3
ATOM      3  C   UNL A   1      31.175  26.986  25.990  1.00  0.00     0.368 C 
ATOM      4  O   UNL A   1      30.601  26.513  26.965  1.00  0.00    -0.245 OA
BRANCH   3   5
ATOM      5  C   UNL A   1      31.581  26.178  24.725  1.00  0.00     0.197 C 
ATOM      6  C   UNL A   1      31.327  24.666  24.996  1.00  0.00     0.081 C 
ATOM      7  C   UNL A   1      30.594  26.410  23.529  1.00  0.00     0.068 C 
ATOM      8  C   UNL A   1      31.194  24.035  23.629  1.00  0.00     0.008 C 
ATOM      9  C   UNL A   1      30.292  25.021  22.916  1.00  0.00     0.011 C 
BRANCH   5  10
ATOM     10  N   UNL A   1      33.028  26.331  24.403  1.00  0.00    -0.332 N 
ATOM     11  H   UNL A   1      33.246  25.701  23.630  1.00  0.00     0.347 HD
ATOM     12  H   UNL A   1      33.162  27.318  24.183  1.00  0.00     0.347 HD
BRANCH  10  13
ATOM     13  C   UNL A   1      33.957  26.037  25.496  1.00  0.00     0.257 C 
ATOM     14  C   UNL A   1      34.731  24.742  25.275  1.00  0.00     0.071 C 
ENDBRANCH  10  13
ENDBRANCH   5  10
BRANCH   7  15
ATOM     15  C   UNL A   1      30.841  27.509  22.466  1.00  0.00     0.072 C 
BRANCH  15  16
ATOM     16  C   UNL A   1      30.717  29.014  22.795  1.00  0.00     0.263 C 
BRANCH  16  17
ATOM     17  N   UNL A   1      29.427  29.426  23.366  1.00  0.00    -0.329 N 
ATOM     18  C   UNL A   1      29.407  30.871  23.717  1.00  0.00     0.294 C 
ATOM     19  C   UNL A   1      28.277  29.122  22.472  1.00  0.00     0.207 C 
ATOM     20  H   UNL A   1      29.325  28.874  24.217  1.00  0.00     0.348 HD
ATOM     21  C   UNL A   1      29.123  31.843  22.546  1.00  0.00     0.170 C 
ATOM     22  C   UNL A   1      28.089  30.128  21.323  1.00  0.00     0.225 C 
ATOM     23  C   UNL A   1      26.999  28.991  23.312  1.00  0.00     0.078 C 
ATOM     24  O   UNL A   1      27.950  31.460  21.815  1.00  0.00    -0.366 OA
ATOM     25  C   UNL A   1      28.885  33.256  23.060  1.00  0.00     0.045 C 
ENDBRANCH  16  17
ENDBRANCH  15  16
ENDBRANCH   7  15
ENDBRANCH   3   5
ENDBRANCH   2   3
ENDBRANCH   1   2
BRANCH   1  26
ATOM     26  C   UNL A   1      31.799  30.563  26.563  1.00  0.00     0.275 C 
BRANCH  26  27
ATOM     27  O   UNL A   1      33.155  31.022  26.364  1.00  0.00    -0.458 OA
BRANCH  27  28
ATOM     28  C   UNL A   1      33.603  31.892  27.307  1.00  0.00     0.338 C 
ATOM     29  O   UNL A   1      33.014  32.862  27.757  1.00  0.00    -0.246 OA
BRANCH  28  30
ATOM     30  C   UNL A   1      34.933  31.481  27.797  1.00  0.00     0.060 A 
ATOM     31  C   UNL A   1      35.119  30.145  28.158  1.00  0.00     0.016 A 
ATOM     32  C   UNL A   1      35.952  32.411  28.013  1.00  0.00     0.016 A 
ATOM     33  C   UNL A   1      36.316  29.723  28.724  1.00  0.00     0.010 A 
ATOM     34  C   UNL A   1      37.151  31.995  28.608  1.00  0.00     0.010 A 
ATOM     35  C   UNL A   1      37.329  30.651  28.977  1.00  0.00    -0.014 A 
BRANCH  35  36
ATOM     36  C   UNL A   1      38.521  30.198  29.728  1.00  0.00     0.031 A 
ATOM     37  C   UNL A   1      38.731  30.689  31.130  1.00  0.00     0.074 A 
ATOM     38  C   UNL A   1      39.338  29.270  29.200  1.00  0.00     0.049 A 
ATOM     39  N   UNL A   1      39.690  30.406  31.973  1.00  0.00    -0.248 NA
ATOM     40  C   UNL A   1      37.711  31.607  31.662  1.00  0.00     0.031 C 
ATOM     41  C   UNL A   1      39.173  28.655  27.885  1.00  0.00     0.029 A 
ATOM     42  N   UNL A   1      40.459  28.672  29.716  1.00  0.00    -0.354 N 
ATOM     43  C   UNL A   1      39.383  31.095  33.138  1.00  0.00     0.074 A 
ATOM     44  C   UNL A   1      38.162  31.830  32.888  1.00  0.00     0.031 C 
ATOM     45  C   UNL A   1      40.158  27.761  27.696  1.00  0.00     0.029 A 
ATOM     46  C   UNL A   1      41.043  27.772  28.860  1.00  0.00     0.049 A 
ATOM     47  H   UNL A   1      40.811  28.869  30.614  1.00  0.00     0.167 HD
ATOM     48  C   UNL A   1      40.060  31.109  34.310  1.00  0.00     0.037 A 
ATOM     49  C   UNL A   1      42.175  27.057  28.997  1.00  0.00     0.037 A 
ATOM     50  C   UNL A   1      41.291  30.403  34.543  1.00  0.00     0.049 A 
ATOM     51  C   UNL A   1      42.972  27.186  30.270  1.00  0.00     0.074 A 
ATOM     52  C   UNL A   1      42.097  30.414  35.668  1.00  0.00     0.029 A 
ATOM     53  N   UNL A   1      41.894  29.554  33.628  1.00  0.00    -0.354 N 
ATOM     54  N   UNL A   1      42.700  27.875  31.352  1.00  0.00    -0.248 NA
ATOM     55  C   UNL A   1      44.237  26.441  30.336  1.00  0.00     0.031 C 
ATOM     56  C   UNL A   1      43.207  29.598  35.419  1.00  0.00     0.029 A 
ATOM     57  C   UNL A   1      43.071  29.047  34.156  1.00  0.00     0.049 A 
ATOM     58  H   UNL A   1      41.540  29.344  32.733  1.00  0.00     0.167 HD
ATOM     59  C   UNL A   1      43.745  27.631  32.233  1.00  0.00     0.074 A 
ATOM     60  C   UNL A   1      44.647  26.715  31.567  1.00  0.00     0.031 C 
ATOM     61  C   UNL A   1      43.947  28.126  33.478  1.00  0.00     0.037 A 
BRANCH  48  62
ATOM     62  C   UNL A   1      39.495  31.945  35.418  1.00  0.00     0.064 A 
ATOM     63  C   UNL A   1      39.794  33.311  35.527  1.00  0.00     0.173 A 
ATOM     64  C   UNL A   1      38.628  31.381  36.365  1.00  0.00     0.173 A 
ATOM     65  F   UNL A   1      40.632  33.891  34.656  1.00  0.00    -0.203 F 
ATOM     66  C   UNL A   1      39.256  34.079  36.557  1.00  0.00     0.198 A 
ATOM     67  C   UNL A   1      38.078  32.156  37.381  1.00  0.00     0.198 A 
ATOM     68  F   UNL A   1      38.314  30.078  36.302  1.00  0.00    -0.203 F 
ATOM     69  F   UNL A   1      39.582  35.374  36.665  1.00  0.00    -0.200 F 
ATOM     70  C   UNL A   1      38.395  33.503  37.479  1.00  0.00     0.200 A 
ATOM     71  F   UNL A   1      37.240  31.600  38.267  1.00  0.00    -0.200 F 
ATOM     72  F   UNL A   1      37.876  34.245  38.468  1.00  0.00    -0.200 F 
ENDBRANCH  48  62
BRANCH  49  73
ATOM     73  C   UNL A   1      42.651  26.185  27.892  1.00  0.00     0.064 A 
ATOM     74  C   UNL A   1      43.533  26.664  26.914  1.00  0.00     0.173 A 
ATOM     75  C   UNL A   1      42.196  24.863  27.768  1.00  0.00     0.173 A 
ATOM     76  F   UNL A   1      43.975  27.930  26.974  1.00  0.00    -0.203 F 
ATOM     77  C   UNL A   1      43.924  25.864  25.842  1.00  0.00     0.198 A 
ATOM     78  C   UNL A   1      42.611  24.054  26.713  1.00  0.00     0.198 A 
ATOM     79  F   UNL A   1      41.348  24.356  28.674  1.00  0.00    -0.203 F 
ATOM     80  F   UNL A   1      44.723  26.365  24.892  1.00  0.00    -0.200 F 
ATOM     81  C   UNL A   1      43.465  24.559  25.744  1.00  0.00     0.200 A 
ATOM     82  F   UNL A   1      42.173  22.791  26.628  1.00  0.00    -0.200 F 
ATOM     83  F   UNL A   1      43.837  23.791  24.711  1.00  0.00    -0.200 F 
ENDBRANCH  49  73
BRANCH  61  84
ATOM     84  C   UNL A   1      45.173  27.663  34.208  1.00  0.00     0.064 A 
ATOM     85  C   UNL A   1      46.382  28.370  34.132  1.00  0.00     0.173 A 
ATOM     86  C   UNL A   1      45.128  26.517  35.014  1.00  0.00     0.173 A 
ATOM     87  F   UNL A   1      46.477  29.463  33.361  1.00  0.00    -0.203 F 
ATOM     88  C   UNL A   1      47.511  27.929  34.816  1.00  0.00     0.198 A 
ATOM     89  C   UNL A   1      46.253  26.093  35.718  1.00  0.00     0.198 A 
ATOM     90  F   UNL A   1      43.993  25.810  35.123  1.00  0.00    -0.203 F 
ATOM     91  F   UNL A   1      48.669  28.591  34.692  1.00  0.00    -0.200 F 
ATOM     92  C   UNL A   1      47.444  26.795  35.612  1.00  0.00     0.200 A 
ATOM     93  F   UNL A   1      46.184  25.003  36.494  1.00  0.00    -0.200 F 
ATOM     94  F   UNL A   1      48.532  26.373  36.272  1.00  0.00    -0.200 F 
ENDBRANCH  61  84
ENDBRANCH  35  36
ENDBRANCH  28  30
ENDBRANCH  27  28
ENDBRANCH  26  27
ENDBRANCH   1  26
TORSDOF 16
ENDMDL
MODEL 2
REMARK VINA RESULT:     -11.3      0.655      7.509
REMARK SMILES CC[NH2+][C@]1(C(=O)OCCOC(=O)c2ccc(-c3c4nc(c(-c5c(F)c(F)c(F)c(F)c5F)c5ccc([nH]5)c(-c5c(F)c(F)c(F)c(F)c5F)c5nc(c(-c6c(F)c(F)c(F)c(F)c6F)c6ccc3[nH]6)C=C5)C=C4)cc2)CCC[C@@H]1CC[N@H+]1C[C@H](C)OC[C@@H]1C
REMARK SMILES IDX 8 1 7 2 5 3 6 4 4 5 76 6 79 7 77 8 78 9 3 10 2 13 1 14 80 15
REMARK SMILES IDX 81 16 82 17 83 18 88 19 84 21 87 22 89 23 86 24 85 25 9 26
REMARK SMILES IDX 10 27 11 28 12 29 13 30 14 31 75 32 15 33 74 34 16 35 17 36
REMARK SMILES IDX 18 37 68 38 19 39 73 40 67 41 69 42 20 43 72 44 66 45 65 46
REMARK SMILES IDX 21 48 53 49 33 50 52 51 34 52 37 53 51 54 70 55 35 56 36 57
REMARK SMILES IDX 50 59 71 60 38 61 22 62 23 63 31 64 24 65 25 66 29 67 32 68
REMARK SMILES IDX 26 69 27 70 30 71 28 72 54 73 55 74 63 75 56 76 57 77 61 78
REMARK SMILES IDX 64 79 58 80 59 81 62 82 60 83 39 84 40 85 48 86 41 87 42 88
REMARK SMILES IDX 46 89 49 90 43 91 44 92 47 93 45 94
REMARK H PARENT 3 11 3 12 82 20 69 47 37 58
REMARK Flexibility Score: inf
ROOT
ATOM      1  C   UNL A   1      31.749  28.681  27.140  1.00  0.00     0.274 C 
ENDROOT
BRANCH   1   2
ATOM      2  O   UNL A   1      31.573  27.920  25.939  1.00  0.00    -0.457 OA
BRANCH   2   3
ATOM      3  C   UNL A   1      32.573  27.062  25.592  1.00  0.00     0.368 C 
ATOM      4  O   UNL A   1      33.624  26.935  26.211  1.00  0.00    -0.245 OA
BRANCH   3   5
ATOM      5  C   UNL A   1      32.129  26.157  24.408  1.00  0.00     0.197 C 
ATOM      6  C   UNL A   1      31.615  24.804  24.980  1.00  0.00     0.081 C 
ATOM      7  C   UNL A   1      30.819  26.678  23.721  1.00  0.00     0.068 C 
ATOM      8  C   UNL A   1      30.715  24.236  23.906  1.00  0.00     0.008 C 
ATOM      9  C   UNL A   1      29.903  25.450  23.505  1.00  0.00     0.011 C 
BRANCH   5  10
ATOM     10  N   UNL A   1      33.258  25.845  23.487  1.00  0.00    -0.332 N 
ATOM     11  H   UNL A   1      32.863  25.527  22.602  1.00  0.00     0.347 HD
ATOM     12  H   UNL A   1      33.802  26.705  23.412  1.00  0.00     0.347 HD
BRANCH  10  13
ATOM     13  C   UNL A   1      34.194  24.820  23.953  1.00  0.00     0.257 C 
ATOM     14  C   UNL A   1      34.271  23.624  23.010  1.00  0.00     0.071 C 
ENDBRANCH  10  13
ENDBRANCH   5  10
BRANCH   7  15
ATOM     15  C   UNL A   1      30.860  27.636  22.503  1.00  0.00     0.072 C 
BRANCH  15  16
ATOM     16  C   UNL A   1      30.649  29.159  22.649  1.00  0.00     0.263 C 
BRANCH  16  17
ATOM     17  N   UNL A   1      29.368  29.561  23.245  1.00  0.00    -0.329 N 
ATOM     18  C   UNL A   1      29.367  30.987  23.665  1.00  0.00     0.294 C 
ATOM     19  C   UNL A   1      28.209  29.314  22.344  1.00  0.00     0.207 C 
ATOM     20  H   UNL A   1      29.262  28.970  24.070  1.00  0.00     0.348 HD
ATOM     21  C   UNL A   1      29.092  32.017  22.543  1.00  0.00     0.170 C 
ATOM     22  C   UNL A   1      28.030  30.376  21.245  1.00  0.00     0.225 C 
ATOM     23  C   UNL A   1      26.933  29.160  23.183  1.00  0.00     0.078 C 
ATOM     24  O   UNL A   1      27.910  31.685  21.800  1.00  0.00    -0.366 OA
ATOM     25  C   UNL A   1      28.874  33.408  23.124  1.00  0.00     0.045 C 
ENDBRANCH  16  17
ENDBRANCH  15  16
ENDBRANCH   7  15
ENDBRANCH   3   5
ENDBRANCH   2   3
ENDBRANCH   1   2
BRANCH   1  26
ATOM     26  C   UNL A   1      31.855  30.161  26.761  1.00  0.00     0.275 C 
BRANCH  26  27
ATOM     27  O   UNL A   1      33.226  30.525  26.485  1.00  0.00    -0.458 OA
BRANCH  27  28
ATOM     28  C   UNL A   1      33.724  31.504  27.285  1.00  0.00     0.338 C 
ATOM     29  O   UNL A   1      33.209  32.579  27.546  1.00  0.00    -0.246 OA
BRANCH  28  30
ATOM     30  C   UNL A   1      35.006  31.080  27.880  1.00  0.00     0.060 A 
ATOM     31  C   UNL A   1      35.087  29.798  28.428  1.00  0.00     0.016 A 
ATOM     32  C   UNL A   1      36.081  31.962  28.007  1.00  0.00     0.016 A 
ATOM     33  C   UNL A   1      36.232  29.382  29.095  1.00  0.00     0.010 A 
ATOM     34  C   UNL A   1      37.229  31.556  28.702  1.00  0.00     0.010 A 
ATOM     35  C   UNL A   1      37.300  30.268  29.259  1.00  0.00    -0.014 A 
BRANCH  35  36
ATOM     36  C   UNL A   1      38.433  29.848  30.113  1.00  0.00     0.031 A 
ATOM     37  C   UNL A   1      39.457  28.904  29.556  1.00  0.00     0.074 A 
ATOM     38  C   UNL A   1      38.601  30.397  31.328  1.00  0.00     0.049 A 
ATOM     39  N   UNL A   1      40.536  28.423  30.118  1.00  0.00    -0.248 NA
ATOM     40  C   UNL A   1      39.249  28.457  28.169  1.00  0.00     0.031 C 
ATOM     41  C   UNL A   1      37.720  31.396  31.929  1.00  0.00     0.029 A 
ATOM     42  N   UNL A   1      39.584  30.204  32.266  1.00  0.00    -0.354 N 
ATOM     43  C   UNL A   1      41.144  27.632  29.154  1.00  0.00     0.074 A 
ATOM     44  C   UNL A   1      40.303  27.676  27.976  1.00  0.00     0.031 C 
ATOM     45  C   UNL A   1      38.202  31.732  33.137  1.00  0.00     0.029 A 
ATOM     46  C   UNL A   1      39.403  30.943  33.409  1.00  0.00     0.049 A 
ATOM     47  H   UNL A   1      40.345  29.594  32.133  1.00  0.00     0.167 HD
ATOM     48  C   UNL A   1      42.301  26.936  29.243  1.00  0.00     0.037 A 
ATOM     49  C   UNL A   1      40.117  30.959  34.550  1.00  0.00     0.037 A 
ATOM     50  C   UNL A   1      43.116  26.869  30.426  1.00  0.00     0.049 A 
ATOM     51  C   UNL A   1      41.336  30.079  34.663  1.00  0.00     0.074 A 
ATOM     52  C   UNL A   1      44.264  26.128  30.646  1.00  0.00     0.029 A 
ATOM     53  N   UNL A   1      42.865  27.574  31.593  1.00  0.00    -0.354 N 
ATOM     54  N   UNL A   1      41.880  29.298  33.763  1.00  0.00    -0.248 NA
ATOM     55  C   UNL A   1      42.034  30.081  35.957  1.00  0.00     0.031 C 
ATOM     56  C   UNL A   1      44.689  26.360  31.960  1.00  0.00     0.029 A 
ATOM     57  C   UNL A   1      43.829  27.276  32.543  1.00  0.00     0.049 A 
ATOM     58  H   UNL A   1      42.112  28.195  31.728  1.00  0.00     0.167 HD
ATOM     59  C   UNL A   1      42.993  28.733  34.370  1.00  0.00     0.074 A 
ATOM     60  C   UNL A   1      43.058  29.276  35.710  1.00  0.00     0.031 C 
ATOM     61  C   UNL A   1      43.880  27.838  33.868  1.00  0.00     0.037 A 
BRANCH  48  62
ATOM     62  C   UNL A   1      42.730  26.162  28.034  1.00  0.00     0.064 A 
ATOM     63  C   UNL A   1      42.314  24.839  27.828  1.00  0.00     0.173 A 
ATOM     64  C   UNL A   1      43.548  26.756  27.062  1.00  0.00     0.173 A 
ATOM     65  F   UNL A   1      41.547  24.222  28.738  1.00  0.00    -0.203 F 
ATOM     66  C   UNL A   1      42.715  24.133  26.696  1.00  0.00     0.198 A 
ATOM     67  C   UNL A   1      43.929  26.054  25.922  1.00  0.00     0.198 A 
ATOM     68  F   UNL A   1      43.972  28.019  27.216  1.00  0.00    -0.203 F 
ATOM     69  F   UNL A   1      42.335  22.858  26.534  1.00  0.00    -0.200 F 
ATOM     70  C   UNL A   1      43.516  24.742  25.743  1.00  0.00     0.200 A 
ATOM     71  F   UNL A   1      44.698  26.646  24.999  1.00  0.00    -0.200 F 
ATOM     72  F   UNL A   1      43.898  24.062  24.652  1.00  0.00    -0.200 F 
ENDBRANCH  48  62
BRANCH  49  73
ATOM     73  C   UNL A   1      39.685  31.804  35.694  1.00  0.00     0.064 A 
ATOM     74  C   UNL A   1      38.670  31.385  36.566  1.00  0.00     0.173 A 
ATOM     75  C   UNL A   1      40.251  33.069  35.912  1.00  0.00     0.173 A 
ATOM     76  F   UNL A   1      38.078  30.195  36.382  1.00  0.00    -0.203 F 
ATOM     77  C   UNL A   1      38.221  32.209  37.596  1.00  0.00     0.198 A 
ATOM     78  C   UNL A   1      39.822  33.879  36.961  1.00  0.00     0.198 A 
ATOM     79  F   UNL A   1      41.222  33.519  35.105  1.00  0.00    -0.203 F 
ATOM     80  F   UNL A   1      37.212  31.808  38.379  1.00  0.00    -0.200 F 
ATOM     81  C   UNL A   1      38.800  33.454  37.795  1.00  0.00     0.200 A 
ATOM     82  F   UNL A   1      40.392  35.076  37.155  1.00  0.00    -0.200 F 
ATOM     83  F   UNL A   1      38.365  34.247  38.783  1.00  0.00    -0.200 F 
ENDBRANCH  49  73
BRANCH  61  84
ATOM     84  C   UNL A   1      45.007  27.417  34.763  1.00  0.00     0.064 A 
ATOM     85  C   UNL A   1      44.901  26.294  35.597  1.00  0.00     0.173 A 
ATOM     86  C   UNL A   1      46.215  28.128  34.764  1.00  0.00     0.173 A 
ATOM     87  F   UNL A   1      43.758  25.593  35.642  1.00  0.00    -0.203 F 
ATOM     88  C   UNL A   1      45.956  25.915  36.421  1.00  0.00     0.198 A 
ATOM     89  C   UNL A   1      47.279  27.730  35.571  1.00  0.00     0.198 A 
ATOM     90  F   UNL A   1      46.368  29.205  33.980  1.00  0.00    -0.203 F 
ATOM     91  F   UNL A   1      45.817  24.867  37.245  1.00  0.00    -0.200 F 
ATOM     92  C   UNL A   1      47.145  26.629  36.403  1.00  0.00     0.200 A 
ATOM     93  F   UNL A   1      48.430  28.414  35.545  1.00  0.00    -0.200 F 
ATOM     94  F   UNL A   1      48.161  26.260  37.196  1.00  0.00    -0.200 F 
ENDBRANCH  61  84
ENDBRANCH  35  36
ENDBRANCH  28  30
ENDBRANCH  27  28
ENDBRANCH  26  27
ENDBRANCH   1  26
TORSDOF 16
ENDMDL
MODEL 3
REMARK VINA RESULT:     -11.1      1.199      3.723
REMARK SMILES CC[NH2+][C@]1(C(=O)OCCOC(=O)c2ccc(-c3c4nc(c(-c5c(F)c(F)c(F)c(F)c5F)c5ccc([nH]5)c(-c5c(F)c(F)c(F)c(F)c5F)c5nc(c(-c6c(F)c(F)c(F)c(F)c6F)c6ccc3[nH]6)C=C5)C=C4)cc2)CCC[C@@H]1CC[N@H+]1C[C@H](C)OC[C@@H]1C
REMARK SMILES IDX 8 1 7 2 5 3 6 4 4 5 76 6 79 7 77 8 78 9 3 10 2 13 1 14 80 15
REMARK SMILES IDX 81 16 82 17 83 18 88 19 84 21 87 22 89 23 86 24 85 25 9 26
REMARK SMILES IDX 10 27 11 28 12 29 13 30 14 31 75 32 15 33 74 34 16 35 17 36
REMARK SMILES IDX 18 37 68 38 19 39 73 40 67 41 69 42 20 43 72 44 66 45 65 46
REMARK SMILES IDX 21 48 53 49 33 50 52 51 34 52 37 53 51 54 70 55 35 56 36 57
REMARK SMILES IDX 50 59 71 60 38 61 22 62 23 63 31 64 24 65 25 66 29 67 32 68
REMARK SMILES IDX 26 69 27 70 30 71 28 72 54 73 55 74 63 75 56 76 57 77 61 78
REMARK SMILES IDX 64 79 58 80 59 81 62 82 60 83 39 84 40 85 48 86 41 87 42 88
REMARK SMILES IDX 46 89 49 90 43 91 44 92 47 93 45 94
REMARK H PARENT 3 11 3 12 82 20 69 47 37 58
REMARK Flexibility Score: inf
ROOT
ATOM      1  C   UNL A   1      31.027  30.939  25.527  1.00  0.00     0.274 C 
ENDROOT
BRANCH   1   2
ATOM      2  O   UNL A   1      32.125  30.061  25.259  1.00  0.00    -0.457 OA
BRANCH   2   3
ATOM      3  C   UNL A   1      31.829  28.771  24.933  1.00  0.00     0.368 C 
ATOM      4  O   UNL A   1      31.233  27.990  25.667  1.00  0.00    -0.245 OA
BRANCH   3   5
ATOM      5  C   UNL A   1      32.201  28.483  23.451  1.00  0.00     0.197 C 
ATOM      6  C   UNL A   1      33.609  29.082  23.165  1.00  0.00     0.081 C 
ATOM      7  C   UNL A   1      32.493  26.963  23.196  1.00  0.00     0.068 C 
ATOM      8  C   UNL A   1      34.130  28.315  21.970  1.00  0.00     0.008 C 
ATOM      9  C   UNL A   1      33.777  26.888  22.336  1.00  0.00     0.011 C 
BRANCH   5  10
ATOM     10  N   UNL A   1      31.249  29.123  22.499  1.00  0.00    -0.332 N 
ATOM     11  H   UNL A   1      31.423  30.128  22.510  1.00  0.00     0.347 HD
ATOM     12  H   UNL A   1      31.420  28.683  21.595  1.00  0.00     0.347 HD
BRANCH  10  13
ATOM     13  C   UNL A   1      29.828  28.911  22.782  1.00  0.00     0.257 C 
ATOM     14  C   UNL A   1      28.936  29.950  22.112  1.00  0.00     0.071 C 
ENDBRANCH  10  13
ENDBRANCH   5  10
BRANCH   7  15
ATOM     15  C   UNL A   1      31.385  25.984  22.733  1.00  0.00     0.072 C 
BRANCH  15  16
ATOM     16  C   UNL A   1      30.781  24.921  23.677  1.00  0.00     0.263 C 
BRANCH  16  17
ATOM     17  N   UNL A   1      31.417  24.822  24.998  1.00  0.00    -0.329 N 
ATOM     18  C   UNL A   1      30.452  24.417  26.055  1.00  0.00     0.294 C 
ATOM     19  C   UNL A   1      32.579  23.893  25.012  1.00  0.00     0.207 C 
ATOM     20  H   UNL A   1      31.757  25.762  25.199  1.00  0.00     0.348 HD
ATOM     21  C   UNL A   1      30.164  22.899  26.154  1.00  0.00     0.170 C 
ATOM     22  C   UNL A   1      32.194  22.405  25.087  1.00  0.00     0.225 C 
ATOM     23  C   UNL A   1      33.529  24.281  26.153  1.00  0.00     0.078 C 
ATOM     24  O   UNL A   1      31.376  22.136  26.224  1.00  0.00    -0.366 OA
ATOM     25  C   UNL A   1      29.364  22.580  27.410  1.00  0.00     0.045 C 
ENDBRANCH  16  17
ENDBRANCH  15  16
ENDBRANCH   7  15
ENDBRANCH   3   5
ENDBRANCH   2   3
ENDBRANCH   1   2
BRANCH   1  26
ATOM     26  C   UNL A   1      31.489  31.995  26.536  1.00  0.00     0.275 C 
BRANCH  26  27
ATOM     27  O   UNL A   1      32.728  31.599  27.165  1.00  0.00    -0.458 OA
BRANCH  27  28
ATOM     28  C   UNL A   1      33.490  32.630  27.615  1.00  0.00     0.338 C 
ATOM     29  O   UNL A   1      33.166  33.802  27.709  1.00  0.00    -0.246 OA
BRANCH  28  30
ATOM     30  C   UNL A   1      34.812  32.140  28.053  1.00  0.00     0.060 A 
ATOM     31  C   UNL A   1      34.927  30.801  28.430  1.00  0.00     0.016 A 
ATOM     32  C   UNL A   1      35.898  33.005  28.205  1.00  0.00     0.016 A 
ATOM     33  C   UNL A   1      36.119  30.310  28.951  1.00  0.00     0.010 A 
ATOM     34  C   UNL A   1      37.093  32.520  28.755  1.00  0.00     0.010 A 
ATOM     35  C   UNL A   1      37.201  31.174  29.141  1.00  0.00    -0.014 A 
BRANCH  35  36
ATOM     36  C   UNL A   1      38.393  30.656  29.847  1.00  0.00     0.031 A 
ATOM     37  C   UNL A   1      38.631  31.060  31.272  1.00  0.00     0.074 A 
ATOM     38  C   UNL A   1      39.184  29.746  29.254  1.00  0.00     0.049 A 
ATOM     39  N   UNL A   1      39.596  30.710  32.084  1.00  0.00    -0.248 NA
ATOM     40  C   UNL A   1      37.637  31.964  31.871  1.00  0.00     0.031 C 
ATOM     41  C   UNL A   1      38.990  29.211  27.908  1.00  0.00     0.029 A 
ATOM     42  N   UNL A   1      40.301  29.097  29.718  1.00  0.00    -0.354 N 
ATOM     43  C   UNL A   1      39.318  31.335  33.291  1.00  0.00     0.074 A 
ATOM     44  C   UNL A   1      38.108  32.107  33.102  1.00  0.00     0.031 C 
ATOM     45  C   UNL A   1      39.955  28.312  27.653  1.00  0.00     0.029 A 
ATOM     46  C   UNL A   1      40.856  28.238  28.803  1.00  0.00     0.049 A 
ATOM     47  H   UNL A   1      40.669  29.235  30.621  1.00  0.00     0.167 HD
ATOM     48  C   UNL A   1      40.011  31.268  34.452  1.00  0.00     0.037 A 
ATOM     49  C   UNL A   1      41.975  27.495  28.882  1.00  0.00     0.037 A 
ATOM     50  C   UNL A   1      41.231  30.527  34.626  1.00  0.00     0.049 A 
ATOM     51  C   UNL A   1      42.792  27.535  30.149  1.00  0.00     0.074 A 
ATOM     52  C   UNL A   1      42.052  30.458  35.737  1.00  0.00     0.029 A 
ATOM     53  N   UNL A   1      41.805  29.722  33.653  1.00  0.00    -0.354 N 
ATOM     54  N   UNL A   1      42.548  28.164  31.272  1.00  0.00    -0.248 NA
ATOM     55  C   UNL A   1      44.043  26.764  30.153  1.00  0.00     0.031 C 
ATOM     56  C   UNL A   1      43.142  29.638  35.425  1.00  0.00     0.029 A 
ATOM     57  C   UNL A   1      42.978  29.164  34.134  1.00  0.00     0.049 A 
ATOM     58  H   UNL A   1      41.435  29.572  32.753  1.00  0.00     0.167 HD
ATOM     59  C   UNL A   1      43.600  27.851  32.122  1.00  0.00     0.074 A 
ATOM     60  C   UNL A   1      44.475  26.958  31.391  1.00  0.00     0.031 C 
ATOM     61  C   UNL A   1      43.828  28.268  33.391  1.00  0.00     0.037 A 
BRANCH  48  62
ATOM     62  C   UNL A   1      39.477  32.049  35.614  1.00  0.00     0.064 A 
ATOM     63  C   UNL A   1      38.554  31.488  36.509  1.00  0.00     0.173 A 
ATOM     64  C   UNL A   1      39.910  33.362  35.849  1.00  0.00     0.173 A 
ATOM     65  F   UNL A   1      38.097  30.242  36.315  1.00  0.00    -0.203 F 
ATOM     66  C   UNL A   1      38.071  32.222  37.590  1.00  0.00     0.198 A 
ATOM     67  C   UNL A   1      39.439  34.085  36.942  1.00  0.00     0.198 A 
ATOM     68  F   UNL A   1      40.791  33.942  35.020  1.00  0.00    -0.203 F 
ATOM     69  F   UNL A   1      37.162  31.681  38.412  1.00  0.00    -0.200 F 
ATOM     70  C   UNL A   1      38.518  33.516  37.808  1.00  0.00     0.200 A 
ATOM     71  F   UNL A   1      39.878  35.333  37.155  1.00  0.00    -0.200 F 
ATOM     72  F   UNL A   1      38.054  34.220  38.851  1.00  0.00    -0.200 F 
ENDBRANCH  48  62
BRANCH  49  73
ATOM     73  C   UNL A   1      42.420  26.680  27.721  1.00  0.00     0.064 A 
ATOM     74  C   UNL A   1      41.967  25.367  27.537  1.00  0.00     0.173 A 
ATOM     75  C   UNL A   1      43.345  27.187  26.795  1.00  0.00     0.173 A 
ATOM     76  F   UNL A   1      41.103  24.829  28.411  1.00  0.00    -0.203 F 
ATOM     77  C   UNL A   1      42.438  24.583  26.486  1.00  0.00     0.198 A 
ATOM     78  C   UNL A   1      43.794  26.413  25.728  1.00  0.00     0.198 A 
ATOM     79  F   UNL A   1      43.814  28.436  26.928  1.00  0.00    -0.203 F 
ATOM     80  F   UNL A   1      42.031  23.313  26.365  1.00  0.00    -0.200 F 
ATOM     81  C   UNL A   1      43.349  25.108  25.580  1.00  0.00     0.200 A 
ATOM     82  F   UNL A   1      44.664  26.928  24.850  1.00  0.00    -0.200 F 
ATOM     83  F   UNL A   1      43.806  24.353  24.572  1.00  0.00    -0.200 F 
ENDBRANCH  49  73
BRANCH  61  84
ATOM     84  C   UNL A   1      45.054  27.740  34.076  1.00  0.00     0.064 A 
ATOM     85  C   UNL A   1      45.029  26.538  34.799  1.00  0.00     0.173 A 
ATOM     86  C   UNL A   1      46.271  28.430  33.983  1.00  0.00     0.173 A 
ATOM     87  F   UNL A   1      43.884  25.852  34.929  1.00  0.00    -0.203 F 
ATOM     88  C   UNL A   1      46.175  26.060  35.427  1.00  0.00     0.198 A 
ATOM     89  C   UNL A   1      47.422  27.935  34.592  1.00  0.00     0.198 A 
ATOM     90  F   UNL A   1      46.346  29.580  33.298  1.00  0.00    -0.203 F 
ATOM     91  F   UNL A   1      46.119  24.935  36.153  1.00  0.00    -0.200 F 
ATOM     92  C   UNL A   1      47.371  26.755  35.319  1.00  0.00     0.200 A 
ATOM     93  F   UNL A   1      48.578  28.602  34.477  1.00  0.00    -0.200 F 
ATOM     94  F   UNL A   1      48.474  26.291  35.924  1.00  0.00    -0.200 F 
ENDBRANCH  61  84
ENDBRANCH  35  36
ENDBRANCH  28  30
ENDBRANCH  27  28
ENDBRANCH  26  27
ENDBRANCH   1  26
TORSDOF 16
ENDMDL
