MODEL 1
REMARK VINA RESULT:     -11.7      0.000      0.000
REMARK SMILES COc1cccc(NC(=O)/C(C#N)=C\c2ccc(O[C@@H](C)C(=O)OCCOC(=O)c3ccc(-c4c5nc(c(-c6c(F)c(F)c(F)c(F)c6F)c6ccc([nH]6)c(-c6c(F)c(F)c(F)c(F)c6F)c6nc(c(-c7c(F)c(F)c(F)c(F)c7F)c7ccc4[nH]7)C=C6)C=C5)cc3)cc2)c1
REMARK SMILES IDX 22 1 23 2 20 3 21 4 19 5 18 6 15 7 16 8 94 9 17 10 93 11
REMARK SMILES IDX 14 12 11 13 9 14 8 15 10 17 7 18 3 19 4 20 95 21 5 22 6 23
REMARK SMILES IDX 2 24 1 25 12 26 13 27 24 28 25 29 26 30 27 31 28 32 29 33
REMARK SMILES IDX 30 34 31 35 92 36 32 37 91 38 33 39 34 40 35 41 85 42 36 43
REMARK SMILES IDX 90 44 84 45 86 46 37 47 89 48 83 49 82 50 38 52 70 53 50 54
REMARK SMILES IDX 69 55 51 56 54 57 68 58 87 59 52 60 53 61 67 63 88 64 55 65
REMARK SMILES IDX 39 66 40 67 48 68 41 69 42 70 46 71 49 72 43 73 44 74 47 75
REMARK SMILES IDX 45 76 71 77 72 78 80 79 73 80 74 81 78 82 81 83 75 84 76 85
REMARK SMILES IDX 79 86 77 87 56 88 57 89 65 90 58 91 59 92 63 93 66 94 60 95
REMARK SMILES IDX 61 96 64 97 62 98
REMARK H PARENT 8 16 86 51 54 62
REMARK Flexibility Score: inf
ROOT
ATOM      1  C   UNL A   1      35.044  33.545  29.410  1.00  0.00     0.347 C 
ATOM      2  O   UNL A   1      35.871  34.209  30.025  1.00  0.00    -0.248 OA
ENDROOT
BRANCH   1   3
ATOM      3  C   UNL A   1      35.408  32.334  28.504  1.00  0.00     0.279 C 
ATOM      4  C   UNL A   1      36.916  32.229  28.268  1.00  0.00     0.066 C 
BRANCH   3   5
ATOM      5  O   UNL A   1      34.685  32.037  27.312  1.00  0.00    -0.479 OA
BRANCH   5   6
ATOM      6  C   UNL A   1      33.957  30.886  27.223  1.00  0.00     0.120 A 
ATOM      7  C   UNL A   1      32.300  28.649  27.039  1.00  0.00    -0.024 A 
ATOM      8  C   UNL A   1      31.758  29.922  26.858  1.00  0.00     0.012 A 
ATOM      9  C   UNL A   1      33.674  28.494  27.206  1.00  0.00     0.012 A 
ATOM     10  C   UNL A   1      32.598  31.039  26.927  1.00  0.00     0.047 A 
ATOM     11  C   UNL A   1      34.471  29.606  27.390  1.00  0.00     0.047 A 
BRANCH   7  12
ATOM     12  C   UNL A   1      31.477  27.459  27.189  1.00  0.00     0.033 C 
ATOM     13  C   UNL A   1      31.102  26.724  26.125  1.00  0.00     0.118 C 
BRANCH  13  14
ATOM     14  C   UNL A   1      31.587  26.851  24.667  1.00  0.00     0.266 C 
ATOM     15  N   UNL A   1      31.173  27.823  23.781  1.00  0.00    -0.321 N 
ATOM     16  H   UNL A   1      31.899  28.091  23.173  1.00  0.00     0.170 HD
ATOM     17  O   UNL A   1      32.497  26.134  24.239  1.00  0.00    -0.268 OA
BRANCH  15  18
ATOM     18  C   UNL A   1      29.986  28.539  23.513  1.00  0.00     0.045 A 
ATOM     19  C   UNL A   1      28.891  30.695  23.294  1.00  0.00     0.120 A 
ATOM     20  C   UNL A   1      27.650  30.081  23.162  1.00  0.00     0.046 A 
ATOM     21  C   UNL A   1      30.048  29.939  23.504  1.00  0.00     0.072 A 
ATOM     22  C   UNL A   1      27.600  28.701  23.050  1.00  0.00     0.006 A 
ATOM     23  C   UNL A   1      28.778  27.945  23.147  1.00  0.00     0.026 A 
BRANCH  19  24
ATOM     24  O   UNL A   1      28.978  32.059  23.239  1.00  0.00    -0.497 OA
ATOM     25  C   UNL A   1      28.403  32.525  22.012  1.00  0.00     0.278 C 
ENDBRANCH  19  24
ENDBRANCH  15  18
ENDBRANCH  13  14
BRANCH  13  26
ATOM     26  C   UNL A   1      30.177  25.537  26.334  1.00  0.00     0.105 C 
ATOM     27  N   UNL A   1      29.409  24.551  26.509  1.00  0.00    -0.192 NA
ENDBRANCH  13  26
ENDBRANCH   7  12
ENDBRANCH   5   6
ENDBRANCH   3   5
ENDBRANCH   1   3
BRANCH   1  28
ATOM     28  O   UNL A   1      33.709  33.777  29.433  1.00  0.00    -0.459 OA
BRANCH  28  29
ATOM     29  C   UNL A   1      33.168  34.955  28.810  1.00  0.00     0.274 C 
BRANCH  29  30
ATOM     30  C   UNL A   1      32.901  35.996  29.897  1.00  0.00     0.275 C 
BRANCH  30  31
ATOM     31  O   UNL A   1      32.329  35.346  31.045  1.00  0.00    -0.458 OA
BRANCH  31  32
ATOM     32  C   UNL A   1      32.694  35.881  32.235  1.00  0.00     0.338 C 
ATOM     33  O   UNL A   1      32.124  36.736  32.884  1.00  0.00    -0.246 OA
BRANCH  32  34
ATOM     34  C   UNL A   1      33.836  35.113  32.745  1.00  0.00     0.060 A 
ATOM     35  C   UNL A   1      35.080  35.747  32.804  1.00  0.00     0.016 A 
ATOM     36  C   UNL A   1      33.692  33.781  33.127  1.00  0.00     0.016 A 
ATOM     37  C   UNL A   1      36.196  35.054  33.250  1.00  0.00     0.010 A 
ATOM     38  C   UNL A   1      34.815  33.078  33.563  1.00  0.00     0.010 A 
ATOM     39  C   UNL A   1      36.071  33.710  33.616  1.00  0.00    -0.014 A 
BRANCH  39  40
ATOM     40  C   UNL A   1      37.278  32.932  33.965  1.00  0.00     0.031 A 
ATOM     41  C   UNL A   1      37.967  33.201  35.268  1.00  0.00     0.074 A 
ATOM     42  C   UNL A   1      37.733  31.986  33.127  1.00  0.00     0.049 A 
ATOM     43  N   UNL A   1      39.090  32.716  35.729  1.00  0.00    -0.248 NA
ATOM     44  C   UNL A   1      37.300  34.148  36.174  1.00  0.00     0.031 C 
ATOM     45  C   UNL A   1      37.100  31.602  31.866  1.00  0.00     0.029 A 
ATOM     46  N   UNL A   1      38.836  31.178  33.212  1.00  0.00    -0.354 N 
ATOM     47  C   UNL A   1      39.278  33.319  36.964  1.00  0.00     0.074 A 
ATOM     48  C   UNL A   1      38.164  34.217  37.175  1.00  0.00     0.031 C 
ATOM     49  C   UNL A   1      37.826  30.629  31.293  1.00  0.00     0.029 A 
ATOM     50  C   UNL A   1      38.998  30.360  32.121  1.00  0.00     0.049 A 
ATOM     51  H   UNL A   1      39.453  31.184  33.979  1.00  0.00     0.167 HD
ATOM     52  C   UNL A   1      40.293  33.132  37.842  1.00  0.00     0.037 A 
ATOM     53  C   UNL A   1      40.000  29.515  31.817  1.00  0.00     0.037 A 
ATOM     54  C   UNL A   1      41.389  32.225  37.620  1.00  0.00     0.049 A 
ATOM     55  C   UNL A   1      41.154  29.381  32.774  1.00  0.00     0.074 A 
ATOM     56  C   UNL A   1      42.466  31.952  38.444  1.00  0.00     0.029 A 
ATOM     57  N   UNL A   1      41.546  31.444  36.483  1.00  0.00    -0.354 N 
ATOM     58  N   UNL A   1      41.339  29.963  33.934  1.00  0.00    -0.248 NA
ATOM     59  C   UNL A   1      42.241  28.479  32.372  1.00  0.00     0.031 C 
ATOM     60  C   UNL A   1      43.299  31.040  37.784  1.00  0.00     0.029 A 
ATOM     61  C   UNL A   1      42.715  30.706  36.572  1.00  0.00     0.049 A 
ATOM     62  H   UNL A   1      40.918  31.418  35.725  1.00  0.00     0.167 HD
ATOM     63  C   UNL A   1      42.550  29.483  34.413  1.00  0.00     0.074 A 
ATOM     64  C   UNL A   1      43.049  28.552  33.421  1.00  0.00     0.031 C 
ATOM     65  C   UNL A   1      43.191  29.785  35.570  1.00  0.00     0.037 A 
BRANCH  52  66
ATOM     66  C   UNL A   1      40.280  33.960  39.094  1.00  0.00     0.064 A 
ATOM     67  C   UNL A   1      39.633  33.529  40.262  1.00  0.00     0.173 A 
ATOM     68  C   UNL A   1      40.918  35.210  39.121  1.00  0.00     0.173 A 
ATOM     69  F   UNL A   1      38.992  32.350  40.284  1.00  0.00    -0.203 F 
ATOM     70  C   UNL A   1      39.597  34.334  41.399  1.00  0.00     0.198 A 
ATOM     71  C   UNL A   1      40.905  35.997  40.269  1.00  0.00     0.198 A 
ATOM     72  F   UNL A   1      41.552  35.669  38.032  1.00  0.00    -0.203 F 
ATOM     73  F   UNL A   1      38.922  33.928  42.484  1.00  0.00    -0.200 F 
ATOM     74  C   UNL A   1      40.236  35.564  41.403  1.00  0.00     0.200 A 
ATOM     75  F   UNL A   1      41.531  37.182  40.273  1.00  0.00    -0.200 F 
ATOM     76  F   UNL A   1      40.196  36.338  42.496  1.00  0.00    -0.200 F 
ENDBRANCH  52  66
BRANCH  53  77
ATOM     77  C   UNL A   1      39.953  28.743  30.550  1.00  0.00     0.064 A 
ATOM     78  C   UNL A   1      39.323  27.494  30.492  1.00  0.00     0.173 A 
ATOM     79  C   UNL A   1      40.516  29.246  29.367  1.00  0.00     0.173 A 
ATOM     80  F   UNL A   1      38.791  26.960  31.602  1.00  0.00    -0.203 F 
ATOM     81  C   UNL A   1      39.262  26.773  29.300  1.00  0.00     0.198 A 
ATOM     82  C   UNL A   1      40.432  28.538  28.172  1.00  0.00     0.198 A 
ATOM     83  F   UNL A   1      41.132  30.438  29.371  1.00  0.00    -0.203 F 
ATOM     84  F   UNL A   1      38.682  25.565  29.279  1.00  0.00    -0.200 F 
ATOM     85  C   UNL A   1      39.809  27.300  28.140  1.00  0.00     0.200 A 
ATOM     86  F   UNL A   1      40.951  29.056  27.050  1.00  0.00    -0.200 F 
ATOM     87  F   UNL A   1      39.741  26.611  26.992  1.00  0.00    -0.200 F 
ENDBRANCH  53  77
BRANCH  65  88
ATOM     88  C   UNL A   1      44.486  29.075  35.837  1.00  0.00     0.064 A 
ATOM     89  C   UNL A   1      44.524  27.833  36.485  1.00  0.00     0.173 A 
ATOM     90  C   UNL A   1      45.700  29.630  35.405  1.00  0.00     0.173 A 
ATOM     91  F   UNL A   1      43.393  27.269  36.931  1.00  0.00    -0.203 F 
ATOM     92  C   UNL A   1      45.734  27.182  36.712  1.00  0.00     0.198 A 
ATOM     93  C   UNL A   1      46.905  28.964  35.608  1.00  0.00     0.198 A 
ATOM     94  F   UNL A   1      45.716  30.816  34.774  1.00  0.00    -0.203 F 
ATOM     95  F   UNL A   1      45.753  26.018  37.375  1.00  0.00    -0.200 F 
ATOM     96  C   UNL A   1      46.922  27.745  36.268  1.00  0.00     0.200 A 
ATOM     97  F   UNL A   1      48.050  29.503  35.166  1.00  0.00    -0.200 F 
ATOM     98  F   UNL A   1      48.086  27.115  36.482  1.00  0.00    -0.200 F 
ENDBRANCH  65  88
ENDBRANCH  39  40
ENDBRANCH  32  34
ENDBRANCH  31  32
ENDBRANCH  30  31
ENDBRANCH  29  30
ENDBRANCH  28  29
ENDBRANCH   1  28
TORSDOF 18
ENDMDL
MODEL 2
REMARK VINA RESULT:     -11.7      4.528      9.719
REMARK SMILES COc1cccc(NC(=O)/C(C#N)=C\c2ccc(O[C@@H](C)C(=O)OCCOC(=O)c3ccc(-c4c5nc(c(-c6c(F)c(F)c(F)c(F)c6F)c6ccc([nH]6)c(-c6c(F)c(F)c(F)c(F)c6F)c6nc(c(-c7c(F)c(F)c(F)c(F)c7F)c7ccc4[nH]7)C=C6)C=C5)cc3)cc2)c1
REMARK SMILES IDX 22 1 23 2 20 3 21 4 19 5 18 6 15 7 16 8 94 9 17 10 93 11
REMARK SMILES IDX 14 12 11 13 9 14 8 15 10 17 7 18 3 19 4 20 95 21 5 22 6 23
REMARK SMILES IDX 2 24 1 25 12 26 13 27 24 28 25 29 26 30 27 31 28 32 29 33
REMARK SMILES IDX 30 34 31 35 92 36 32 37 91 38 33 39 34 40 35 41 85 42 36 43
REMARK SMILES IDX 90 44 84 45 86 46 37 47 89 48 83 49 82 50 38 52 70 53 50 54
REMARK SMILES IDX 69 55 51 56 54 57 68 58 87 59 52 60 53 61 67 63 88 64 55 65
REMARK SMILES IDX 39 66 40 67 48 68 41 69 42 70 46 71 49 72 43 73 44 74 47 75
REMARK SMILES IDX 45 76 71 77 72 78 80 79 73 80 74 81 78 82 81 83 75 84 76 85
REMARK SMILES IDX 79 86 77 87 56 88 57 89 65 90 58 91 59 92 63 93 66 94 60 95
REMARK SMILES IDX 61 96 64 97 62 98
REMARK H PARENT 8 16 86 51 54 62
REMARK Flexibility Score: inf
ROOT
ATOM      1  C   UNL A   1      39.969  21.410  26.443  1.00  0.00     0.347 C 
ATOM      2  O   UNL A   1      40.030  21.762  27.615  1.00  0.00    -0.248 OA
ENDROOT
BRANCH   1   3
ATOM      3  C   UNL A   1      38.638  21.078  25.708  1.00  0.00     0.279 C 
ATOM      4  C   UNL A   1      38.520  19.587  25.384  1.00  0.00     0.066 C 
BRANCH   3   5
ATOM      5  O   UNL A   1      38.151  21.872  24.629  1.00  0.00    -0.479 OA
BRANCH   5   6
ATOM      6  C   UNL A   1      36.981  22.561  24.761  1.00  0.00     0.120 A 
ATOM      7  C   UNL A   1      34.639  24.003  25.225  1.00  0.00    -0.024 A 
ATOM      8  C   UNL A   1      35.655  24.017  26.180  1.00  0.00     0.012 A 
ATOM      9  C   UNL A   1      34.837  23.359  24.006  1.00  0.00     0.012 A 
ATOM     10  C   UNL A   1      36.837  23.312  25.931  1.00  0.00     0.047 A 
ATOM     11  C   UNL A   1      35.955  22.571  23.822  1.00  0.00     0.047 A 
BRANCH   7  12
ATOM     12  C   UNL A   1      33.307  24.530  25.484  1.00  0.00     0.033 C 
ATOM     13  C   UNL A   1      32.415  23.853  26.230  1.00  0.00     0.118 C 
BRANCH  13  14
ATOM     14  C   UNL A   1      32.654  22.581  27.071  1.00  0.00     0.266 C 
ATOM     15  N   UNL A   1      33.027  21.357  26.557  1.00  0.00    -0.321 N 
ATOM     16  H   UNL A   1      33.624  20.874  27.173  1.00  0.00     0.170 HD
ATOM     17  O   UNL A   1      32.640  22.627  28.304  1.00  0.00    -0.268 OA
BRANCH  15  18
ATOM     18  C   UNL A   1      32.782  20.610  25.384  1.00  0.00     0.045 A 
ATOM     19  C   UNL A   1      32.857  18.456  24.266  1.00  0.00     0.120 A 
ATOM     20  C   UNL A   1      32.497  19.041  23.057  1.00  0.00     0.046 A 
ATOM     21  C   UNL A   1      33.036  19.232  25.416  1.00  0.00     0.072 A 
ATOM     22  C   UNL A   1      32.130  20.378  23.049  1.00  0.00     0.006 A 
ATOM     23  C   UNL A   1      32.199  21.132  24.230  1.00  0.00     0.026 A 
BRANCH  19  24
ATOM     24  O   UNL A   1      33.062  17.105  24.327  1.00  0.00    -0.497 OA
ATOM     25  C   UNL A   1      33.921  16.704  23.252  1.00  0.00     0.278 C 
ENDBRANCH  19  24
ENDBRANCH  15  18
ENDBRANCH  13  14
BRANCH  13  26
ATOM     26  C   UNL A   1      31.014  24.414  26.401  1.00  0.00     0.105 C 
ATOM     27  N   UNL A   1      29.850  24.880  26.542  1.00  0.00    -0.192 NA
ENDBRANCH  13  26
ENDBRANCH   7  12
ENDBRANCH   5   6
ENDBRANCH   3   5
ENDBRANCH   1   3
BRANCH   1  28
ATOM     28  O   UNL A   1      41.046  21.258  25.634  1.00  0.00    -0.459 OA
BRANCH  28  29
ATOM     29  C   UNL A   1      42.325  20.913  26.190  1.00  0.00     0.274 C 
BRANCH  29  30
ATOM     30  C   UNL A   1      43.383  21.826  25.570  1.00  0.00     0.275 C 
BRANCH  30  31
ATOM     31  O   UNL A   1      42.754  23.034  25.110  1.00  0.00    -0.458 OA
BRANCH  31  32
ATOM     32  C   UNL A   1      43.543  24.135  25.163  1.00  0.00     0.338 C 
ATOM     33  O   UNL A   1      44.454  24.447  24.421  1.00  0.00    -0.246 OA
BRANCH  32  34
ATOM     34  C   UNL A   1      42.997  25.035  26.186  1.00  0.00     0.060 A 
ATOM     35  C   UNL A   1      43.582  26.296  26.330  1.00  0.00     0.016 A 
ATOM     36  C   UNL A   1      41.951  24.631  27.013  1.00  0.00     0.016 A 
ATOM     37  C   UNL A   1      43.121  27.171  27.304  1.00  0.00     0.010 A 
ATOM     38  C   UNL A   1      41.496  25.504  28.001  1.00  0.00     0.010 A 
ATOM     39  C   UNL A   1      42.086  26.772  28.155  1.00  0.00    -0.014 A 
BRANCH  39  40
ATOM     40  C   UNL A   1      41.682  27.647  29.275  1.00  0.00     0.031 A 
ATOM     41  C   UNL A   1      42.467  27.607  30.551  1.00  0.00     0.074 A 
ATOM     42  C   UNL A   1      40.635  28.476  29.135  1.00  0.00     0.049 A 
ATOM     43  N   UNL A   1      42.232  28.205  31.689  1.00  0.00    -0.248 NA
ATOM     44  C   UNL A   1      43.681  26.776  30.543  1.00  0.00     0.031 C 
ATOM     45  C   UNL A   1      39.845  28.638  27.915  1.00  0.00     0.029 A 
ATOM     46  N   UNL A   1      40.056  29.337  30.030  1.00  0.00    -0.354 N 
ATOM     47  C   UNL A   1      43.251  27.803  32.540  1.00  0.00     0.074 A 
ATOM     48  C   UNL A   1      44.097  26.897  31.795  1.00  0.00     0.031 C 
ATOM     49  C   UNL A   1      38.882  29.547  28.138  1.00  0.00     0.029 A 
ATOM     50  C   UNL A   1      38.958  29.989  29.527  1.00  0.00     0.049 A 
ATOM     51  H   UNL A   1      40.393  29.474  30.945  1.00  0.00     0.167 HD
ATOM     52  C   UNL A   1      43.458  28.164  33.829  1.00  0.00     0.037 A 
ATOM     53  C   UNL A   1      38.096  30.824  30.136  1.00  0.00     0.037 A 
ATOM     54  C   UNL A   1      42.612  29.076  34.553  1.00  0.00     0.049 A 
ATOM     55  C   UNL A   1      38.304  31.151  31.590  1.00  0.00     0.074 A 
ATOM     56  C   UNL A   1      42.731  29.518  35.858  1.00  0.00     0.029 A 
ATOM     57  N   UNL A   1      41.479  29.686  34.026  1.00  0.00    -0.354 N 
ATOM     58  N   UNL A   1      39.259  30.758  32.399  1.00  0.00    -0.248 NA
ATOM     59  C   UNL A   1      37.309  32.031  32.216  1.00  0.00     0.031 C 
ATOM     60  C   UNL A   1      41.646  30.357  36.136  1.00  0.00     0.029 A 
ATOM     61  C   UNL A   1      40.878  30.480  34.988  1.00  0.00     0.049 A 
ATOM     62  H   UNL A   1      41.153  29.569  33.105  1.00  0.00     0.167 HD
ATOM     63  C   UNL A   1      38.995  31.359  33.621  1.00  0.00     0.074 A 
ATOM     64  C   UNL A   1      37.795  32.153  33.444  1.00  0.00     0.031 C 
ATOM     65  C   UNL A   1      39.683  31.262  34.786  1.00  0.00     0.037 A 
BRANCH  52  66
ATOM     66  C   UNL A   1      44.618  27.533  34.542  1.00  0.00     0.064 A 
ATOM     67  C   UNL A   1      44.524  26.264  35.135  1.00  0.00     0.173 A 
ATOM     68  C   UNL A   1      45.842  28.213  34.639  1.00  0.00     0.173 A 
ATOM     69  F   UNL A   1      43.371  25.580  35.086  1.00  0.00    -0.203 F 
ATOM     70  C   UNL A   1      45.600  25.717  35.830  1.00  0.00     0.198 A 
ATOM     71  C   UNL A   1      46.925  27.648  35.309  1.00  0.00     0.198 A 
ATOM     72  F   UNL A   1      45.988  29.427  34.089  1.00  0.00    -0.203 F 
ATOM     73  F   UNL A   1      45.468  24.530  36.440  1.00  0.00    -0.200 F 
ATOM     74  C   UNL A   1      46.800  26.407  35.912  1.00  0.00     0.200 A 
ATOM     75  F   UNL A   1      48.087  28.313  35.379  1.00  0.00    -0.200 F 
ATOM     76  F   UNL A   1      47.833  25.880  36.584  1.00  0.00    -0.200 F 
ENDBRANCH  52  66
BRANCH  53  77
ATOM     77  C   UNL A   1      36.959  31.394  29.370  1.00  0.00     0.064 A 
ATOM     78  C   UNL A   1      35.855  30.604  29.028  1.00  0.00     0.173 A 
ATOM     79  C   UNL A   1      36.943  32.743  28.984  1.00  0.00     0.173 A 
ATOM     80  F   UNL A   1      35.836  29.303  29.354  1.00  0.00    -0.203 F 
ATOM     81  C   UNL A   1      34.778  31.139  28.323  1.00  0.00     0.198 A 
ATOM     82  C   UNL A   1      35.855  33.283  28.303  1.00  0.00     0.198 A 
ATOM     83  F   UNL A   1      37.977  33.541  29.286  1.00  0.00    -0.203 F 
ATOM     84  F   UNL A   1      33.748  30.354  27.979  1.00  0.00    -0.200 F 
ATOM     85  C   UNL A   1      34.776  32.480  27.969  1.00  0.00     0.200 A 
ATOM     86  F   UNL A   1      35.851  34.583  27.973  1.00  0.00    -0.200 F 
ATOM     87  F   UNL A   1      33.735  32.997  27.301  1.00  0.00    -0.200 F 
ENDBRANCH  53  77
BRANCH  65  88
ATOM     88  C   UNL A   1      39.171  32.061  35.949  1.00  0.00     0.064 A 
ATOM     89  C   UNL A   1      39.546  33.397  36.145  1.00  0.00     0.173 A 
ATOM     90  C   UNL A   1      38.265  31.491  36.856  1.00  0.00     0.173 A 
ATOM     91  F   UNL A   1      40.422  33.982  35.315  1.00  0.00    -0.203 F 
ATOM     92  C   UNL A   1      39.051  34.128  37.222  1.00  0.00     0.198 A 
ATOM     93  C   UNL A   1      37.749  32.233  37.915  1.00  0.00     0.198 A 
ATOM     94  F   UNL A   1      37.870  30.217  36.708  1.00  0.00    -0.203 F 
ATOM     95  F   UNL A   1      39.458  35.390  37.418  1.00  0.00    -0.200 F 
ATOM     96  C   UNL A   1      38.148  33.548  38.101  1.00  0.00     0.200 A 
ATOM     97  F   UNL A   1      36.867  31.675  38.755  1.00  0.00    -0.200 F 
ATOM     98  F   UNL A   1      37.667  34.254  39.134  1.00  0.00    -0.200 F 
ENDBRANCH  65  88
ENDBRANCH  39  40
ENDBRANCH  32  34
ENDBRANCH  31  32
ENDBRANCH  30  31
ENDBRANCH  29  30
ENDBRANCH  28  29
ENDBRANCH   1  28
TORSDOF 18
ENDMDL
MODEL 3
REMARK VINA RESULT:     -11.4      0.818      1.475
REMARK SMILES COc1cccc(NC(=O)/C(C#N)=C\c2ccc(O[C@@H](C)C(=O)OCCOC(=O)c3ccc(-c4c5nc(c(-c6c(F)c(F)c(F)c(F)c6F)c6ccc([nH]6)c(-c6c(F)c(F)c(F)c(F)c6F)c6nc(c(-c7c(F)c(F)c(F)c(F)c7F)c7ccc4[nH]7)C=C6)C=C5)cc3)cc2)c1
REMARK SMILES IDX 22 1 23 2 20 3 21 4 19 5 18 6 15 7 16 8 94 9 17 10 93 11
REMARK SMILES IDX 14 12 11 13 9 14 8 15 10 17 7 18 3 19 4 20 95 21 5 22 6 23
REMARK SMILES IDX 2 24 1 25 12 26 13 27 24 28 25 29 26 30 27 31 28 32 29 33
REMARK SMILES IDX 30 34 31 35 92 36 32 37 91 38 33 39 34 40 35 41 85 42 36 43
REMARK SMILES IDX 90 44 84 45 86 46 37 47 89 48 83 49 82 50 38 52 70 53 50 54
REMARK SMILES IDX 69 55 51 56 54 57 68 58 87 59 52 60 53 61 67 63 88 64 55 65
REMARK SMILES IDX 39 66 40 67 48 68 41 69 42 70 46 71 49 72 43 73 44 74 47 75
REMARK SMILES IDX 45 76 71 77 72 78 80 79 73 80 74 81 78 82 81 83 75 84 76 85
REMARK SMILES IDX 79 86 77 87 56 88 57 89 65 90 58 91 59 92 63 93 66 94 60 95
REMARK SMILES IDX 61 96 64 97 62 98
REMARK H PARENT 8 16 86 51 54 62
REMARK Flexibility Score: inf
ROOT
ATOM      1  C   UNL A   1      34.276  34.031  27.979  1.00  0.00     0.347 C 
ATOM      2  O   UNL A   1      35.149  34.504  27.260  1.00  0.00    -0.248 OA
ENDROOT
BRANCH   1   3
ATOM      3  C   UNL A   1      34.215  32.533  28.394  1.00  0.00     0.279 C 
ATOM      4  C   UNL A   1      34.551  32.336  29.874  1.00  0.00     0.066 C 
BRANCH   3   5
ATOM      5  O   UNL A   1      34.798  31.504  27.599  1.00  0.00    -0.479 OA
BRANCH   5   6
ATOM      6  C   UNL A   1      34.063  30.406  27.255  1.00  0.00     0.120 A 
ATOM      7  C   UNL A   1      32.735  28.075  26.492  1.00  0.00    -0.024 A 
ATOM      8  C   UNL A   1      34.129  28.089  26.533  1.00  0.00     0.012 A 
ATOM      9  C   UNL A   1      32.014  29.183  26.929  1.00  0.00     0.012 A 
ATOM     10  C   UNL A   1      34.790  29.253  26.940  1.00  0.00     0.047 A 
ATOM     11  C   UNL A   1      32.675  30.361  27.213  1.00  0.00     0.047 A 
BRANCH   7  12
ATOM     12  C   UNL A   1      31.977  26.990  25.889  1.00  0.00     0.033 C 
ATOM     13  C   UNL A   1      31.589  27.033  24.601  1.00  0.00     0.118 C 
BRANCH  13  14
ATOM     14  C   UNL A   1      32.002  28.053  23.520  1.00  0.00     0.266 C 
ATOM     15  N   UNL A   1      31.284  29.182  23.188  1.00  0.00    -0.321 N 
ATOM     16  H   UNL A   1      31.877  29.927  22.940  1.00  0.00     0.170 HD
ATOM     17  O   UNL A   1      33.100  27.971  22.961  1.00  0.00    -0.268 OA
BRANCH  15  18
ATOM     18  C   UNL A   1      29.924  29.556  23.108  1.00  0.00     0.045 A 
ATOM     19  C   UNL A   1      28.292  31.345  22.941  1.00  0.00     0.120 A 
ATOM     20  C   UNL A   1      27.247  30.444  23.114  1.00  0.00     0.046 A 
ATOM     21  C   UNL A   1      29.623  30.918  22.974  1.00  0.00     0.072 A 
ATOM     22  C   UNL A   1      27.534  29.088  23.127  1.00  0.00     0.006 A 
ATOM     23  C   UNL A   1      28.865  28.652  23.044  1.00  0.00     0.026 A 
BRANCH  19  24
ATOM     24  O   UNL A   1      28.015  32.673  22.760  1.00  0.00    -0.497 OA
ATOM     25  C   UNL A   1      29.157  33.454  23.134  1.00  0.00     0.278 C 
ENDBRANCH  19  24
ENDBRANCH  15  18
ENDBRANCH  13  14
BRANCH  13  26
ATOM     26  C   UNL A   1      30.731  25.908  24.047  1.00  0.00     0.105 C 
ATOM     27  N   UNL A   1      30.018  24.974  23.587  1.00  0.00    -0.192 NA
ENDBRANCH  13  26
ENDBRANCH   7  12
ENDBRANCH   5   6
ENDBRANCH   3   5
ENDBRANCH   1   3
BRANCH   1  28
ATOM     28  O   UNL A   1      33.249  34.744  28.502  1.00  0.00    -0.459 OA
BRANCH  28  29
ATOM     29  C   UNL A   1      33.403  36.149  28.765  1.00  0.00     0.274 C 
BRANCH  29  30
ATOM     30  C   UNL A   1      32.525  36.514  29.962  1.00  0.00     0.275 C 
BRANCH  30  31
ATOM     31  O   UNL A   1      32.490  35.407  30.879  1.00  0.00    -0.458 OA
BRANCH  31  32
ATOM     32  C   UNL A   1      32.680  35.745  32.178  1.00  0.00     0.338 C 
ATOM     33  O   UNL A   1      31.955  36.402  32.899  1.00  0.00    -0.246 OA
BRANCH  32  34
ATOM     34  C   UNL A   1      33.854  35.016  32.668  1.00  0.00     0.060 A 
ATOM     35  C   UNL A   1      35.107  35.621  32.534  1.00  0.00     0.016 A 
ATOM     36  C   UNL A   1      33.730  33.742  33.220  1.00  0.00     0.016 A 
ATOM     37  C   UNL A   1      36.251  34.958  32.955  1.00  0.00     0.010 A 
ATOM     38  C   UNL A   1      34.879  33.068  33.632  1.00  0.00     0.010 A 
ATOM     39  C   UNL A   1      36.143  33.670  33.491  1.00  0.00    -0.014 A 
BRANCH  39  40
ATOM     40  C   UNL A   1      37.368  32.910  33.817  1.00  0.00     0.031 A 
ATOM     41  C   UNL A   1      38.071  33.183  35.112  1.00  0.00     0.074 A 
ATOM     42  C   UNL A   1      37.825  31.976  32.967  1.00  0.00     0.049 A 
ATOM     43  N   UNL A   1      39.209  32.714  35.553  1.00  0.00    -0.248 NA
ATOM     44  C   UNL A   1      37.403  34.114  36.033  1.00  0.00     0.031 C 
ATOM     45  C   UNL A   1      37.179  31.590  31.713  1.00  0.00     0.029 A 
ATOM     46  N   UNL A   1      38.942  31.186  33.031  1.00  0.00    -0.354 N 
ATOM     47  C   UNL A   1      39.405  33.312  36.790  1.00  0.00     0.074 A 
ATOM     48  C   UNL A   1      38.281  34.191  37.022  1.00  0.00     0.031 C 
ATOM     49  C   UNL A   1      37.913  30.631  31.124  1.00  0.00     0.029 A 
ATOM     50  C   UNL A   1      39.101  30.377  31.933  1.00  0.00     0.049 A 
ATOM     51  H   UNL A   1      39.570  31.197  33.789  1.00  0.00     0.167 HD
ATOM     52  C   UNL A   1      40.435  33.137  37.651  1.00  0.00     0.037 A 
ATOM     53  C   UNL A   1      40.111  29.549  31.610  1.00  0.00     0.037 A 
ATOM     54  C   UNL A   1      41.543  32.249  37.408  1.00  0.00     0.049 A 
ATOM     55  C   UNL A   1      41.281  29.428  32.548  1.00  0.00     0.074 A 
ATOM     56  C   UNL A   1      42.636  31.988  38.214  1.00  0.00     0.029 A 
ATOM     57  N   UNL A   1      41.696  31.476  36.264  1.00  0.00    -0.354 N 
ATOM     58  N   UNL A   1      41.475  30.006  33.709  1.00  0.00    -0.248 NA
ATOM     59  C   UNL A   1      42.377  28.547  32.125  1.00  0.00     0.031 C 
ATOM     60  C   UNL A   1      43.474  31.094  37.537  1.00  0.00     0.029 A 
ATOM     61  C   UNL A   1      42.877  30.757  36.331  1.00  0.00     0.049 A 
ATOM     62  H   UNL A   1      41.057  31.445  35.515  1.00  0.00     0.167 HD
ATOM     63  C   UNL A   1      42.700  29.543  34.168  1.00  0.00     0.074 A 
ATOM     64  C   UNL A   1      43.199  28.626  33.163  1.00  0.00     0.031 C 
ATOM     65  C   UNL A   1      43.353  29.849  35.317  1.00  0.00     0.037 A 
BRANCH  52  66
ATOM     66  C   UNL A   1      40.428  33.957  38.908  1.00  0.00     0.064 A 
ATOM     67  C   UNL A   1      39.790  33.516  40.078  1.00  0.00     0.173 A 
ATOM     68  C   UNL A   1      41.062  35.209  38.938  1.00  0.00     0.173 A 
ATOM     69  F   UNL A   1      39.154  32.335  40.097  1.00  0.00    -0.203 F 
ATOM     70  C   UNL A   1      39.758  34.314  41.220  1.00  0.00     0.198 A 
ATOM     71  C   UNL A   1      41.053  35.990  40.091  1.00  0.00     0.198 A 
ATOM     72  F   UNL A   1      41.687  35.677  37.848  1.00  0.00    -0.203 F 
ATOM     73  F   UNL A   1      39.093  33.899  42.307  1.00  0.00    -0.200 F 
ATOM     74  C   UNL A   1      40.393  35.547  41.226  1.00  0.00     0.200 A 
ATOM     75  F   UNL A   1      41.675  37.177  40.098  1.00  0.00    -0.200 F 
ATOM     76  F   UNL A   1      40.358  36.314  42.325  1.00  0.00    -0.200 F 
ENDBRANCH  52  66
BRANCH  53  77
ATOM     77  C   UNL A   1      40.058  28.785  30.339  1.00  0.00     0.064 A 
ATOM     78  C   UNL A   1      40.638  29.293  29.170  1.00  0.00     0.173 A 
ATOM     79  C   UNL A   1      39.446  27.524  30.270  1.00  0.00     0.173 A 
ATOM     80  F   UNL A   1      41.213  30.504  29.179  1.00  0.00    -0.203 F 
ATOM     81  C   UNL A   1      40.604  28.571  27.977  1.00  0.00     0.198 A 
ATOM     82  C   UNL A   1      39.436  26.792  29.085  1.00  0.00     0.198 A 
ATOM     83  F   UNL A   1      38.875  26.994  31.362  1.00  0.00    -0.203 F 
ATOM     84  F   UNL A   1      41.138  29.094  26.865  1.00  0.00    -0.200 F 
ATOM     85  C   UNL A   1      40.011  27.318  27.939  1.00  0.00     0.200 A 
ATOM     86  F   UNL A   1      38.873  25.576  29.056  1.00  0.00    -0.200 F 
ATOM     87  F   UNL A   1      39.989  26.620  26.795  1.00  0.00    -0.200 F 
ENDBRANCH  53  77
BRANCH  65  88
ATOM     88  C   UNL A   1      44.663  29.159  35.561  1.00  0.00     0.064 A 
ATOM     89  C   UNL A   1      44.732  27.924  36.220  1.00  0.00     0.173 A 
ATOM     90  C   UNL A   1      45.860  29.725  35.095  1.00  0.00     0.173 A 
ATOM     91  F   UNL A   1      43.619  27.350  36.698  1.00  0.00    -0.203 F 
ATOM     92  C   UNL A   1      45.956  27.291  36.426  1.00  0.00     0.198 A 
ATOM     93  C   UNL A   1      47.077  29.076  35.277  1.00  0.00     0.198 A 
ATOM     94  F   UNL A   1      45.846  30.904  34.452  1.00  0.00    -0.203 F 
ATOM     95  F   UNL A   1      46.005  26.134  37.100  1.00  0.00    -0.200 F 
ATOM     96  C   UNL A   1      47.125  27.865  35.948  1.00  0.00     0.200 A 
ATOM     97  F   UNL A   1      48.204  29.625  34.803  1.00  0.00    -0.200 F 
ATOM     98  F   UNL A   1      48.302  27.251  36.142  1.00  0.00    -0.200 F 
ENDBRANCH  65  88
ENDBRANCH  39  40
ENDBRANCH  32  34
ENDBRANCH  31  32
ENDBRANCH  30  31
ENDBRANCH  29  30
ENDBRANCH  28  29
ENDBRANCH   1  28
TORSDOF 18
ENDMDL
