MODEL 1
REMARK VINA RESULT:     -11.7      0.000      0.000
REMARK SMILES O=C(OCCOC(=O)c1ccc(Cl)nc1NC[C@@H]1C[N@@H+]2CCC[C@@H]2CO1)c1ccc(-c2c3nc(c(-c4c(F)c(F)c(F)c(F)c4F)c4ccc([nH]4)c(-c4c(F)c(F)c(F)c(F)c4F)c4nc(c(-c5c(F)c(F)c(F)c(F)c5F)c5ccc2[nH]5)C=C4)C=C3)cc1
REMARK SMILES IDX 5 1 4 2 3 3 2 4 1 5 27 6 28 7 89 8 29 9 88 10 30 11 31 12
REMARK SMILES IDX 32 13 82 14 33 15 87 16 81 17 83 18 34 19 86 20 80 21 79 22
REMARK SMILES IDX 35 24 67 25 47 26 66 27 48 28 51 29 65 30 84 31 49 32 50 33
REMARK SMILES IDX 64 35 85 36 52 37 36 38 37 39 45 40 38 41 39 42 43 43 46 44
REMARK SMILES IDX 40 45 41 46 44 47 42 48 68 49 69 50 77 51 70 52 71 53 75 54
REMARK SMILES IDX 78 55 72 56 73 57 76 58 74 59 53 60 54 61 62 62 55 63 56 64
REMARK SMILES IDX 60 65 63 66 57 67 58 68 61 69 59 70 6 71 7 72 8 73 9 74
REMARK SMILES IDX 10 75 15 76 11 77 14 78 12 79 13 80 16 81 17 83 18 84 19 85
REMARK SMILES IDX 26 86 20 87 25 88 21 89 24 90 22 92 23 93
REMARK H PARENT 83 23 51 34 16 82 20 91
REMARK Flexibility Score: inf
ROOT
ATOM      1  C   UNL A   1      42.439  18.597  26.364  1.00  0.00     0.275 C 
ENDROOT
BRANCH   1   2
ATOM      2  C   UNL A   1      43.792  18.109  25.833  1.00  0.00     0.275 C 
BRANCH   2   3
ATOM      3  O   UNL A   1      44.155  18.637  24.547  1.00  0.00    -0.458 OA
BRANCH   3   4
ATOM      4  C   UNL A   1      45.135  19.514  24.226  1.00  0.00     0.338 C 
ATOM      5  O   UNL A   1      46.179  19.084  23.738  1.00  0.00    -0.246 OA
BRANCH   4   6
ATOM      6  C   UNL A   1      45.086  20.961  24.606  1.00  0.00     0.060 A 
ATOM      7  C   UNL A   1      44.809  22.036  23.760  1.00  0.00     0.016 A 
ATOM      8  C   UNL A   1      45.340  21.245  25.958  1.00  0.00     0.016 A 
ATOM      9  C   UNL A   1      44.713  23.339  24.254  1.00  0.00     0.010 A 
ATOM     10  C   UNL A   1      45.201  22.533  26.472  1.00  0.00     0.010 A 
ATOM     11  C   UNL A   1      44.912  23.594  25.610  1.00  0.00    -0.014 A 
BRANCH  11  12
ATOM     12  C   UNL A   1      45.076  24.984  26.082  1.00  0.00     0.031 A 
ATOM     13  C   UNL A   1      46.463  25.551  26.074  1.00  0.00     0.074 A 
ATOM     14  C   UNL A   1      44.024  25.724  26.469  1.00  0.00     0.049 A 
ATOM     15  N   UNL A   1      46.879  26.730  26.449  1.00  0.00    -0.248 NA
ATOM     16  C   UNL A   1      47.525  24.672  25.552  1.00  0.00     0.031 C 
ATOM     17  C   UNL A   1      42.630  25.299  26.420  1.00  0.00     0.029 A 
ATOM     18  N   UNL A   1      43.968  26.987  27.000  1.00  0.00    -0.354 N 
ATOM     19  C   UNL A   1      48.241  26.738  26.187  1.00  0.00     0.074 A 
ATOM     20  C   UNL A   1      48.599  25.426  25.705  1.00  0.00     0.031 C 
ATOM     21  C   UNL A   1      41.857  26.250  26.973  1.00  0.00     0.029 A 
ATOM     22  C   UNL A   1      42.708  27.356  27.400  1.00  0.00     0.049 A 
ATOM     23  H   UNL A   1      44.755  27.572  27.085  1.00  0.00     0.167 HD
ATOM     24  C   UNL A   1      49.108  27.769  26.296  1.00  0.00     0.037 A 
ATOM     25  C   UNL A   1      42.299  28.464  28.048  1.00  0.00     0.037 A 
ATOM     26  C   UNL A   1      48.736  29.061  26.795  1.00  0.00     0.049 A 
ATOM     27  C   UNL A   1      43.308  29.553  28.299  1.00  0.00     0.074 A 
ATOM     28  C   UNL A   1      49.520  30.185  26.959  1.00  0.00     0.029 A 
ATOM     29  N   UNL A   1      47.458  29.389  27.233  1.00  0.00    -0.354 N 
ATOM     30  N   UNL A   1      44.585  29.577  28.001  1.00  0.00    -0.248 NA
ATOM     31  C   UNL A   1      42.816  30.782  28.932  1.00  0.00     0.031 C 
ATOM     32  C   UNL A   1      48.730  31.178  27.548  1.00  0.00     0.029 A 
ATOM     33  C   UNL A   1      47.438  30.694  27.692  1.00  0.00     0.049 A 
ATOM     34  H   UNL A   1      46.683  28.783  27.217  1.00  0.00     0.167 HD
ATOM     35  C   UNL A   1      45.038  30.840  28.353  1.00  0.00     0.074 A 
ATOM     36  C   UNL A   1      43.897  31.548  28.902  1.00  0.00     0.031 C 
ATOM     37  C   UNL A   1      46.277  31.375  28.214  1.00  0.00     0.037 A 
BRANCH  24  38
ATOM     38  C   UNL A   1      50.525  27.500  25.887  1.00  0.00     0.064 A 
ATOM     39  C   UNL A   1      51.513  27.167  26.829  1.00  0.00     0.173 A 
ATOM     40  C   UNL A   1      50.919  27.646  24.549  1.00  0.00     0.173 A 
ATOM     41  F   UNL A   1      51.193  27.043  28.127  1.00  0.00    -0.203 F 
ATOM     42  C   UNL A   1      52.849  27.044  26.456  1.00  0.00     0.198 A 
ATOM     43  C   UNL A   1      52.250  27.487  24.174  1.00  0.00     0.198 A 
ATOM     44  F   UNL A   1      50.016  27.966  23.610  1.00  0.00    -0.203 F 
ATOM     45  F   UNL A   1      53.784  26.810  27.387  1.00  0.00    -0.200 F 
ATOM     46  C   UNL A   1      53.215  27.202  25.128  1.00  0.00     0.200 A 
ATOM     47  F   UNL A   1      52.603  27.635  22.890  1.00  0.00    -0.200 F 
ATOM     48  F   UNL A   1      54.503  27.098  24.771  1.00  0.00    -0.200 F 
ENDBRANCH  24  38
BRANCH  25  49
ATOM     49  C   UNL A   1      40.880  28.601  28.467  1.00  0.00     0.064 A 
ATOM     50  C   UNL A   1      39.904  29.096  27.592  1.00  0.00     0.173 A 
ATOM     51  C   UNL A   1      40.469  28.233  29.757  1.00  0.00     0.173 A 
ATOM     52  F   UNL A   1      40.247  29.468  26.350  1.00  0.00    -0.203 F 
ATOM     53  C   UNL A   1      38.577  29.236  27.996  1.00  0.00     0.198 A 
ATOM     54  C   UNL A   1      39.138  28.354  30.154  1.00  0.00     0.198 A 
ATOM     55  F   UNL A   1      41.359  27.741  30.632  1.00  0.00    -0.203 F 
ATOM     56  F   UNL A   1      37.670  29.740  27.147  1.00  0.00    -0.200 F 
ATOM     57  C   UNL A   1      38.194  28.862  29.275  1.00  0.00     0.200 A 
ATOM     58  F   UNL A   1      38.769  27.975  31.385  1.00  0.00    -0.200 F 
ATOM     59  F   UNL A   1      36.917  28.991  29.660  1.00  0.00    -0.200 F 
ENDBRANCH  25  49
BRANCH  37  60
ATOM     60  C   UNL A   1      46.452  32.813  28.598  1.00  0.00     0.064 A 
ATOM     61  C   UNL A   1      46.906  33.191  29.867  1.00  0.00     0.173 A 
ATOM     62  C   UNL A   1      46.232  33.821  27.645  1.00  0.00     0.173 A 
ATOM     63  F   UNL A   1      47.115  32.264  30.814  1.00  0.00    -0.203 F 
ATOM     64  C   UNL A   1      47.120  34.531  30.176  1.00  0.00     0.198 A 
ATOM     65  C   UNL A   1      46.479  35.155  27.948  1.00  0.00     0.198 A 
ATOM     66  F   UNL A   1      45.802  33.507  26.415  1.00  0.00    -0.203 F 
ATOM     67  F   UNL A   1      47.516  34.877  31.409  1.00  0.00    -0.200 F 
ATOM     68  C   UNL A   1      46.917  35.509  29.214  1.00  0.00     0.200 A 
ATOM     69  F   UNL A   1      46.300  36.097  27.011  1.00  0.00    -0.200 F 
ATOM     70  F   UNL A   1      47.142  36.797  29.509  1.00  0.00    -0.200 F 
ENDBRANCH  37  60
ENDBRANCH  11  12
ENDBRANCH   4   6
ENDBRANCH   3   4
ENDBRANCH   2   3
ENDBRANCH   1   2
BRANCH   1  71
ATOM     71  O   UNL A   1      41.770  19.549  25.519  1.00  0.00    -0.458 OA
BRANCH  71  72
ATOM     72  C   UNL A   1      40.442  19.699  25.768  1.00  0.00     0.342 C 
ATOM     73  O   UNL A   1      39.575  18.856  25.597  1.00  0.00    -0.246 OA
BRANCH  72  74
ATOM     74  C   UNL A   1      40.173  21.019  26.364  1.00  0.00     0.102 A 
ATOM     75  C   UNL A   1      41.059  21.567  27.297  1.00  0.00     0.023 A 
ATOM     76  C   UNL A   1      39.040  21.748  25.965  1.00  0.00     0.142 A 
ATOM     77  C   UNL A   1      40.784  22.820  27.831  1.00  0.00     0.042 A 
ATOM     78  N   UNL A   1      38.770  22.956  26.509  1.00  0.00    -0.218 NA
ATOM     79  C   UNL A   1      39.627  23.453  27.423  1.00  0.00     0.131 A 
ATOM     80  Cl  UNL A   1      39.160  24.959  28.095  1.00  0.00    -0.062 Cl
BRANCH  76  81
ATOM     81  N   UNL A   1      38.113  21.208  25.094  1.00  0.00    -0.366 N 
ATOM     82  H   UNL A   1      38.088  20.232  24.971  1.00  0.00     0.162 HD
BRANCH  81  83
ATOM     83  C   UNL A   1      37.175  22.031  24.355  1.00  0.00     0.152 C 
BRANCH  83  84
ATOM     84  C   UNL A   1      35.687  21.727  24.644  1.00  0.00     0.192 C 
ATOM     85  C   UNL A   1      34.616  22.402  23.740  1.00  0.00     0.296 C 
ATOM     86  O   UNL A   1      35.411  21.910  26.048  1.00  0.00    -0.364 OA
ATOM     87  N   UNL A   1      33.899  23.568  24.239  1.00  0.00    -0.328 N 
ATOM     88  C   UNL A   1      35.271  23.298  26.363  1.00  0.00     0.225 C 
ATOM     89  C   UNL A   1      33.978  24.778  23.441  1.00  0.00     0.262 C 
ATOM     90  C   UNL A   1      34.048  23.888  25.661  1.00  0.00     0.210 C 
ATOM     91  H   UNL A   1      32.955  23.200  24.125  1.00  0.00     0.348 HD
ATOM     92  C   UNL A   1      33.410  25.819  24.389  1.00  0.00     0.068 C 
ATOM     93  C   UNL A   1      34.023  25.416  25.721  1.00  0.00     0.073 C 
ENDBRANCH  83  84
ENDBRANCH  81  83
ENDBRANCH  76  81
ENDBRANCH  72  74
ENDBRANCH  71  72
ENDBRANCH   1  71
TORSDOF 14
ENDMDL
MODEL 2
REMARK VINA RESULT:     -11.5      2.606      4.127
REMARK SMILES O=C(OCCOC(=O)c1ccc(Cl)nc1NC[C@@H]1C[N@@H+]2CCC[C@@H]2CO1)c1ccc(-c2c3nc(c(-c4c(F)c(F)c(F)c(F)c4F)c4ccc([nH]4)c(-c4c(F)c(F)c(F)c(F)c4F)c4nc(c(-c5c(F)c(F)c(F)c(F)c5F)c5ccc2[nH]5)C=C4)C=C3)cc1
REMARK SMILES IDX 5 1 4 2 3 3 2 4 1 5 27 6 28 7 89 8 29 9 88 10 30 11 31 12
REMARK SMILES IDX 32 13 82 14 33 15 87 16 81 17 83 18 34 19 86 20 80 21 79 22
REMARK SMILES IDX 35 24 67 25 47 26 66 27 48 28 51 29 65 30 84 31 49 32 50 33
REMARK SMILES IDX 64 35 85 36 52 37 36 38 37 39 45 40 38 41 39 42 43 43 46 44
REMARK SMILES IDX 40 45 41 46 44 47 42 48 68 49 69 50 77 51 70 52 71 53 75 54
REMARK SMILES IDX 78 55 72 56 73 57 76 58 74 59 53 60 54 61 62 62 55 63 56 64
REMARK SMILES IDX 60 65 63 66 57 67 58 68 61 69 59 70 6 71 7 72 8 73 9 74
REMARK SMILES IDX 10 75 15 76 11 77 14 78 12 79 13 80 16 81 17 83 18 84 19 85
REMARK SMILES IDX 26 86 20 87 25 88 21 89 24 90 22 92 23 93
REMARK H PARENT 83 23 51 34 16 82 20 91
REMARK Flexibility Score: inf
ROOT
ATOM      1  C   UNL A   1      37.808  20.881  24.994  1.00  0.00     0.275 C 
ENDROOT
BRANCH   1   2
ATOM      2  C   UNL A   1      38.594  19.660  25.489  1.00  0.00     0.275 C 
BRANCH   2   3
ATOM      3  O   UNL A   1      39.984  19.910  25.751  1.00  0.00    -0.458 OA
BRANCH   3   4
ATOM      4  C   UNL A   1      40.571  20.410  26.863  1.00  0.00     0.338 C 
ATOM      5  O   UNL A   1      40.778  19.657  27.814  1.00  0.00    -0.246 OA
BRANCH   4   6
ATOM      6  C   UNL A   1      40.811  21.873  27.066  1.00  0.00     0.060 A 
ATOM      7  C   UNL A   1      40.199  22.922  26.377  1.00  0.00     0.016 A 
ATOM      8  C   UNL A   1      41.746  22.205  28.060  1.00  0.00     0.016 A 
ATOM      9  C   UNL A   1      40.450  24.254  26.716  1.00  0.00     0.010 A 
ATOM     10  C   UNL A   1      41.970  23.528  28.440  1.00  0.00     0.010 A 
ATOM     11  C   UNL A   1      41.338  24.563  27.745  1.00  0.00    -0.014 A 
BRANCH  11  12
ATOM     12  C   UNL A   1      41.804  25.953  27.923  1.00  0.00     0.031 A 
ATOM     13  C   UNL A   1      43.182  26.281  27.433  1.00  0.00     0.074 A 
ATOM     14  C   UNL A   1      41.017  26.895  28.469  1.00  0.00     0.049 A 
ATOM     15  N   UNL A   1      43.832  27.413  27.481  1.00  0.00    -0.248 NA
ATOM     16  C   UNL A   1      43.920  25.187  26.779  1.00  0.00     0.031 C 
ATOM     17  C   UNL A   1      39.633  26.699  28.885  1.00  0.00     0.029 A 
ATOM     18  N   UNL A   1      41.278  28.202  28.785  1.00  0.00    -0.354 N 
ATOM     19  C   UNL A   1      45.040  27.168  26.847  1.00  0.00     0.074 A 
ATOM     20  C   UNL A   1      45.074  25.768  26.500  1.00  0.00     0.031 C 
ATOM     21  C   UNL A   1      39.186  27.821  29.475  1.00  0.00     0.029 A 
ATOM     22  C   UNL A   1      40.253  28.816  29.462  1.00  0.00     0.049 A 
ATOM     23  H   UNL A   1      42.119  28.657  28.549  1.00  0.00     0.167 HD
ATOM     24  C   UNL A   1      46.017  28.049  26.540  1.00  0.00     0.037 A 
ATOM     25  C   UNL A   1      40.197  30.043  30.013  1.00  0.00     0.037 A 
ATOM     26  C   UNL A   1      45.974  29.434  26.911  1.00  0.00     0.049 A 
ATOM     27  C   UNL A   1      41.359  30.976  29.791  1.00  0.00     0.074 A 
ATOM     28  C   UNL A   1      46.901  30.427  26.665  1.00  0.00     0.029 A 
ATOM     29  N   UNL A   1      44.939  30.015  27.634  1.00  0.00    -0.354 N 
ATOM     30  N   UNL A   1      42.479  30.757  29.144  1.00  0.00    -0.248 NA
ATOM     31  C   UNL A   1      41.234  32.334  30.333  1.00  0.00     0.031 C 
ATOM     32  C   UNL A   1      46.452  31.597  27.287  1.00  0.00     0.029 A 
ATOM     33  C   UNL A   1      45.216  31.350  27.867  1.00  0.00     0.049 A 
ATOM     34  H   UNL A   1      44.127  29.546  27.936  1.00  0.00     0.167 HD
ATOM     35  C   UNL A   1      43.166  31.961  29.147  1.00  0.00     0.074 A 
ATOM     36  C   UNL A   1      42.340  32.904  29.876  1.00  0.00     0.031 C 
ATOM     37  C   UNL A   1      44.360  32.267  28.580  1.00  0.00     0.037 A 
BRANCH  24  38
ATOM     38  C   UNL A   1      47.200  27.507  25.795  1.00  0.00     0.064 A 
ATOM     39  C   UNL A   1      48.286  26.917  26.465  1.00  0.00     0.173 A 
ATOM     40  C   UNL A   1      47.286  27.642  24.402  1.00  0.00     0.173 A 
ATOM     41  F   UNL A   1      48.265  26.790  27.801  1.00  0.00    -0.203 F 
ATOM     42  C   UNL A   1      49.431  26.532  25.775  1.00  0.00     0.198 A 
ATOM     43  C   UNL A   1      48.420  27.225  23.712  1.00  0.00     0.198 A 
ATOM     44  F   UNL A   1      46.280  28.203  23.714  1.00  0.00    -0.203 F 
ATOM     45  F   UNL A   1      50.486  26.050  26.448  1.00  0.00    -0.200 F 
ATOM     46  C   UNL A   1      49.497  26.684  24.399  1.00  0.00     0.200 A 
ATOM     47  F   UNL A   1      48.481  27.367  22.381  1.00  0.00    -0.200 F 
ATOM     48  F   UNL A   1      50.607  26.328  23.737  1.00  0.00    -0.200 F 
ENDBRANCH  24  38
BRANCH  25  49
ATOM     49  C   UNL A   1      39.000  30.458  30.789  1.00  0.00     0.064 A 
ATOM     50  C   UNL A   1      37.889  31.041  30.163  1.00  0.00     0.173 A 
ATOM     51  C   UNL A   1      38.940  30.274  32.179  1.00  0.00     0.173 A 
ATOM     52  F   UNL A   1      37.899  31.244  28.838  1.00  0.00    -0.203 F 
ATOM     53  C   UNL A   1      36.774  31.440  30.899  1.00  0.00     0.198 A 
ATOM     54  C   UNL A   1      37.817  30.656  32.911  1.00  0.00     0.198 A 
ATOM     55  F   UNL A   1      39.970  29.710  32.827  1.00  0.00    -0.203 F 
ATOM     56  F   UNL A   1      35.738  32.022  30.279  1.00  0.00    -0.200 F 
ATOM     57  C   UNL A   1      36.737  31.245  32.272  1.00  0.00     0.200 A 
ATOM     58  F   UNL A   1      37.778  30.449  34.235  1.00  0.00    -0.200 F 
ATOM     59  F   UNL A   1      35.663  31.624  32.977  1.00  0.00    -0.200 F 
ENDBRANCH  25  49
BRANCH  37  60
ATOM     60  C   UNL A   1      44.816  33.693  28.663  1.00  0.00     0.064 A 
ATOM     61  C   UNL A   1      45.682  34.135  29.671  1.00  0.00     0.173 A 
ATOM     62  C   UNL A   1      44.434  34.607  27.668  1.00  0.00     0.173 A 
ATOM     63  F   UNL A   1      46.060  33.302  30.651  1.00  0.00    -0.203 F 
ATOM     64  C   UNL A   1      46.139  35.450  29.689  1.00  0.00     0.198 A 
ATOM     65  C   UNL A   1      44.920  35.909  27.671  1.00  0.00     0.198 A 
ATOM     66  F   UNL A   1      43.612  34.227  26.680  1.00  0.00    -0.203 F 
ATOM     67  F   UNL A   1      46.935  35.865  30.683  1.00  0.00    -0.200 F 
ATOM     68  C   UNL A   1      45.768  36.331  28.684  1.00  0.00     0.200 A 
ATOM     69  F   UNL A   1      44.575  36.754  26.689  1.00  0.00    -0.200 F 
ATOM     70  F   UNL A   1      46.226  37.590  28.693  1.00  0.00    -0.200 F 
ENDBRANCH  37  60
ENDBRANCH  11  12
ENDBRANCH   4   6
ENDBRANCH   3   4
ENDBRANCH   2   3
ENDBRANCH   1   2
BRANCH   1  71
ATOM     71  O   UNL A   1      36.624  21.181  25.751  1.00  0.00    -0.458 OA
BRANCH  71  72
ATOM     72  C   UNL A   1      36.250  22.488  25.731  1.00  0.00     0.342 C 
ATOM     73  O   UNL A   1      36.952  23.436  25.416  1.00  0.00    -0.246 OA
BRANCH  72  74
ATOM     74  C   UNL A   1      34.822  22.622  26.069  1.00  0.00     0.102 A 
ATOM     75  C   UNL A   1      34.331  22.117  27.277  1.00  0.00     0.023 A 
ATOM     76  C   UNL A   1      33.957  23.295  25.191  1.00  0.00     0.142 A 
ATOM     77  C   UNL A   1      32.982  22.272  27.573  1.00  0.00     0.042 A 
ATOM     78  N   UNL A   1      32.641  23.418  25.478  1.00  0.00    -0.218 NA
ATOM     79  C   UNL A   1      32.187  22.904  26.638  1.00  0.00     0.131 A 
ATOM     80  Cl  UNL A   1      30.498  23.058  26.876  1.00  0.00    -0.062 Cl
BRANCH  76  81
ATOM     81  N   UNL A   1      34.397  23.750  23.962  1.00  0.00    -0.366 N 
ATOM     82  H   UNL A   1      35.355  23.936  23.839  1.00  0.00     0.162 HD
BRANCH  81  83
ATOM     83  C   UNL A   1      33.494  23.961  22.847  1.00  0.00     0.152 C 
BRANCH  83  84
ATOM     84  C   UNL A   1      33.157  25.444  22.566  1.00  0.00     0.192 C 
ATOM     85  C   UNL A   1      33.628  26.507  23.599  1.00  0.00     0.296 C 
ATOM     86  O   UNL A   1      31.756  25.577  22.245  1.00  0.00    -0.364 OA
ATOM     87  N   UNL A   1      32.667  27.046  24.552  1.00  0.00    -0.328 N 
ATOM     88  C   UNL A   1      30.955  25.537  23.430  1.00  0.00     0.225 C 
ATOM     89  C   UNL A   1      32.988  26.903  25.960  1.00  0.00     0.262 C 
ATOM     90  C   UNL A   1      31.253  26.742  24.321  1.00  0.00     0.210 C 
ATOM     91  H   UNL A   1      32.791  28.031  24.320  1.00  0.00     0.348 HD
ATOM     92  C   UNL A   1      31.673  27.270  26.623  1.00  0.00     0.068 C 
ATOM     93  C   UNL A   1      30.653  26.594  25.721  1.00  0.00     0.073 C 
ENDBRANCH  83  84
ENDBRANCH  81  83
ENDBRANCH  76  81
ENDBRANCH  72  74
ENDBRANCH  71  72
ENDBRANCH   1  71
TORSDOF 14
ENDMDL
MODEL 3
REMARK VINA RESULT:     -11.4      2.665      4.505
REMARK SMILES O=C(OCCOC(=O)c1ccc(Cl)nc1NC[C@@H]1C[N@@H+]2CCC[C@@H]2CO1)c1ccc(-c2c3nc(c(-c4c(F)c(F)c(F)c(F)c4F)c4ccc([nH]4)c(-c4c(F)c(F)c(F)c(F)c4F)c4nc(c(-c5c(F)c(F)c(F)c(F)c5F)c5ccc2[nH]5)C=C4)C=C3)cc1
REMARK SMILES IDX 5 1 4 2 3 3 2 4 1 5 27 6 28 7 89 8 29 9 88 10 30 11 31 12
REMARK SMILES IDX 32 13 82 14 33 15 87 16 81 17 83 18 34 19 86 20 80 21 79 22
REMARK SMILES IDX 35 24 67 25 47 26 66 27 48 28 51 29 65 30 84 31 49 32 50 33
REMARK SMILES IDX 64 35 85 36 52 37 36 38 37 39 45 40 38 41 39 42 43 43 46 44
REMARK SMILES IDX 40 45 41 46 44 47 42 48 68 49 69 50 77 51 70 52 71 53 75 54
REMARK SMILES IDX 78 55 72 56 73 57 76 58 74 59 53 60 54 61 62 62 55 63 56 64
REMARK SMILES IDX 60 65 63 66 57 67 58 68 61 69 59 70 6 71 7 72 8 73 9 74
REMARK SMILES IDX 10 75 15 76 11 77 14 78 12 79 13 80 16 81 17 83 18 84 19 85
REMARK SMILES IDX 26 86 20 87 25 88 21 89 24 90 22 92 23 93
REMARK H PARENT 83 23 51 34 16 82 20 91
REMARK Flexibility Score: inf
ROOT
ATOM      1  C   UNL A   1      37.725  21.051  24.986  1.00  0.00     0.275 C 
ENDROOT
BRANCH   1   2
ATOM      2  C   UNL A   1      38.552  19.846  25.448  1.00  0.00     0.275 C 
BRANCH   2   3
ATOM      3  O   UNL A   1      39.933  20.137  25.719  1.00  0.00    -0.458 OA
BRANCH   3   4
ATOM      4  C   UNL A   1      40.500  20.629  26.845  1.00  0.00     0.338 C 
ATOM      5  O   UNL A   1      40.684  19.871  27.796  1.00  0.00    -0.246 OA
BRANCH   4   6
ATOM      6  C   UNL A   1      40.744  22.090  27.059  1.00  0.00     0.060 A 
ATOM      7  C   UNL A   1      40.090  23.146  26.423  1.00  0.00     0.016 A 
ATOM      8  C   UNL A   1      41.729  22.411  28.006  1.00  0.00     0.016 A 
ATOM      9  C   UNL A   1      40.352  24.474  26.770  1.00  0.00     0.010 A 
ATOM     10  C   UNL A   1      41.967  23.728  28.396  1.00  0.00     0.010 A 
ATOM     11  C   UNL A   1      41.293  24.771  27.754  1.00  0.00    -0.014 A 
BRANCH  11  12
ATOM     12  C   UNL A   1      41.762  26.160  27.931  1.00  0.00     0.031 A 
ATOM     13  C   UNL A   1      43.134  26.490  27.428  1.00  0.00     0.074 A 
ATOM     14  C   UNL A   1      40.980  27.102  28.486  1.00  0.00     0.049 A 
ATOM     15  N   UNL A   1      43.785  27.621  27.471  1.00  0.00    -0.248 NA
ATOM     16  C   UNL A   1      43.866  25.397  26.764  1.00  0.00     0.031 C 
ATOM     17  C   UNL A   1      39.600  26.906  28.915  1.00  0.00     0.029 A 
ATOM     18  N   UNL A   1      41.244  28.409  28.802  1.00  0.00    -0.354 N 
ATOM     19  C   UNL A   1      44.987  27.377  26.825  1.00  0.00     0.074 A 
ATOM     20  C   UNL A   1      45.017  25.978  26.475  1.00  0.00     0.031 C 
ATOM     21  C   UNL A   1      39.159  28.027  29.511  1.00  0.00     0.029 A 
ATOM     22  C   UNL A   1      40.226  29.022  29.490  1.00  0.00     0.049 A 
ATOM     23  H   UNL A   1      42.083  28.864  28.558  1.00  0.00     0.167 HD
ATOM     24  C   UNL A   1      45.961  28.259  26.510  1.00  0.00     0.037 A 
ATOM     25  C   UNL A   1      40.176  30.248  30.044  1.00  0.00     0.037 A 
ATOM     26  C   UNL A   1      45.922  29.643  26.884  1.00  0.00     0.049 A 
ATOM     27  C   UNL A   1      41.335  31.180  29.812  1.00  0.00     0.074 A 
ATOM     28  C   UNL A   1      46.846  30.636  26.630  1.00  0.00     0.029 A 
ATOM     29  N   UNL A   1      44.894  30.223  27.619  1.00  0.00    -0.354 N 
ATOM     30  N   UNL A   1      42.449  30.962  29.154  1.00  0.00    -0.248 NA
ATOM     31  C   UNL A   1      41.217  32.537  30.358  1.00  0.00     0.031 C 
ATOM     32  C   UNL A   1      46.404  31.806  27.259  1.00  0.00     0.029 A 
ATOM     33  C   UNL A   1      45.174  31.557  27.851  1.00  0.00     0.049 A 
ATOM     34  H   UNL A   1      44.085  29.753  27.927  1.00  0.00     0.167 HD
ATOM     35  C   UNL A   1      43.136  32.166  29.152  1.00  0.00     0.074 A 
ATOM     36  C   UNL A   1      42.318  33.108  29.891  1.00  0.00     0.031 C 
ATOM     37  C   UNL A   1      44.325  32.473  28.574  1.00  0.00     0.037 A 
BRANCH  24  38
ATOM     38  C   UNL A   1      47.136  27.718  25.752  1.00  0.00     0.064 A 
ATOM     39  C   UNL A   1      48.278  27.231  26.413  1.00  0.00     0.173 A 
ATOM     40  C   UNL A   1      47.156  27.752  24.351  1.00  0.00     0.173 A 
ATOM     41  F   UNL A   1      48.320  27.203  27.754  1.00  0.00    -0.203 F 
ATOM     42  C   UNL A   1      49.411  26.849  25.700  1.00  0.00     0.198 A 
ATOM     43  C   UNL A   1      48.279  27.337  23.641  1.00  0.00     0.198 A 
ATOM     44  F   UNL A   1      46.095  28.212  23.672  1.00  0.00    -0.203 F 
ATOM     45  F   UNL A   1      50.516  26.468  26.357  1.00  0.00    -0.200 F 
ATOM     46  C   UNL A   1      49.409  26.900  24.315  1.00  0.00     0.200 A 
ATOM     47  F   UNL A   1      48.275  27.382  22.302  1.00  0.00    -0.200 F 
ATOM     48  F   UNL A   1      50.506  26.548  23.630  1.00  0.00    -0.200 F 
ENDBRANCH  24  38
BRANCH  25  49
ATOM     49  C   UNL A   1      38.986  30.661  30.832  1.00  0.00     0.064 A 
ATOM     50  C   UNL A   1      38.935  30.492  32.222  1.00  0.00     0.173 A 
ATOM     51  C   UNL A   1      37.871  31.242  30.207  1.00  0.00     0.173 A 
ATOM     52  F   UNL A   1      39.971  29.936  32.866  1.00  0.00    -0.203 F 
ATOM     53  C   UNL A   1      37.810  30.870  32.954  1.00  0.00     0.198 A 
ATOM     54  C   UNL A   1      36.755  31.637  30.942  1.00  0.00     0.198 A 
ATOM     55  F   UNL A   1      37.872  31.438  28.880  1.00  0.00    -0.203 F 
ATOM     56  F   UNL A   1      37.776  30.669  34.278  1.00  0.00    -0.200 F 
ATOM     57  C   UNL A   1      36.722  31.444  32.314  1.00  0.00     0.200 A 
ATOM     58  F   UNL A   1      35.713  32.208  30.322  1.00  0.00    -0.200 F 
ATOM     59  F   UNL A   1      35.643  31.813  33.019  1.00  0.00    -0.200 F 
ENDBRANCH  25  49
BRANCH  37  60
ATOM     60  C   UNL A   1      44.782  33.899  28.655  1.00  0.00     0.064 A 
ATOM     61  C   UNL A   1      44.402  34.853  27.704  1.00  0.00     0.173 A 
ATOM     62  C   UNL A   1      45.550  34.324  29.751  1.00  0.00     0.173 A 
ATOM     63  F   UNL A   1      43.682  34.490  26.632  1.00  0.00    -0.203 F 
ATOM     64  C   UNL A   1      44.790  36.183  27.837  1.00  0.00     0.198 A 
ATOM     65  C   UNL A   1      45.906  35.659  29.898  1.00  0.00     0.198 A 
ATOM     66  F   UNL A   1      45.932  33.447  30.691  1.00  0.00    -0.203 F 
ATOM     67  F   UNL A   1      44.451  37.075  26.895  1.00  0.00    -0.200 F 
ATOM     68  C   UNL A   1      45.530  36.587  28.939  1.00  0.00     0.200 A 
ATOM     69  F   UNL A   1      46.606  36.050  30.972  1.00  0.00    -0.200 F 
ATOM     70  F   UNL A   1      45.885  37.872  29.075  1.00  0.00    -0.200 F 
ENDBRANCH  37  60
ENDBRANCH  11  12
ENDBRANCH   4   6
ENDBRANCH   3   4
ENDBRANCH   2   3
ENDBRANCH   1   2
BRANCH   1  71
ATOM     71  O   UNL A   1      36.718  21.482  25.918  1.00  0.00    -0.458 OA
BRANCH  71  72
ATOM     72  C   UNL A   1      36.251  22.742  25.712  1.00  0.00     0.342 C 
ATOM     73  O   UNL A   1      36.881  23.679  25.247  1.00  0.00    -0.246 OA
BRANCH  72  74
ATOM     74  C   UNL A   1      34.821  22.826  26.056  1.00  0.00     0.102 A 
ATOM     75  C   UNL A   1      34.354  22.306  27.267  1.00  0.00     0.023 A 
ATOM     76  C   UNL A   1      33.929  23.467  25.180  1.00  0.00     0.142 A 
ATOM     77  C   UNL A   1      33.001  22.414  27.568  1.00  0.00     0.042 A 
ATOM     78  N   UNL A   1      32.611  23.544  25.472  1.00  0.00    -0.218 NA
ATOM     79  C   UNL A   1      32.181  23.015  26.635  1.00  0.00     0.131 A 
ATOM     80  Cl  UNL A   1      30.487  23.110  26.880  1.00  0.00    -0.062 Cl
BRANCH  76  81
ATOM     81  N   UNL A   1      34.348  23.934  23.949  1.00  0.00    -0.366 N 
ATOM     82  H   UNL A   1      35.294  24.174  23.828  1.00  0.00     0.162 HD
BRANCH  81  83
ATOM     83  C   UNL A   1      33.439  24.082  22.828  1.00  0.00     0.152 C 
BRANCH  83  84
ATOM     84  C   UNL A   1      33.015  25.539  22.534  1.00  0.00     0.192 C 
ATOM     85  C   UNL A   1      33.496  26.650  23.511  1.00  0.00     0.296 C 
ATOM     86  O   UNL A   1      31.592  25.599  22.297  1.00  0.00    -0.364 OA
ATOM     87  N   UNL A   1      32.569  27.169  24.508  1.00  0.00    -0.328 N 
ATOM     88  C   UNL A   1      30.867  25.552  23.529  1.00  0.00     0.225 C 
ATOM     89  C   UNL A   1      32.981  27.077  25.897  1.00  0.00     0.262 C 
ATOM     90  C   UNL A   1      31.159  26.793  24.372  1.00  0.00     0.210 C 
ATOM     91  H   UNL A   1      32.631  28.152  24.246  1.00  0.00     0.348 HD
ATOM     92  C   UNL A   1      31.691  27.400  26.631  1.00  0.00     0.068 C 
ATOM     93  C   UNL A   1      30.653  26.654  25.809  1.00  0.00     0.073 C 
ENDBRANCH  83  84
ENDBRANCH  81  83
ENDBRANCH  76  81
ENDBRANCH  72  74
ENDBRANCH  71  72
ENDBRANCH   1  71
TORSDOF 14
ENDMDL
