MODEL 1
REMARK VINA RESULT:     -10.8      0.000      0.000
REMARK SMILES C[C@@H](CC(=O)OCCOC(=O)c1ccc(-c2c3nc(c(-c4c(F)c(F)c(F)c(F)c4F)c4ccc([nH]4)c(-c4c(F)c(F)c(F)c(F)c4F)c4nc(c(-c5c(F)c(F)c(F)c(F)c5F)c5ccc2[nH]5)C=C4)C=C3)cc1)CC(=O)N(C)C[C@H]1CCC[N@H+]1C
REMARK SMILES IDX 4 1 5 2 3 3 2 4 1 5 75 6 76 7 77 8 78 9 79 10 80 11 81 12
REMARK SMILES IDX 82 13 85 14 83 15 84 16 86 17 6 19 7 20 8 21 9 22 10 23
REMARK SMILES IDX 11 24 12 25 13 26 74 27 14 28 73 29 15 30 16 31 17 32 67 33
REMARK SMILES IDX 18 34 72 35 66 36 68 37 19 38 71 39 65 40 64 41 20 43 52 44
REMARK SMILES IDX 32 45 51 46 33 47 36 48 50 49 69 50 34 51 35 52 49 54 70 55
REMARK SMILES IDX 37 56 21 57 22 58 30 59 23 60 24 61 28 62 31 63 25 64 26 65
REMARK SMILES IDX 29 66 27 67 53 68 54 69 62 70 55 71 56 72 60 73 63 74 57 75
REMARK SMILES IDX 58 76 61 77 59 78 38 79 39 80 47 81 40 82 41 83 45 84 48 85
REMARK SMILES IDX 42 86 43 87 46 88 44 89
REMARK H PARENT 85 18 68 42 36 53
REMARK Flexibility Score: inf
ROOT
ATOM      1  C   UNL A   1      30.815  27.506  22.868  1.00  0.00     0.306 C 
ATOM      2  O   UNL A   1      30.249  28.161  22.001  1.00  0.00    -0.252 OA
ENDROOT
BRANCH   1   3
ATOM      3  C   UNL A   1      31.190  26.051  22.653  1.00  0.00     0.126 C 
BRANCH   3   4
ATOM      4  C   UNL A   1      32.672  25.633  22.707  1.00  0.00     0.006 C 
ATOM      5  C   UNL A   1      33.545  26.647  21.969  1.00  0.00     0.009 C 
BRANCH   4   6
ATOM      6  C   UNL A   1      32.890  24.169  22.276  1.00  0.00     0.104 C 
BRANCH   6   7
ATOM      7  C   UNL A   1      33.996  23.460  23.062  1.00  0.00     0.222 C 
ATOM      8  O   UNL A   1      35.167  23.623  22.707  1.00  0.00    -0.275 OA
BRANCH   7   9
ATOM      9  N   UNL A   1      33.662  22.637  24.128  1.00  0.00    -0.340 N 
ATOM     10  C   UNL A   1      34.307  21.361  24.411  1.00  0.00     0.147 C 
BRANCH   9  11
ATOM     11  C   UNL A   1      32.392  22.859  24.843  1.00  0.00     0.184 C 
BRANCH  11  12
ATOM     12  C   UNL A   1      32.418  23.446  26.292  1.00  0.00     0.203 C 
ATOM     13  C   UNL A   1      33.261  24.739  26.291  1.00  0.00     0.073 C 
ATOM     14  N   UNL A   1      31.184  23.955  26.913  1.00  0.00    -0.333 N 
ATOM     15  C   UNL A   1      32.260  25.898  26.290  1.00  0.00     0.068 C 
ATOM     16  C   UNL A   1      30.893  25.245  26.310  1.00  0.00     0.262 C 
ATOM     17  C   UNL A   1      30.053  23.062  26.910  1.00  0.00     0.333 C 
ATOM     18  H   UNL A   1      31.360  24.048  27.914  1.00  0.00     0.348 HD
ENDBRANCH  11  12
ENDBRANCH   9  11
ENDBRANCH   7   9
ENDBRANCH   6   7
ENDBRANCH   4   6
ENDBRANCH   3   4
ENDBRANCH   1   3
BRANCH   1  19
ATOM     19  O   UNL A   1      31.180  27.986  24.080  1.00  0.00    -0.462 OA
BRANCH  19  20
ATOM     20  C   UNL A   1      31.836  29.269  24.118  1.00  0.00     0.274 C 
BRANCH  20  21
ATOM     21  C   UNL A   1      31.780  29.829  25.534  1.00  0.00     0.275 C 
BRANCH  21  22
ATOM     22  O   UNL A   1      33.121  30.094  25.977  1.00  0.00    -0.458 OA
BRANCH  22  23
ATOM     23  C   UNL A   1      33.262  31.087  26.881  1.00  0.00     0.338 C 
ATOM     24  O   UNL A   1      32.497  32.008  27.116  1.00  0.00    -0.246 OA
BRANCH  23  25
ATOM     25  C   UNL A   1      34.525  30.872  27.595  1.00  0.00     0.060 A 
ATOM     26  C   UNL A   1      35.363  31.959  27.855  1.00  0.00     0.016 A 
ATOM     27  C   UNL A   1      34.890  29.584  27.978  1.00  0.00     0.016 A 
ATOM     28  C   UNL A   1      36.582  31.762  28.497  1.00  0.00     0.010 A 
ATOM     29  C   UNL A   1      36.086  29.395  28.669  1.00  0.00     0.010 A 
ATOM     30  C   UNL A   1      36.940  30.482  28.933  1.00  0.00    -0.014 A 
BRANCH  30  31
ATOM     31  C   UNL A   1      38.194  30.259  29.689  1.00  0.00     0.031 A 
ATOM     32  C   UNL A   1      39.259  29.368  29.125  1.00  0.00     0.074 A 
ATOM     33  C   UNL A   1      38.345  30.815  30.906  1.00  0.00     0.049 A 
ATOM     34  N   UNL A   1      40.311  28.860  29.712  1.00  0.00    -0.248 NA
ATOM     35  C   UNL A   1      39.114  28.992  27.710  1.00  0.00     0.031 C 
ATOM     36  C   UNL A   1      37.402  31.739  31.536  1.00  0.00     0.029 A 
ATOM     37  N   UNL A   1      39.340  30.666  31.839  1.00  0.00    -0.354 N 
ATOM     38  C   UNL A   1      40.935  28.076  28.753  1.00  0.00     0.074 A 
ATOM     39  C   UNL A   1      40.141  28.171  27.545  1.00  0.00     0.031 C 
ATOM     40  C   UNL A   1      37.861  32.072  32.752  1.00  0.00     0.029 A 
ATOM     41  C   UNL A   1      39.090  31.330  33.013  1.00  0.00     0.049 A 
ATOM     42  H   UNL A   1      40.154  30.134  31.680  1.00  0.00     0.167 HD
ATOM     43  C   UNL A   1      42.066  27.342  28.877  1.00  0.00     0.037 A 
ATOM     44  C   UNL A   1      39.749  31.303  34.186  1.00  0.00     0.037 A 
ATOM     45  C   UNL A   1      42.856  27.272  30.079  1.00  0.00     0.049 A 
ATOM     46  C   UNL A   1      40.960  30.424  34.321  1.00  0.00     0.074 A 
ATOM     47  C   UNL A   1      44.024  26.567  30.308  1.00  0.00     0.029 A 
ATOM     48  N   UNL A   1      42.556  27.942  31.257  1.00  0.00    -0.354 N 
ATOM     49  N   UNL A   1      41.526  29.653  33.425  1.00  0.00    -0.248 NA
ATOM     50  C   UNL A   1      41.612  30.397  35.637  1.00  0.00     0.031 C 
ATOM     51  C   UNL A   1      44.410  26.780  31.637  1.00  0.00     0.029 A 
ATOM     52  C   UNL A   1      43.505  27.651  32.223  1.00  0.00     0.049 A 
ATOM     53  H   UNL A   1      41.781  28.536  31.388  1.00  0.00     0.167 HD
ATOM     54  C   UNL A   1      42.609  29.061  34.060  1.00  0.00     0.074 A 
ATOM     55  C   UNL A   1      42.628  29.573  35.415  1.00  0.00     0.031 C 
ATOM     56  C   UNL A   1      43.504  28.173  33.566  1.00  0.00     0.037 A 
BRANCH  43  57
ATOM     57  C   UNL A   1      42.497  26.529  27.693  1.00  0.00     0.064 A 
ATOM     58  C   UNL A   1      43.464  26.993  26.790  1.00  0.00     0.173 A 
ATOM     59  C   UNL A   1      41.953  25.254  27.475  1.00  0.00     0.173 A 
ATOM     60  F   UNL A   1      44.004  28.210  26.947  1.00  0.00    -0.203 F 
ATOM     61  C   UNL A   1      43.853  26.220  25.698  1.00  0.00     0.198 A 
ATOM     62  C   UNL A   1      42.363  24.473  26.397  1.00  0.00     0.198 A 
ATOM     63  F   UNL A   1      41.026  24.762  28.311  1.00  0.00    -0.203 F 
ATOM     64  F   UNL A   1      44.750  26.699  24.825  1.00  0.00    -0.200 F 
ATOM     65  C   UNL A   1      43.307  24.959  25.507  1.00  0.00     0.200 A 
ATOM     66  F   UNL A   1      41.840  23.252  26.219  1.00  0.00    -0.200 F 
ATOM     67  F   UNL A   1      43.686  24.215  24.459  1.00  0.00    -0.200 F 
ENDBRANCH  43  57
BRANCH  44  68
ATOM     68  C   UNL A   1      39.252  32.108  35.329  1.00  0.00     0.064 A 
ATOM     69  C   UNL A   1      38.450  31.527  36.321  1.00  0.00     0.173 A 
ATOM     70  C   UNL A   1      39.580  33.466  35.464  1.00  0.00     0.173 A 
ATOM     71  F   UNL A   1      38.090  30.240  36.221  1.00  0.00    -0.203 F 
ATOM     72  C   UNL A   1      37.993  32.275  37.405  1.00  0.00     0.198 A 
ATOM     73  C   UNL A   1      39.144  34.205  36.562  1.00  0.00     0.198 A 
ATOM     74  F   UNL A   1      40.341  34.069  34.541  1.00  0.00    -0.203 F 
ATOM     75  F   UNL A   1      37.203  31.704  38.323  1.00  0.00    -0.200 F 
ATOM     76  C   UNL A   1      38.347  33.611  37.528  1.00  0.00     0.200 A 
ATOM     77  F   UNL A   1      39.497  35.492  36.684  1.00  0.00    -0.200 F 
ATOM     78  F   UNL A   1      37.916  34.325  38.576  1.00  0.00    -0.200 F 
ENDBRANCH  44  68
BRANCH  56  79
ATOM     79  C   UNL A   1      44.596  27.723  34.489  1.00  0.00     0.064 A 
ATOM     80  C   UNL A   1      45.790  28.446  34.617  1.00  0.00     0.173 A 
ATOM     81  C   UNL A   1      44.432  26.574  35.275  1.00  0.00     0.173 A 
ATOM     82  F   UNL A   1      46.000  29.541  33.871  1.00  0.00    -0.203 F 
ATOM     83  C   UNL A   1      46.790  28.023  35.487  1.00  0.00     0.198 A 
ATOM     84  C   UNL A   1      45.423  26.167  36.162  1.00  0.00     0.198 A 
ATOM     85  F   UNL A   1      43.304  25.851  35.188  1.00  0.00    -0.203 F 
ATOM     86  F   UNL A   1      47.941  28.705  35.566  1.00  0.00    -0.200 F 
ATOM     87  C   UNL A   1      46.603  26.888  36.263  1.00  0.00     0.200 A 
ATOM     88  F   UNL A   1      45.238  25.075  36.916  1.00  0.00    -0.200 F 
ATOM     89  F   UNL A   1      47.566  26.484  37.104  1.00  0.00    -0.200 F 
ENDBRANCH  56  79
ENDBRANCH  30  31
ENDBRANCH  23  25
ENDBRANCH  22  23
ENDBRANCH  21  22
ENDBRANCH  20  21
ENDBRANCH  19  20
ENDBRANCH   1  19
TORSDOF 17
ENDMDL
MODEL 2
REMARK VINA RESULT:     -10.5      0.911      2.145
REMARK SMILES C[C@@H](CC(=O)OCCOC(=O)c1ccc(-c2c3nc(c(-c4c(F)c(F)c(F)c(F)c4F)c4ccc([nH]4)c(-c4c(F)c(F)c(F)c(F)c4F)c4nc(c(-c5c(F)c(F)c(F)c(F)c5F)c5ccc2[nH]5)C=C4)C=C3)cc1)CC(=O)N(C)C[C@H]1CCC[N@H+]1C
REMARK SMILES IDX 4 1 5 2 3 3 2 4 1 5 75 6 76 7 77 8 78 9 79 10 80 11 81 12
REMARK SMILES IDX 82 13 85 14 83 15 84 16 86 17 6 19 7 20 8 21 9 22 10 23
REMARK SMILES IDX 11 24 12 25 13 26 74 27 14 28 73 29 15 30 16 31 17 32 67 33
REMARK SMILES IDX 18 34 72 35 66 36 68 37 19 38 71 39 65 40 64 41 20 43 52 44
REMARK SMILES IDX 32 45 51 46 33 47 36 48 50 49 69 50 34 51 35 52 49 54 70 55
REMARK SMILES IDX 37 56 21 57 22 58 30 59 23 60 24 61 28 62 31 63 25 64 26 65
REMARK SMILES IDX 29 66 27 67 53 68 54 69 62 70 55 71 56 72 60 73 63 74 57 75
REMARK SMILES IDX 58 76 61 77 59 78 38 79 39 80 47 81 40 82 41 83 45 84 48 85
REMARK SMILES IDX 42 86 43 87 46 88 44 89
REMARK H PARENT 85 18 68 42 36 53
REMARK Flexibility Score: inf
ROOT
ATOM      1  C   UNL A   1      30.205  27.992  23.102  1.00  0.00     0.306 C 
ATOM      2  O   UNL A   1      30.633  27.887  21.958  1.00  0.00    -0.252 OA
ENDROOT
BRANCH   1   3
ATOM      3  C   UNL A   1      29.361  26.904  23.742  1.00  0.00     0.126 C 
BRANCH   3   4
ATOM      4  C   UNL A   1      30.054  25.681  24.376  1.00  0.00     0.006 C 
ATOM      5  C   UNL A   1      29.975  25.749  25.900  1.00  0.00     0.009 C 
BRANCH   4   6
ATOM      6  C   UNL A   1      31.472  25.451  23.818  1.00  0.00     0.104 C 
BRANCH   6   7
ATOM      7  C   UNL A   1      31.999  24.034  24.060  1.00  0.00     0.222 C 
ATOM      8  O   UNL A   1      31.422  23.090  23.512  1.00  0.00    -0.275 OA
BRANCH   7   9
ATOM      9  N   UNL A   1      33.086  23.839  24.901  1.00  0.00    -0.340 N 
ATOM     10  C   UNL A   1      33.595  24.841  25.827  1.00  0.00     0.147 C 
BRANCH   9  11
ATOM     11  C   UNL A   1      33.998  22.707  24.652  1.00  0.00     0.184 C 
BRANCH  11  12
ATOM     12  C   UNL A   1      34.199  21.624  25.762  1.00  0.00     0.203 C 
ATOM     13  C   UNL A   1      32.850  20.925  26.027  1.00  0.00     0.073 C 
ATOM     14  N   UNL A   1      35.045  20.446  25.510  1.00  0.00    -0.333 N 
ATOM     15  C   UNL A   1      32.917  19.583  25.294  1.00  0.00     0.068 C 
ATOM     16  C   UNL A   1      34.290  19.544  24.655  1.00  0.00     0.262 C 
ATOM     17  C   UNL A   1      36.375  20.707  25.020  1.00  0.00     0.333 C 
ATOM     18  H   UNL A   1      35.247  20.014  26.412  1.00  0.00     0.348 HD
ENDBRANCH  11  12
ENDBRANCH   9  11
ENDBRANCH   7   9
ENDBRANCH   6   7
ENDBRANCH   4   6
ENDBRANCH   3   4
ENDBRANCH   1   3
BRANCH   1  19
ATOM     19  O   UNL A   1      30.434  29.049  23.917  1.00  0.00    -0.462 OA
BRANCH  19  20
ATOM     20  C   UNL A   1      31.792  29.275  24.344  1.00  0.00     0.274 C 
BRANCH  20  21
ATOM     21  C   UNL A   1      31.791  29.996  25.687  1.00  0.00     0.275 C 
BRANCH  21  22
ATOM     22  O   UNL A   1      33.144  30.329  26.033  1.00  0.00    -0.458 OA
BRANCH  22  23
ATOM     23  C   UNL A   1      33.299  31.291  26.967  1.00  0.00     0.338 C 
ATOM     24  O   UNL A   1      32.550  32.217  27.228  1.00  0.00    -0.246 OA
BRANCH  23  25
ATOM     25  C   UNL A   1      34.556  31.032  27.678  1.00  0.00     0.060 A 
ATOM     26  C   UNL A   1      35.448  32.084  27.905  1.00  0.00     0.016 A 
ATOM     27  C   UNL A   1      34.861  29.739  28.090  1.00  0.00     0.016 A 
ATOM     28  C   UNL A   1      36.660  31.844  28.544  1.00  0.00     0.010 A 
ATOM     29  C   UNL A   1      36.052  29.508  28.778  1.00  0.00     0.010 A 
ATOM     30  C   UNL A   1      36.960  30.559  29.009  1.00  0.00    -0.014 A 
BRANCH  30  31
ATOM     31  C   UNL A   1      38.207  30.294  29.763  1.00  0.00     0.031 A 
ATOM     32  C   UNL A   1      39.238  29.363  29.199  1.00  0.00     0.074 A 
ATOM     33  C   UNL A   1      38.382  30.849  30.977  1.00  0.00     0.049 A 
ATOM     34  N   UNL A   1      40.272  28.819  29.786  1.00  0.00    -0.248 NA
ATOM     35  C   UNL A   1      39.074  28.986  27.787  1.00  0.00     0.031 C 
ATOM     36  C   UNL A   1      37.475  31.810  31.606  1.00  0.00     0.029 A 
ATOM     37  N   UNL A   1      39.374  30.669  31.907  1.00  0.00    -0.354 N 
ATOM     38  C   UNL A   1      40.864  28.009  28.828  1.00  0.00     0.074 A 
ATOM     39  C   UNL A   1      40.070  28.127  27.623  1.00  0.00     0.031 C 
ATOM     40  C   UNL A   1      37.949  32.131  32.819  1.00  0.00     0.029 A 
ATOM     41  C   UNL A   1      39.151  31.347  33.079  1.00  0.00     0.049 A 
ATOM     42  H   UNL A   1      40.167  30.107  31.748  1.00  0.00     0.167 HD
ATOM     43  C   UNL A   1      41.969  27.235  28.952  1.00  0.00     0.037 A 
ATOM     44  C   UNL A   1      39.813  31.301  34.250  1.00  0.00     0.037 A 
ATOM     45  C   UNL A   1      42.759  27.143  30.152  1.00  0.00     0.049 A 
ATOM     46  C   UNL A   1      40.992  30.379  34.386  1.00  0.00     0.074 A 
ATOM     47  C   UNL A   1      43.902  26.396  30.381  1.00  0.00     0.029 A 
ATOM     48  N   UNL A   1      42.487  27.828  31.328  1.00  0.00    -0.354 N 
ATOM     49  N   UNL A   1      41.527  29.584  33.492  1.00  0.00    -0.248 NA
ATOM     50  C   UNL A   1      41.647  30.335  35.700  1.00  0.00     0.031 C 
ATOM     51  C   UNL A   1      44.300  26.601  31.708  1.00  0.00     0.029 A 
ATOM     52  C   UNL A   1      43.428  27.507  32.293  1.00  0.00     0.049 A 
ATOM     53  H   UNL A   1      41.735  28.450  31.459  1.00  0.00     0.167 HD
ATOM     54  C   UNL A   1      42.589  28.957  34.126  1.00  0.00     0.074 A 
ATOM     55  C   UNL A   1      42.631  29.474  35.479  1.00  0.00     0.031 C 
ATOM     56  C   UNL A   1      43.451  28.035  33.633  1.00  0.00     0.037 A 
BRANCH  43  57
ATOM     57  C   UNL A   1      42.366  26.402  27.771  1.00  0.00     0.064 A 
ATOM     58  C   UNL A   1      43.319  26.844  26.842  1.00  0.00     0.173 A 
ATOM     59  C   UNL A   1      41.803  25.131  27.581  1.00  0.00     0.173 A 
ATOM     60  F   UNL A   1      43.876  28.056  26.972  1.00  0.00    -0.203 F 
ATOM     61  C   UNL A   1      43.678  26.051  25.753  1.00  0.00     0.198 A 
ATOM     62  C   UNL A   1      42.182  24.332  26.505  1.00  0.00     0.198 A 
ATOM     63  F   UNL A   1      40.889  24.660  28.442  1.00  0.00    -0.203 F 
ATOM     64  F   UNL A   1      44.561  26.509  24.856  1.00  0.00    -0.200 F 
ATOM     65  C   UNL A   1      43.113  24.795  25.590  1.00  0.00     0.200 A 
ATOM     66  F   UNL A   1      41.643  23.114  26.354  1.00  0.00    -0.200 F 
ATOM     67  F   UNL A   1      43.463  24.033  24.544  1.00  0.00    -0.200 F 
ENDBRANCH  43  57
BRANCH  44  68
ATOM     68  C   UNL A   1      39.349  32.129  35.391  1.00  0.00     0.064 A 
ATOM     69  C   UNL A   1      38.533  31.581  36.390  1.00  0.00     0.173 A 
ATOM     70  C   UNL A   1      39.723  33.476  35.517  1.00  0.00     0.173 A 
ATOM     71  F   UNL A   1      38.129  30.306  36.299  1.00  0.00    -0.203 F 
ATOM     72  C   UNL A   1      38.107  32.349  37.472  1.00  0.00     0.198 A 
ATOM     73  C   UNL A   1      39.318  34.235  36.613  1.00  0.00     0.198 A 
ATOM     74  F   UNL A   1      40.500  34.047  34.587  1.00  0.00    -0.203 F 
ATOM     75  F   UNL A   1      37.302  31.810  38.397  1.00  0.00    -0.200 F 
ATOM     76  C   UNL A   1      38.506  33.673  37.586  1.00  0.00     0.200 A 
ATOM     77  F   UNL A   1      39.715  35.509  36.726  1.00  0.00    -0.200 F 
ATOM     78  F   UNL A   1      38.105  34.407  38.632  1.00  0.00    -0.200 F 
ENDBRANCH  44  68
BRANCH  56  79
ATOM     79  C   UNL A   1      44.528  27.550  34.555  1.00  0.00     0.064 A 
ATOM     80  C   UNL A   1      44.359  26.398  35.336  1.00  0.00     0.173 A 
ATOM     81  C   UNL A   1      45.753  28.228  34.634  1.00  0.00     0.173 A 
ATOM     82  F   UNL A   1      43.197  25.728  35.308  1.00  0.00    -0.203 F 
ATOM     83  C   UNL A   1      45.373  25.953  36.179  1.00  0.00     0.198 A 
ATOM     84  C   UNL A   1      46.774  27.767  35.458  1.00  0.00     0.198 A 
ATOM     85  F   UNL A   1      45.962  29.334  33.902  1.00  0.00    -0.203 F 
ATOM     86  F   UNL A   1      45.178  24.873  36.948  1.00  0.00    -0.200 F 
ATOM     87  C   UNL A   1      46.581  26.633  36.234  1.00  0.00     0.200 A 
ATOM     88  F   UNL A   1      47.943  28.420  35.506  1.00  0.00    -0.200 F 
ATOM     89  F   UNL A   1      47.559  26.201  37.044  1.00  0.00    -0.200 F 
ENDBRANCH  56  79
ENDBRANCH  30  31
ENDBRANCH  23  25
ENDBRANCH  22  23
ENDBRANCH  21  22
ENDBRANCH  20  21
ENDBRANCH  19  20
ENDBRANCH   1  19
TORSDOF 17
ENDMDL
MODEL 3
REMARK VINA RESULT:     -10.5      0.953      2.431
REMARK SMILES C[C@@H](CC(=O)OCCOC(=O)c1ccc(-c2c3nc(c(-c4c(F)c(F)c(F)c(F)c4F)c4ccc([nH]4)c(-c4c(F)c(F)c(F)c(F)c4F)c4nc(c(-c5c(F)c(F)c(F)c(F)c5F)c5ccc2[nH]5)C=C4)C=C3)cc1)CC(=O)N(C)C[C@H]1CCC[N@H+]1C
REMARK SMILES IDX 4 1 5 2 3 3 2 4 1 5 75 6 76 7 77 8 78 9 79 10 80 11 81 12
REMARK SMILES IDX 82 13 85 14 83 15 84 16 86 17 6 19 7 20 8 21 9 22 10 23
REMARK SMILES IDX 11 24 12 25 13 26 74 27 14 28 73 29 15 30 16 31 17 32 67 33
REMARK SMILES IDX 18 34 72 35 66 36 68 37 19 38 71 39 65 40 64 41 20 43 52 44
REMARK SMILES IDX 32 45 51 46 33 47 36 48 50 49 69 50 34 51 35 52 49 54 70 55
REMARK SMILES IDX 37 56 21 57 22 58 30 59 23 60 24 61 28 62 31 63 25 64 26 65
REMARK SMILES IDX 29 66 27 67 53 68 54 69 62 70 55 71 56 72 60 73 63 74 57 75
REMARK SMILES IDX 58 76 61 77 59 78 38 79 39 80 47 81 40 82 41 83 45 84 48 85
REMARK SMILES IDX 42 86 43 87 46 88 44 89
REMARK H PARENT 85 18 68 42 36 53
REMARK Flexibility Score: inf
ROOT
ATOM      1  C   UNL A   1      30.453  28.105  23.193  1.00  0.00     0.306 C 
ATOM      2  O   UNL A   1      30.181  28.229  22.004  1.00  0.00    -0.252 OA
ENDROOT
BRANCH   1   3
ATOM      3  C   UNL A   1      30.790  26.754  23.798  1.00  0.00     0.126 C 
BRANCH   3   4
ATOM      4  C   UNL A   1      31.214  25.594  22.876  1.00  0.00     0.006 C 
ATOM      5  C   UNL A   1      30.652  24.268  23.386  1.00  0.00     0.009 C 
BRANCH   4   6
ATOM      6  C   UNL A   1      32.730  25.583  22.599  1.00  0.00     0.104 C 
BRANCH   6   7
ATOM      7  C   UNL A   1      33.571  26.050  23.790  1.00  0.00     0.222 C 
ATOM      8  O   UNL A   1      34.031  27.195  23.772  1.00  0.00    -0.275 OA
BRANCH   7   9
ATOM      9  N   UNL A   1      33.817  25.178  24.841  1.00  0.00    -0.340 N 
ATOM     10  C   UNL A   1      33.124  25.223  26.122  1.00  0.00     0.147 C 
BRANCH   9  11
ATOM     11  C   UNL A   1      35.047  24.365  24.833  1.00  0.00     0.184 C 
BRANCH  11  12
ATOM     12  C   UNL A   1      35.162  23.157  23.847  1.00  0.00     0.203 C 
ATOM     13  C   UNL A   1      36.649  22.940  23.496  1.00  0.00     0.073 C 
ATOM     14  N   UNL A   1      34.810  21.797  24.288  1.00  0.00    -0.333 N 
ATOM     15  C   UNL A   1      37.115  21.752  24.343  1.00  0.00     0.068 C 
ATOM     16  C   UNL A   1      35.895  21.317  25.129  1.00  0.00     0.262 C 
ATOM     17  C   UNL A   1      33.513  21.639  24.896  1.00  0.00     0.333 C 
ATOM     18  H   UNL A   1      34.709  21.220  23.452  1.00  0.00     0.348 HD
ENDBRANCH  11  12
ENDBRANCH   9  11
ENDBRANCH   7   9
ENDBRANCH   6   7
ENDBRANCH   4   6
ENDBRANCH   3   4
ENDBRANCH   1   3
BRANCH   1  19
ATOM     19  O   UNL A   1      30.499  29.124  24.083  1.00  0.00    -0.462 OA
BRANCH  19  20
ATOM     20  C   UNL A   1      31.476  29.038  25.140  1.00  0.00     0.274 C 
BRANCH  20  21
ATOM     21  C   UNL A   1      31.738  30.429  25.706  1.00  0.00     0.275 C 
BRANCH  21  22
ATOM     22  O   UNL A   1      33.034  30.439  26.324  1.00  0.00    -0.458 OA
BRANCH  22  23
ATOM     23  C   UNL A   1      33.336  31.534  27.052  1.00  0.00     0.338 C 
ATOM     24  O   UNL A   1      32.727  32.589  27.119  1.00  0.00    -0.246 OA
BRANCH  23  25
ATOM     25  C   UNL A   1      34.559  31.249  27.812  1.00  0.00     0.060 A 
ATOM     26  C   UNL A   1      34.767  29.966  28.326  1.00  0.00     0.016 A 
ATOM     27  C   UNL A   1      35.482  32.265  28.040  1.00  0.00     0.016 A 
ATOM     28  C   UNL A   1      35.902  29.693  29.081  1.00  0.00     0.010 A 
ATOM     29  C   UNL A   1      36.646  31.977  28.751  1.00  0.00     0.010 A 
ATOM     30  C   UNL A   1      36.865  30.690  29.277  1.00  0.00    -0.014 A 
BRANCH  30  31
ATOM     31  C   UNL A   1      38.120  30.402  30.008  1.00  0.00     0.031 A 
ATOM     32  C   UNL A   1      39.139  29.480  29.410  1.00  0.00     0.074 A 
ATOM     33  C   UNL A   1      38.313  30.928  31.232  1.00  0.00     0.049 A 
ATOM     34  N   UNL A   1      40.178  28.918  29.970  1.00  0.00    -0.248 NA
ATOM     35  C   UNL A   1      38.956  29.137  27.991  1.00  0.00     0.031 C 
ATOM     36  C   UNL A   1      37.418  31.878  31.895  1.00  0.00     0.029 A 
ATOM     37  N   UNL A   1      39.316  30.721  32.145  1.00  0.00    -0.354 N 
ATOM     38  C   UNL A   1      40.754  28.128  28.986  1.00  0.00     0.074 A 
ATOM     39  C   UNL A   1      39.946  28.278  27.794  1.00  0.00     0.031 C 
ATOM     40  C   UNL A   1      37.910  32.168  33.109  1.00  0.00     0.029 A 
ATOM     41  C   UNL A   1      39.111  31.372  33.336  1.00  0.00     0.049 A 
ATOM     42  H   UNL A   1      40.104  30.160  31.963  1.00  0.00     0.167 HD
ATOM     43  C   UNL A   1      41.857  27.346  29.078  1.00  0.00     0.037 A 
ATOM     44  C   UNL A   1      39.787  31.296  34.497  1.00  0.00     0.037 A 
ATOM     45  C   UNL A   1      42.662  27.222  30.265  1.00  0.00     0.049 A 
ATOM     46  C   UNL A   1      40.963  30.366  34.596  1.00  0.00     0.074 A 
ATOM     47  C   UNL A   1      43.803  26.465  30.462  1.00  0.00     0.029 A 
ATOM     48  N   UNL A   1      42.408  27.881  31.460  1.00  0.00    -0.354 N 
ATOM     49  N   UNL A   1      41.483  29.590  33.677  1.00  0.00    -0.248 NA
ATOM     50  C   UNL A   1      41.635  30.288  35.900  1.00  0.00     0.031 C 
ATOM     51  C   UNL A   1      44.219  26.637  31.788  1.00  0.00     0.029 A 
ATOM     52  C   UNL A   1      43.359  27.532  32.405  1.00  0.00     0.049 A 
ATOM     53  H   UNL A   1      41.660  28.503  31.615  1.00  0.00     0.167 HD
ATOM     54  C   UNL A   1      42.551  28.943  34.282  1.00  0.00     0.074 A 
ATOM     55  C   UNL A   1      42.612  29.428  35.646  1.00  0.00     0.031 C 
ATOM     56  C   UNL A   1      43.401  28.029  33.756  1.00  0.00     0.037 A 
BRANCH  43  57
ATOM     57  C   UNL A   1      42.235  26.539  27.872  1.00  0.00     0.064 A 
ATOM     58  C   UNL A   1      41.605  25.323  27.569  1.00  0.00     0.173 A 
ATOM     59  C   UNL A   1      43.224  27.004  26.992  1.00  0.00     0.173 A 
ATOM     60  F   UNL A   1      40.663  24.829  28.386  1.00  0.00    -0.203 F 
ATOM     61  C   UNL A   1      41.968  24.591  26.441  1.00  0.00     0.198 A 
ATOM     62  C   UNL A   1      43.566  26.282  25.852  1.00  0.00     0.198 A 
ATOM     63  F   UNL A   1      43.854  28.163  27.234  1.00  0.00    -0.203 F 
ATOM     64  F   UNL A   1      41.382  23.412  26.192  1.00  0.00    -0.200 F 
ATOM     65  C   UNL A   1      42.944  25.074  25.581  1.00  0.00     0.200 A 
ATOM     66  F   UNL A   1      44.503  26.755  25.017  1.00  0.00    -0.200 F 
ATOM     67  F   UNL A   1      43.288  24.370  24.494  1.00  0.00    -0.200 F 
ENDBRANCH  43  57
BRANCH  44  68
ATOM     68  C   UNL A   1      39.341  32.099  35.663  1.00  0.00     0.064 A 
ATOM     69  C   UNL A   1      38.402  31.588  36.569  1.00  0.00     0.173 A 
ATOM     70  C   UNL A   1      39.856  33.382  35.906  1.00  0.00     0.173 A 
ATOM     71  F   UNL A   1      37.864  30.377  36.362  1.00  0.00    -0.203 F 
ATOM     72  C   UNL A   1      37.991  32.331  37.673  1.00  0.00     0.198 A 
ATOM     73  C   UNL A   1      39.463  34.112  37.026  1.00  0.00     0.198 A 
ATOM     74  F   UNL A   1      40.754  33.916  35.068  1.00  0.00    -0.203 F 
ATOM     75  F   UNL A   1      37.069  31.833  38.507  1.00  0.00    -0.200 F 
ATOM     76  C   UNL A   1      38.528  33.589  37.905  1.00  0.00     0.200 A 
ATOM     77  F   UNL A   1      39.993  35.322  37.253  1.00  0.00    -0.200 F 
ATOM     78  F   UNL A   1      38.141  34.298  38.974  1.00  0.00    -0.200 F 
ENDBRANCH  44  68
BRANCH  56  79
ATOM     79  C   UNL A   1      44.488  27.518  34.653  1.00  0.00     0.064 A 
ATOM     80  C   UNL A   1      44.325  26.347  35.407  1.00  0.00     0.173 A 
ATOM     81  C   UNL A   1      45.716  28.190  34.735  1.00  0.00     0.173 A 
ATOM     82  F   UNL A   1      43.161  25.681  35.375  1.00  0.00    -0.203 F 
ATOM     83  C   UNL A   1      45.348  25.878  36.225  1.00  0.00     0.198 A 
ATOM     84  C   UNL A   1      46.745  27.706  35.535  1.00  0.00     0.198 A 
ATOM     85  F   UNL A   1      45.919  29.314  34.029  1.00  0.00    -0.203 F 
ATOM     86  F   UNL A   1      45.158  24.779  36.969  1.00  0.00    -0.200 F 
ATOM     87  C   UNL A   1      46.558  26.553  36.284  1.00  0.00     0.200 A 
ATOM     88  F   UNL A   1      47.916  28.354  35.585  1.00  0.00    -0.200 F 
ATOM     89  F   UNL A   1      47.543  26.097  37.071  1.00  0.00    -0.200 F 
ENDBRANCH  56  79
ENDBRANCH  30  31
ENDBRANCH  23  25
ENDBRANCH  22  23
ENDBRANCH  21  22
ENDBRANCH  20  21
ENDBRANCH  19  20
ENDBRANCH   1  19
TORSDOF 17
ENDMDL
