MODEL 1
REMARK VINA RESULT:     -12.9      0.000      0.000
REMARK SMILES Cc1nc(-c2ccccc2Cl)nc2sc(C(=O)OCCOC(=O)c3ccc(-c4c5nc(c(-c6c(F)c(F)c(F)c(F)c6F)c6ccc([nH]6)c(-c6c(F)c(F)c(F)c(F)c6F)c6nc(c(-c7c(F)c(F)c(F)c(F)c7F)c7ccc4[nH]7)C=C6)C=C5)cc3)c(N)c12
REMARK SMILES IDX 20 1 19 2 18 3 16 4 17 5 15 6 1 7 2 8 3 9 89 10 4 11 13 12
REMARK SMILES IDX 87 13 12 14 14 15 5 16 6 17 10 18 7 19 9 20 11 21 8 22 88 23
REMARK SMILES IDX 21 26 22 27 23 28 24 29 25 30 86 31 26 32 85 33 27 34 28 35
REMARK SMILES IDX 29 36 79 37 30 38 84 39 78 40 80 41 31 42 83 43 77 44 76 45
REMARK SMILES IDX 32 47 64 48 44 49 63 50 45 51 48 52 62 53 81 54 46 55 47 56
REMARK SMILES IDX 61 58 82 59 49 60 33 61 34 62 42 63 35 64 36 65 40 66 43 67
REMARK SMILES IDX 37 68 38 69 41 70 39 71 65 72 66 73 74 74 67 75 68 76 72 77
REMARK SMILES IDX 75 78 69 79 70 80 73 81 71 82 50 83 51 84 59 85 52 86 53 87
REMARK SMILES IDX 57 88 60 89 54 90 55 91 58 92 56 93
REMARK H PARENT 88 24 88 25 80 46 48 57
REMARK Flexibility Score: inf
ROOT
ATOM      1  C   UNL A   1      38.319  21.556  25.503  1.00  0.00     0.275 C 
ENDROOT
BRANCH   1   2
ATOM      2  C   UNL A   1      37.024  21.750  24.725  1.00  0.00     0.275 C 
BRANCH   2   3
ATOM      3  O   UNL A   1      35.899  21.213  25.437  1.00  0.00    -0.458 OA
BRANCH   3   4
ATOM      4  C   UNL A   1      34.646  21.368  24.895  1.00  0.00     0.350 C 
ATOM      5  O   UNL A   1      33.918  20.446  24.582  1.00  0.00    -0.245 OA
BRANCH   4   6
ATOM      6  C   UNL A   1      34.299  22.784  24.811  1.00  0.00     0.138 A 
ATOM      7  C   UNL A   1      33.227  26.189  21.791  1.00  0.00     0.067 C 
ATOM      8  C   UNL A   1      33.425  26.108  23.275  1.00  0.00     0.052 A 
ATOM      9  N   UNL A   1      33.314  27.295  23.946  1.00  0.00    -0.233 NA
ATOM     10  C   UNL A   1      33.722  24.936  24.010  1.00  0.00     0.057 A 
ATOM     11  C   UNL A   1      33.471  27.319  25.280  1.00  0.00     0.162 A 
ATOM     12  C   UNL A   1      33.863  25.127  25.375  1.00  0.00     0.130 A 
ATOM     13  C   UNL A   1      33.945  23.538  23.697  1.00  0.00     0.069 A 
ATOM     14  N   UNL A   1      33.749  26.271  26.051  1.00  0.00    -0.217 NA
ATOM     15  S   UNL A   1      34.259  23.732  26.231  1.00  0.00    -0.106 S 
BRANCH  11  16
ATOM     16  C   UNL A   1      33.483  28.602  25.981  1.00  0.00     0.038 A 
ATOM     17  C   UNL A   1      34.568  28.883  26.844  1.00  0.00     0.013 A 
ATOM     18  C   UNL A   1      32.439  29.535  25.920  1.00  0.00     0.052 A 
ATOM     19  C   UNL A   1      34.608  30.038  27.622  1.00  0.00     0.001 A 
ATOM     20  C   UNL A   1      32.479  30.698  26.703  1.00  0.00     0.021 A 
ATOM     21  Cl  UNL A   1      31.028  29.284  24.952  1.00  0.00    -0.084 Cl
ATOM     22  C   UNL A   1      33.558  30.946  27.554  1.00  0.00     0.002 A 
ENDBRANCH  11  16
BRANCH  13  23
ATOM     23  N   UNL A   1      33.839  23.004  22.458  1.00  0.00    -0.397 N 
ATOM     24  H   UNL A   1      33.194  23.377  21.815  1.00  0.00     0.156 HD
ATOM     25  H   UNL A   1      34.409  22.243  22.200  1.00  0.00     0.156 HD
ENDBRANCH  13  23
ENDBRANCH   4   6
ENDBRANCH   3   4
ENDBRANCH   2   3
ENDBRANCH   1   2
BRANCH   1  26
ATOM     26  O   UNL A   1      38.687  22.768  26.156  1.00  0.00    -0.458 OA
BRANCH  26  27
ATOM     27  C   UNL A   1      39.814  22.699  26.894  1.00  0.00     0.338 C 
ATOM     28  O   UNL A   1      40.285  21.719  27.447  1.00  0.00    -0.246 OA
BRANCH  27  29
ATOM     29  C   UNL A   1      40.356  24.044  27.058  1.00  0.00     0.060 A 
ATOM     30  C   UNL A   1      41.388  24.218  27.985  1.00  0.00     0.016 A 
ATOM     31  C   UNL A   1      39.655  25.123  26.503  1.00  0.00     0.016 A 
ATOM     32  C   UNL A   1      41.599  25.478  28.497  1.00  0.00     0.010 A 
ATOM     33  C   UNL A   1      39.856  26.375  27.021  1.00  0.00     0.010 A 
ATOM     34  C   UNL A   1      40.765  26.516  28.068  1.00  0.00    -0.014 A 
BRANCH  34  35
ATOM     35  C   UNL A   1      40.877  27.799  28.721  1.00  0.00     0.031 A 
ATOM     36  C   UNL A   1      42.046  28.590  28.273  1.00  0.00     0.074 A 
ATOM     37  C   UNL A   1      39.898  28.238  29.535  1.00  0.00     0.049 A 
ATOM     38  N   UNL A   1      43.033  29.031  28.979  1.00  0.00    -0.248 NA
ATOM     39  C   UNL A   1      42.210  28.787  26.820  1.00  0.00     0.031 C 
ATOM     40  C   UNL A   1      38.583  27.636  29.783  1.00  0.00     0.029 A 
ATOM     41  N   UNL A   1      39.834  29.398  30.235  1.00  0.00    -0.354 N 
ATOM     42  C   UNL A   1      43.850  29.720  28.087  1.00  0.00     0.074 A 
ATOM     43  C   UNL A   1      43.396  29.389  26.764  1.00  0.00     0.031 C 
ATOM     44  C   UNL A   1      37.781  28.547  30.381  1.00  0.00     0.029 A 
ATOM     45  C   UNL A   1      38.560  29.737  30.669  1.00  0.00     0.049 A 
ATOM     46  H   UNL A   1      40.626  29.953  30.422  1.00  0.00     0.167 HD
ATOM     47  C   UNL A   1      44.681  30.709  28.511  1.00  0.00     0.037 A 
ATOM     48  C   UNL A   1      38.189  30.961  31.122  1.00  0.00     0.037 A 
ATOM     49  C   UNL A   1      44.948  30.601  29.919  1.00  0.00     0.049 A 
ATOM     50  C   UNL A   1      39.439  31.682  31.491  1.00  0.00     0.074 A 
ATOM     51  C   UNL A   1      45.545  29.638  30.711  1.00  0.00     0.029 A 
ATOM     52  N   UNL A   1      44.244  31.409  30.777  1.00  0.00    -0.354 N 
ATOM     53  N   UNL A   1      40.215  31.335  32.482  1.00  0.00    -0.248 NA
ATOM     54  C   UNL A   1      40.068  32.499  30.461  1.00  0.00     0.031 C 
ATOM     55  C   UNL A   1      44.784  29.629  31.914  1.00  0.00     0.029 A 
ATOM     56  C   UNL A   1      43.809  30.622  31.812  1.00  0.00     0.049 A 
ATOM     57  H   UNL A   1      44.083  32.373  30.669  1.00  0.00     0.167 HD
ATOM     58  C   UNL A   1      41.505  31.542  32.015  1.00  0.00     0.074 A 
ATOM     59  C   UNL A   1      41.350  32.318  30.788  1.00  0.00     0.031 C 
ATOM     60  C   UNL A   1      42.556  30.821  32.502  1.00  0.00     0.037 A 
BRANCH  47  61
ATOM     61  C   UNL A   1      44.945  31.966  27.725  1.00  0.00     0.064 A 
ATOM     62  C   UNL A   1      46.185  32.123  27.078  1.00  0.00     0.173 A 
ATOM     63  C   UNL A   1      44.155  33.132  27.824  1.00  0.00     0.173 A 
ATOM     64  F   UNL A   1      47.029  31.087  26.955  1.00  0.00    -0.203 F 
ATOM     65  C   UNL A   1      46.623  33.369  26.624  1.00  0.00     0.198 A 
ATOM     66  C   UNL A   1      44.570  34.361  27.318  1.00  0.00     0.198 A 
ATOM     67  F   UNL A   1      43.005  33.163  28.510  1.00  0.00    -0.203 F 
ATOM     68  F   UNL A   1      47.861  33.496  26.127  1.00  0.00    -0.200 F 
ATOM     69  C   UNL A   1      45.817  34.487  26.746  1.00  0.00     0.200 A 
ATOM     70  F   UNL A   1      43.781  35.434  27.466  1.00  0.00    -0.200 F 
ATOM     71  F   UNL A   1      46.258  35.691  26.363  1.00  0.00    -0.200 F 
ENDBRANCH  47  61
BRANCH  48  72
ATOM     72  C   UNL A   1      36.907  31.668  30.875  1.00  0.00     0.064 A 
ATOM     73  C   UNL A   1      36.046  31.986  31.938  1.00  0.00     0.173 A 
ATOM     74  C   UNL A   1      36.630  32.291  29.641  1.00  0.00     0.173 A 
ATOM     75  F   UNL A   1      36.265  31.472  33.157  1.00  0.00    -0.203 F 
ATOM     76  C   UNL A   1      34.994  32.896  31.785  1.00  0.00     0.198 A 
ATOM     77  C   UNL A   1      35.573  33.190  29.487  1.00  0.00     0.198 A 
ATOM     78  F   UNL A   1      37.433  32.120  28.583  1.00  0.00    -0.203 F 
ATOM     79  F   UNL A   1      34.235  33.225  32.840  1.00  0.00    -0.200 F 
ATOM     80  C   UNL A   1      34.765  33.505  30.562  1.00  0.00     0.200 A 
ATOM     81  F   UNL A   1      35.386  33.799  28.308  1.00  0.00    -0.200 F 
ATOM     82  F   UNL A   1      33.797  34.423  30.431  1.00  0.00    -0.200 F 
ENDBRANCH  48  72
BRANCH  60  83
ATOM     83  C   UNL A   1      42.330  29.957  33.709  1.00  0.00     0.064 A 
ATOM     84  C   UNL A   1      41.886  28.625  33.637  1.00  0.00     0.173 A 
ATOM     85  C   UNL A   1      42.792  30.419  34.948  1.00  0.00     0.173 A 
ATOM     86  F   UNL A   1      41.514  28.086  32.470  1.00  0.00    -0.203 F 
ATOM     87  C   UNL A   1      41.899  27.798  34.760  1.00  0.00     0.198 A 
ATOM     88  C   UNL A   1      42.837  29.582  36.059  1.00  0.00     0.198 A 
ATOM     89  F   UNL A   1      43.277  31.666  35.059  1.00  0.00    -0.203 F 
ATOM     90  F   UNL A   1      41.486  26.525  34.664  1.00  0.00    -0.200 F 
ATOM     91  C   UNL A   1      42.389  28.273  35.966  1.00  0.00     0.200 A 
ATOM     92  F   UNL A   1      43.359  30.031  37.208  1.00  0.00    -0.200 F 
ATOM     93  F   UNL A   1      42.464  27.461  37.029  1.00  0.00    -0.200 F 
ENDBRANCH  60  83
ENDBRANCH  34  35
ENDBRANCH  27  29
ENDBRANCH  26  27
ENDBRANCH   1  26
TORSDOF 13
ENDMDL
MODEL 2
REMARK VINA RESULT:     -12.9      3.563      8.717
REMARK SMILES Cc1nc(-c2ccccc2Cl)nc2sc(C(=O)OCCOC(=O)c3ccc(-c4c5nc(c(-c6c(F)c(F)c(F)c(F)c6F)c6ccc([nH]6)c(-c6c(F)c(F)c(F)c(F)c6F)c6nc(c(-c7c(F)c(F)c(F)c(F)c7F)c7ccc4[nH]7)C=C6)C=C5)cc3)c(N)c12
REMARK SMILES IDX 20 1 19 2 18 3 16 4 17 5 15 6 1 7 2 8 3 9 89 10 4 11 13 12
REMARK SMILES IDX 87 13 12 14 14 15 5 16 6 17 10 18 7 19 9 20 11 21 8 22 88 23
REMARK SMILES IDX 21 26 22 27 23 28 24 29 25 30 86 31 26 32 85 33 27 34 28 35
REMARK SMILES IDX 29 36 79 37 30 38 84 39 78 40 80 41 31 42 83 43 77 44 76 45
REMARK SMILES IDX 32 47 64 48 44 49 63 50 45 51 48 52 62 53 81 54 46 55 47 56
REMARK SMILES IDX 61 58 82 59 49 60 33 61 34 62 42 63 35 64 36 65 40 66 43 67
REMARK SMILES IDX 37 68 38 69 41 70 39 71 65 72 66 73 74 74 67 75 68 76 72 77
REMARK SMILES IDX 75 78 69 79 70 80 73 81 71 82 50 83 51 84 59 85 52 86 53 87
REMARK SMILES IDX 57 88 60 89 54 90 55 91 58 92 56 93
REMARK H PARENT 88 24 88 25 80 46 48 57
REMARK Flexibility Score: inf
ROOT
ATOM      1  C   UNL A   1      33.091  31.123  27.312  1.00  0.00     0.275 C 
ENDROOT
BRANCH   1   2
ATOM      2  C   UNL A   1      32.217  29.953  26.884  1.00  0.00     0.275 C 
BRANCH   2   3
ATOM      3  O   UNL A   1      32.224  29.787  25.458  1.00  0.00    -0.458 OA
BRANCH   3   4
ATOM      4  C   UNL A   1      31.488  28.762  24.913  1.00  0.00     0.350 C 
ATOM      5  O   UNL A   1      30.466  28.919  24.275  1.00  0.00    -0.245 OA
BRANCH   4   6
ATOM      6  C   UNL A   1      32.141  27.479  25.161  1.00  0.00     0.138 A 
ATOM      7  C   UNL A   1      31.511  23.294  27.148  1.00  0.00     0.067 C 
ATOM      8  C   UNL A   1      32.645  23.976  26.443  1.00  0.00     0.052 A 
ATOM      9  N   UNL A   1      33.807  23.257  26.372  1.00  0.00    -0.233 NA
ATOM     10  C   UNL A   1      32.609  25.271  25.874  1.00  0.00     0.057 A 
ATOM     11  C   UNL A   1      34.876  23.785  25.754  1.00  0.00     0.162 A 
ATOM     12  C   UNL A   1      33.794  25.676  25.281  1.00  0.00     0.130 A 
ATOM     13  C   UNL A   1      31.629  26.333  25.760  1.00  0.00     0.069 A 
ATOM     14  N   UNL A   1      34.934  24.990  25.192  1.00  0.00    -0.217 NA
ATOM     15  S   UNL A   1      33.752  27.236  24.648  1.00  0.00    -0.106 S 
BRANCH  11  16
ATOM     16  C   UNL A   1      36.154  23.076  25.793  1.00  0.00     0.038 A 
ATOM     17  C   UNL A   1      37.307  23.796  26.184  1.00  0.00     0.013 A 
ATOM     18  C   UNL A   1      36.323  21.748  25.378  1.00  0.00     0.052 A 
ATOM     19  C   UNL A   1      38.576  23.222  26.154  1.00  0.00     0.001 A 
ATOM     20  C   UNL A   1      37.600  21.171  25.348  1.00  0.00     0.021 A 
ATOM     21  Cl  UNL A   1      35.004  20.778  24.819  1.00  0.00    -0.084 Cl
ATOM     22  C   UNL A   1      38.723  21.907  25.730  1.00  0.00     0.002 A 
ENDBRANCH  11  16
BRANCH  13  23
ATOM     23  N   UNL A   1      30.351  26.246  26.198  1.00  0.00    -0.397 N 
ATOM     24  H   UNL A   1      29.895  25.374  26.214  1.00  0.00     0.156 HD
ATOM     25  H   UNL A   1      29.879  27.055  26.500  1.00  0.00     0.156 HD
ENDBRANCH  13  23
ENDBRANCH   4   6
ENDBRANCH   3   4
ENDBRANCH   2   3
ENDBRANCH   1   2
BRANCH   1  26
ATOM     26  O   UNL A   1      34.467  30.759  27.247  1.00  0.00    -0.458 OA
BRANCH  26  27
ATOM     27  C   UNL A   1      35.323  31.668  27.758  1.00  0.00     0.338 C 
ATOM     28  O   UNL A   1      35.348  32.869  27.548  1.00  0.00    -0.246 OA
BRANCH  27  29
ATOM     29  C   UNL A   1      36.345  30.973  28.534  1.00  0.00     0.060 A 
ATOM     30  C   UNL A   1      37.357  31.745  29.112  1.00  0.00     0.016 A 
ATOM     31  C   UNL A   1      36.426  29.577  28.440  1.00  0.00     0.016 A 
ATOM     32  C   UNL A   1      38.544  31.128  29.435  1.00  0.00     0.010 A 
ATOM     33  C   UNL A   1      37.612  28.965  28.751  1.00  0.00     0.010 A 
ATOM     34  C   UNL A   1      38.677  29.763  29.163  1.00  0.00    -0.014 A 
BRANCH  34  35
ATOM     35  C   UNL A   1      39.971  29.150  29.350  1.00  0.00     0.031 A 
ATOM     36  C   UNL A   1      40.334  28.959  30.774  1.00  0.00     0.074 A 
ATOM     37  C   UNL A   1      40.664  28.681  28.294  1.00  0.00     0.049 A 
ATOM     38  N   UNL A   1      41.348  29.439  31.412  1.00  0.00    -0.248 NA
ATOM     39  C   UNL A   1      39.357  28.263  31.631  1.00  0.00     0.031 C 
ATOM     40  C   UNL A   1      40.227  28.571  26.898  1.00  0.00     0.029 A 
ATOM     41  N   UNL A   1      41.885  28.092  28.275  1.00  0.00    -0.354 N 
ATOM     42  C   UNL A   1      41.233  28.952  32.712  1.00  0.00     0.074 A 
ATOM     43  C   UNL A   1      39.915  28.391  32.833  1.00  0.00     0.031 C 
ATOM     44  C   UNL A   1      41.069  27.747  26.232  1.00  0.00     0.029 A 
ATOM     45  C   UNL A   1      42.161  27.383  27.115  1.00  0.00     0.049 A 
ATOM     46  H   UNL A   1      42.523  28.162  29.022  1.00  0.00     0.167 HD
ATOM     47  C   UNL A   1      42.322  28.823  33.515  1.00  0.00     0.037 A 
ATOM     48  C   UNL A   1      43.165  26.482  26.971  1.00  0.00     0.037 A 
ATOM     49  C   UNL A   1      43.406  29.653  33.066  1.00  0.00     0.049 A 
ATOM     50  C   UNL A   1      44.139  26.740  28.069  1.00  0.00     0.074 A 
ATOM     51  C   UNL A   1      43.572  31.016  32.912  1.00  0.00     0.029 A 
ATOM     52  N   UNL A   1      44.409  29.069  32.332  1.00  0.00    -0.354 N 
ATOM     53  N   UNL A   1      44.861  27.823  28.161  1.00  0.00    -0.248 NA
ATOM     54  C   UNL A   1      43.954  26.003  29.312  1.00  0.00     0.031 C 
ATOM     55  C   UNL A   1      44.344  31.161  31.725  1.00  0.00     0.029 A 
ATOM     56  C   UNL A   1      44.656  29.884  31.257  1.00  0.00     0.049 A 
ATOM     57  H   UNL A   1      44.867  28.223  32.540  1.00  0.00     0.167 HD
ATOM     58  C   UNL A   1      44.887  28.121  29.517  1.00  0.00     0.074 A 
ATOM     59  C   UNL A   1      44.364  26.930  30.181  1.00  0.00     0.031 C 
ATOM     60  C   UNL A   1      45.052  29.402  29.956  1.00  0.00     0.037 A 
BRANCH  47  61
ATOM     61  C   UNL A   1      42.515  27.680  34.476  1.00  0.00     0.064 A 
ATOM     62  C   UNL A   1      43.086  26.481  34.012  1.00  0.00     0.173 A 
ATOM     63  C   UNL A   1      41.901  27.613  35.746  1.00  0.00     0.173 A 
ATOM     64  F   UNL A   1      43.669  26.424  32.805  1.00  0.00    -0.203 F 
ATOM     65  C   UNL A   1      42.990  25.292  34.738  1.00  0.00     0.198 A 
ATOM     66  C   UNL A   1      41.858  26.439  36.494  1.00  0.00     0.198 A 
ATOM     67  F   UNL A   1      41.218  28.640  36.268  1.00  0.00    -0.203 F 
ATOM     68  F   UNL A   1      43.437  24.149  34.202  1.00  0.00    -0.200 F 
ATOM     69  C   UNL A   1      42.374  25.271  35.977  1.00  0.00     0.200 A 
ATOM     70  F   UNL A   1      41.238  26.438  37.682  1.00  0.00    -0.200 F 
ATOM     71  F   UNL A   1      42.231  24.122  36.649  1.00  0.00    -0.200 F 
ENDBRANCH  47  61
BRANCH  48  72
ATOM     72  C   UNL A   1      43.130  25.198  26.225  1.00  0.00     0.064 A 
ATOM     73  C   UNL A   1      44.062  24.934  25.208  1.00  0.00     0.173 A 
ATOM     74  C   UNL A   1      42.371  24.099  26.676  1.00  0.00     0.173 A 
ATOM     75  F   UNL A   1      44.856  25.913  24.752  1.00  0.00    -0.203 F 
ATOM     76  C   UNL A   1      44.246  23.644  24.696  1.00  0.00     0.198 A 
ATOM     77  C   UNL A   1      42.549  22.815  26.157  1.00  0.00     0.198 A 
ATOM     78  F   UNL A   1      41.512  24.223  27.696  1.00  0.00    -0.203 F 
ATOM     79  F   UNL A   1      45.192  23.419  23.773  1.00  0.00    -0.200 F 
ATOM     80  C   UNL A   1      43.496  22.584  25.179  1.00  0.00     0.200 A 
ATOM     81  F   UNL A   1      41.842  21.793  26.660  1.00  0.00    -0.200 F 
ATOM     82  F   UNL A   1      43.716  21.339  24.735  1.00  0.00    -0.200 F 
ENDBRANCH  48  72
BRANCH  60  83
ATOM     83  C   UNL A   1      45.429  30.455  28.954  1.00  0.00     0.064 A 
ATOM     84  C   UNL A   1      44.489  31.196  28.218  1.00  0.00     0.173 A 
ATOM     85  C   UNL A   1      46.763  30.879  28.912  1.00  0.00     0.173 A 
ATOM     86  F   UNL A   1      43.183  30.907  28.280  1.00  0.00    -0.203 F 
ATOM     87  C   UNL A   1      44.873  32.307  27.466  1.00  0.00     0.198 A 
ATOM     88  C   UNL A   1      47.139  32.007  28.189  1.00  0.00     0.198 A 
ATOM     89  F   UNL A   1      47.692  30.238  29.639  1.00  0.00    -0.203 F 
ATOM     90  F   UNL A   1      43.955  33.009  26.784  1.00  0.00    -0.200 F 
ATOM     91  C   UNL A   1      46.195  32.719  27.466  1.00  0.00     0.200 A 
ATOM     92  F   UNL A   1      48.409  32.432  28.233  1.00  0.00    -0.200 F 
ATOM     93  F   UNL A   1      46.555  33.825  26.798  1.00  0.00    -0.200 F 
ENDBRANCH  60  83
ENDBRANCH  34  35
ENDBRANCH  27  29
ENDBRANCH  26  27
ENDBRANCH   1  26
TORSDOF 13
ENDMDL
MODEL 3
REMARK VINA RESULT:     -12.8      3.514      8.734
REMARK SMILES Cc1nc(-c2ccccc2Cl)nc2sc(C(=O)OCCOC(=O)c3ccc(-c4c5nc(c(-c6c(F)c(F)c(F)c(F)c6F)c6ccc([nH]6)c(-c6c(F)c(F)c(F)c(F)c6F)c6nc(c(-c7c(F)c(F)c(F)c(F)c7F)c7ccc4[nH]7)C=C6)C=C5)cc3)c(N)c12
REMARK SMILES IDX 20 1 19 2 18 3 16 4 17 5 15 6 1 7 2 8 3 9 89 10 4 11 13 12
REMARK SMILES IDX 87 13 12 14 14 15 5 16 6 17 10 18 7 19 9 20 11 21 8 22 88 23
REMARK SMILES IDX 21 26 22 27 23 28 24 29 25 30 86 31 26 32 85 33 27 34 28 35
REMARK SMILES IDX 29 36 79 37 30 38 84 39 78 40 80 41 31 42 83 43 77 44 76 45
REMARK SMILES IDX 32 47 64 48 44 49 63 50 45 51 48 52 62 53 81 54 46 55 47 56
REMARK SMILES IDX 61 58 82 59 49 60 33 61 34 62 42 63 35 64 36 65 40 66 43 67
REMARK SMILES IDX 37 68 38 69 41 70 39 71 65 72 66 73 74 74 67 75 68 76 72 77
REMARK SMILES IDX 75 78 69 79 70 80 73 81 71 82 50 83 51 84 59 85 52 86 53 87
REMARK SMILES IDX 57 88 60 89 54 90 55 91 58 92 56 93
REMARK H PARENT 88 24 88 25 80 46 48 57
REMARK Flexibility Score: inf
ROOT
ATOM      1  C   UNL A   1      33.155  31.626  27.617  1.00  0.00     0.275 C 
ENDROOT
BRANCH   1   2
ATOM      2  C   UNL A   1      32.126  30.784  26.876  1.00  0.00     0.275 C 
BRANCH   2   3
ATOM      3  O   UNL A   1      32.735  30.017  25.826  1.00  0.00    -0.458 OA
BRANCH   3   4
ATOM      4  C   UNL A   1      31.918  29.360  24.936  1.00  0.00     0.350 C 
ATOM      5  O   UNL A   1      30.856  29.793  24.536  1.00  0.00    -0.245 OA
BRANCH   4   6
ATOM      6  C   UNL A   1      32.539  28.110  24.504  1.00  0.00     0.138 A 
ATOM      7  C   UNL A   1      32.903  25.187  20.872  1.00  0.00     0.067 C 
ATOM      8  C   UNL A   1      33.415  25.201  22.282  1.00  0.00     0.052 A 
ATOM      9  N   UNL A   1      34.134  24.098  22.653  1.00  0.00    -0.233 NA
ATOM     10  C   UNL A   1      33.207  26.230  23.230  1.00  0.00     0.057 A 
ATOM     11  C   UNL A   1      34.639  24.024  23.896  1.00  0.00     0.162 A 
ATOM     12  C   UNL A   1      33.782  26.001  24.469  1.00  0.00     0.130 A 
ATOM     13  C   UNL A   1      32.508  27.499  23.255  1.00  0.00     0.069 A 
ATOM     14  N   UNL A   1      34.495  24.940  24.851  1.00  0.00    -0.217 NA
ATOM     15  S   UNL A   1      33.490  27.212  25.602  1.00  0.00    -0.106 S 
BRANCH  11  16
ATOM     16  C   UNL A   1      35.292  22.793  24.336  1.00  0.00     0.038 A 
ATOM     17  C   UNL A   1      36.706  22.742  24.316  1.00  0.00     0.013 A 
ATOM     18  C   UNL A   1      34.602  21.625  24.690  1.00  0.00     0.052 A 
ATOM     19  C   UNL A   1      37.403  21.576  24.626  1.00  0.00     0.001 A 
ATOM     20  C   UNL A   1      35.304  20.452  25.002  1.00  0.00     0.021 A 
ATOM     21  Cl  UNL A   1      32.874  21.537  24.694  1.00  0.00    -0.084 Cl
ATOM     22  C   UNL A   1      36.699  20.427  24.965  1.00  0.00     0.002 A 
ENDBRANCH  11  16
BRANCH  13  23
ATOM     23  N   UNL A   1      31.873  28.045  22.191  1.00  0.00    -0.397 N 
ATOM     24  H   UNL A   1      32.383  28.291  21.387  1.00  0.00     0.156 HD
ATOM     25  H   UNL A   1      30.900  28.194  22.222  1.00  0.00     0.156 HD
ENDBRANCH  13  23
ENDBRANCH   4   6
ENDBRANCH   3   4
ENDBRANCH   2   3
ENDBRANCH   1   2
BRANCH   1  26
ATOM     26  O   UNL A   1      34.443  31.025  27.525  1.00  0.00    -0.458 OA
BRANCH  26  27
ATOM     27  C   UNL A   1      35.471  31.814  27.899  1.00  0.00     0.338 C 
ATOM     28  O   UNL A   1      35.648  32.989  27.621  1.00  0.00    -0.246 OA
BRANCH  27  29
ATOM     29  C   UNL A   1      36.456  31.006  28.609  1.00  0.00     0.060 A 
ATOM     30  C   UNL A   1      37.405  31.676  29.386  1.00  0.00     0.016 A 
ATOM     31  C   UNL A   1      36.581  29.652  28.272  1.00  0.00     0.016 A 
ATOM     32  C   UNL A   1      38.584  31.029  29.678  1.00  0.00     0.010 A 
ATOM     33  C   UNL A   1      37.760  29.011  28.552  1.00  0.00     0.010 A 
ATOM     34  C   UNL A   1      38.772  29.737  29.176  1.00  0.00    -0.014 A 
BRANCH  34  35
ATOM     35  C   UNL A   1      40.067  29.119  29.342  1.00  0.00     0.031 A 
ATOM     36  C   UNL A   1      40.440  28.902  30.759  1.00  0.00     0.074 A 
ATOM     37  C   UNL A   1      40.752  28.670  28.273  1.00  0.00     0.049 A 
ATOM     38  N   UNL A   1      41.459  29.368  31.400  1.00  0.00    -0.248 NA
ATOM     39  C   UNL A   1      39.469  28.190  31.610  1.00  0.00     0.031 C 
ATOM     40  C   UNL A   1      40.305  28.586  26.878  1.00  0.00     0.029 A 
ATOM     41  N   UNL A   1      41.972  28.080  28.234  1.00  0.00    -0.354 N 
ATOM     42  C   UNL A   1      41.353  28.858  32.690  1.00  0.00     0.074 A 
ATOM     43  C   UNL A   1      40.036  28.296  32.810  1.00  0.00     0.031 C 
ATOM     44  C   UNL A   1      41.141  27.775  26.190  1.00  0.00     0.029 A 
ATOM     45  C   UNL A   1      42.239  27.393  27.058  1.00  0.00     0.049 A 
ATOM     46  H   UNL A   1      42.616  28.135  28.978  1.00  0.00     0.167 HD
ATOM     47  C   UNL A   1      42.448  28.712  33.483  1.00  0.00     0.037 A 
ATOM     48  C   UNL A   1      43.242  26.494  26.890  1.00  0.00     0.037 A 
ATOM     49  C   UNL A   1      43.529  29.549  33.042  1.00  0.00     0.049 A 
ATOM     50  C   UNL A   1      44.223  26.731  27.986  1.00  0.00     0.074 A 
ATOM     51  C   UNL A   1      43.695  30.915  32.913  1.00  0.00     0.029 A 
ATOM     52  N   UNL A   1      44.527  28.978  32.290  1.00  0.00    -0.354 N 
ATOM     53  N   UNL A   1      44.948  27.811  28.093  1.00  0.00    -0.248 NA
ATOM     54  C   UNL A   1      44.046  25.970  29.217  1.00  0.00     0.031 C 
ATOM     55  C   UNL A   1      44.459  31.082  31.723  1.00  0.00     0.029 A 
ATOM     56  C   UNL A   1      44.766  29.813  31.229  1.00  0.00     0.049 A 
ATOM     57  H   UNL A   1      44.985  28.128  32.479  1.00  0.00     0.167 HD
ATOM     58  C   UNL A   1      44.983  28.083  29.454  1.00  0.00     0.074 A 
ATOM     59  C   UNL A   1      44.464  26.880  30.100  1.00  0.00     0.031 C 
ATOM     60  C   UNL A   1      45.152  29.355  29.916  1.00  0.00     0.037 A 
BRANCH  47  61
ATOM     61  C   UNL A   1      42.646  27.551  34.421  1.00  0.00     0.064 A 
ATOM     62  C   UNL A   1      43.136  26.334  33.914  1.00  0.00     0.173 A 
ATOM     63  C   UNL A   1      42.105  27.496  35.725  1.00  0.00     0.173 A 
ATOM     64  F   UNL A   1      43.645  26.266  32.674  1.00  0.00    -0.203 F 
ATOM     65  C   UNL A   1      43.031  25.141  34.634  1.00  0.00     0.198 A 
ATOM     66  C   UNL A   1      42.054  26.317  36.463  1.00  0.00     0.198 A 
ATOM     67  F   UNL A   1      41.499  28.545  36.295  1.00  0.00    -0.203 F 
ATOM     68  F   UNL A   1      43.396  23.987  34.062  1.00  0.00    -0.200 F 
ATOM     69  C   UNL A   1      42.488  25.134  35.906  1.00  0.00     0.200 A 
ATOM     70  F   UNL A   1      41.505  26.328  37.686  1.00  0.00    -0.200 F 
ATOM     71  F   UNL A   1      42.335  23.984  36.575  1.00  0.00    -0.200 F 
ENDBRANCH  47  61
BRANCH  48  72
ATOM     72  C   UNL A   1      43.200  25.225  26.121  1.00  0.00     0.064 A 
ATOM     73  C   UNL A   1      44.219  24.905  25.208  1.00  0.00     0.173 A 
ATOM     74  C   UNL A   1      42.319  24.178  26.463  1.00  0.00     0.173 A 
ATOM     75  F   UNL A   1      45.126  25.829  24.862  1.00  0.00    -0.203 F 
ATOM     76  C   UNL A   1      44.367  23.611  24.696  1.00  0.00     0.198 A 
ATOM     77  C   UNL A   1      42.463  22.890  25.943  1.00  0.00     0.198 A 
ATOM     78  F   UNL A   1      41.362  24.353  27.384  1.00  0.00    -0.203 F 
ATOM     79  F   UNL A   1      45.393  23.329  23.879  1.00  0.00    -0.200 F 
ATOM     80  C   UNL A   1      43.496  22.603  25.072  1.00  0.00     0.200 A 
ATOM     81  F   UNL A   1      41.634  21.916  26.345  1.00  0.00    -0.200 F 
ATOM     82  F   UNL A   1      43.675  21.350  24.631  1.00  0.00    -0.200 F 
ENDBRANCH  48  72
BRANCH  60  83
ATOM     83  C   UNL A   1      45.523  30.427  28.932  1.00  0.00     0.064 A 
ATOM     84  C   UNL A   1      44.580  31.156  28.187  1.00  0.00     0.173 A 
ATOM     85  C   UNL A   1      46.848  30.879  28.916  1.00  0.00     0.173 A 
ATOM     86  F   UNL A   1      43.280  30.839  28.225  1.00  0.00    -0.203 F 
ATOM     87  C   UNL A   1      44.952  32.282  27.454  1.00  0.00     0.198 A 
ATOM     88  C   UNL A   1      47.212  32.023  28.212  1.00  0.00     0.198 A 
ATOM     89  F   UNL A   1      47.779  30.251  29.653  1.00  0.00    -0.203 F 
ATOM     90  F   UNL A   1      44.031  32.971  26.764  1.00  0.00    -0.200 F 
ATOM     91  C   UNL A   1      46.266  32.723  27.480  1.00  0.00     0.200 A 
ATOM     92  F   UNL A   1      48.472  32.474  28.282  1.00  0.00    -0.200 F 
ATOM     93  F   UNL A   1      46.613  33.843  26.830  1.00  0.00    -0.200 F 
ENDBRANCH  60  83
ENDBRANCH  34  35
ENDBRANCH  27  29
ENDBRANCH  26  27
ENDBRANCH   1  26
TORSDOF 13
ENDMDL
