MODEL 1
REMARK VINA RESULT:     -13.1      0.000      0.000
REMARK SMILES COc1cc2c(cc1OC)-c1c(c(C(=O)Nc3ccc(C(=O)OCCOC(=O)c4ccc(-c5c6nc(c(-c7c(F)c(F)c(F)c(F)c7F)c7ccc([nH]7)c(-c7c(F)c(F)c(F)c(F)c7F)c7nc(c(-c8c(F)c(F)c(F)c(F)c8F)c8ccc5[nH]8)C=C7)C=C6)cc4)cc3)nn1-c1ccc(F)cc1)C2
REMARK SMILES IDX 24 1 23 2 21 3 22 4 20 5 17 6 18 7 93 8 19 9 92 10 16 11
REMARK SMILES IDX 14 12 15 13 13 15 3 16 4 17 8 18 5 19 7 20 6 21 103 22 11 23
REMARK SMILES IDX 12 24 95 25 94 26 2 27 1 28 9 29 10 30 96 31 97 32 102 33
REMARK SMILES IDX 98 34 101 35 99 36 100 37 25 38 26 39 27 40 28 41 29 42
REMARK SMILES IDX 30 43 91 44 31 45 90 46 32 47 33 48 34 49 84 50 35 51 89 52
REMARK SMILES IDX 83 53 85 54 36 55 88 56 82 57 81 58 37 60 69 61 49 62 68 63
REMARK SMILES IDX 50 64 53 65 67 66 86 67 51 68 52 69 66 71 87 72 54 73 38 74
REMARK SMILES IDX 39 75 47 76 40 77 41 78 45 79 48 80 42 81 43 82 46 83 44 84
REMARK SMILES IDX 70 85 71 86 79 87 72 88 73 89 77 90 80 91 74 92 75 93 78 94
REMARK SMILES IDX 76 95 55 96 56 97 64 98 57 99 58 100 62 101 65 102 59 103
REMARK SMILES IDX 60 104 63 105 61 106
REMARK H PARENT 16 14 85 59 53 70
REMARK Flexibility Score: inf
ROOT
ATOM      1  C   UNL A   1      34.791  31.569  27.663  1.00  0.00     0.275 C 
ENDROOT
BRANCH   1   2
ATOM      2  O   UNL A   1      33.809  30.508  27.521  1.00  0.00    -0.458 OA
BRANCH   2   3
ATOM      3  C   UNL A   1      34.260  29.315  27.053  1.00  0.00     0.338 C 
ATOM      4  O   UNL A   1      35.397  28.883  27.158  1.00  0.00    -0.246 OA
BRANCH   3   5
ATOM      5  C   UNL A   1      33.136  28.492  26.523  1.00  0.00     0.060 A 
ATOM      6  C   UNL A   1      31.313  26.708  25.320  1.00  0.00     0.041 A 
ATOM      7  C   UNL A   1      32.167  27.453  24.528  1.00  0.00     0.027 A 
ATOM      8  C   UNL A   1      31.260  26.974  26.696  1.00  0.00     0.027 A 
ATOM      9  C   UNL A   1      33.039  28.358  25.138  1.00  0.00     0.018 A 
ATOM     10  C   UNL A   1      32.200  27.829  27.308  1.00  0.00     0.018 A 
BRANCH   6  11
ATOM     11  N   UNL A   1      30.436  25.766  24.772  1.00  0.00    -0.321 N 
ATOM     12  C   UNL A   1      30.671  24.740  23.871  1.00  0.00     0.276 C 
ATOM     13  O   UNL A   1      29.801  24.544  23.016  1.00  0.00    -0.267 OA
ATOM     14  H   UNL A   1      29.502  25.845  25.074  1.00  0.00     0.170 HD
BRANCH  12  15
ATOM     15  C   UNL A   1      31.823  23.804  24.044  1.00  0.00     0.155 A 
ATOM     16  C   UNL A   1      37.509  23.374  25.862  1.00  0.00     0.161 A 
ATOM     17  C   UNL A   1      36.425  24.217  26.195  1.00  0.00     0.055 A 
ATOM     18  C   UNL A   1      37.296  22.119  25.262  1.00  0.00     0.161 A 
ATOM     19  C   UNL A   1      35.156  23.905  25.723  1.00  0.00    -0.030 A 
ATOM     20  C   UNL A   1      36.029  21.797  24.791  1.00  0.00     0.061 A 
ATOM     21  C   UNL A   1      35.006  22.700  25.019  1.00  0.00     0.008 A 
ATOM     22  C   UNL A   1      33.848  24.762  25.726  1.00  0.00     0.076 C 
ATOM     23  C   UNL A   1      33.681  22.735  24.523  1.00  0.00     0.079 A 
ATOM     24  C   UNL A   1      33.036  23.908  24.788  1.00  0.00     0.016 A 
ATOM     25  N   UNL A   1      32.771  21.850  24.070  1.00  0.00    -0.232 N 
ATOM     26  N   UNL A   1      31.735  22.533  23.512  1.00  0.00    -0.162 NA
BRANCH  16  27
ATOM     27  O   UNL A   1      38.771  23.854  26.127  1.00  0.00    -0.493 OA
ATOM     28  C   UNL A   1      38.842  24.491  27.411  1.00  0.00     0.278 C 
ENDBRANCH  16  27
BRANCH  18  29
ATOM     29  O   UNL A   1      38.254  21.173  25.012  1.00  0.00    -0.493 OA
ATOM     30  C   UNL A   1      37.790  19.824  24.953  1.00  0.00     0.278 C 
ENDBRANCH  18  29
BRANCH  25  31
ATOM     31  C   UNL A   1      32.825  20.453  24.293  1.00  0.00     0.065 A 
ATOM     32  C   UNL A   1      33.059  19.923  25.560  1.00  0.00     0.031 A 
ATOM     33  C   UNL A   1      32.528  19.596  23.209  1.00  0.00     0.031 A 
ATOM     34  C   UNL A   1      32.881  18.546  25.751  1.00  0.00     0.041 A 
ATOM     35  C   UNL A   1      32.374  18.229  23.404  1.00  0.00     0.041 A 
ATOM     36  C   UNL A   1      32.528  17.718  24.682  1.00  0.00     0.123 A 
ATOM     37  F   UNL A   1      32.324  16.410  24.890  1.00  0.00    -0.207 F 
ENDBRANCH  25  31
ENDBRANCH  12  15
ENDBRANCH   6  11
ENDBRANCH   3   5
ENDBRANCH   2   3
ENDBRANCH   1   2
BRANCH   1  38
ATOM     38  C   UNL A   1      34.399  32.576  28.756  1.00  0.00     0.275 C 
BRANCH  38  39
ATOM     39  O   UNL A   1      35.364  32.521  29.819  1.00  0.00    -0.458 OA
BRANCH  39  40
ATOM     40  C   UNL A   1      36.574  32.979  29.443  1.00  0.00     0.338 C 
ATOM     41  O   UNL A   1      36.782  34.059  28.905  1.00  0.00    -0.246 OA
BRANCH  40  42
ATOM     42  C   UNL A   1      37.646  32.176  30.067  1.00  0.00     0.060 A 
ATOM     43  C   UNL A   1      38.989  32.544  30.117  1.00  0.00     0.016 A 
ATOM     44  C   UNL A   1      37.284  30.875  30.390  1.00  0.00     0.016 A 
ATOM     45  C   UNL A   1      39.957  31.544  30.255  1.00  0.00     0.010 A 
ATOM     46  C   UNL A   1      38.230  29.898  30.581  1.00  0.00     0.010 A 
ATOM     47  C   UNL A   1      39.565  30.207  30.368  1.00  0.00    -0.014 A 
BRANCH  47  48
ATOM     48  C   UNL A   1      40.498  29.091  30.325  1.00  0.00     0.031 A 
ATOM     49  C   UNL A   1      41.018  28.691  31.644  1.00  0.00     0.074 A 
ATOM     50  C   UNL A   1      40.840  28.325  29.268  1.00  0.00     0.049 A 
ATOM     51  N   UNL A   1      42.103  29.156  32.161  1.00  0.00    -0.248 NA
ATOM     52  C   UNL A   1      40.257  27.803  32.526  1.00  0.00     0.031 C 
ATOM     53  C   UNL A   1      40.347  28.298  27.889  1.00  0.00     0.029 A 
ATOM     54  N   UNL A   1      41.766  27.321  29.271  1.00  0.00    -0.354 N 
ATOM     55  C   UNL A   1      42.273  28.494  33.363  1.00  0.00     0.074 A 
ATOM     56  C   UNL A   1      41.023  27.823  33.620  1.00  0.00     0.031 C 
ATOM     57  C   UNL A   1      40.836  27.208  27.245  1.00  0.00     0.029 A 
ATOM     58  C   UNL A   1      41.848  26.603  28.091  1.00  0.00     0.049 A 
ATOM     59  H   UNL A   1      42.331  27.123  30.052  1.00  0.00     0.167 HD
ATOM     60  C   UNL A   1      43.512  28.404  33.919  1.00  0.00     0.037 A 
ATOM     61  C   UNL A   1      42.775  25.668  27.780  1.00  0.00     0.037 A 
ATOM     62  C   UNL A   1      44.455  29.256  33.224  1.00  0.00     0.049 A 
ATOM     63  C   UNL A   1      43.996  26.008  28.552  1.00  0.00     0.074 A 
ATOM     64  C   UNL A   1      44.520  30.610  32.944  1.00  0.00     0.029 A 
ATOM     65  N   UNL A   1      45.331  28.666  32.342  1.00  0.00    -0.354 N 
ATOM     66  N   UNL A   1      44.717  27.074  28.331  1.00  0.00    -0.248 NA
ATOM     67  C   UNL A   1      44.204  25.372  29.842  1.00  0.00     0.031 C 
ATOM     68  C   UNL A   1      45.025  30.691  31.609  1.00  0.00     0.029 A 
ATOM     69  C   UNL A   1      45.285  29.391  31.177  1.00  0.00     0.049 A 
ATOM     70  H   UNL A   1      45.888  27.873  32.514  1.00  0.00     0.167 HD
ATOM     71  C   UNL A   1      45.124  27.488  29.588  1.00  0.00     0.074 A 
ATOM     72  C   UNL A   1      44.882  26.342  30.460  1.00  0.00     0.031 C 
ATOM     73  C   UNL A   1      45.370  28.805  29.857  1.00  0.00     0.037 A 
BRANCH  60  74
ATOM     74  C   UNL A   1      43.968  27.324  34.864  1.00  0.00     0.064 A 
ATOM     75  C   UNL A   1      44.553  27.705  36.088  1.00  0.00     0.173 A 
ATOM     76  C   UNL A   1      44.103  25.963  34.523  1.00  0.00     0.173 A 
ATOM     77  F   UNL A   1      44.492  28.977  36.512  1.00  0.00    -0.203 F 
ATOM     78  C   UNL A   1      45.293  26.812  36.864  1.00  0.00     0.198 A 
ATOM     79  C   UNL A   1      44.791  25.059  35.331  1.00  0.00     0.198 A 
ATOM     80  F   UNL A   1      43.681  25.474  33.352  1.00  0.00    -0.203 F 
ATOM     81  F   UNL A   1      45.942  27.255  37.948  1.00  0.00    -0.200 F 
ATOM     82  C   UNL A   1      45.416  25.490  36.481  1.00  0.00     0.200 A 
ATOM     83  F   UNL A   1      44.910  23.784  34.937  1.00  0.00    -0.200 F 
ATOM     84  F   UNL A   1      46.175  24.645  37.190  1.00  0.00    -0.200 F 
ENDBRANCH  60  74
BRANCH  61  85
ATOM     85  C   UNL A   1      42.627  24.411  27.018  1.00  0.00     0.064 A 
ATOM     86  C   UNL A   1      43.117  24.293  25.708  1.00  0.00     0.173 A 
ATOM     87  C   UNL A   1      42.277  23.213  27.671  1.00  0.00     0.173 A 
ATOM     88  F   UNL A   1      43.502  25.384  25.030  1.00  0.00    -0.203 F 
ATOM     89  C   UNL A   1      43.293  23.046  25.101  1.00  0.00     0.198 A 
ATOM     90  C   UNL A   1      42.454  21.969  27.064  1.00  0.00     0.198 A 
ATOM     91  F   UNL A   1      41.854  23.228  28.944  1.00  0.00    -0.203 F 
ATOM     92  F   UNL A   1      43.831  22.970  23.875  1.00  0.00    -0.200 F 
ATOM     93  C   UNL A   1      42.977  21.884  25.786  1.00  0.00     0.200 A 
ATOM     94  F   UNL A   1      42.177  20.848  27.746  1.00  0.00    -0.200 F 
ATOM     95  F   UNL A   1      43.216  20.687  25.232  1.00  0.00    -0.200 F 
ENDBRANCH  61  85
BRANCH  73  96
ATOM     96  C   UNL A   1      45.478  29.758  28.696  1.00  0.00     0.064 A 
ATOM     97  C   UNL A   1      44.391  30.460  28.149  1.00  0.00     0.173 A 
ATOM     98  C   UNL A   1      46.755  30.086  28.218  1.00  0.00     0.173 A 
ATOM     99  F   UNL A   1      43.150  30.276  28.612  1.00  0.00    -0.203 F 
ATOM    100  C   UNL A   1      44.570  31.419  27.154  1.00  0.00     0.198 A 
ATOM    101  C   UNL A   1      46.935  31.069  27.247  1.00  0.00     0.198 A 
ATOM    102  F   UNL A   1      47.840  29.485  28.732  1.00  0.00    -0.203 F 
ATOM    103  F   UNL A   1      43.511  32.074  26.652  1.00  0.00    -0.200 F 
ATOM    104  C   UNL A   1      45.843  31.730  26.710  1.00  0.00     0.200 A 
ATOM    105  F   UNL A   1      48.174  31.397  26.854  1.00  0.00    -0.200 F 
ATOM    106  F   UNL A   1      46.021  32.686  25.788  1.00  0.00    -0.200 F 
ENDBRANCH  73  96
ENDBRANCH  47  48
ENDBRANCH  40  42
ENDBRANCH  39  40
ENDBRANCH  38  39
ENDBRANCH   1  38
TORSDOF 16
ENDMDL
MODEL 2
REMARK VINA RESULT:     -13.0      4.700      9.620
REMARK SMILES COc1cc2c(cc1OC)-c1c(c(C(=O)Nc3ccc(C(=O)OCCOC(=O)c4ccc(-c5c6nc(c(-c7c(F)c(F)c(F)c(F)c7F)c7ccc([nH]7)c(-c7c(F)c(F)c(F)c(F)c7F)c7nc(c(-c8c(F)c(F)c(F)c(F)c8F)c8ccc5[nH]8)C=C7)C=C6)cc4)cc3)nn1-c1ccc(F)cc1)C2
REMARK SMILES IDX 24 1 23 2 21 3 22 4 20 5 17 6 18 7 93 8 19 9 92 10 16 11
REMARK SMILES IDX 14 12 15 13 13 15 3 16 4 17 8 18 5 19 7 20 6 21 103 22 11 23
REMARK SMILES IDX 12 24 95 25 94 26 2 27 1 28 9 29 10 30 96 31 97 32 102 33
REMARK SMILES IDX 98 34 101 35 99 36 100 37 25 38 26 39 27 40 28 41 29 42
REMARK SMILES IDX 30 43 91 44 31 45 90 46 32 47 33 48 34 49 84 50 35 51 89 52
REMARK SMILES IDX 83 53 85 54 36 55 88 56 82 57 81 58 37 60 69 61 49 62 68 63
REMARK SMILES IDX 50 64 53 65 67 66 86 67 51 68 52 69 66 71 87 72 54 73 38 74
REMARK SMILES IDX 39 75 47 76 40 77 41 78 45 79 48 80 42 81 43 82 46 83 44 84
REMARK SMILES IDX 70 85 71 86 79 87 72 88 73 89 77 90 80 91 74 92 75 93 78 94
REMARK SMILES IDX 76 95 55 96 56 97 64 98 57 99 58 100 62 101 65 102 59 103
REMARK SMILES IDX 60 104 63 105 61 106
REMARK H PARENT 16 14 85 59 53 70
REMARK Flexibility Score: inf
ROOT
ATOM      1  C   UNL A   1      41.429  28.093  34.702  1.00  0.00     0.275 C 
ENDROOT
BRANCH   1   2
ATOM      2  O   UNL A   1      41.021  27.611  33.394  1.00  0.00    -0.458 OA
BRANCH   2   3
ATOM      3  C   UNL A   1      39.862  28.109  32.891  1.00  0.00     0.338 C 
ATOM      4  O   UNL A   1      38.780  27.542  32.876  1.00  0.00    -0.246 OA
BRANCH   3   5
ATOM      5  C   UNL A   1      40.023  29.536  32.492  1.00  0.00     0.060 A 
ATOM      6  C   UNL A   1      40.206  32.108  31.349  1.00  0.00     0.041 A 
ATOM      7  C   UNL A   1      40.947  31.068  30.819  1.00  0.00     0.027 A 
ATOM      8  C   UNL A   1      39.502  31.898  32.544  1.00  0.00     0.027 A 
ATOM      9  C   UNL A   1      40.873  29.809  31.420  1.00  0.00     0.018 A 
ATOM     10  C   UNL A   1      39.369  30.605  33.092  1.00  0.00     0.018 A 
BRANCH   6  11
ATOM     11  N   UNL A   1      40.216  33.385  30.777  1.00  0.00    -0.321 N 
ATOM     12  C   UNL A   1      39.594  33.859  29.634  1.00  0.00     0.276 C 
ATOM     13  O   UNL A   1      40.240  34.653  28.943  1.00  0.00    -0.267 OA
ATOM     14  H   UNL A   1      40.752  34.052  31.265  1.00  0.00     0.170 HD
BRANCH  12  15
ATOM     15  C   UNL A   1      38.154  33.573  29.357  1.00  0.00     0.155 A 
ATOM     16  C   UNL A   1      34.338  29.520  27.160  1.00  0.00     0.161 A 
ATOM     17  C   UNL A   1      35.607  29.452  27.775  1.00  0.00     0.055 A 
ATOM     18  C   UNL A   1      33.508  30.645  27.329  1.00  0.00     0.161 A 
ATOM     19  C   UNL A   1      36.136  30.593  28.365  1.00  0.00    -0.030 A 
ATOM     20  C   UNL A   1      34.027  31.789  27.923  1.00  0.00     0.061 A 
ATOM     21  C   UNL A   1      35.323  31.736  28.405  1.00  0.00     0.008 A 
ATOM     22  C   UNL A   1      37.582  30.870  28.890  1.00  0.00     0.076 C 
ATOM     23  C   UNL A   1      36.167  32.763  28.891  1.00  0.00     0.079 A 
ATOM     24  C   UNL A   1      37.460  32.362  29.063  1.00  0.00     0.016 A 
ATOM     25  N   UNL A   1      36.022  33.970  29.470  1.00  0.00    -0.232 N 
ATOM     26  N   UNL A   1      37.233  34.591  29.499  1.00  0.00    -0.162 NA
BRANCH  16  27
ATOM     27  O   UNL A   1      33.972  28.453  26.372  1.00  0.00    -0.493 OA
ATOM     28  C   UNL A   1      33.964  28.795  24.978  1.00  0.00     0.278 C 
ENDBRANCH  16  27
BRANCH  18  29
ATOM     29  O   UNL A   1      32.217  30.767  26.888  1.00  0.00    -0.493 OA
ATOM     30  C   UNL A   1      31.692  32.094  26.875  1.00  0.00     0.278 C 
ENDBRANCH  18  29
BRANCH  25  31
ATOM     31  C   UNL A   1      34.834  34.431  30.088  1.00  0.00     0.065 A 
ATOM     32  C   UNL A   1      34.579  34.209  31.439  1.00  0.00     0.031 A 
ATOM     33  C   UNL A   1      33.950  35.222  29.319  1.00  0.00     0.031 A 
ATOM     34  C   UNL A   1      33.498  34.877  32.033  1.00  0.00     0.041 A 
ATOM     35  C   UNL A   1      32.869  35.863  29.912  1.00  0.00     0.041 A 
ATOM     36  C   UNL A   1      32.667  35.704  31.272  1.00  0.00     0.123 A 
ATOM     37  F   UNL A   1      31.662  36.365  31.863  1.00  0.00    -0.207 F 
ENDBRANCH  25  31
ENDBRANCH  12  15
ENDBRANCH   6  11
ENDBRANCH   3   5
ENDBRANCH   2   3
ENDBRANCH   1   2
BRANCH   1  38
ATOM     38  C   UNL A   1      41.889  26.950  35.620  1.00  0.00     0.275 C 
BRANCH  38  39
ATOM     39  O   UNL A   1      43.246  27.186  36.029  1.00  0.00    -0.458 OA
BRANCH  39  40
ATOM     40  C   UNL A   1      44.003  26.072  35.973  1.00  0.00     0.338 C 
ATOM     41  O   UNL A   1      43.843  25.077  36.668  1.00  0.00    -0.246 OA
BRANCH  40  42
ATOM     42  C   UNL A   1      44.822  26.067  34.743  1.00  0.00     0.060 A 
ATOM     43  C   UNL A   1      45.154  27.201  34.005  1.00  0.00     0.016 A 
ATOM     44  C   UNL A   1      45.043  24.810  34.197  1.00  0.00     0.016 A 
ATOM     45  C   UNL A   1      45.474  27.055  32.651  1.00  0.00     0.010 A 
ATOM     46  C   UNL A   1      45.409  24.658  32.882  1.00  0.00     0.010 A 
ATOM     47  C   UNL A   1      45.482  25.781  32.072  1.00  0.00    -0.014 A 
BRANCH  47  48
ATOM     48  C   UNL A   1      45.615  25.551  30.641  1.00  0.00     0.031 A 
ATOM     49  C   UNL A   1      46.783  26.211  30.033  1.00  0.00     0.074 A 
ATOM     50  C   UNL A   1      44.886  24.734  29.854  1.00  0.00     0.049 A 
ATOM     51  N   UNL A   1      46.755  27.389  29.512  1.00  0.00    -0.248 NA
ATOM     52  C   UNL A   1      48.114  25.601  30.084  1.00  0.00     0.031 C 
ATOM     53  C   UNL A   1      43.822  23.778  30.167  1.00  0.00     0.029 A 
ATOM     54  N   UNL A   1      45.018  24.597  28.500  1.00  0.00    -0.354 N 
ATOM     55  C   UNL A   1      48.019  27.617  29.002  1.00  0.00     0.074 A 
ATOM     56  C   UNL A   1      48.854  26.575  29.546  1.00  0.00     0.031 C 
ATOM     57  C   UNL A   1      43.541  23.025  29.073  1.00  0.00     0.029 A 
ATOM     58  C   UNL A   1      44.235  23.604  27.938  1.00  0.00     0.049 A 
ATOM     59  H   UNL A   1      45.623  25.160  27.967  1.00  0.00     0.167 HD
ATOM     60  C   UNL A   1      48.197  28.532  28.009  1.00  0.00     0.037 A 
ATOM     61  C   UNL A   1      44.064  23.364  26.618  1.00  0.00     0.037 A 
ATOM     62  C   UNL A   1      46.992  29.310  27.802  1.00  0.00     0.049 A 
ATOM     63  C   UNL A   1      44.269  24.658  25.922  1.00  0.00     0.074 A 
ATOM     64  C   UNL A   1      46.205  30.117  28.605  1.00  0.00     0.029 A 
ATOM     65  N   UNL A   1      46.200  28.999  26.720  1.00  0.00    -0.354 N 
ATOM     66  N   UNL A   1      43.461  25.677  26.038  1.00  0.00    -0.248 NA
ATOM     67  C   UNL A   1      45.591  24.967  25.402  1.00  0.00     0.031 C 
ATOM     68  C   UNL A   1      44.859  29.826  28.220  1.00  0.00     0.029 A 
ATOM     69  C   UNL A   1      44.909  28.902  27.177  1.00  0.00     0.049 A 
ATOM     70  H   UNL A   1      46.502  28.872  25.793  1.00  0.00     0.167 HD
ATOM     71  C   UNL A   1      44.293  26.785  26.032  1.00  0.00     0.074 A 
ATOM     72  C   UNL A   1      45.569  26.297  25.520  1.00  0.00     0.031 C 
ATOM     73  C   UNL A   1      43.952  27.932  26.691  1.00  0.00     0.037 A 
BRANCH  60  74
ATOM     74  C   UNL A   1      49.316  28.523  27.004  1.00  0.00     0.064 A 
ATOM     75  C   UNL A   1      49.524  27.357  26.239  1.00  0.00     0.173 A 
ATOM     76  C   UNL A   1      50.345  29.484  26.939  1.00  0.00     0.173 A 
ATOM     77  F   UNL A   1      48.614  26.372  26.229  1.00  0.00    -0.203 F 
ATOM     78  C   UNL A   1      50.710  27.134  25.539  1.00  0.00     0.198 A 
ATOM     79  C   UNL A   1      51.503  29.284  26.189  1.00  0.00     0.198 A 
ATOM     80  F   UNL A   1      50.332  30.597  27.681  1.00  0.00    -0.203 F 
ATOM     81  F   UNL A   1      50.914  25.954  24.939  1.00  0.00    -0.200 F 
ATOM     82  C   UNL A   1      51.702  28.096  25.519  1.00  0.00     0.200 A 
ATOM     83  F   UNL A   1      52.459  30.224  26.192  1.00  0.00    -0.200 F 
ATOM     84  F   UNL A   1      52.864  27.861  24.899  1.00  0.00    -0.200 F 
ENDBRANCH  60  74
BRANCH  61  85
ATOM     85  C   UNL A   1      43.922  22.078  25.905  1.00  0.00     0.064 A 
ATOM     86  C   UNL A   1      45.039  21.416  25.370  1.00  0.00     0.173 A 
ATOM     87  C   UNL A   1      42.733  21.330  26.005  1.00  0.00     0.173 A 
ATOM     88  F   UNL A   1      46.216  22.050  25.272  1.00  0.00    -0.203 F 
ATOM     89  C   UNL A   1      44.984  20.069  25.001  1.00  0.00     0.198 A 
ATOM     90  C   UNL A   1      42.680  19.984  25.636  1.00  0.00     0.198 A 
ATOM     91  F   UNL A   1      41.633  21.865  26.556  1.00  0.00    -0.203 F 
ATOM     92  F   UNL A   1      46.090  19.452  24.561  1.00  0.00    -0.200 F 
ATOM     93  C   UNL A   1      43.809  19.350  25.150  1.00  0.00     0.200 A 
ATOM     94  F   UNL A   1      41.549  19.288  25.814  1.00  0.00    -0.200 F 
ATOM     95  F   UNL A   1      43.778  18.041  24.865  1.00  0.00    -0.200 F 
ENDBRANCH  61  85
BRANCH  73  96
ATOM     96  C   UNL A   1      42.533  28.078  27.174  1.00  0.00     0.064 A 
ATOM     97  C   UNL A   1      41.513  28.713  26.444  1.00  0.00     0.173 A 
ATOM     98  C   UNL A   1      42.157  27.417  28.352  1.00  0.00     0.173 A 
ATOM     99  F   UNL A   1      41.768  29.287  25.264  1.00  0.00    -0.203 F 
ATOM    100  C   UNL A   1      40.192  28.713  26.886  1.00  0.00     0.198 A 
ATOM    101  C   UNL A   1      40.829  27.388  28.776  1.00  0.00     0.198 A 
ATOM    102  F   UNL A   1      43.074  26.751  29.071  1.00  0.00    -0.203 F 
ATOM    103  F   UNL A   1      39.241  29.328  26.167  1.00  0.00    -0.200 F 
ATOM    104  C   UNL A   1      39.849  28.042  28.047  1.00  0.00     0.200 A 
ATOM    105  F   UNL A   1      40.496  26.700  29.876  1.00  0.00    -0.200 F 
ATOM    106  F   UNL A   1      38.571  28.000  28.449  1.00  0.00    -0.200 F 
ENDBRANCH  73  96
ENDBRANCH  47  48
ENDBRANCH  40  42
ENDBRANCH  39  40
ENDBRANCH  38  39
ENDBRANCH   1  38
TORSDOF 16
ENDMDL
MODEL 3
REMARK VINA RESULT:     -12.8      5.020      9.625
REMARK SMILES COc1cc2c(cc1OC)-c1c(c(C(=O)Nc3ccc(C(=O)OCCOC(=O)c4ccc(-c5c6nc(c(-c7c(F)c(F)c(F)c(F)c7F)c7ccc([nH]7)c(-c7c(F)c(F)c(F)c(F)c7F)c7nc(c(-c8c(F)c(F)c(F)c(F)c8F)c8ccc5[nH]8)C=C7)C=C6)cc4)cc3)nn1-c1ccc(F)cc1)C2
REMARK SMILES IDX 24 1 23 2 21 3 22 4 20 5 17 6 18 7 93 8 19 9 92 10 16 11
REMARK SMILES IDX 14 12 15 13 13 15 3 16 4 17 8 18 5 19 7 20 6 21 103 22 11 23
REMARK SMILES IDX 12 24 95 25 94 26 2 27 1 28 9 29 10 30 96 31 97 32 102 33
REMARK SMILES IDX 98 34 101 35 99 36 100 37 25 38 26 39 27 40 28 41 29 42
REMARK SMILES IDX 30 43 91 44 31 45 90 46 32 47 33 48 34 49 84 50 35 51 89 52
REMARK SMILES IDX 83 53 85 54 36 55 88 56 82 57 81 58 37 60 69 61 49 62 68 63
REMARK SMILES IDX 50 64 53 65 67 66 86 67 51 68 52 69 66 71 87 72 54 73 38 74
REMARK SMILES IDX 39 75 47 76 40 77 41 78 45 79 48 80 42 81 43 82 46 83 44 84
REMARK SMILES IDX 70 85 71 86 79 87 72 88 73 89 77 90 80 91 74 92 75 93 78 94
REMARK SMILES IDX 76 95 55 96 56 97 64 98 57 99 58 100 62 101 65 102 59 103
REMARK SMILES IDX 60 104 63 105 61 106
REMARK H PARENT 16 14 85 59 53 70
REMARK Flexibility Score: inf
ROOT
ATOM      1  C   UNL A   1      33.916  34.846  30.026  1.00  0.00     0.275 C 
ENDROOT
BRANCH   1   2
ATOM      2  O   UNL A   1      34.860  34.762  31.126  1.00  0.00    -0.458 OA
BRANCH   2   3
ATOM      3  C   UNL A   1      34.389  34.269  32.301  1.00  0.00     0.338 C 
ATOM      4  O   UNL A   1      33.223  34.265  32.665  1.00  0.00    -0.246 OA
BRANCH   3   5
ATOM      5  C   UNL A   1      35.465  33.564  33.053  1.00  0.00     0.060 A 
ATOM      6  C   UNL A   1      37.240  32.258  34.813  1.00  0.00     0.041 A 
ATOM      7  C   UNL A   1      36.803  33.537  35.104  1.00  0.00     0.027 A 
ATOM      8  C   UNL A   1      36.918  31.699  33.567  1.00  0.00     0.027 A 
ATOM      9  C   UNL A   1      35.953  34.183  34.204  1.00  0.00     0.018 A 
ATOM     10  C   UNL A   1      35.994  32.327  32.706  1.00  0.00     0.018 A 
BRANCH   6  11
ATOM     11  N   UNL A   1      38.070  31.547  35.686  1.00  0.00    -0.321 N 
ATOM     12  C   UNL A   1      39.392  31.155  35.547  1.00  0.00     0.276 C 
ATOM     13  O   UNL A   1      39.685  30.036  35.978  1.00  0.00    -0.267 OA
ATOM     14  H   UNL A   1      37.648  31.282  36.535  1.00  0.00     0.170 HD
BRANCH  12  15
ATOM     15  C   UNL A   1      40.439  32.111  35.074  1.00  0.00     0.155 A 
ATOM     16  C   UNL A   1      42.559  35.027  30.296  1.00  0.00     0.161 A 
ATOM     17  C   UNL A   1      41.291  34.530  30.669  1.00  0.00     0.055 A 
ATOM     18  C   UNL A   1      43.553  35.280  31.261  1.00  0.00     0.161 A 
ATOM     19  C   UNL A   1      41.097  34.075  31.967  1.00  0.00    -0.030 A 
ATOM     20  C   UNL A   1      43.365  34.833  32.563  1.00  0.00     0.061 A 
ATOM     21  C   UNL A   1      42.157  34.233  32.873  1.00  0.00     0.008 A 
ATOM     22  C   UNL A   1      39.906  33.268  32.578  1.00  0.00     0.076 C 
ATOM     23  C   UNL A   1      41.746  33.538  34.035  1.00  0.00     0.079 A 
ATOM     24  C   UNL A   1      40.557  32.887  33.882  1.00  0.00     0.016 A 
ATOM     25  N   UNL A   1      42.066  33.524  35.344  1.00  0.00    -0.232 N 
ATOM     26  N   UNL A   1      41.465  32.453  35.931  1.00  0.00    -0.162 NA
BRANCH  16  27
ATOM     27  O   UNL A   1      42.778  35.220  28.951  1.00  0.00    -0.493 OA
ATOM     28  C   UNL A   1      41.667  35.868  28.316  1.00  0.00     0.278 C 
ENDBRANCH  16  27
BRANCH  18  29
ATOM     29  O   UNL A   1      44.765  35.875  31.031  1.00  0.00    -0.493 OA
ATOM     30  C   UNL A   1      45.641  35.945  32.156  1.00  0.00     0.278 C 
ENDBRANCH  18  29
BRANCH  25  31
ATOM     31  C   UNL A   1      42.774  34.553  36.012  1.00  0.00     0.065 A 
ATOM     32  C   UNL A   1      44.158  34.509  36.162  1.00  0.00     0.031 A 
ATOM     33  C   UNL A   1      42.049  35.690  36.435  1.00  0.00     0.031 A 
ATOM     34  C   UNL A   1      44.815  35.654  36.633  1.00  0.00     0.041 A 
ATOM     35  C   UNL A   1      42.708  36.814  36.920  1.00  0.00     0.041 A 
ATOM     36  C   UNL A   1      44.090  36.794  36.992  1.00  0.00     0.123 A 
ATOM     37  F   UNL A   1      44.737  37.893  37.404  1.00  0.00    -0.207 F 
ENDBRANCH  25  31
ENDBRANCH  12  15
ENDBRANCH   6  11
ENDBRANCH   3   5
ENDBRANCH   2   3
ENDBRANCH   1   2
BRANCH   1  38
ATOM     38  C   UNL A   1      34.604  34.689  28.661  1.00  0.00     0.275 C 
BRANCH  38  39
ATOM     39  O   UNL A   1      35.908  34.116  28.850  1.00  0.00    -0.458 OA
BRANCH  39  40
ATOM     40  C   UNL A   1      35.978  32.839  28.423  1.00  0.00     0.338 C 
ATOM     41  O   UNL A   1      35.481  32.416  27.387  1.00  0.00    -0.246 OA
BRANCH  40  42
ATOM     42  C   UNL A   1      37.012  32.100  29.176  1.00  0.00     0.060 A 
ATOM     43  C   UNL A   1      38.323  32.534  29.361  1.00  0.00     0.016 A 
ATOM     44  C   UNL A   1      36.678  30.790  29.487  1.00  0.00     0.016 A 
ATOM     45  C   UNL A   1      39.317  31.585  29.624  1.00  0.00     0.010 A 
ATOM     46  C   UNL A   1      37.642  29.862  29.800  1.00  0.00     0.010 A 
ATOM     47  C   UNL A   1      38.977  30.232  29.725  1.00  0.00    -0.014 A 
BRANCH  47  48
ATOM     48  C   UNL A   1      39.959  29.162  29.806  1.00  0.00     0.031 A 
ATOM     49  C   UNL A   1      40.378  28.835  31.180  1.00  0.00     0.074 A 
ATOM     50  C   UNL A   1      40.427  28.377  28.813  1.00  0.00     0.049 A 
ATOM     51  N   UNL A   1      41.391  29.369  31.770  1.00  0.00    -0.248 NA
ATOM     52  C   UNL A   1      39.584  27.943  32.027  1.00  0.00     0.031 C 
ATOM     53  C   UNL A   1      40.061  28.277  27.400  1.00  0.00     0.029 A 
ATOM     54  N   UNL A   1      41.395  27.419  28.936  1.00  0.00    -0.354 N 
ATOM     55  C   UNL A   1      41.484  28.760  33.007  1.00  0.00     0.074 A 
ATOM     56  C   UNL A   1      40.248  28.038  33.182  1.00  0.00     0.031 C 
ATOM     57  C   UNL A   1      40.653  27.190  26.844  1.00  0.00     0.029 A 
ATOM     58  C   UNL A   1      41.613  26.665  27.797  1.00  0.00     0.049 A 
ATOM     59  H   UNL A   1      41.897  27.277  29.771  1.00  0.00     0.167 HD
ATOM     60  C   UNL A   1      42.673  28.749  33.672  1.00  0.00     0.037 A 
ATOM     61  C   UNL A   1      42.605  25.766  27.604  1.00  0.00     0.037 A 
ATOM     62  C   UNL A   1      43.634  29.622  33.028  1.00  0.00     0.049 A 
ATOM     63  C   UNL A   1      43.737  26.192  28.465  1.00  0.00     0.074 A 
ATOM     64  C   UNL A   1      43.661  30.966  32.701  1.00  0.00     0.029 A 
ATOM     65  N   UNL A   1      44.610  29.044  32.248  1.00  0.00    -0.354 N 
ATOM     66  N   UNL A   1      44.425  27.284  28.265  1.00  0.00    -0.248 NA
ATOM     67  C   UNL A   1      43.859  25.613  29.792  1.00  0.00     0.031 C 
ATOM     68  C   UNL A   1      44.278  31.025  31.413  1.00  0.00     0.029 A 
ATOM     69  C   UNL A   1      44.634  29.724  31.056  1.00  0.00     0.049 A 
ATOM     70  H   UNL A   1      45.185  28.286  32.499  1.00  0.00     0.167 HD
ATOM     71  C   UNL A   1      44.701  27.761  29.536  1.00  0.00     0.074 A 
ATOM     72  C   UNL A   1      44.435  26.636  30.428  1.00  0.00     0.031 C 
ATOM     73  C   UNL A   1      44.861  29.097  29.773  1.00  0.00     0.037 A 
BRANCH  60  74
ATOM     74  C   UNL A   1      43.092  27.728  34.694  1.00  0.00     0.064 A 
ATOM     75  C   UNL A   1      43.376  28.164  36.004  1.00  0.00     0.173 A 
ATOM     76  C   UNL A   1      43.482  26.407  34.396  1.00  0.00     0.173 A 
ATOM     77  F   UNL A   1      43.056  29.406  36.398  1.00  0.00    -0.203 F 
ATOM     78  C   UNL A   1      44.077  27.370  36.912  1.00  0.00     0.198 A 
ATOM     79  C   UNL A   1      44.127  25.593  35.326  1.00  0.00     0.198 A 
ATOM     80  F   UNL A   1      43.361  25.885  33.170  1.00  0.00    -0.203 F 
ATOM     81  F   UNL A   1      44.440  27.880  38.096  1.00  0.00    -0.200 F 
ATOM     82  C   UNL A   1      44.457  26.086  36.571  1.00  0.00     0.200 A 
ATOM     83  F   UNL A   1      44.498  24.355  34.972  1.00  0.00    -0.200 F 
ATOM     84  F   UNL A   1      45.181  25.344  37.417  1.00  0.00    -0.200 F 
ENDBRANCH  60  74
BRANCH  61  85
ATOM     85  C   UNL A   1      42.582  24.478  26.883  1.00  0.00     0.064 A 
ATOM     86  C   UNL A   1      43.124  24.357  25.593  1.00  0.00     0.173 A 
ATOM     87  C   UNL A   1      42.306  23.277  27.566  1.00  0.00     0.173 A 
ATOM     88  F   UNL A   1      43.445  25.452  24.890  1.00  0.00    -0.203 F 
ATOM     89  C   UNL A   1      43.418  23.108  25.036  1.00  0.00     0.198 A 
ATOM     90  C   UNL A   1      42.600  22.032  27.009  1.00  0.00     0.198 A 
ATOM     91  F   UNL A   1      41.839  23.299  28.823  1.00  0.00    -0.203 F 
ATOM     92  F   UNL A   1      44.001  23.035  23.831  1.00  0.00    -0.200 F 
ATOM     93  C   UNL A   1      43.171  21.948  25.751  1.00  0.00     0.200 A 
ATOM     94  F   UNL A   1      42.389  20.916  27.721  1.00  0.00    -0.200 F 
ATOM     95  F   UNL A   1      43.522  20.757  25.248  1.00  0.00    -0.200 F 
ENDBRANCH  61  85
BRANCH  73  96
ATOM     96  C   UNL A   1      45.029  30.012  28.589  1.00  0.00     0.064 A 
ATOM     97  C   UNL A   1      43.964  30.653  27.932  1.00  0.00     0.173 A 
ATOM     98  C   UNL A   1      46.327  30.373  28.201  1.00  0.00     0.173 A 
ATOM     99  F   UNL A   1      42.698  30.437  28.302  1.00  0.00    -0.203 F 
ATOM    100  C   UNL A   1      44.188  31.583  26.918  1.00  0.00     0.198 A 
ATOM    101  C   UNL A   1      46.549  31.328  27.211  1.00  0.00     0.198 A 
ATOM    102  F   UNL A   1      47.388  29.832  28.821  1.00  0.00    -0.203 F 
ATOM    103  F   UNL A   1      43.150  32.178  26.310  1.00  0.00    -0.200 F 
ATOM    104  C   UNL A   1      45.480  31.927  26.565  1.00  0.00     0.200 A 
ATOM    105  F   UNL A   1      47.803  31.690  26.904  1.00  0.00    -0.200 F 
ATOM    106  F   UNL A   1      45.698  32.857  25.624  1.00  0.00    -0.200 F 
ENDBRANCH  73  96
ENDBRANCH  47  48
ENDBRANCH  40  42
ENDBRANCH  39  40
ENDBRANCH  38  39
ENDBRANCH   1  38
TORSDOF 16
ENDMDL
