MODEL 1
REMARK VINA RESULT:     -13.2      0.000      0.000
REMARK SMILES O=C(OCCOC(=O)[C@H]1[C@H]2CC[C@H](C2)[C@@H]1C(=O)N1CC[NH+](C2CCCCC2)CC1)c1ccc(-c2c3nc(c(-c4c(F)c(F)c(F)c(F)c4F)c4ccc([nH]4)c(-c4c(F)c(F)c(F)c(F)c4F)c4nc(c(-c5c(F)c(F)c(F)c(F)c5F)c5ccc2[nH]5)C=C4)C=C3)cc1
REMARK SMILES IDX 4 1 3 2 2 3 1 4 30 5 31 6 92 7 32 8 91 9 33 10 34 11 35 12
REMARK SMILES IDX 85 13 36 14 90 15 84 16 86 17 37 18 89 19 83 20 82 21 38 23
REMARK SMILES IDX 70 24 50 25 69 26 51 27 54 28 68 29 87 30 52 31 53 32 67 34
REMARK SMILES IDX 88 35 55 36 39 37 40 38 48 39 41 40 42 41 46 42 49 43 43 44
REMARK SMILES IDX 44 45 47 46 45 47 71 48 72 49 80 50 73 51 74 52 78 53 81 54
REMARK SMILES IDX 75 55 76 56 79 57 77 58 56 59 57 60 65 61 58 62 59 63 63 64
REMARK SMILES IDX 66 65 60 66 61 67 64 68 62 69 5 70 6 71 7 72 8 73 9 74 10 75
REMARK SMILES IDX 15 76 11 77 14 78 13 79 12 80 16 81 17 82 18 83 19 84 29 85
REMARK SMILES IDX 20 86 28 87 21 88 22 90 23 91 27 92 24 93 26 94 25 95
REMARK H PARENT 86 22 54 33 21 89
REMARK Flexibility Score: inf
ROOT
ATOM      1  C   UNL A   1      31.408  32.350  26.820  1.00  0.00     0.275 C 
ENDROOT
BRANCH   1   2
ATOM      2  O   UNL A   1      32.323  33.452  26.886  1.00  0.00    -0.458 OA
BRANCH   2   3
ATOM      3  C   UNL A   1      33.005  33.935  27.948  1.00  0.00     0.338 C 
ATOM      4  O   UNL A   1      32.646  34.997  28.455  1.00  0.00    -0.246 OA
BRANCH   3   5
ATOM      5  C   UNL A   1      34.257  33.315  28.476  1.00  0.00     0.060 A 
ATOM      6  C   UNL A   1      35.567  33.759  28.290  1.00  0.00     0.016 A 
ATOM      7  C   UNL A   1      34.078  32.125  29.184  1.00  0.00     0.016 A 
ATOM      8  C   UNL A   1      36.658  33.080  28.877  1.00  0.00     0.010 A 
ATOM      9  C   UNL A   1      35.148  31.491  29.823  1.00  0.00     0.010 A 
ATOM     10  C   UNL A   1      36.466  31.952  29.683  1.00  0.00    -0.014 A 
BRANCH  10  11
ATOM     11  C   UNL A   1      37.577  31.165  30.316  1.00  0.00     0.031 A 
ATOM     12  C   UNL A   1      38.012  31.528  31.718  1.00  0.00     0.074 A 
ATOM     13  C   UNL A   1      38.255  30.194  29.664  1.00  0.00     0.049 A 
ATOM     14  N   UNL A   1      39.087  31.182  32.382  1.00  0.00    -0.248 NA
ATOM     15  C   UNL A   1      37.132  32.452  32.457  1.00  0.00     0.031 C 
ATOM     16  C   UNL A   1      37.936  29.673  28.338  1.00  0.00     0.029 A 
ATOM     17  N   UNL A   1      39.376  29.474  30.032  1.00  0.00    -0.354 N 
ATOM     18  C   UNL A   1      38.999  31.848  33.598  1.00  0.00     0.074 A 
ATOM     19  C   UNL A   1      37.877  32.753  33.507  1.00  0.00     0.031 C 
ATOM     20  C   UNL A   1      38.817  28.711  28.015  1.00  0.00     0.029 A 
ATOM     21  C   UNL A   1      39.834  28.612  29.057  1.00  0.00     0.049 A 
ATOM     22  H   UNL A   1      39.810  29.568  30.911  1.00  0.00     0.167 HD
ATOM     23  C   UNL A   1      39.696  31.641  34.741  1.00  0.00     0.037 A 
ATOM     24  C   UNL A   1      40.968  27.873  28.991  1.00  0.00     0.037 A 
ATOM     25  C   UNL A   1      40.718  30.644  34.884  1.00  0.00     0.049 A 
ATOM     26  C   UNL A   1      41.930  27.945  30.162  1.00  0.00     0.074 A 
ATOM     27  C   UNL A   1      41.340  30.196  36.034  1.00  0.00     0.029 A 
ATOM     28  N   UNL A   1      41.253  29.930  33.827  1.00  0.00    -0.354 N 
ATOM     29  N   UNL A   1      41.738  28.453  31.356  1.00  0.00    -0.248 NA
ATOM     30  C   UNL A   1      43.267  27.353  29.986  1.00  0.00     0.031 C 
ATOM     31  C   UNL A   1      42.273  29.218  35.667  1.00  0.00     0.029 A 
ATOM     32  C   UNL A   1      42.224  29.060  34.292  1.00  0.00     0.049 A 
ATOM     33  H   UNL A   1      40.985  30.026  32.884  1.00  0.00     0.167 HD
ATOM     34  C   UNL A   1      42.840  28.074  32.112  1.00  0.00     0.074 A 
ATOM     35  C   UNL A   1      43.748  27.389  31.221  1.00  0.00     0.031 C 
ATOM     36  C   UNL A   1      43.040  28.236  33.442  1.00  0.00     0.037 A 
BRANCH  23  37
ATOM     37  C   UNL A   1      39.270  32.418  35.951  1.00  0.00     0.064 A 
ATOM     38  C   UNL A   1      39.813  33.688  36.215  1.00  0.00     0.173 A 
ATOM     39  C   UNL A   1      38.336  31.903  36.859  1.00  0.00     0.173 A 
ATOM     40  F   UNL A   1      40.713  34.225  35.376  1.00  0.00    -0.203 F 
ATOM     41  C   UNL A   1      39.486  34.382  37.374  1.00  0.00     0.198 A 
ATOM     42  C   UNL A   1      37.984  32.618  38.001  1.00  0.00     0.198 A 
ATOM     43  F   UNL A   1      37.776  30.702  36.647  1.00  0.00    -0.203 F 
ATOM     44  F   UNL A   1      40.082  35.552  37.641  1.00  0.00    -0.200 F 
ATOM     45  C   UNL A   1      38.571  33.847  38.266  1.00  0.00     0.200 A 
ATOM     46  F   UNL A   1      37.087  32.110  38.858  1.00  0.00    -0.200 F 
ATOM     47  F   UNL A   1      38.263  34.514  39.388  1.00  0.00    -0.200 F 
ENDBRANCH  23  37
BRANCH  24  48
ATOM     48  C   UNL A   1      41.322  27.045  27.786  1.00  0.00     0.064 A 
ATOM     49  C   UNL A   1      41.117  25.657  27.740  1.00  0.00     0.173 A 
ATOM     50  C   UNL A   1      41.992  27.605  26.692  1.00  0.00     0.173 A 
ATOM     51  F   UNL A   1      40.475  25.040  28.743  1.00  0.00    -0.203 F 
ATOM     52  C   UNL A   1      41.635  24.872  26.704  1.00  0.00     0.198 A 
ATOM     53  C   UNL A   1      42.477  26.833  25.635  1.00  0.00     0.198 A 
ATOM     54  F   UNL A   1      42.208  28.924  26.656  1.00  0.00    -0.203 F 
ATOM     55  F   UNL A   1      41.508  23.538  26.749  1.00  0.00    -0.200 F 
ATOM     56  C   UNL A   1      42.322  25.460  25.655  1.00  0.00     0.200 A 
ATOM     57  F   UNL A   1      43.132  27.421  24.624  1.00  0.00    -0.200 F 
ATOM     58  F   UNL A   1      42.853  24.708  24.681  1.00  0.00    -0.200 F 
ENDBRANCH  24  48
BRANCH  36  59
ATOM     59  C   UNL A   1      44.125  27.435  34.092  1.00  0.00     0.064 A 
ATOM     60  C   UNL A   1      45.409  27.937  34.324  1.00  0.00     0.173 A 
ATOM     61  C   UNL A   1      43.826  26.143  34.562  1.00  0.00     0.173 A 
ATOM     62  F   UNL A   1      45.748  29.155  33.875  1.00  0.00    -0.203 F 
ATOM     63  C   UNL A   1      46.359  27.175  35.002  1.00  0.00     0.198 A 
ATOM     64  C   UNL A   1      44.767  25.396  35.262  1.00  0.00     0.198 A 
ATOM     65  F   UNL A   1      42.606  25.619  34.367  1.00  0.00    -0.203 F 
ATOM     66  F   UNL A   1      47.593  27.662  35.193  1.00  0.00    -0.200 F 
ATOM     67  C   UNL A   1      46.034  25.912  35.479  1.00  0.00     0.200 A 
ATOM     68  F   UNL A   1      44.445  24.184  35.732  1.00  0.00    -0.200 F 
ATOM     69  F   UNL A   1      46.944  25.192  36.150  1.00  0.00    -0.200 F 
ENDBRANCH  36  59
ENDBRANCH  10  11
ENDBRANCH   3   5
ENDBRANCH   2   3
ENDBRANCH   1   2
BRANCH   1  70
ATOM     70  C   UNL A   1      32.061  30.978  26.696  1.00  0.00     0.274 C 
BRANCH  70  71
ATOM     71  O   UNL A   1      31.619  30.216  25.565  1.00  0.00    -0.462 OA
BRANCH  71  72
ATOM     72  C   UNL A   1      32.237  29.015  25.400  1.00  0.00     0.310 C 
ATOM     73  O   UNL A   1      33.450  28.861  25.332  1.00  0.00    -0.252 OA
BRANCH  72  74
ATOM     74  C   UNL A   1      31.254  27.898  25.113  1.00  0.00     0.115 C 
ATOM     75  C   UNL A   1      30.196  28.276  24.053  1.00  0.00     0.004 C 
ATOM     76  C   UNL A   1      31.820  26.557  24.571  1.00  0.00     0.096 C 
ATOM     77  C   UNL A   1      30.853  28.581  22.695  1.00  0.00     0.005 C 
ATOM     78  C   UNL A   1      29.561  26.910  23.802  1.00  0.00     0.009 C 
ATOM     79  C   UNL A   1      30.880  26.275  23.367  1.00  0.00     0.003 C 
ATOM     80  C   UNL A   1      31.217  27.192  22.178  1.00  0.00     0.005 C 
BRANCH  76  81
ATOM     81  C   UNL A   1      31.918  25.604  25.777  1.00  0.00     0.227 C 
ATOM     82  O   UNL A   1      31.474  25.980  26.868  1.00  0.00    -0.275 OA
ATOM     83  N   UNL A   1      32.255  24.288  25.587  1.00  0.00    -0.331 N 
ATOM     84  C   UNL A   1      31.600  23.249  26.370  1.00  0.00     0.181 C 
ATOM     85  C   UNL A   1      33.508  23.833  25.016  1.00  0.00     0.181 C 
ATOM     86  C   UNL A   1      31.379  21.974  25.522  1.00  0.00     0.284 C 
ATOM     87  C   UNL A   1      33.257  22.655  24.062  1.00  0.00     0.284 C 
ATOM     88  N   UNL A   1      32.474  21.535  24.626  1.00  0.00    -0.330 N 
ATOM     89  H   UNL A   1      31.997  21.139  23.817  1.00  0.00     0.348 HD
BRANCH  88  90
ATOM     90  C   UNL A   1      33.246  20.368  25.082  1.00  0.00     0.184 C 
ATOM     91  C   UNL A   1      32.531  19.061  24.677  1.00  0.00     0.065 C 
ATOM     92  C   UNL A   1      34.710  20.394  24.641  1.00  0.00     0.065 C 
ATOM     93  C   UNL A   1      33.354  17.813  24.993  1.00  0.00     0.006 C 
ATOM     94  C   UNL A   1      35.483  19.116  24.934  1.00  0.00     0.006 C 
ATOM     95  C   UNL A   1      34.748  17.903  24.385  1.00  0.00     0.000 C 
ENDBRANCH  88  90
ENDBRANCH  76  81
ENDBRANCH  72  74
ENDBRANCH  71  72
ENDBRANCH  70  71
ENDBRANCH   1  70
TORSDOF 13
ENDMDL
MODEL 2
REMARK VINA RESULT:     -12.9      1.436      7.160
REMARK SMILES O=C(OCCOC(=O)[C@H]1[C@H]2CC[C@H](C2)[C@@H]1C(=O)N1CC[NH+](C2CCCCC2)CC1)c1ccc(-c2c3nc(c(-c4c(F)c(F)c(F)c(F)c4F)c4ccc([nH]4)c(-c4c(F)c(F)c(F)c(F)c4F)c4nc(c(-c5c(F)c(F)c(F)c(F)c5F)c5ccc2[nH]5)C=C4)C=C3)cc1
REMARK SMILES IDX 4 1 3 2 2 3 1 4 30 5 31 6 92 7 32 8 91 9 33 10 34 11 35 12
REMARK SMILES IDX 85 13 36 14 90 15 84 16 86 17 37 18 89 19 83 20 82 21 38 23
REMARK SMILES IDX 70 24 50 25 69 26 51 27 54 28 68 29 87 30 52 31 53 32 67 34
REMARK SMILES IDX 88 35 55 36 39 37 40 38 48 39 41 40 42 41 46 42 49 43 43 44
REMARK SMILES IDX 44 45 47 46 45 47 71 48 72 49 80 50 73 51 74 52 78 53 81 54
REMARK SMILES IDX 75 55 76 56 79 57 77 58 56 59 57 60 65 61 58 62 59 63 63 64
REMARK SMILES IDX 66 65 60 66 61 67 64 68 62 69 5 70 6 71 7 72 8 73 9 74 10 75
REMARK SMILES IDX 15 76 11 77 14 78 13 79 12 80 16 81 17 82 18 83 19 84 29 85
REMARK SMILES IDX 20 86 28 87 21 88 22 90 23 91 27 92 24 93 26 94 25 95
REMARK H PARENT 86 22 54 33 21 89
REMARK Flexibility Score: inf
ROOT
ATOM      1  C   UNL A   1      31.680  32.505  27.296  1.00  0.00     0.275 C 
ENDROOT
BRANCH   1   2
ATOM      2  O   UNL A   1      32.408  33.740  27.352  1.00  0.00    -0.458 OA
BRANCH   2   3
ATOM      3  C   UNL A   1      33.012  34.328  28.408  1.00  0.00     0.338 C 
ATOM      4  O   UNL A   1      32.491  35.320  28.917  1.00  0.00    -0.246 OA
BRANCH   3   5
ATOM      5  C   UNL A   1      34.352  33.919  28.927  1.00  0.00     0.060 A 
ATOM      6  C   UNL A   1      35.602  34.354  28.484  1.00  0.00     0.016 A 
ATOM      7  C   UNL A   1      34.329  32.946  29.928  1.00  0.00     0.016 A 
ATOM      8  C   UNL A   1      36.791  33.898  29.092  1.00  0.00     0.010 A 
ATOM      9  C   UNL A   1      35.501  32.544  30.577  1.00  0.00     0.010 A 
ATOM     10  C   UNL A   1      36.762  33.008  30.174  1.00  0.00    -0.014 A 
BRANCH  10  11
ATOM     11  C   UNL A   1      37.984  32.459  30.851  1.00  0.00     0.031 A 
ATOM     12  C   UNL A   1      38.567  31.157  30.345  1.00  0.00     0.074 A 
ATOM     13  C   UNL A   1      38.547  33.036  31.936  1.00  0.00     0.049 A 
ATOM     14  N   UNL A   1      39.444  30.357  30.898  1.00  0.00    -0.248 NA
ATOM     15  C   UNL A   1      38.046  30.665  29.056  1.00  0.00     0.031 C 
ATOM     16  C   UNL A   1      38.159  34.316  32.519  1.00  0.00     0.029 A 
ATOM     17  N   UNL A   1      39.569  32.604  32.758  1.00  0.00    -0.354 N 
ATOM     18  C   UNL A   1      39.567  29.284  30.023  1.00  0.00     0.074 A 
ATOM     19  C   UNL A   1      38.549  29.443  29.011  1.00  0.00     0.031 C 
ATOM     20  C   UNL A   1      38.940  34.576  33.580  1.00  0.00     0.029 A 
ATOM     21  C   UNL A   1      39.818  33.437  33.830  1.00  0.00     0.049 A 
ATOM     22  H   UNL A   1      40.076  31.775  32.596  1.00  0.00     0.167 HD
ATOM     23  C   UNL A   1      40.519  28.322  29.977  1.00  0.00     0.037 A 
ATOM     24  C   UNL A   1      40.617  33.273  34.912  1.00  0.00     0.037 A 
ATOM     25  C   UNL A   1      41.617  28.239  30.895  1.00  0.00     0.049 A 
ATOM     26  C   UNL A   1      41.417  31.988  35.013  1.00  0.00     0.074 A 
ATOM     27  C   UNL A   1      42.750  27.451  30.826  1.00  0.00     0.029 A 
ATOM     28  N   UNL A   1      41.717  28.995  32.049  1.00  0.00    -0.354 N 
ATOM     29  N   UNL A   1      41.632  31.076  34.095  1.00  0.00    -0.248 NA
ATOM     30  C   UNL A   1      42.082  31.695  36.295  1.00  0.00     0.031 C 
ATOM     31  C   UNL A   1      43.531  27.717  31.958  1.00  0.00     0.029 A 
ATOM     32  C   UNL A   1      42.882  28.673  32.722  1.00  0.00     0.049 A 
ATOM     33  H   UNL A   1      41.058  29.663  32.348  1.00  0.00     0.167 HD
ATOM     34  C   UNL A   1      42.594  30.224  34.623  1.00  0.00     0.074 A 
ATOM     35  C   UNL A   1      42.843  30.656  35.979  1.00  0.00     0.031 C 
ATOM     36  C   UNL A   1      43.247  29.210  34.005  1.00  0.00     0.037 A 
BRANCH  23  37
ATOM     37  C   UNL A   1      40.476  27.376  28.813  1.00  0.00     0.064 A 
ATOM     38  C   UNL A   1      41.247  27.620  27.662  1.00  0.00     0.173 A 
ATOM     39  C   UNL A   1      39.663  26.236  28.828  1.00  0.00     0.173 A 
ATOM     40  F   UNL A   1      42.040  28.701  27.599  1.00  0.00    -0.203 F 
ATOM     41  C   UNL A   1      41.154  26.796  26.547  1.00  0.00     0.198 A 
ATOM     42  C   UNL A   1      39.600  25.392  27.721  1.00  0.00     0.198 A 
ATOM     43  F   UNL A   1      38.919  25.948  29.906  1.00  0.00    -0.203 F 
ATOM     44  F   UNL A   1      41.836  27.100  25.434  1.00  0.00    -0.200 F 
ATOM     45  C   UNL A   1      40.331  25.681  26.577  1.00  0.00     0.200 A 
ATOM     46  F   UNL A   1      38.818  24.304  27.753  1.00  0.00    -0.200 F 
ATOM     47  F   UNL A   1      40.236  24.891  25.499  1.00  0.00    -0.200 F 
ENDBRANCH  23  37
BRANCH  24  48
ATOM     48  C   UNL A   1      40.688  34.284  36.023  1.00  0.00     0.064 A 
ATOM     49  C   UNL A   1      39.726  34.350  37.043  1.00  0.00     0.173 A 
ATOM     50  C   UNL A   1      41.658  35.294  36.025  1.00  0.00     0.173 A 
ATOM     51  F   UNL A   1      38.766  33.418  37.120  1.00  0.00    -0.203 F 
ATOM     52  C   UNL A   1      39.688  35.416  37.949  1.00  0.00     0.198 A 
ATOM     53  C   UNL A   1      41.650  36.339  36.950  1.00  0.00     0.198 A 
ATOM     54  F   UNL A   1      42.619  35.287  35.095  1.00  0.00    -0.203 F 
ATOM     55  F   UNL A   1      38.692  35.498  38.842  1.00  0.00    -0.200 F 
ATOM     56  C   UNL A   1      40.646  36.414  37.896  1.00  0.00     0.200 A 
ATOM     57  F   UNL A   1      42.591  37.291  36.890  1.00  0.00    -0.200 F 
ATOM     58  F   UNL A   1      40.591  37.456  38.737  1.00  0.00    -0.200 F 
ENDBRANCH  24  48
BRANCH  36  59
ATOM     59  C   UNL A   1      44.484  28.673  34.654  1.00  0.00     0.064 A 
ATOM     60  C   UNL A   1      45.727  29.307  34.565  1.00  0.00     0.173 A 
ATOM     61  C   UNL A   1      44.386  27.520  35.453  1.00  0.00     0.173 A 
ATOM     62  F   UNL A   1      45.876  30.396  33.797  1.00  0.00    -0.203 F 
ATOM     63  C   UNL A   1      46.832  28.805  35.251  1.00  0.00     0.198 A 
ATOM     64  C   UNL A   1      45.483  27.038  36.159  1.00  0.00     0.198 A 
ATOM     65  F   UNL A   1      43.213  26.879  35.573  1.00  0.00    -0.203 F 
ATOM     66  F   UNL A   1      48.022  29.410  35.134  1.00  0.00    -0.200 F 
ATOM     67  C   UNL A   1      46.706  27.680  36.055  1.00  0.00     0.200 A 
ATOM     68  F   UNL A   1      45.353  25.960  36.944  1.00  0.00    -0.200 F 
ATOM     69  F   UNL A   1      47.766  27.214  36.731  1.00  0.00    -0.200 F 
ENDBRANCH  36  59
ENDBRANCH  10  11
ENDBRANCH   3   5
ENDBRANCH   2   3
ENDBRANCH   1   2
BRANCH   1  70
ATOM     70  C   UNL A   1      32.538  31.262  27.087  1.00  0.00     0.274 C 
BRANCH  70  71
ATOM     71  O   UNL A   1      31.792  30.078  26.780  1.00  0.00    -0.462 OA
BRANCH  71  72
ATOM     72  C   UNL A   1      32.513  28.923  26.784  1.00  0.00     0.310 C 
ATOM     73  O   UNL A   1      33.520  28.736  27.453  1.00  0.00    -0.252 OA
BRANCH  72  74
ATOM     74  C   UNL A   1      32.044  27.950  25.721  1.00  0.00     0.115 C 
ATOM     75  C   UNL A   1      31.892  28.598  24.327  1.00  0.00     0.004 C 
ATOM     76  C   UNL A   1      32.935  26.712  25.429  1.00  0.00     0.096 C 
ATOM     77  C   UNL A   1      33.242  29.128  23.810  1.00  0.00     0.005 C 
ATOM     78  C   UNL A   1      31.686  27.353  23.469  1.00  0.00     0.009 C 
ATOM     79  C   UNL A   1      33.022  26.736  23.879  1.00  0.00     0.003 C 
ATOM     80  C   UNL A   1      33.968  27.850  23.397  1.00  0.00     0.005 C 
BRANCH  76  81
ATOM     81  C   UNL A   1      32.311  25.532  26.199  1.00  0.00     0.227 C 
ATOM     82  O   UNL A   1      31.375  25.758  26.974  1.00  0.00    -0.275 OA
ATOM     83  N   UNL A   1      32.617  24.243  25.844  1.00  0.00    -0.331 N 
ATOM     84  C   UNL A   1      31.581  23.218  25.866  1.00  0.00     0.181 C 
ATOM     85  C   UNL A   1      33.949  23.673  25.878  1.00  0.00     0.181 C 
ATOM     86  C   UNL A   1      31.773  22.215  24.704  1.00  0.00     0.284 C 
ATOM     87  C   UNL A   1      34.178  22.789  24.642  1.00  0.00     0.284 C 
ATOM     88  N   UNL A   1      33.148  21.758  24.398  1.00  0.00    -0.330 N 
ATOM     89  H   UNL A   1      33.157  21.640  23.384  1.00  0.00     0.348 HD
BRANCH  88  90
ATOM     90  C   UNL A   1      33.480  20.391  24.831  1.00  0.00     0.184 C 
ATOM     91  C   UNL A   1      32.516  19.374  24.185  1.00  0.00     0.065 C 
ATOM     92  C   UNL A   1      34.950  20.024  24.614  1.00  0.00     0.065 C 
ATOM     93  C   UNL A   1      32.899  17.925  24.480  1.00  0.00     0.006 C 
ATOM     94  C   UNL A   1      35.281  18.561  24.876  1.00  0.00     0.006 C 
ATOM     95  C   UNL A   1      34.348  17.648  24.096  1.00  0.00     0.000 C 
ENDBRANCH  88  90
ENDBRANCH  76  81
ENDBRANCH  72  74
ENDBRANCH  71  72
ENDBRANCH  70  71
ENDBRANCH   1  70
TORSDOF 13
ENDMDL
MODEL 3
REMARK VINA RESULT:     -12.9      4.374      8.137
REMARK SMILES O=C(OCCOC(=O)[C@H]1[C@H]2CC[C@H](C2)[C@@H]1C(=O)N1CC[NH+](C2CCCCC2)CC1)c1ccc(-c2c3nc(c(-c4c(F)c(F)c(F)c(F)c4F)c4ccc([nH]4)c(-c4c(F)c(F)c(F)c(F)c4F)c4nc(c(-c5c(F)c(F)c(F)c(F)c5F)c5ccc2[nH]5)C=C4)C=C3)cc1
REMARK SMILES IDX 4 1 3 2 2 3 1 4 30 5 31 6 92 7 32 8 91 9 33 10 34 11 35 12
REMARK SMILES IDX 85 13 36 14 90 15 84 16 86 17 37 18 89 19 83 20 82 21 38 23
REMARK SMILES IDX 70 24 50 25 69 26 51 27 54 28 68 29 87 30 52 31 53 32 67 34
REMARK SMILES IDX 88 35 55 36 39 37 40 38 48 39 41 40 42 41 46 42 49 43 43 44
REMARK SMILES IDX 44 45 47 46 45 47 71 48 72 49 80 50 73 51 74 52 78 53 81 54
REMARK SMILES IDX 75 55 76 56 79 57 77 58 56 59 57 60 65 61 58 62 59 63 63 64
REMARK SMILES IDX 66 65 60 66 61 67 64 68 62 69 5 70 6 71 7 72 8 73 9 74 10 75
REMARK SMILES IDX 15 76 11 77 14 78 13 79 12 80 16 81 17 82 18 83 19 84 29 85
REMARK SMILES IDX 20 86 28 87 21 88 22 90 23 91 27 92 24 93 26 94 25 95
REMARK H PARENT 86 22 54 33 21 89
REMARK Flexibility Score: inf
ROOT
ATOM      1  C   UNL A   1      35.507  21.639  24.712  1.00  0.00     0.275 C 
ENDROOT
BRANCH   1   2
ATOM      2  O   UNL A   1      36.485  21.571  25.759  1.00  0.00    -0.458 OA
BRANCH   2   3
ATOM      3  C   UNL A   1      37.822  21.398  25.669  1.00  0.00     0.338 C 
ATOM      4  O   UNL A   1      38.259  20.319  25.269  1.00  0.00    -0.246 OA
BRANCH   3   5
ATOM      5  C   UNL A   1      38.818  22.403  26.146  1.00  0.00     0.060 A 
ATOM      6  C   UNL A   1      40.023  22.156  26.806  1.00  0.00     0.016 A 
ATOM      7  C   UNL A   1      38.455  23.738  25.953  1.00  0.00     0.016 A 
ATOM      8  C   UNL A   1      40.883  23.213  27.176  1.00  0.00     0.010 A 
ATOM      9  C   UNL A   1      39.336  24.782  26.257  1.00  0.00     0.010 A 
ATOM     10  C   UNL A   1      40.571  24.545  26.878  1.00  0.00    -0.014 A 
BRANCH  10  11
ATOM     11  C   UNL A   1      41.421  25.721  27.265  1.00  0.00     0.031 A 
ATOM     12  C   UNL A   1      40.778  26.857  28.028  1.00  0.00     0.074 A 
ATOM     13  C   UNL A   1      42.717  25.843  26.901  1.00  0.00     0.049 A 
ATOM     14  N   UNL A   1      41.215  28.071  28.257  1.00  0.00    -0.248 NA
ATOM     15  C   UNL A   1      39.429  26.603  28.566  1.00  0.00     0.031 C 
ATOM     16  C   UNL A   1      43.512  24.826  26.220  1.00  0.00     0.029 A 
ATOM     17  N   UNL A   1      43.598  26.898  27.044  1.00  0.00    -0.354 N 
ATOM     18  C   UNL A   1      40.195  28.704  28.956  1.00  0.00     0.074 A 
ATOM     19  C   UNL A   1      39.059  27.813  28.950  1.00  0.00     0.031 C 
ATOM     20  C   UNL A   1      44.757  25.291  26.026  1.00  0.00     0.029 A 
ATOM     21  C   UNL A   1      44.833  26.680  26.468  1.00  0.00     0.049 A 
ATOM     22  H   UNL A   1      43.366  27.732  27.514  1.00  0.00     0.167 HD
ATOM     23  C   UNL A   1      40.229  29.861  29.660  1.00  0.00     0.037 A 
ATOM     24  C   UNL A   1      45.878  27.520  26.271  1.00  0.00     0.037 A 
ATOM     25  C   UNL A   1      41.397  30.683  29.790  1.00  0.00     0.049 A 
ATOM     26  C   UNL A   1      45.740  28.949  26.761  1.00  0.00     0.074 A 
ATOM     27  C   UNL A   1      41.617  31.752  30.639  1.00  0.00     0.029 A 
ATOM     28  N   UNL A   1      42.552  30.506  29.051  1.00  0.00    -0.354 N 
ATOM     29  N   UNL A   1      44.834  29.464  27.557  1.00  0.00    -0.248 NA
ATOM     30  C   UNL A   1      46.757  29.922  26.327  1.00  0.00     0.031 C 
ATOM     31  C   UNL A   1      42.908  32.237  30.396  1.00  0.00     0.029 A 
ATOM     32  C   UNL A   1      43.486  31.466  29.401  1.00  0.00     0.049 A 
ATOM     33  H   UNL A   1      42.691  29.802  28.376  1.00  0.00     0.167 HD
ATOM     34  C   UNL A   1      45.279  30.744  27.863  1.00  0.00     0.074 A 
ATOM     35  C   UNL A   1      46.475  30.973  27.084  1.00  0.00     0.031 C 
ATOM     36  C   UNL A   1      44.762  31.621  28.757  1.00  0.00     0.037 A 
BRANCH  23  37
ATOM     37  C   UNL A   1      39.002  30.217  30.447  1.00  0.00     0.064 A 
ATOM     38  C   UNL A   1      38.793  29.683  31.730  1.00  0.00     0.173 A 
ATOM     39  C   UNL A   1      38.025  31.075  29.926  1.00  0.00     0.173 A 
ATOM     40  F   UNL A   1      39.699  28.854  32.271  1.00  0.00    -0.203 F 
ATOM     41  C   UNL A   1      37.623  29.941  32.434  1.00  0.00     0.198 A 
ATOM     42  C   UNL A   1      36.870  31.360  30.651  1.00  0.00     0.198 A 
ATOM     43  F   UNL A   1      38.182  31.625  28.713  1.00  0.00    -0.203 F 
ATOM     44  F   UNL A   1      37.413  29.351  33.619  1.00  0.00    -0.200 F 
ATOM     45  C   UNL A   1      36.662  30.781  31.895  1.00  0.00     0.200 A 
ATOM     46  F   UNL A   1      35.945  32.186  30.139  1.00  0.00    -0.200 F 
ATOM     47  F   UNL A   1      35.531  31.023  32.571  1.00  0.00    -0.200 F 
ENDBRANCH  23  37
BRANCH  24  48
ATOM     48  C   UNL A   1      47.124  27.099  25.542  1.00  0.00     0.064 A 
ATOM     49  C   UNL A   1      48.183  26.437  26.182  1.00  0.00     0.173 A 
ATOM     50  C   UNL A   1      47.341  27.460  24.206  1.00  0.00     0.173 A 
ATOM     51  F   UNL A   1      48.058  26.048  27.458  1.00  0.00    -0.203 F 
ATOM     52  C   UNL A   1      49.414  26.236  25.547  1.00  0.00     0.198 A 
ATOM     53  C   UNL A   1      48.552  27.227  23.554  1.00  0.00     0.198 A 
ATOM     54  F   UNL A   1      46.370  28.078  23.525  1.00  0.00    -0.203 F 
ATOM     55  F   UNL A   1      50.435  25.694  26.225  1.00  0.00    -0.200 F 
ATOM     56  C   UNL A   1      49.600  26.638  24.235  1.00  0.00     0.200 A 
ATOM     57  F   UNL A   1      48.710  27.615  22.280  1.00  0.00    -0.200 F 
ATOM     58  F   UNL A   1      50.789  26.482  23.636  1.00  0.00    -0.200 F 
ENDBRANCH  24  48
BRANCH  36  59
ATOM     59  C   UNL A   1      45.610  32.781  29.174  1.00  0.00     0.064 A 
ATOM     60  C   UNL A   1      46.576  32.695  30.182  1.00  0.00     0.173 A 
ATOM     61  C   UNL A   1      45.492  33.995  28.476  1.00  0.00     0.173 A 
ATOM     62  F   UNL A   1      46.712  31.565  30.892  1.00  0.00    -0.203 F 
ATOM     63  C   UNL A   1      47.392  33.785  30.480  1.00  0.00     0.198 A 
ATOM     64  C   UNL A   1      46.326  35.072  28.756  1.00  0.00     0.198 A 
ATOM     65  F   UNL A   1      44.582  34.126  27.497  1.00  0.00    -0.203 F 
ATOM     66  F   UNL A   1      48.295  33.693  31.467  1.00  0.00    -0.200 F 
ATOM     67  C   UNL A   1      47.274  34.967  29.760  1.00  0.00     0.200 A 
ATOM     68  F   UNL A   1      46.217  36.206  28.049  1.00  0.00    -0.200 F 
ATOM     69  F   UNL A   1      48.076  36.005  30.035  1.00  0.00    -0.200 F 
ENDBRANCH  36  59
ENDBRANCH  10  11
ENDBRANCH   3   5
ENDBRANCH   2   3
ENDBRANCH   1   2
BRANCH   1  70
ATOM     70  C   UNL A   1      35.745  22.735  23.679  1.00  0.00     0.274 C 
BRANCH  70  71
ATOM     71  O   UNL A   1      34.972  23.922  23.892  1.00  0.00    -0.462 OA
BRANCH  71  72
ATOM     72  C   UNL A   1      33.781  23.962  23.234  1.00  0.00     0.310 C 
ATOM     73  O   UNL A   1      33.641  23.746  22.038  1.00  0.00    -0.252 OA
BRANCH  72  74
ATOM     74  C   UNL A   1      32.661  24.496  24.105  1.00  0.00     0.115 C 
ATOM     75  C   UNL A   1      31.498  23.495  24.281  1.00  0.00     0.004 C 
ATOM     76  C   UNL A   1      33.005  24.885  25.568  1.00  0.00     0.096 C 
ATOM     77  C   UNL A   1      31.970  22.212  24.989  1.00  0.00     0.005 C 
ATOM     78  C   UNL A   1      30.702  24.194  25.381  1.00  0.00     0.009 C 
ATOM     79  C   UNL A   1      31.873  24.181  26.363  1.00  0.00     0.003 C 
ATOM     80  C   UNL A   1      32.115  22.663  26.440  1.00  0.00     0.005 C 
BRANCH  76  81
ATOM     81  C   UNL A   1      33.190  26.415  25.583  1.00  0.00     0.227 C 
ATOM     82  O   UNL A   1      34.219  26.883  26.083  1.00  0.00    -0.275 OA
ATOM     83  N   UNL A   1      32.359  27.214  24.840  1.00  0.00    -0.331 N 
ATOM     84  C   UNL A   1      32.896  28.380  24.151  1.00  0.00     0.181 C 
ATOM     85  C   UNL A   1      30.922  27.299  25.017  1.00  0.00     0.181 C 
ATOM     86  C   UNL A   1      32.192  28.589  22.789  1.00  0.00     0.284 C 
ATOM     87  C   UNL A   1      30.224  27.363  23.650  1.00  0.00     0.284 C 
ATOM     88  N   UNL A   1      30.724  28.404  22.728  1.00  0.00    -0.330 N 
ATOM     89  H   UNL A   1      30.555  28.011  21.803  1.00  0.00     0.348 HD
BRANCH  88  90
ATOM     90  C   UNL A   1      29.926  29.638  22.647  1.00  0.00     0.184 C 
ATOM     91  C   UNL A   1      28.476  29.313  22.228  1.00  0.00     0.065 C 
ATOM     92  C   UNL A   1      29.990  30.491  23.916  1.00  0.00     0.065 C 
ATOM     93  C   UNL A   1      27.560  30.535  22.267  1.00  0.00     0.006 C 
ATOM     94  C   UNL A   1      29.031  31.673  23.934  1.00  0.00     0.006 C 
ATOM     95  C   UNL A   1      27.612  31.220  23.627  1.00  0.00     0.000 C 
ENDBRANCH  88  90
ENDBRANCH  76  81
ENDBRANCH  72  74
ENDBRANCH  71  72
ENDBRANCH  70  71
ENDBRANCH   1  70
TORSDOF 13
ENDMDL
