MODEL 1
REMARK VINA RESULT:     -11.2      0.000      0.000
REMARK SMILES CC[NH2+][C@@]1(C(=O)OCCOC(=O)c2ccc(-c3c4nc(c(-c5c(F)c(F)c(F)c(F)c5F)c5ccc([nH]5)c(-c5c(F)c(F)c(F)c(F)c5F)c5nc(c(-c6c(F)c(F)c(F)c(F)c6F)c6ccc3[nH]6)C=C5)C=C4)cc2)CC[C@@H](Oc2cccc(OC)c2)C1
REMARK SMILES IDX 8 1 7 2 5 3 6 4 4 5 76 6 88 7 77 8 78 9 3 10 2 13 1 14 79 15
REMARK SMILES IDX 80 16 81 17 87 18 82 19 84 20 83 21 85 22 86 23 9 24 10 25
REMARK SMILES IDX 11 26 12 27 13 28 14 29 75 30 15 31 74 32 16 33 17 34 18 35
REMARK SMILES IDX 68 36 19 37 73 38 67 39 69 40 20 41 72 42 66 43 65 44 21 46
REMARK SMILES IDX 53 47 33 48 52 49 34 50 37 51 51 52 70 53 35 54 36 55 50 57
REMARK SMILES IDX 71 58 38 59 22 60 23 61 31 62 24 63 25 64 29 65 32 66 26 67
REMARK SMILES IDX 27 68 30 69 28 70 54 71 55 72 63 73 56 74 57 75 61 76 64 77
REMARK SMILES IDX 58 78 59 79 62 80 60 81 39 82 40 83 48 84 41 85 42 86 46 87
REMARK SMILES IDX 49 88 43 89 44 90 47 91 45 92
REMARK H PARENT 3 11 3 12 69 45 37 56
REMARK Flexibility Score: inf
ROOT
ATOM      1  C   UNL A   1      31.402  29.286  24.945  1.00  0.00     0.274 C 
ENDROOT
BRANCH   1   2
ATOM      2  O   UNL A   1      31.446  28.026  25.644  1.00  0.00    -0.457 OA
BRANCH   2   3
ATOM      3  C   UNL A   1      30.939  26.948  24.976  1.00  0.00     0.368 C 
ATOM      4  O   UNL A   1      29.929  27.006  24.285  1.00  0.00    -0.245 OA
BRANCH   3   5
ATOM      5  C   UNL A   1      31.772  25.645  25.238  1.00  0.00     0.198 C 
ATOM      6  C   UNL A   1      33.278  25.892  25.080  1.00  0.00     0.085 C 
ATOM      7  C   UNL A   1      31.485  24.556  24.181  1.00  0.00     0.126 C 
ATOM      8  C   UNL A   1      33.557  25.755  23.587  1.00  0.00     0.052 C 
ATOM      9  C   UNL A   1      32.532  24.737  23.072  1.00  0.00     0.180 C 
BRANCH   5  10
ATOM     10  N   UNL A   1      31.422  25.072  26.571  1.00  0.00    -0.332 N 
ATOM     11  H   UNL A   1      32.188  25.279  27.212  1.00  0.00     0.347 HD
ATOM     12  H   UNL A   1      30.535  25.501  26.833  1.00  0.00     0.347 HD
BRANCH  10  13
ATOM     13  C   UNL A   1      31.189  23.625  26.604  1.00  0.00     0.257 C 
ATOM     14  C   UNL A   1      32.371  22.960  27.294  1.00  0.00     0.071 C 
ENDBRANCH  10  13
ENDBRANCH   5  10
BRANCH   9  15
ATOM     15  O   UNL A   1      33.079  23.531  22.512  1.00  0.00    -0.490 OA
BRANCH  15  16
ATOM     16  C   UNL A   1      33.417  22.533  23.382  1.00  0.00     0.123 A 
ATOM     17  C   UNL A   1      34.708  22.489  23.900  1.00  0.00     0.047 A 
ATOM     18  C   UNL A   1      32.533  21.480  23.623  1.00  0.00     0.092 A 
ATOM     19  C   UNL A   1      35.085  21.436  24.735  1.00  0.00     0.008 A 
ATOM     20  C   UNL A   1      32.878  20.460  24.510  1.00  0.00     0.122 A 
ATOM     21  C   UNL A   1      34.164  20.434  25.051  1.00  0.00     0.046 A 
BRANCH  20  22
ATOM     22  O   UNL A   1      32.055  19.437  24.894  1.00  0.00    -0.497 OA
ATOM     23  C   UNL A   1      32.625  18.132  24.852  1.00  0.00     0.278 C 
ENDBRANCH  20  22
ENDBRANCH  15  16
ENDBRANCH   9  15
ENDBRANCH   3   5
ENDBRANCH   2   3
ENDBRANCH   1   2
BRANCH   1  24
ATOM     24  C   UNL A   1      31.738  30.447  25.885  1.00  0.00     0.275 C 
BRANCH  24  25
ATOM     25  O   UNL A   1      33.137  30.454  26.230  1.00  0.00    -0.458 OA
BRANCH  25  26
ATOM     26  C   UNL A   1      33.513  31.415  27.104  1.00  0.00     0.338 C 
ATOM     27  O   UNL A   1      32.867  32.396  27.445  1.00  0.00    -0.246 OA
BRANCH  26  28
ATOM     28  C   UNL A   1      34.804  31.064  27.722  1.00  0.00     0.060 A 
ATOM     29  C   UNL A   1      34.995  29.737  28.114  1.00  0.00     0.016 A 
ATOM     30  C   UNL A   1      35.791  32.021  27.970  1.00  0.00     0.016 A 
ATOM     31  C   UNL A   1      36.183  29.349  28.727  1.00  0.00     0.010 A 
ATOM     32  C   UNL A   1      36.973  31.637  28.616  1.00  0.00     0.010 A 
ATOM     33  C   UNL A   1      37.174  30.300  28.997  1.00  0.00    -0.014 A 
BRANCH  33  34
ATOM     34  C   UNL A   1      38.384  29.889  29.745  1.00  0.00     0.031 A 
ATOM     35  C   UNL A   1      38.624  30.438  31.120  1.00  0.00     0.074 A 
ATOM     36  C   UNL A   1      39.233  28.990  29.218  1.00  0.00     0.049 A 
ATOM     37  N   UNL A   1      39.616  30.210  31.943  1.00  0.00    -0.248 NA
ATOM     38  C   UNL A   1      37.604  31.359  31.643  1.00  0.00     0.031 C 
ATOM     39  C   UNL A   1      39.072  28.339  27.920  1.00  0.00     0.029 A 
ATOM     40  N   UNL A   1      40.400  28.466  29.715  1.00  0.00    -0.354 N 
ATOM     41  C   UNL A   1      39.339  30.952  33.081  1.00  0.00     0.074 A 
ATOM     42  C   UNL A   1      38.092  31.650  32.840  1.00  0.00     0.031 C 
ATOM     43  C   UNL A   1      40.105  27.503  27.720  1.00  0.00     0.029 A 
ATOM     44  C   UNL A   1      41.017  27.589  28.859  1.00  0.00     0.049 A 
ATOM     45  H   UNL A   1      40.761  28.698  30.602  1.00  0.00     0.167 HD
ATOM     46  C   UNL A   1      40.061  31.047  34.221  1.00  0.00     0.037 A 
ATOM     47  C   UNL A   1      42.196  26.948  28.975  1.00  0.00     0.037 A 
ATOM     48  C   UNL A   1      41.317  30.381  34.449  1.00  0.00     0.049 A 
ATOM     49  C   UNL A   1      43.030  27.153  30.213  1.00  0.00     0.074 A 
ATOM     50  C   UNL A   1      42.136  30.436  35.563  1.00  0.00     0.029 A 
ATOM     51  N   UNL A   1      41.943  29.546  33.535  1.00  0.00    -0.354 N 
ATOM     52  N   UNL A   1      42.761  27.852  31.289  1.00  0.00    -0.248 NA
ATOM     53  C   UNL A   1      44.339  26.484  30.248  1.00  0.00     0.031 C 
ATOM     54  C   UNL A   1      43.280  29.673  35.304  1.00  0.00     0.029 A 
ATOM     55  C   UNL A   1      43.150  29.103  34.048  1.00  0.00     0.049 A 
ATOM     56  H   UNL A   1      41.581  29.305  32.651  1.00  0.00     0.167 HD
ATOM     57  C   UNL A   1      43.851  27.691  32.134  1.00  0.00     0.074 A 
ATOM     58  C   UNL A   1      44.781  26.814  31.455  1.00  0.00     0.031 C 
ATOM     59  C   UNL A   1      44.063  28.224  33.363  1.00  0.00     0.037 A 
BRANCH  46  60
ATOM     60  C   UNL A   1      39.528  31.943  35.297  1.00  0.00     0.064 A 
ATOM     61  C   UNL A   1      39.869  33.302  35.358  1.00  0.00     0.173 A 
ATOM     62  C   UNL A   1      38.654  31.438  36.271  1.00  0.00     0.173 A 
ATOM     63  F   UNL A   1      40.717  33.826  34.460  1.00  0.00    -0.203 F 
ATOM     64  C   UNL A   1      39.369  34.120  36.368  1.00  0.00     0.198 A 
ATOM     65  C   UNL A   1      38.137  32.264  37.266  1.00  0.00     0.198 A 
ATOM     66  F   UNL A   1      38.296  30.146  36.254  1.00  0.00    -0.203 F 
ATOM     67  F   UNL A   1      39.739  35.406  36.432  1.00  0.00    -0.200 F 
ATOM     68  C   UNL A   1      38.500  33.601  37.317  1.00  0.00     0.200 A 
ATOM     69  F   UNL A   1      37.292  31.763  38.178  1.00  0.00    -0.200 F 
ATOM     70  F   UNL A   1      38.019  34.390  38.289  1.00  0.00    -0.200 F 
ENDBRANCH  46  60
BRANCH  47  71
ATOM     71  C   UNL A   1      42.681  26.074  27.876  1.00  0.00     0.064 A 
ATOM     72  C   UNL A   1      43.543  26.565  26.886  1.00  0.00     0.173 A 
ATOM     73  C   UNL A   1      42.262  24.739  27.772  1.00  0.00     0.173 A 
ATOM     74  F   UNL A   1      43.947  27.843  26.925  1.00  0.00    -0.203 F 
ATOM     75  C   UNL A   1      43.954  25.759  25.825  1.00  0.00     0.198 A 
ATOM     76  C   UNL A   1      42.694  23.927  26.727  1.00  0.00     0.198 A 
ATOM     77  F   UNL A   1      41.429  24.223  28.689  1.00  0.00    -0.203 F 
ATOM     78  F   UNL A   1      44.738  26.268  24.866  1.00  0.00    -0.200 F 
ATOM     79  C   UNL A   1      43.534  24.440  25.750  1.00  0.00     0.200 A 
ATOM     80  F   UNL A   1      42.290  22.651  26.661  1.00  0.00    -0.200 F 
ATOM     81  F   UNL A   1      43.925  23.668  24.727  1.00  0.00    -0.200 F 
ENDBRANCH  47  71
BRANCH  59  82
ATOM     82  C   UNL A   1      45.336  27.852  34.065  1.00  0.00     0.064 A 
ATOM     83  C   UNL A   1      46.497  28.630  33.942  1.00  0.00     0.173 A 
ATOM     84  C   UNL A   1      45.381  26.732  34.909  1.00  0.00     0.173 A 
ATOM     85  F   UNL A   1      46.510  29.701  33.134  1.00  0.00    -0.203 F 
ATOM     86  C   UNL A   1      47.663  28.288  34.622  1.00  0.00     0.198 A 
ATOM     87  C   UNL A   1      46.540  26.409  35.609  1.00  0.00     0.198 A 
ATOM     88  F   UNL A   1      44.296  25.960  35.066  1.00  0.00    -0.203 F 
ATOM     89  F   UNL A   1      48.773  29.021  34.458  1.00  0.00    -0.200 F 
ATOM     90  C   UNL A   1      47.681  27.183  35.461  1.00  0.00     0.200 A 
ATOM     91  F   UNL A   1      46.553  25.348  36.428  1.00  0.00    -0.200 F 
ATOM     92  F   UNL A   1      48.801  26.861  36.122  1.00  0.00    -0.200 F 
ENDBRANCH  59  82
ENDBRANCH  33  34
ENDBRANCH  26  28
ENDBRANCH  25  26
ENDBRANCH  24  25
ENDBRANCH   1  24
TORSDOF 16
ENDMDL
MODEL 2
REMARK VINA RESULT:     -11.2      1.056      7.378
REMARK SMILES CC[NH2+][C@@]1(C(=O)OCCOC(=O)c2ccc(-c3c4nc(c(-c5c(F)c(F)c(F)c(F)c5F)c5ccc([nH]5)c(-c5c(F)c(F)c(F)c(F)c5F)c5nc(c(-c6c(F)c(F)c(F)c(F)c6F)c6ccc3[nH]6)C=C5)C=C4)cc2)CC[C@@H](Oc2cccc(OC)c2)C1
REMARK SMILES IDX 8 1 7 2 5 3 6 4 4 5 76 6 88 7 77 8 78 9 3 10 2 13 1 14 79 15
REMARK SMILES IDX 80 16 81 17 87 18 82 19 84 20 83 21 85 22 86 23 9 24 10 25
REMARK SMILES IDX 11 26 12 27 13 28 14 29 75 30 15 31 74 32 16 33 17 34 18 35
REMARK SMILES IDX 68 36 19 37 73 38 67 39 69 40 20 41 72 42 66 43 65 44 21 46
REMARK SMILES IDX 53 47 33 48 52 49 34 50 37 51 51 52 70 53 35 54 36 55 50 57
REMARK SMILES IDX 71 58 38 59 22 60 23 61 31 62 24 63 25 64 29 65 32 66 26 67
REMARK SMILES IDX 27 68 30 69 28 70 54 71 55 72 63 73 56 74 57 75 61 76 64 77
REMARK SMILES IDX 58 78 59 79 62 80 60 81 39 82 40 83 48 84 41 85 42 86 46 87
REMARK SMILES IDX 49 88 43 89 44 90 47 91 45 92
REMARK H PARENT 3 11 3 12 69 45 37 56
REMARK Flexibility Score: inf
ROOT
ATOM      1  C   UNL A   1      31.042  29.700  24.597  1.00  0.00     0.274 C 
ENDROOT
BRANCH   1   2
ATOM      2  O   UNL A   1      31.786  28.978  23.597  1.00  0.00    -0.457 OA
BRANCH   2   3
ATOM      3  C   UNL A   1      31.122  27.960  22.971  1.00  0.00     0.368 C 
ATOM      4  O   UNL A   1      30.254  28.149  22.127  1.00  0.00    -0.245 OA
BRANCH   3   5
ATOM      5  C   UNL A   1      31.572  26.551  23.493  1.00  0.00     0.198 C 
ATOM      6  C   UNL A   1      33.068  26.522  23.832  1.00  0.00     0.085 C 
ATOM      7  C   UNL A   1      31.439  25.464  22.405  1.00  0.00     0.126 C 
ATOM      8  C   UNL A   1      33.777  26.244  22.510  1.00  0.00     0.052 C 
ATOM      9  C   UNL A   1      32.800  25.390  21.694  1.00  0.00     0.180 C 
BRANCH   5  10
ATOM     10  N   UNL A   1      30.716  26.133  24.643  1.00  0.00    -0.332 N 
ATOM     11  H   UNL A   1      30.125  26.925  24.897  1.00  0.00     0.347 HD
ATOM     12  H   UNL A   1      30.198  25.316  24.320  1.00  0.00     0.347 HD
BRANCH  10  13
ATOM     13  C   UNL A   1      31.430  25.700  25.847  1.00  0.00     0.257 C 
ATOM     14  C   UNL A   1      31.202  24.206  26.034  1.00  0.00     0.071 C 
ENDBRANCH  10  13
ENDBRANCH   5  10
BRANCH   9  15
ATOM     15  O   UNL A   1      33.262  24.074  21.347  1.00  0.00    -0.490 OA
BRANCH  15  16
ATOM     16  C   UNL A   1      33.393  23.167  22.360  1.00  0.00     0.123 A 
ATOM     17  C   UNL A   1      32.300  22.382  22.718  1.00  0.00     0.047 A 
ATOM     18  C   UNL A   1      34.554  23.139  23.134  1.00  0.00     0.092 A 
ATOM     19  C   UNL A   1      32.402  21.501  23.795  1.00  0.00     0.008 A 
ATOM     20  C   UNL A   1      34.688  22.214  24.169  1.00  0.00     0.122 A 
ATOM     21  C   UNL A   1      33.600  21.407  24.507  1.00  0.00     0.046 A 
BRANCH  20  22
ATOM     22  O   UNL A   1      35.814  22.032  24.925  1.00  0.00    -0.497 OA
ATOM     23  C   UNL A   1      37.053  22.223  24.249  1.00  0.00     0.278 C 
ENDBRANCH  20  22
ENDBRANCH  15  16
ENDBRANCH   9  15
ENDBRANCH   3   5
ENDBRANCH   2   3
ENDBRANCH   1   2
BRANCH   1  24
ATOM     24  C   UNL A   1      31.748  29.643  25.955  1.00  0.00     0.275 C 
BRANCH  24  25
ATOM     25  O   UNL A   1      33.033  30.295  25.904  1.00  0.00    -0.458 OA
BRANCH  25  26
ATOM     26  C   UNL A   1      33.237  31.243  26.847  1.00  0.00     0.338 C 
ATOM     27  O   UNL A   1      32.471  32.138  27.173  1.00  0.00    -0.246 OA
BRANCH  26  28
ATOM     28  C   UNL A   1      34.503  30.989  27.556  1.00  0.00     0.060 A 
ATOM     29  C   UNL A   1      34.774  29.676  27.950  1.00  0.00     0.016 A 
ATOM     30  C   UNL A   1      35.387  32.019  27.887  1.00  0.00     0.016 A 
ATOM     31  C   UNL A   1      35.941  29.377  28.646  1.00  0.00     0.010 A 
ATOM     32  C   UNL A   1      36.546  31.723  28.617  1.00  0.00     0.010 A 
ATOM     33  C   UNL A   1      36.828  30.401  28.999  1.00  0.00    -0.014 A 
BRANCH  33  34
ATOM     34  C   UNL A   1      38.008  30.078  29.832  1.00  0.00     0.031 A 
ATOM     35  C   UNL A   1      39.068  29.166  29.290  1.00  0.00     0.074 A 
ATOM     36  C   UNL A   1      38.157  30.641  31.044  1.00  0.00     0.049 A 
ATOM     37  N   UNL A   1      40.176  28.755  29.852  1.00  0.00    -0.248 NA
ATOM     38  C   UNL A   1      38.856  28.656  27.927  1.00  0.00     0.031 C 
ATOM     39  C   UNL A   1      37.227  31.592  31.650  1.00  0.00     0.029 A 
ATOM     40  N   UNL A   1      39.149  30.495  31.981  1.00  0.00    -0.354 N 
ATOM     41  C   UNL A   1      40.797  27.945  28.912  1.00  0.00     0.074 A 
ATOM     42  C   UNL A   1      39.936  27.909  27.748  1.00  0.00     0.031 C 
ATOM     43  C   UNL A   1      37.692  31.944  32.861  1.00  0.00     0.029 A 
ATOM     44  C   UNL A   1      38.930  31.215  33.128  1.00  0.00     0.049 A 
ATOM     45  H   UNL A   1      39.942  29.929  31.842  1.00  0.00     0.167 HD
ATOM     46  C   UNL A   1      41.975  27.287  29.015  1.00  0.00     0.037 A 
ATOM     47  C   UNL A   1      39.639  31.259  34.273  1.00  0.00     0.037 A 
ATOM     48  C   UNL A   1      42.815  27.295  30.184  1.00  0.00     0.049 A 
ATOM     49  C   UNL A   1      40.895  30.435  34.396  1.00  0.00     0.074 A 
ATOM     50  C   UNL A   1      44.015  26.637  30.391  1.00  0.00     0.029 A 
ATOM     51  N   UNL A   1      42.532  27.988  31.352  1.00  0.00    -0.354 N 
ATOM     52  N   UNL A   1      41.480  29.674  33.503  1.00  0.00    -0.248 NA
ATOM     53  C   UNL A   1      41.585  30.470  35.695  1.00  0.00     0.031 C 
ATOM     54  C   UNL A   1      44.434  26.894  31.701  1.00  0.00     0.029 A 
ATOM     55  C   UNL A   1      43.520  27.750  32.293  1.00  0.00     0.049 A 
ATOM     56  H   UNL A   1      41.744  28.562  31.491  1.00  0.00     0.167 HD
ATOM     57  C   UNL A   1      42.612  29.160  34.120  1.00  0.00     0.074 A 
ATOM     58  C   UNL A   1      42.644  29.706  35.460  1.00  0.00     0.031 C 
ATOM     59  C   UNL A   1      43.542  28.307  33.621  1.00  0.00     0.037 A 
BRANCH  46  60
ATOM     60  C   UNL A   1      42.403  26.463  27.838  1.00  0.00     0.064 A 
ATOM     61  C   UNL A   1      43.256  26.978  26.852  1.00  0.00     0.173 A 
ATOM     62  C   UNL A   1      41.965  25.137  27.705  1.00  0.00     0.173 A 
ATOM     63  F   UNL A   1      43.686  28.247  26.927  1.00  0.00    -0.203 F 
ATOM     64  C   UNL A   1      43.640  26.201  25.763  1.00  0.00     0.198 A 
ATOM     65  C   UNL A   1      42.369  24.355  26.626  1.00  0.00     0.198 A 
ATOM     66  F   UNL A   1      41.149  24.599  28.623  1.00  0.00    -0.203 F 
ATOM     67  F   UNL A   1      44.423  26.725  24.809  1.00  0.00    -0.200 F 
ATOM     68  C   UNL A   1      43.200  24.890  25.653  1.00  0.00     0.200 A 
ATOM     69  F   UNL A   1      41.949  23.086  26.526  1.00  0.00    -0.200 F 
ATOM     70  F   UNL A   1      43.571  24.142  24.604  1.00  0.00    -0.200 F 
ENDBRANCH  46  60
BRANCH  47  71
ATOM     71  C   UNL A   1      39.168  32.090  35.411  1.00  0.00     0.064 A 
ATOM     72  C   UNL A   1      39.541  33.436  35.528  1.00  0.00     0.173 A 
ATOM     73  C   UNL A   1      38.365  31.545  36.424  1.00  0.00     0.173 A 
ATOM     74  F   UNL A   1      40.333  33.994  34.600  1.00  0.00    -0.203 F 
ATOM     75  C   UNL A   1      39.144  34.200  36.624  1.00  0.00     0.198 A 
ATOM     76  C   UNL A   1      37.946  32.316  37.505  1.00  0.00     0.198 A 
ATOM     77  F   UNL A   1      37.988  30.259  36.364  1.00  0.00    -0.203 F 
ATOM     78  F   UNL A   1      39.556  35.470  36.736  1.00  0.00    -0.200 F 
ATOM     79  C   UNL A   1      38.342  33.642  37.608  1.00  0.00     0.200 A 
ATOM     80  F   UNL A   1      37.167  31.774  38.450  1.00  0.00    -0.200 F 
ATOM     81  F   UNL A   1      37.964  34.375  38.663  1.00  0.00    -0.200 F 
ENDBRANCH  47  71
BRANCH  59  82
ATOM     82  C   UNL A   1      44.687  27.935  34.517  1.00  0.00     0.064 A 
ATOM     83  C   UNL A   1      45.878  28.676  34.533  1.00  0.00     0.173 A 
ATOM     84  C   UNL A   1      44.573  26.853  35.403  1.00  0.00     0.173 A 
ATOM     85  F   UNL A   1      46.042  29.709  33.693  1.00  0.00    -0.203 F 
ATOM     86  C   UNL A   1      46.921  28.335  35.391  1.00  0.00     0.198 A 
ATOM     87  C   UNL A   1      45.607  26.532  36.278  1.00  0.00     0.198 A 
ATOM     88  F   UNL A   1      43.452  26.118  35.431  1.00  0.00    -0.203 F 
ATOM     89  F   UNL A   1      48.066  29.031  35.361  1.00  0.00    -0.200 F 
ATOM     90  C   UNL A   1      46.782  27.269  36.267  1.00  0.00     0.200 A 
ATOM     91  F   UNL A   1      45.467  25.509  37.132  1.00  0.00    -0.200 F 
ATOM     92  F   UNL A   1      47.783  26.948  37.098  1.00  0.00    -0.200 F 
ENDBRANCH  59  82
ENDBRANCH  33  34
ENDBRANCH  26  28
ENDBRANCH  25  26
ENDBRANCH  24  25
ENDBRANCH   1  24
TORSDOF 16
ENDMDL
MODEL 3
REMARK VINA RESULT:     -11.1      0.598      7.536
REMARK SMILES CC[NH2+][C@@]1(C(=O)OCCOC(=O)c2ccc(-c3c4nc(c(-c5c(F)c(F)c(F)c(F)c5F)c5ccc([nH]5)c(-c5c(F)c(F)c(F)c(F)c5F)c5nc(c(-c6c(F)c(F)c(F)c(F)c6F)c6ccc3[nH]6)C=C5)C=C4)cc2)CC[C@@H](Oc2cccc(OC)c2)C1
REMARK SMILES IDX 8 1 7 2 5 3 6 4 4 5 76 6 88 7 77 8 78 9 3 10 2 13 1 14 79 15
REMARK SMILES IDX 80 16 81 17 87 18 82 19 84 20 83 21 85 22 86 23 9 24 10 25
REMARK SMILES IDX 11 26 12 27 13 28 14 29 75 30 15 31 74 32 16 33 17 34 18 35
REMARK SMILES IDX 68 36 19 37 73 38 67 39 69 40 20 41 72 42 66 43 65 44 21 46
REMARK SMILES IDX 53 47 33 48 52 49 34 50 37 51 51 52 70 53 35 54 36 55 50 57
REMARK SMILES IDX 71 58 38 59 22 60 23 61 31 62 24 63 25 64 29 65 32 66 26 67
REMARK SMILES IDX 27 68 30 69 28 70 54 71 55 72 63 73 56 74 57 75 61 76 64 77
REMARK SMILES IDX 58 78 59 79 62 80 60 81 39 82 40 83 48 84 41 85 42 86 46 87
REMARK SMILES IDX 49 88 43 89 44 90 47 91 45 92
REMARK H PARENT 3 11 3 12 69 45 37 56
REMARK Flexibility Score: inf
ROOT
ATOM      1  C   UNL A   1      31.281  29.704  24.499  1.00  0.00     0.274 C 
ENDROOT
BRANCH   1   2
ATOM      2  O   UNL A   1      31.825  28.496  23.932  1.00  0.00    -0.457 OA
BRANCH   2   3
ATOM      3  C   UNL A   1      30.979  27.424  23.874  1.00  0.00     0.368 C 
ATOM      4  O   UNL A   1      29.803  27.519  23.545  1.00  0.00    -0.245 OA
BRANCH   3   5
ATOM      5  C   UNL A   1      31.681  26.093  24.316  1.00  0.00     0.198 C 
ATOM      6  C   UNL A   1      33.202  26.261  24.423  1.00  0.00     0.085 C 
ATOM      7  C   UNL A   1      31.527  24.981  23.256  1.00  0.00     0.126 C 
ATOM      8  C   UNL A   1      33.733  26.055  23.008  1.00  0.00     0.052 C 
ATOM      9  C   UNL A   1      32.762  25.070  22.347  1.00  0.00     0.180 C 
BRANCH   5  10
ATOM     10  N   UNL A   1      31.070  25.586  25.581  1.00  0.00    -0.332 N 
ATOM     11  H   UNL A   1      31.635  25.927  26.359  1.00  0.00     0.347 HD
ATOM     12  H   UNL A   1      30.111  25.932  25.583  1.00  0.00     0.347 HD
BRANCH  10  13
ATOM     13  C   UNL A   1      30.968  24.130  25.703  1.00  0.00     0.257 C 
ATOM     14  C   UNL A   1      31.937  23.665  26.783  1.00  0.00     0.071 C 
ENDBRANCH  10  13
ENDBRANCH   5  10
BRANCH   9  15
ATOM     15  O   UNL A   1      33.333  23.819  21.927  1.00  0.00    -0.490 OA
BRANCH  15  16
ATOM     16  C   UNL A   1      33.612  22.900  22.899  1.00  0.00     0.123 A 
ATOM     17  C   UNL A   1      34.849  22.936  23.535  1.00  0.00     0.047 A 
ATOM     18  C   UNL A   1      32.736  21.840  23.137  1.00  0.00     0.092 A 
ATOM     19  C   UNL A   1      35.171  21.961  24.481  1.00  0.00     0.008 A 
ATOM     20  C   UNL A   1      33.021  20.900  24.128  1.00  0.00     0.122 A 
ATOM     21  C   UNL A   1      34.250  20.956  24.786  1.00  0.00     0.046 A 
BRANCH  20  22
ATOM     22  O   UNL A   1      32.191  19.882  24.512  1.00  0.00    -0.497 OA
ATOM     23  C   UNL A   1      32.666  19.060  25.574  1.00  0.00     0.278 C 
ENDBRANCH  20  22
ENDBRANCH  15  16
ENDBRANCH   9  15
ENDBRANCH   3   5
ENDBRANCH   2   3
ENDBRANCH   1   2
BRANCH   1  24
ATOM     24  C   UNL A   1      31.714  29.868  25.959  1.00  0.00     0.275 C 
BRANCH  24  25
ATOM     25  O   UNL A   1      33.099  30.253  26.055  1.00  0.00    -0.458 OA
BRANCH  25  26
ATOM     26  C   UNL A   1      33.364  31.243  26.938  1.00  0.00     0.338 C 
ATOM     27  O   UNL A   1      32.642  32.186  27.230  1.00  0.00    -0.246 OA
BRANCH  26  28
ATOM     28  C   UNL A   1      34.636  30.976  27.633  1.00  0.00     0.060 A 
ATOM     29  C   UNL A   1      34.886  29.665  28.046  1.00  0.00     0.016 A 
ATOM     30  C   UNL A   1      35.545  31.994  27.933  1.00  0.00     0.016 A 
ATOM     31  C   UNL A   1      36.058  29.355  28.730  1.00  0.00     0.010 A 
ATOM     32  C   UNL A   1      36.708  31.687  28.650  1.00  0.00     0.010 A 
ATOM     33  C   UNL A   1      36.969  30.366  29.052  1.00  0.00    -0.014 A 
BRANCH  33  34
ATOM     34  C   UNL A   1      38.156  30.035  29.873  1.00  0.00     0.031 A 
ATOM     35  C   UNL A   1      39.213  29.131  29.312  1.00  0.00     0.074 A 
ATOM     36  C   UNL A   1      38.311  30.581  31.091  1.00  0.00     0.049 A 
ATOM     37  N   UNL A   1      40.326  28.715  29.861  1.00  0.00    -0.248 NA
ATOM     38  C   UNL A   1      38.993  28.639  27.943  1.00  0.00     0.031 C 
ATOM     39  C   UNL A   1      37.384  31.522  31.716  1.00  0.00     0.029 A 
ATOM     40  N   UNL A   1      39.309  30.425  32.019  1.00  0.00    -0.354 N 
ATOM     41  C   UNL A   1      40.942  27.919  28.907  1.00  0.00     0.074 A 
ATOM     42  C   UNL A   1      40.073  27.897  27.747  1.00  0.00     0.031 C 
ATOM     43  C   UNL A   1      37.856  31.859  32.928  1.00  0.00     0.029 A 
ATOM     44  C   UNL A   1      39.097  31.129  33.177  1.00  0.00     0.049 A 
ATOM     45  H   UNL A   1      40.102  29.862  31.868  1.00  0.00     0.167 HD
ATOM     46  C   UNL A   1      42.121  27.261  28.993  1.00  0.00     0.037 A 
ATOM     47  C   UNL A   1      39.813  31.159  34.318  1.00  0.00     0.037 A 
ATOM     48  C   UNL A   1      42.969  27.255  30.156  1.00  0.00     0.049 A 
ATOM     49  C   UNL A   1      41.071  30.335  34.423  1.00  0.00     0.074 A 
ATOM     50  C   UNL A   1      44.171  26.597  30.347  1.00  0.00     0.029 A 
ATOM     51  N   UNL A   1      42.693  27.932  31.335  1.00  0.00    -0.354 N 
ATOM     52  N   UNL A   1      41.651  29.588  33.516  1.00  0.00    -0.248 NA
ATOM     53  C   UNL A   1      41.769  30.354  35.717  1.00  0.00     0.031 C 
ATOM     54  C   UNL A   1      44.599  26.837  31.657  1.00  0.00     0.029 A 
ATOM     55  C   UNL A   1      43.687  27.683  32.267  1.00  0.00     0.049 A 
ATOM     56  H   UNL A   1      41.905  28.503  31.487  1.00  0.00     0.167 HD
ATOM     57  C   UNL A   1      42.788  29.067  34.119  1.00  0.00     0.074 A 
ATOM     58  C   UNL A   1      42.828  29.595  35.465  1.00  0.00     0.031 C 
ATOM     59  C   UNL A   1      43.717  28.223  33.602  1.00  0.00     0.037 A 
BRANCH  46  60
ATOM     60  C   UNL A   1      42.543  26.454  27.803  1.00  0.00     0.064 A 
ATOM     61  C   UNL A   1      42.076  25.147  27.598  1.00  0.00     0.173 A 
ATOM     62  C   UNL A   1      43.415  27.000  26.849  1.00  0.00     0.173 A 
ATOM     63  F   UNL A   1      41.256  24.576  28.492  1.00  0.00    -0.203 F 
ATOM     64  C   UNL A   1      42.482  24.409  26.489  1.00  0.00     0.198 A 
ATOM     65  C   UNL A   1      43.801  26.267  25.730  1.00  0.00     0.198 A 
ATOM     66  F   UNL A   1      43.888  28.246  27.000  1.00  0.00    -0.203 F 
ATOM     67  F   UNL A   1      42.057  23.148  26.333  1.00  0.00    -0.200 F 
ATOM     68  C   UNL A   1      43.340  24.971  25.555  1.00  0.00     0.200 A 
ATOM     69  F   UNL A   1      44.624  26.814  24.824  1.00  0.00    -0.200 F 
ATOM     70  F   UNL A   1      43.730  24.259  24.488  1.00  0.00    -0.200 F 
ENDBRANCH  46  60
BRANCH  47  71
ATOM     71  C   UNL A   1      39.348  31.974  35.470  1.00  0.00     0.064 A 
ATOM     72  C   UNL A   1      38.485  31.437  36.435  1.00  0.00     0.173 A 
ATOM     73  C   UNL A   1      39.728  33.317  35.610  1.00  0.00     0.173 A 
ATOM     74  F   UNL A   1      38.070  30.166  36.328  1.00  0.00    -0.203 F 
ATOM     75  C   UNL A   1      38.005  32.217  37.486  1.00  0.00     0.198 A 
ATOM     76  C   UNL A   1      39.269  34.089  36.674  1.00  0.00     0.198 A 
ATOM     77  F   UNL A   1      40.545  33.881  34.708  1.00  0.00    -0.203 F 
ATOM     78  F   UNL A   1      37.142  31.693  38.366  1.00  0.00    -0.200 F 
ATOM     79  C   UNL A   1      38.402  33.540  37.607  1.00  0.00     0.200 A 
ATOM     80  F   UNL A   1      39.660  35.365  36.791  1.00  0.00    -0.200 F 
ATOM     81  F   UNL A   1      37.937  34.291  38.615  1.00  0.00    -0.200 F 
ENDBRANCH  47  71
BRANCH  59  82
ATOM     82  C   UNL A   1      44.868  27.841  34.486  1.00  0.00     0.064 A 
ATOM     83  C   UNL A   1      44.824  26.696  35.295  1.00  0.00     0.173 A 
ATOM     84  C   UNL A   1      46.047  28.602  34.486  1.00  0.00     0.173 A 
ATOM     85  F   UNL A   1      43.714  25.944  35.343  1.00  0.00    -0.203 F 
ATOM     86  C   UNL A   1      45.912  26.339  36.088  1.00  0.00     0.198 A 
ATOM     87  C   UNL A   1      47.141  28.226  35.259  1.00  0.00     0.198 A 
ATOM     88  F   UNL A   1      46.141  29.701  33.723  1.00  0.00    -0.203 F 
ATOM     89  F   UNL A   1      45.834  25.264  36.885  1.00  0.00    -0.200 F 
ATOM     90  C   UNL A   1      47.072  27.099  36.063  1.00  0.00     0.200 A 
ATOM     91  F   UNL A   1      48.266  28.955  35.224  1.00  0.00    -0.200 F 
ATOM     92  F   UNL A   1      48.121  26.749  36.820  1.00  0.00    -0.200 F 
ENDBRANCH  59  82
ENDBRANCH  33  34
ENDBRANCH  26  28
ENDBRANCH  25  26
ENDBRANCH  24  25
ENDBRANCH   1  24
TORSDOF 16
ENDMDL
