MODEL 1
REMARK VINA RESULT:     -11.5      0.000      0.000
REMARK SMILES C[C@@H]1CCC[C@](CCSc2ccccc2)(C(=O)OCCOC(=O)c2ccc(-c3c4nc(c(-c5c(F)c(F)c(F)c(F)c5F)c5ccc([nH]5)c(-c5c(F)c(F)c(F)c(F)c5F)c5nc(c(-c6c(F)c(F)c(F)c(F)c6F)c6ccc3[nH]6)C=C5)C=C4)cc2)C1
REMARK SMILES IDX 19 1 18 2 16 3 17 4 6 5 1 6 2 7 3 8 87 9 4 10 5 11 7 12 8 13
REMARK SMILES IDX 9 14 10 15 11 16 15 17 12 18 14 19 13 20 20 21 21 22 22 23
REMARK SMILES IDX 23 24 24 25 25 26 86 27 26 28 85 29 27 30 28 31 29 32 79 33
REMARK SMILES IDX 30 34 84 35 78 36 80 37 31 38 83 39 77 40 76 41 32 43 64 44
REMARK SMILES IDX 44 45 63 46 45 47 48 48 62 49 81 50 46 51 47 52 61 54 82 55
REMARK SMILES IDX 49 56 33 57 34 58 42 59 35 60 36 61 40 62 43 63 37 64 38 65
REMARK SMILES IDX 41 66 39 67 65 68 66 69 74 70 67 71 68 72 72 73 75 74 69 75
REMARK SMILES IDX 70 76 73 77 71 78 50 79 51 80 59 81 52 82 53 83 57 84 60 85
REMARK SMILES IDX 54 86 55 87 58 88 56 89
REMARK H PARENT 80 42 48 53
REMARK Flexibility Score: inf
ROOT
ATOM      1  C   UNL A   1      36.024  20.234  25.010  1.00  0.00     0.274 C 
ENDROOT
BRANCH   1   2
ATOM      2  O   UNL A   1      34.962  21.045  25.566  1.00  0.00    -0.462 OA
BRANCH   2   3
ATOM      3  C   UNL A   1      33.886  21.244  24.764  1.00  0.00     0.312 C 
ATOM      4  O   UNL A   1      33.340  20.311  24.198  1.00  0.00    -0.252 OA
BRANCH   3   5
ATOM      5  C   UNL A   1      33.359  22.698  24.704  1.00  0.00     0.069 C 
ATOM      6  C   UNL A   1      33.239  22.213  28.027  1.00  0.00     0.007 C 
ATOM      7  C   UNL A   1      32.732  23.374  27.171  1.00  0.00    -0.013 C 
ATOM      8  C   UNL A   1      31.248  23.281  26.807  1.00  0.00     0.003 C 
ATOM      9  C   UNL A   1      33.595  23.600  25.931  1.00  0.00     0.022 C 
ATOM     10  C   UNL A   1      30.958  22.340  25.645  1.00  0.00     0.001 C 
ATOM     11  C   UNL A   1      31.830  22.628  24.413  1.00  0.00     0.019 C 
BRANCH   5  12
ATOM     12  C   UNL A   1      34.069  23.423  23.492  1.00  0.00     0.030 C 
BRANCH  12  13
ATOM     13  C   UNL A   1      33.298  24.293  22.458  1.00  0.00     0.076 C 
BRANCH  13  14
ATOM     14  S   UNL A   1      33.329  26.136  22.415  1.00  0.00    -0.126 SA
BRANCH  14  15
ATOM     15  C   UNL A   1      32.729  26.584  24.039  1.00  0.00     0.007 A 
ATOM     16  C   UNL A   1      33.618  27.090  24.997  1.00  0.00     0.015 A 
ATOM     17  C   UNL A   1      31.390  26.415  24.392  1.00  0.00     0.015 A 
ATOM     18  C   UNL A   1      33.201  27.303  26.315  1.00  0.00     0.001 A 
ATOM     19  C   UNL A   1      30.974  26.616  25.710  1.00  0.00     0.001 A 
ATOM     20  C   UNL A   1      31.883  27.039  26.676  1.00  0.00     0.000 A 
ENDBRANCH  14  15
ENDBRANCH  13  14
ENDBRANCH  12  13
ENDBRANCH   5  12
ENDBRANCH   3   5
ENDBRANCH   2   3
ENDBRANCH   1   2
BRANCH   1  21
ATOM     21  C   UNL A   1      37.335  20.963  24.658  1.00  0.00     0.275 C 
BRANCH  21  22
ATOM     22  O   UNL A   1      37.823  21.814  25.716  1.00  0.00    -0.458 OA
BRANCH  22  23
ATOM     23  C   UNL A   1      39.052  21.494  26.187  1.00  0.00     0.338 C 
ATOM     24  O   UNL A   1      39.644  20.435  26.015  1.00  0.00    -0.246 OA
BRANCH  23  25
ATOM     25  C   UNL A   1      39.730  22.676  26.764  1.00  0.00     0.060 A 
ATOM     26  C   UNL A   1      39.317  23.912  26.262  1.00  0.00     0.016 A 
ATOM     27  C   UNL A   1      40.755  22.626  27.708  1.00  0.00     0.016 A 
ATOM     28  C   UNL A   1      39.846  25.106  26.742  1.00  0.00     0.010 A 
ATOM     29  C   UNL A   1      41.356  23.826  28.132  1.00  0.00     0.010 A 
ATOM     30  C   UNL A   1      40.902  25.072  27.653  1.00  0.00    -0.014 A 
BRANCH  30  31
ATOM     31  C   UNL A   1      41.649  26.329  27.908  1.00  0.00     0.031 A 
ATOM     32  C   UNL A   1      40.960  27.414  28.688  1.00  0.00     0.074 A 
ATOM     33  C   UNL A   1      42.939  26.479  27.554  1.00  0.00     0.049 A 
ATOM     34  N   UNL A   1      41.354  28.633  28.954  1.00  0.00    -0.248 NA
ATOM     35  C   UNL A   1      39.648  27.067  29.260  1.00  0.00     0.031 C 
ATOM     36  C   UNL A   1      43.769  25.457  26.922  1.00  0.00     0.029 A 
ATOM     37  N   UNL A   1      43.777  27.564  27.678  1.00  0.00    -0.354 N 
ATOM     38  C   UNL A   1      40.341  29.196  29.719  1.00  0.00     0.074 A 
ATOM     39  C   UNL A   1      39.309  28.195  29.867  1.00  0.00     0.031 C 
ATOM     40  C   UNL A   1      44.988  25.975  26.680  1.00  0.00     0.029 A 
ATOM     41  C   UNL A   1      45.007  27.378  27.095  1.00  0.00     0.049 A 
ATOM     42  H   UNL A   1      43.519  28.393  28.141  1.00  0.00     0.167 HD
ATOM     43  C   UNL A   1      40.276  30.440  30.249  1.00  0.00     0.037 A 
ATOM     44  C   UNL A   1      46.006  28.257  26.876  1.00  0.00     0.037 A 
ATOM     45  C   UNL A   1      41.293  31.443  30.082  1.00  0.00     0.049 A 
ATOM     46  C   UNL A   1      45.845  29.687  27.344  1.00  0.00     0.074 A 
ATOM     47  C   UNL A   1      41.291  32.756  30.516  1.00  0.00     0.029 A 
ATOM     48  N   UNL A   1      42.497  31.240  29.423  1.00  0.00    -0.354 N 
ATOM     49  N   UNL A   1      44.863  30.237  28.017  1.00  0.00    -0.248 NA
ATOM     50  C   UNL A   1      46.933  30.621  27.014  1.00  0.00     0.031 C 
ATOM     51  C   UNL A   1      42.473  33.362  30.080  1.00  0.00     0.029 A 
ATOM     52  C   UNL A   1      43.239  32.410  29.428  1.00  0.00     0.049 A 
ATOM     53  H   UNL A   1      42.781  30.391  29.013  1.00  0.00     0.167 HD
ATOM     54  C   UNL A   1      45.231  31.563  28.220  1.00  0.00     0.074 A 
ATOM     55  C   UNL A   1      46.533  31.733  27.615  1.00  0.00     0.031 C 
ATOM     56  C   UNL A   1      44.549  32.553  28.847  1.00  0.00     0.037 A 
BRANCH  43  57
ATOM     57  C   UNL A   1      39.039  30.800  31.016  1.00  0.00     0.064 A 
ATOM     58  C   UNL A   1      38.960  30.633  32.406  1.00  0.00     0.173 A 
ATOM     59  C   UNL A   1      37.930  31.348  30.353  1.00  0.00     0.173 A 
ATOM     60  F   UNL A   1      39.986  30.095  33.082  1.00  0.00    -0.203 F 
ATOM     61  C   UNL A   1      37.806  30.984  33.103  1.00  0.00     0.198 A 
ATOM     62  C   UNL A   1      36.791  31.725  31.057  1.00  0.00     0.198 A 
ATOM     63  F   UNL A   1      37.955  31.527  29.024  1.00  0.00    -0.203 F 
ATOM     64  F   UNL A   1      37.736  30.778  34.425  1.00  0.00    -0.200 F 
ATOM     65  C   UNL A   1      36.727  31.538  32.430  1.00  0.00     0.200 A 
ATOM     66  F   UNL A   1      35.753  32.270  30.407  1.00  0.00    -0.200 F 
ATOM     67  F   UNL A   1      35.622  31.886  33.103  1.00  0.00    -0.200 F 
ENDBRANCH  43  57
BRANCH  44  68
ATOM     68  C   UNL A   1      47.221  27.856  26.111  1.00  0.00     0.064 A 
ATOM     69  C   UNL A   1      47.228  27.823  24.708  1.00  0.00     0.173 A 
ATOM     70  C   UNL A   1      48.374  27.402  26.772  1.00  0.00     0.173 A 
ATOM     71  F   UNL A   1      46.141  28.211  24.024  1.00  0.00    -0.203 F 
ATOM     72  C   UNL A   1      48.318  27.318  24.001  1.00  0.00     0.198 A 
ATOM     73  C   UNL A   1      49.479  26.933  26.063  1.00  0.00     0.198 A 
ATOM     74  F   UNL A   1      48.422  27.393  28.112  1.00  0.00    -0.203 F 
ATOM     75  F   UNL A   1      48.261  27.219  22.666  1.00  0.00    -0.200 F 
ATOM     76  C   UNL A   1      49.445  26.876  24.679  1.00  0.00     0.200 A 
ATOM     77  F   UNL A   1      50.566  26.513  26.724  1.00  0.00    -0.200 F 
ATOM     78  F   UNL A   1      50.485  26.373  24.000  1.00  0.00    -0.200 F 
ENDBRANCH  44  68
BRANCH  56  79
ATOM     79  C   UNL A   1      45.221  33.893  28.973  1.00  0.00     0.064 A 
ATOM     80  C   UNL A   1      45.037  34.907  28.022  1.00  0.00     0.173 A 
ATOM     81  C   UNL A   1      46.018  34.180  30.093  1.00  0.00     0.173 A 
ATOM     82  F   UNL A   1      44.293  34.683  26.928  1.00  0.00    -0.203 F 
ATOM     83  C   UNL A   1      45.649  36.150  28.174  1.00  0.00     0.198 A 
ATOM     84  C   UNL A   1      46.599  35.434  30.258  1.00  0.00     0.198 A 
ATOM     85  F   UNL A   1      46.218  33.249  31.038  1.00  0.00    -0.203 F 
ATOM     86  F   UNL A   1      45.500  37.088  27.228  1.00  0.00    -0.200 F 
ATOM     87  C   UNL A   1      46.421  36.415  29.295  1.00  0.00     0.200 A 
ATOM     88  F   UNL A   1      47.329  35.693  31.352  1.00  0.00    -0.200 F 
ATOM     89  F   UNL A   1      46.999  37.615  29.445  1.00  0.00    -0.200 F 
ENDBRANCH  56  79
ENDBRANCH  30  31
ENDBRANCH  23  25
ENDBRANCH  22  23
ENDBRANCH  21  22
ENDBRANCH   1  21
TORSDOF 15
ENDMDL
MODEL 2
REMARK VINA RESULT:     -11.4      4.542      9.696
REMARK SMILES C[C@@H]1CCC[C@](CCSc2ccccc2)(C(=O)OCCOC(=O)c2ccc(-c3c4nc(c(-c5c(F)c(F)c(F)c(F)c5F)c5ccc([nH]5)c(-c5c(F)c(F)c(F)c(F)c5F)c5nc(c(-c6c(F)c(F)c(F)c(F)c6F)c6ccc3[nH]6)C=C5)C=C4)cc2)C1
REMARK SMILES IDX 19 1 18 2 16 3 17 4 6 5 1 6 2 7 3 8 87 9 4 10 5 11 7 12 8 13
REMARK SMILES IDX 9 14 10 15 11 16 15 17 12 18 14 19 13 20 20 21 21 22 22 23
REMARK SMILES IDX 23 24 24 25 25 26 86 27 26 28 85 29 27 30 28 31 29 32 79 33
REMARK SMILES IDX 30 34 84 35 78 36 80 37 31 38 83 39 77 40 76 41 32 43 64 44
REMARK SMILES IDX 44 45 63 46 45 47 48 48 62 49 81 50 46 51 47 52 61 54 82 55
REMARK SMILES IDX 49 56 33 57 34 58 42 59 35 60 36 61 40 62 43 63 37 64 38 65
REMARK SMILES IDX 41 66 39 67 65 68 66 69 74 70 67 71 68 72 72 73 75 74 69 75
REMARK SMILES IDX 70 76 73 77 71 78 50 79 51 80 59 81 52 82 53 83 57 84 60 85
REMARK SMILES IDX 54 86 55 87 58 88 56 89
REMARK H PARENT 80 42 48 53
REMARK Flexibility Score: inf
ROOT
ATOM      1  C   UNL A   1      31.655  28.366  27.573  1.00  0.00     0.274 C 
ENDROOT
BRANCH   1   2
ATOM      2  O   UNL A   1      32.398  27.270  26.990  1.00  0.00    -0.462 OA
BRANCH   2   3
ATOM      3  C   UNL A   1      31.658  26.307  26.386  1.00  0.00     0.312 C 
ATOM      4  O   UNL A   1      30.462  26.200  26.603  1.00  0.00    -0.252 OA
BRANCH   3   5
ATOM      5  C   UNL A   1      32.412  25.439  25.349  1.00  0.00     0.069 C 
ATOM      6  C   UNL A   1      31.847  28.166  23.467  1.00  0.00     0.007 C 
ATOM      7  C   UNL A   1      32.421  26.799  23.093  1.00  0.00    -0.013 C 
ATOM      8  C   UNL A   1      31.392  25.825  22.516  1.00  0.00     0.003 C 
ATOM      9  C   UNL A   1      33.203  26.164  24.243  1.00  0.00     0.022 C 
ATOM     10  C   UNL A   1      30.535  25.139  23.571  1.00  0.00     0.001 C 
ATOM     11  C   UNL A   1      31.368  24.491  24.687  1.00  0.00     0.019 C 
BRANCH   5  12
ATOM     12  C   UNL A   1      33.468  24.558  26.129  1.00  0.00     0.030 C 
BRANCH  12  13
ATOM     13  C   UNL A   1      34.965  24.471  25.716  1.00  0.00     0.076 C 
BRANCH  13  14
ATOM     14  S   UNL A   1      35.738  23.015  24.891  1.00  0.00    -0.126 SA
BRANCH  14  15
ATOM     15  C   UNL A   1      34.398  22.355  23.908  1.00  0.00     0.007 A 
ATOM     16  C   UNL A   1      34.039  22.980  22.706  1.00  0.00     0.015 A 
ATOM     17  C   UNL A   1      33.673  21.238  24.324  1.00  0.00     0.015 A 
ATOM     18  C   UNL A   1      32.902  22.572  22.002  1.00  0.00     0.001 A 
ATOM     19  C   UNL A   1      32.529  20.837  23.629  1.00  0.00     0.001 A 
ATOM     20  C   UNL A   1      32.131  21.516  22.480  1.00  0.00     0.000 A 
ENDBRANCH  14  15
ENDBRANCH  13  14
ENDBRANCH  12  13
ENDBRANCH   5  12
ENDBRANCH   3   5
ENDBRANCH   2   3
ENDBRANCH   1   2
BRANCH   1  21
ATOM     21  C   UNL A   1      31.780  29.733  26.874  1.00  0.00     0.275 C 
BRANCH  21  22
ATOM     22  O   UNL A   1      33.137  30.081  26.528  1.00  0.00    -0.458 OA
BRANCH  22  23
ATOM     23  C   UNL A   1      33.602  31.215  27.103  1.00  0.00     0.338 C 
ATOM     24  O   UNL A   1      32.971  32.252  27.279  1.00  0.00    -0.246 OA
BRANCH  23  25
ATOM     25  C   UNL A   1      34.927  30.999  27.724  1.00  0.00     0.060 A 
ATOM     26  C   UNL A   1      35.213  29.683  28.090  1.00  0.00     0.016 A 
ATOM     27  C   UNL A   1      35.851  32.006  28.002  1.00  0.00     0.016 A 
ATOM     28  C   UNL A   1      36.437  29.333  28.650  1.00  0.00     0.010 A 
ATOM     29  C   UNL A   1      37.055  31.672  28.651  1.00  0.00     0.010 A 
ATOM     30  C   UNL A   1      37.355  30.332  28.975  1.00  0.00    -0.014 A 
BRANCH  30  31
ATOM     31  C   UNL A   1      38.502  29.975  29.847  1.00  0.00     0.031 A 
ATOM     32  C   UNL A   1      39.524  29.012  29.309  1.00  0.00     0.074 A 
ATOM     33  C   UNL A   1      38.701  30.559  31.043  1.00  0.00     0.049 A 
ATOM     34  N   UNL A   1      40.555  28.467  29.903  1.00  0.00    -0.248 NA
ATOM     35  C   UNL A   1      39.369  28.625  27.897  1.00  0.00     0.031 C 
ATOM     36  C   UNL A   1      37.869  31.610  31.622  1.00  0.00     0.029 A 
ATOM     37  N   UNL A   1      39.675  30.340  31.990  1.00  0.00    -0.354 N 
ATOM     38  C   UNL A   1      41.165  27.673  28.942  1.00  0.00     0.074 A 
ATOM     39  C   UNL A   1      40.388  27.795  27.729  1.00  0.00     0.031 C 
ATOM     40  C   UNL A   1      38.346  31.921  32.842  1.00  0.00     0.029 A 
ATOM     41  C   UNL A   1      39.486  31.056  33.148  1.00  0.00     0.049 A 
ATOM     42  H   UNL A   1      40.435  29.731  31.851  1.00  0.00     0.167 HD
ATOM     43  C   UNL A   1      42.274  26.906  29.061  1.00  0.00     0.037 A 
ATOM     44  C   UNL A   1      40.128  30.979  34.331  1.00  0.00     0.037 A 
ATOM     45  C   UNL A   1      43.033  26.767  30.274  1.00  0.00     0.049 A 
ATOM     46  C   UNL A   1      41.272  30.000  34.486  1.00  0.00     0.074 A 
ATOM     47  C   UNL A   1      44.129  25.959  30.520  1.00  0.00     0.029 A 
ATOM     48  N   UNL A   1      42.770  27.455  31.449  1.00  0.00    -0.354 N 
ATOM     49  N   UNL A   1      41.814  29.205  33.596  1.00  0.00    -0.248 NA
ATOM     50  C   UNL A   1      41.888  29.902  35.819  1.00  0.00     0.031 C 
ATOM     51  C   UNL A   1      44.500  26.123  31.858  1.00  0.00     0.029 A 
ATOM     52  C   UNL A   1      43.676  27.079  32.428  1.00  0.00     0.049 A 
ATOM     53  H   UNL A   1      42.046  28.112  31.570  1.00  0.00     0.167 HD
ATOM     54  C   UNL A   1      42.851  28.546  34.247  1.00  0.00     0.074 A 
ATOM     55  C   UNL A   1      42.875  29.045  35.604  1.00  0.00     0.031 C 
ATOM     56  C   UNL A   1      43.704  27.608  33.767  1.00  0.00     0.037 A 
BRANCH  43  57
ATOM     57  C   UNL A   1      42.702  26.119  27.858  1.00  0.00     0.064 A 
ATOM     58  C   UNL A   1      42.141  24.868  27.559  1.00  0.00     0.173 A 
ATOM     59  C   UNL A   1      43.665  26.636  26.979  1.00  0.00     0.173 A 
ATOM     60  F   UNL A   1      41.231  24.321  28.380  1.00  0.00    -0.203 F 
ATOM     61  C   UNL A   1      42.542  24.156  26.432  1.00  0.00     0.198 A 
ATOM     62  C   UNL A   1      44.042  25.935  25.837  1.00  0.00     0.198 A 
ATOM     63  F   UNL A   1      44.232  27.827  27.220  1.00  0.00    -0.203 F 
ATOM     64  F   UNL A   1      42.025  22.945  26.187  1.00  0.00    -0.200 F 
ATOM     65  C   UNL A   1      43.485  24.694  25.568  1.00  0.00     0.200 A 
ATOM     66  F   UNL A   1      44.944  26.461  24.998  1.00  0.00    -0.200 F 
ATOM     67  F   UNL A   1      43.863  24.012  24.477  1.00  0.00    -0.200 F 
ENDBRANCH  43  57
BRANCH  44  68
ATOM     68  C   UNL A   1      39.672  31.783  35.501  1.00  0.00     0.064 A 
ATOM     69  C   UNL A   1      38.678  31.312  36.372  1.00  0.00     0.173 A 
ATOM     70  C   UNL A   1      40.154  33.084  35.716  1.00  0.00     0.173 A 
ATOM     71  F   UNL A   1      38.155  30.089  36.193  1.00  0.00    -0.203 F 
ATOM     72  C   UNL A   1      38.157  32.121  37.381  1.00  0.00     0.198 A 
ATOM     73  C   UNL A   1      39.661  33.878  36.750  1.00  0.00     0.198 A 
ATOM     74  F   UNL A   1      41.093  33.596  34.907  1.00  0.00    -0.203 F 
ATOM     75  F   UNL A   1      37.148  31.675  38.142  1.00  0.00    -0.200 F 
ATOM     76  C   UNL A   1      38.652  33.403  37.572  1.00  0.00     0.200 A 
ATOM     77  F   UNL A   1      40.146  35.113  36.932  1.00  0.00    -0.200 F 
ATOM     78  F   UNL A   1      38.139  34.187  38.530  1.00  0.00    -0.200 F 
ENDBRANCH  44  68
BRANCH  56  79
ATOM     79  C   UNL A   1      44.781  27.104  34.689  1.00  0.00     0.064 A 
ATOM     80  C   UNL A   1      44.606  25.957  35.476  1.00  0.00     0.173 A 
ATOM     81  C   UNL A   1      46.025  27.753  34.742  1.00  0.00     0.173 A 
ATOM     82  F   UNL A   1      43.433  25.305  35.471  1.00  0.00    -0.203 F 
ATOM     83  C   UNL A   1      45.627  25.495  36.303  1.00  0.00     0.198 A 
ATOM     84  C   UNL A   1      47.054  27.268  35.543  1.00  0.00     0.198 A 
ATOM     85  F   UNL A   1      46.249  28.849  34.001  1.00  0.00    -0.203 F 
ATOM     86  F   UNL A   1      45.421  24.425  37.085  1.00  0.00    -0.200 F 
ATOM     87  C   UNL A   1      46.853  26.144  36.329  1.00  0.00     0.200 A 
ATOM     88  F   UNL A   1      48.244  27.886  35.551  1.00  0.00    -0.200 F 
ATOM     89  F   UNL A   1      47.838  25.691  37.116  1.00  0.00    -0.200 F 
ENDBRANCH  56  79
ENDBRANCH  30  31
ENDBRANCH  23  25
ENDBRANCH  22  23
ENDBRANCH  21  22
ENDBRANCH   1  21
TORSDOF 15
ENDMDL
MODEL 3
REMARK VINA RESULT:     -11.3      4.382      9.662
REMARK SMILES C[C@@H]1CCC[C@](CCSc2ccccc2)(C(=O)OCCOC(=O)c2ccc(-c3c4nc(c(-c5c(F)c(F)c(F)c(F)c5F)c5ccc([nH]5)c(-c5c(F)c(F)c(F)c(F)c5F)c5nc(c(-c6c(F)c(F)c(F)c(F)c6F)c6ccc3[nH]6)C=C5)C=C4)cc2)C1
REMARK SMILES IDX 19 1 18 2 16 3 17 4 6 5 1 6 2 7 3 8 87 9 4 10 5 11 7 12 8 13
REMARK SMILES IDX 9 14 10 15 11 16 15 17 12 18 14 19 13 20 20 21 21 22 22 23
REMARK SMILES IDX 23 24 24 25 25 26 86 27 26 28 85 29 27 30 28 31 29 32 79 33
REMARK SMILES IDX 30 34 84 35 78 36 80 37 31 38 83 39 77 40 76 41 32 43 64 44
REMARK SMILES IDX 44 45 63 46 45 47 48 48 62 49 81 50 46 51 47 52 61 54 82 55
REMARK SMILES IDX 49 56 33 57 34 58 42 59 35 60 36 61 40 62 43 63 37 64 38 65
REMARK SMILES IDX 41 66 39 67 65 68 66 69 74 70 67 71 68 72 72 73 75 74 69 75
REMARK SMILES IDX 70 76 73 77 71 78 50 79 51 80 59 81 52 82 53 83 57 84 60 85
REMARK SMILES IDX 54 86 55 87 58 88 56 89
REMARK H PARENT 80 42 48 53
REMARK Flexibility Score: inf
ROOT
ATOM      1  C   UNL A   1      31.614  28.337  27.505  1.00  0.00     0.274 C 
ENDROOT
BRANCH   1   2
ATOM      2  O   UNL A   1      31.148  27.083  26.952  1.00  0.00    -0.462 OA
BRANCH   2   3
ATOM      3  C   UNL A   1      32.002  26.456  26.104  1.00  0.00     0.312 C 
ATOM      4  O   UNL A   1      33.207  26.472  26.295  1.00  0.00    -0.252 OA
BRANCH   3   5
ATOM      5  C   UNL A   1      31.335  25.655  24.960  1.00  0.00     0.069 C 
ATOM      6  C   UNL A   1      33.456  27.529  23.148  1.00  0.00     0.007 C 
ATOM      7  C   UNL A   1      32.340  26.581  22.708  1.00  0.00    -0.013 C 
ATOM      8  C   UNL A   1      31.009  27.278  22.414  1.00  0.00     0.003 C 
ATOM      9  C   UNL A   1      32.154  25.414  23.677  1.00  0.00     0.022 C 
ATOM     10  C   UNL A   1      30.197  27.603  23.660  1.00  0.00     0.001 C 
ATOM     11  C   UNL A   1      30.014  26.391  24.586  1.00  0.00     0.019 C 
BRANCH   5  12
ATOM     12  C   UNL A   1      30.972  24.221  25.516  1.00  0.00     0.030 C 
BRANCH  12  13
ATOM     13  C   UNL A   1      31.491  23.688  26.882  1.00  0.00     0.076 C 
BRANCH  13  14
ATOM     14  S   UNL A   1      32.859  22.468  27.074  1.00  0.00    -0.126 SA
BRANCH  14  15
ATOM     15  C   UNL A   1      33.962  22.887  25.730  1.00  0.00     0.007 A 
ATOM     16  C   UNL A   1      33.787  22.295  24.473  1.00  0.00     0.015 A 
ATOM     17  C   UNL A   1      35.022  23.777  25.910  1.00  0.00     0.015 A 
ATOM     18  C   UNL A   1      34.725  22.493  23.454  1.00  0.00     0.001 A 
ATOM     19  C   UNL A   1      35.967  23.966  24.899  1.00  0.00     0.001 A 
ATOM     20  C   UNL A   1      35.831  23.308  23.679  1.00  0.00     0.000 A 
ENDBRANCH  14  15
ENDBRANCH  13  14
ENDBRANCH  12  13
ENDBRANCH   5  12
ENDBRANCH   3   5
ENDBRANCH   2   3
ENDBRANCH   1   2
BRANCH   1  21
ATOM     21  C   UNL A   1      31.637  29.545  26.550  1.00  0.00     0.275 C 
BRANCH  21  22
ATOM     22  O   UNL A   1      32.964  30.047  26.288  1.00  0.00    -0.458 OA
BRANCH  22  23
ATOM     23  C   UNL A   1      33.297  31.169  26.970  1.00  0.00     0.338 C 
ATOM     24  O   UNL A   1      32.558  32.114  27.220  1.00  0.00    -0.246 OA
BRANCH  23  25
ATOM     25  C   UNL A   1      34.628  31.038  27.601  1.00  0.00     0.060 A 
ATOM     26  C   UNL A   1      35.004  29.740  27.951  1.00  0.00     0.016 A 
ATOM     27  C   UNL A   1      35.477  32.104  27.902  1.00  0.00     0.016 A 
ATOM     28  C   UNL A   1      36.246  29.470  28.518  1.00  0.00     0.010 A 
ATOM     29  C   UNL A   1      36.695  31.847  28.557  1.00  0.00     0.010 A 
ATOM     30  C   UNL A   1      37.087  30.527  28.865  1.00  0.00    -0.014 A 
BRANCH  30  31
ATOM     31  C   UNL A   1      38.249  30.240  29.743  1.00  0.00     0.031 A 
ATOM     32  C   UNL A   1      39.329  29.339  29.212  1.00  0.00     0.074 A 
ATOM     33  C   UNL A   1      38.407  30.836  30.940  1.00  0.00     0.049 A 
ATOM     34  N   UNL A   1      40.387  28.856  29.812  1.00  0.00    -0.248 NA
ATOM     35  C   UNL A   1      39.204  28.941  27.800  1.00  0.00     0.031 C 
ATOM     36  C   UNL A   1      37.512  31.837  31.513  1.00  0.00     0.029 A 
ATOM     37  N   UNL A   1      39.388  30.677  31.892  1.00  0.00    -0.354 N 
ATOM     38  C   UNL A   1      41.048  28.099  28.855  1.00  0.00     0.074 A 
ATOM     39  C   UNL A   1      40.271  28.173  27.638  1.00  0.00     0.031 C 
ATOM     40  C   UNL A   1      37.963  32.177  32.735  1.00  0.00     0.029 A 
ATOM     41  C   UNL A   1      39.151  31.382  33.047  1.00  0.00     0.049 A 
ATOM     42  H   UNL A   1      40.183  30.113  31.757  1.00  0.00     0.167 HD
ATOM     43  C   UNL A   1      42.200  27.399  28.980  1.00  0.00     0.037 A 
ATOM     44  C   UNL A   1      39.791  31.345  34.234  1.00  0.00     0.037 A 
ATOM     45  C   UNL A   1      42.960  27.307  30.197  1.00  0.00     0.049 A 
ATOM     46  C   UNL A   1      40.990  30.435  34.396  1.00  0.00     0.074 A 
ATOM     47  C   UNL A   1      44.101  26.566  30.450  1.00  0.00     0.029 A 
ATOM     48  N   UNL A   1      42.651  27.979  31.371  1.00  0.00    -0.354 N 
ATOM     49  N   UNL A   1      41.582  29.673  33.509  1.00  0.00    -0.248 NA
ATOM     50  C   UNL A   1      41.604  30.376  35.732  1.00  0.00     0.031 C 
ATOM     51  C   UNL A   1      44.455  26.754  31.790  1.00  0.00     0.029 A 
ATOM     52  C   UNL A   1      43.573  27.659  32.354  1.00  0.00     0.049 A 
ATOM     53  H   UNL A   1      41.889  28.593  31.487  1.00  0.00     0.167 HD
ATOM     54  C   UNL A   1      42.654  29.077  34.167  1.00  0.00     0.074 A 
ATOM     55  C   UNL A   1      42.641  29.579  35.523  1.00  0.00     0.031 C 
ATOM     56  C   UNL A   1      43.563  28.191  33.692  1.00  0.00     0.037 A 
BRANCH  43  57
ATOM     57  C   UNL A   1      42.680  26.637  27.781  1.00  0.00     0.064 A 
ATOM     58  C   UNL A   1      43.580  27.198  26.864  1.00  0.00     0.173 A 
ATOM     59  C   UNL A   1      42.254  25.317  27.565  1.00  0.00     0.173 A 
ATOM     60  F   UNL A   1      44.000  28.463  27.015  1.00  0.00    -0.203 F 
ATOM     61  C   UNL A   1      44.023  26.470  25.762  1.00  0.00     0.198 A 
ATOM     62  C   UNL A   1      42.723  24.583  26.480  1.00  0.00     0.198 A 
ATOM     63  F   UNL A   1      41.393  24.735  28.413  1.00  0.00    -0.203 F 
ATOM     64  F   UNL A   1      44.850  27.039  24.875  1.00  0.00    -0.200 F 
ATOM     65  C   UNL A   1      43.602  25.162  25.576  1.00  0.00     0.200 A 
ATOM     66  F   UNL A   1      42.323  23.316  26.308  1.00  0.00    -0.200 F 
ATOM     67  F   UNL A   1      44.038  24.459  24.521  1.00  0.00    -0.200 F 
ENDBRANCH  43  57
BRANCH  44  68
ATOM     68  C   UNL A   1      39.282  32.121  35.401  1.00  0.00     0.064 A 
ATOM     69  C   UNL A   1      39.709  33.435  35.650  1.00  0.00     0.173 A 
ATOM     70  C   UNL A   1      38.430  31.529  36.347  1.00  0.00     0.173 A 
ATOM     71  F   UNL A   1      40.552  34.038  34.799  1.00  0.00    -0.203 F 
ATOM     72  C   UNL A   1      39.338  34.107  36.814  1.00  0.00     0.198 A 
ATOM     73  C   UNL A   1      38.028  32.217  37.491  1.00  0.00     0.198 A 
ATOM     74  F   UNL A   1      38.001  30.271  36.172  1.00  0.00    -0.203 F 
ATOM     75  F   UNL A   1      39.831  35.327  37.067  1.00  0.00    -0.200 F 
ATOM     76  C   UNL A   1      38.495  33.498  37.733  1.00  0.00     0.200 A 
ATOM     77  F   UNL A   1      37.209  31.626  38.371  1.00  0.00    -0.200 F 
ATOM     78  F   UNL A   1      38.153  34.138  38.859  1.00  0.00    -0.200 F 
ENDBRANCH  44  68
BRANCH  56  79
ATOM     79  C   UNL A   1      44.663  27.753  34.620  1.00  0.00     0.064 A 
ATOM     80  C   UNL A   1      45.862  28.470  34.741  1.00  0.00     0.173 A 
ATOM     81  C   UNL A   1      44.488  26.626  35.439  1.00  0.00     0.173 A 
ATOM     82  F   UNL A   1      46.085  29.548  33.974  1.00  0.00    -0.203 F 
ATOM     83  C   UNL A   1      46.856  28.059  35.626  1.00  0.00     0.198 A 
ATOM     84  C   UNL A   1      45.469  26.239  36.348  1.00  0.00     0.198 A 
ATOM     85  F   UNL A   1      43.355  25.909  35.372  1.00  0.00    -0.203 F 
ATOM     86  F   UNL A   1      48.014  28.731  35.689  1.00  0.00    -0.200 F 
ATOM     87  C   UNL A   1      46.655  26.950  36.435  1.00  0.00     0.200 A 
ATOM     88  F   UNL A   1      45.263  25.178  37.142  1.00  0.00    -0.200 F 
ATOM     89  F   UNL A   1      47.607  26.563  37.295  1.00  0.00    -0.200 F 
ENDBRANCH  56  79
ENDBRANCH  30  31
ENDBRANCH  23  25
ENDBRANCH  22  23
ENDBRANCH  21  22
ENDBRANCH   1  21
TORSDOF 15
ENDMDL
