MODEL 1
REMARK VINA RESULT:     -12.7      0.000      0.000
REMARK SMILES CCOc1cc2c(cc1/C=C1/C(=O)N(c3cccc(C(=O)OCCOC(=O)c4ccc(-c5c6nc(c(-c7c(F)c(F)c(F)c(F)c7F)c7ccc([nH]7)c(-c7c(F)c(F)c(F)c(F)c7F)c7nc(c(-c8c(F)c(F)c(F)c(F)c8F)c8ccc5[nH]8)C=C7)C=C6)cc4)c3)C(=S)N=C1O)OCO2
REMARK SMILES IDX 23 1 22 2 20 3 21 4 19 5 15 6 16 7 91 8 17 9 18 10 14 11
REMARK SMILES IDX 10 12 11 13 12 14 95 15 13 16 94 17 92 18 93 19 9 20 4 21
REMARK SMILES IDX 5 22 6 23 8 24 7 25 99 26 97 27 98 28 3 29 2 30 1 31 96 32
REMARK SMILES IDX 24 34 25 35 26 36 27 37 28 38 29 39 90 40 30 41 89 42 31 43
REMARK SMILES IDX 32 44 33 45 83 46 34 47 88 48 82 49 84 50 35 51 87 52 81 53
REMARK SMILES IDX 80 54 36 56 68 57 48 58 67 59 49 60 52 61 66 62 85 63 50 64
REMARK SMILES IDX 51 65 65 67 86 68 53 69 37 70 38 71 46 72 39 73 40 74 44 75
REMARK SMILES IDX 47 76 41 77 42 78 45 79 43 80 69 81 70 82 78 83 71 84 72 85
REMARK SMILES IDX 76 86 79 87 73 88 74 89 77 90 75 91 54 92 55 93 63 94 56 95
REMARK SMILES IDX 57 96 61 97 64 98 58 99 59 100 62 101 60 102
REMARK H PARENT 96 33 84 55 52 66
REMARK Flexibility Score: inf
ROOT
ATOM      1  C   UNL A   1      34.052  32.019  27.555  1.00  0.00     0.275 C 
ENDROOT
BRANCH   1   2
ATOM      2  O   UNL A   1      33.701  30.691  27.993  1.00  0.00    -0.458 OA
BRANCH   2   3
ATOM      3  C   UNL A   1      34.359  29.666  27.396  1.00  0.00     0.338 C 
ATOM      4  O   UNL A   1      35.560  29.456  27.434  1.00  0.00    -0.246 OA
BRANCH   3   5
ATOM      5  C   UNL A   1      33.396  28.735  26.750  1.00  0.00     0.062 A 
ATOM      6  C   UNL A   1      32.876  26.812  25.360  1.00  0.00     0.052 A 
ATOM      7  C   UNL A   1      31.509  27.092  25.484  1.00  0.00     0.027 A 
ATOM      8  C   UNL A   1      33.817  27.645  25.987  1.00  0.00     0.042 A 
ATOM      9  C   UNL A   1      31.085  28.174  26.255  1.00  0.00     0.003 A 
ATOM     10  C   UNL A   1      32.024  28.977  26.905  1.00  0.00     0.016 A 
BRANCH   6  11
ATOM     11  N   UNL A   1      33.331  25.626  24.700  1.00  0.00    -0.251 N 
ATOM     12  C   UNL A   1      33.754  22.112  25.540  1.00  0.00     0.031 C 
ATOM     13  C   UNL A   1      33.926  23.266  24.858  1.00  0.00     0.103 C 
ATOM     14  C   UNL A   1      33.495  24.515  25.543  1.00  0.00     0.270 C 
ATOM     15  C   UNL A   1      34.459  23.487  23.522  1.00  0.00     0.226 C 
ATOM     16  O   UNL A   1      33.283  24.522  26.757  1.00  0.00    -0.268 OA
ATOM     17  N   UNL A   1      34.318  24.536  22.807  1.00  0.00    -0.184 NA
ATOM     18  C   UNL A   1      33.634  25.616  23.320  1.00  0.00     0.210 C 
ATOM     19  S   UNL A   1      33.320  26.895  22.247  1.00  0.00    -0.038 S 
BRANCH  12  20
ATOM     20  C   UNL A   1      34.064  20.716  25.164  1.00  0.00     0.021 A 
ATOM     21  C   UNL A   1      35.414  20.258  25.174  1.00  0.00     0.130 A 
ATOM     22  C   UNL A   1      35.734  18.960  24.761  1.00  0.00     0.097 A 
ATOM     23  C   UNL A   1      34.707  18.149  24.333  1.00  0.00     0.169 A 
ATOM     24  C   UNL A   1      33.045  19.811  24.831  1.00  0.00     0.062 A 
ATOM     25  C   UNL A   1      33.399  18.558  24.381  1.00  0.00     0.166 A 
ATOM     26  O   UNL A   1      34.837  16.883  23.857  1.00  0.00    -0.453 OA
ATOM     27  O   UNL A   1      32.539  17.602  23.938  1.00  0.00    -0.454 OA
ATOM     28  C   UNL A   1      33.469  16.586  23.510  1.00  0.00     0.468 C 
BRANCH  21  29
ATOM     29  O   UNL A   1      36.368  21.076  25.728  1.00  0.00    -0.493 OA
BRANCH  29  30
ATOM     30  C   UNL A   1      37.575  21.237  24.976  1.00  0.00     0.226 C 
ATOM     31  C   UNL A   1      38.707  21.795  25.826  1.00  0.00     0.049 C 
ENDBRANCH  29  30
ENDBRANCH  21  29
ENDBRANCH  12  20
BRANCH  15  32
ATOM     32  O   UNL A   1      35.231  22.526  23.011  1.00  0.00    -0.493 OA
ATOM     33  H   UNL A   1      35.080  21.632  23.243  1.00  0.00     0.295 HD
ENDBRANCH  15  32
ENDBRANCH   6  11
ENDBRANCH   3   5
ENDBRANCH   2   3
ENDBRANCH   1   2
BRANCH   1  34
ATOM     34  C   UNL A   1      32.862  32.969  27.689  1.00  0.00     0.275 C 
BRANCH  34  35
ATOM     35  O   UNL A   1      33.310  34.335  27.619  1.00  0.00    -0.458 OA
BRANCH  35  36
ATOM     36  C   UNL A   1      33.281  35.022  28.783  1.00  0.00     0.338 C 
ATOM     37  O   UNL A   1      32.455  35.834  29.156  1.00  0.00    -0.246 OA
BRANCH  36  38
ATOM     38  C   UNL A   1      34.386  34.559  29.636  1.00  0.00     0.060 A 
ATOM     39  C   UNL A   1      35.680  34.657  29.130  1.00  0.00     0.016 A 
ATOM     40  C   UNL A   1      34.146  33.927  30.855  1.00  0.00     0.016 A 
ATOM     41  C   UNL A   1      36.752  34.113  29.832  1.00  0.00     0.010 A 
ATOM     42  C   UNL A   1      35.226  33.393  31.570  1.00  0.00     0.010 A 
ATOM     43  C   UNL A   1      36.534  33.460  31.052  1.00  0.00    -0.014 A 
BRANCH  43  44
ATOM     44  C   UNL A   1      37.663  32.757  31.716  1.00  0.00     0.031 A 
ATOM     45  C   UNL A   1      38.359  31.631  31.004  1.00  0.00     0.074 A 
ATOM     46  C   UNL A   1      38.111  33.161  32.921  1.00  0.00     0.049 A 
ATOM     47  N   UNL A   1      39.305  30.833  31.433  1.00  0.00    -0.248 NA
ATOM     48  C   UNL A   1      37.932  31.366  29.622  1.00  0.00     0.031 C 
ATOM     49  C   UNL A   1      37.569  34.279  33.691  1.00  0.00     0.029 A 
ATOM     50  N   UNL A   1      39.137  32.684  33.698  1.00  0.00    -0.354 N 
ATOM     51  C   UNL A   1      39.552  29.947  30.394  1.00  0.00     0.074 A 
ATOM     52  C   UNL A   1      38.659  30.302  29.312  1.00  0.00     0.031 C 
ATOM     53  C   UNL A   1      38.285  34.419  34.819  1.00  0.00     0.029 A 
ATOM     54  C   UNL A   1      39.300  33.368  34.877  1.00  0.00     0.049 A 
ATOM     55  H   UNL A   1      39.704  31.922  33.434  1.00  0.00     0.167 HD
ATOM     56  C   UNL A   1      40.445  28.929  30.347  1.00  0.00     0.037 A 
ATOM     57  C   UNL A   1      40.153  33.159  35.897  1.00  0.00     0.037 A 
ATOM     58  C   UNL A   1      41.370  28.606  31.400  1.00  0.00     0.049 A 
ATOM     59  C   UNL A   1      41.123  32.010  35.829  1.00  0.00     0.074 A 
ATOM     60  C   UNL A   1      42.312  27.592  31.442  1.00  0.00     0.029 A 
ATOM     61  N   UNL A   1      41.481  29.304  32.592  1.00  0.00    -0.354 N 
ATOM     62  N   UNL A   1      41.312  31.143  34.865  1.00  0.00    -0.248 NA
ATOM     63  C   UNL A   1      41.987  31.802  36.999  1.00  0.00     0.031 C 
ATOM     64  C   UNL A   1      42.976  27.661  32.672  1.00  0.00     0.029 A 
ATOM     65  C   UNL A   1      42.471  28.740  33.380  1.00  0.00     0.049 A 
ATOM     66  H   UNL A   1      40.937  30.085  32.842  1.00  0.00     0.167 HD
ATOM     67  C   UNL A   1      42.320  30.296  35.303  1.00  0.00     0.074 A 
ATOM     68  C   UNL A   1      42.719  30.764  36.615  1.00  0.00     0.031 C 
ATOM     69  C   UNL A   1      42.862  29.222  34.678  1.00  0.00     0.037 A 
BRANCH  56  70
ATOM     70  C   UNL A   1      40.441  28.066  29.120  1.00  0.00     0.064 A 
ATOM     71  C   UNL A   1      39.665  26.901  29.036  1.00  0.00     0.173 A 
ATOM     72  C   UNL A   1      41.209  28.428  28.003  1.00  0.00     0.173 A 
ATOM     73  F   UNL A   1      38.926  26.505  30.083  1.00  0.00    -0.203 F 
ATOM     74  C   UNL A   1      39.675  26.119  27.884  1.00  0.00     0.198 A 
ATOM     75  C   UNL A   1      41.197  27.657  26.845  1.00  0.00     0.198 A 
ATOM     76  F   UNL A   1      41.965  29.536  28.032  1.00  0.00    -0.203 F 
ATOM     77  F   UNL A   1      38.957  24.988  27.839  1.00  0.00    -0.200 F 
ATOM     78  C   UNL A   1      40.436  26.499  26.788  1.00  0.00     0.200 A 
ATOM     79  F   UNL A   1      41.925  28.032  25.783  1.00  0.00    -0.200 F 
ATOM     80  F   UNL A   1      40.440  25.747  25.680  1.00  0.00    -0.200 F 
ENDBRANCH  56  70
BRANCH  57  81
ATOM     81  C   UNL A   1      40.120  34.050  37.085  1.00  0.00     0.064 A 
ATOM     82  C   UNL A   1      39.327  33.741  38.197  1.00  0.00     0.173 A 
ATOM     83  C   UNL A   1      40.877  35.231  37.130  1.00  0.00     0.173 A 
ATOM     84  F   UNL A   1      38.563  32.638  38.188  1.00  0.00    -0.203 F 
ATOM     85  C   UNL A   1      39.284  34.582  39.307  1.00  0.00     0.198 A 
ATOM     86  C   UNL A   1      40.855  36.058  38.249  1.00  0.00     0.198 A 
ATOM     87  F   UNL A   1      41.647  35.575  36.087  1.00  0.00    -0.203 F 
ATOM     88  F   UNL A   1      38.488  34.283  40.342  1.00  0.00    -0.200 F 
ATOM     89  C   UNL A   1      40.054  35.736  39.336  1.00  0.00     0.200 A 
ATOM     90  F   UNL A   1      41.606  37.167  38.277  1.00  0.00    -0.200 F 
ATOM     91  F   UNL A   1      40.018  36.541  40.406  1.00  0.00    -0.200 F 
ENDBRANCH  57  81
BRANCH  69  92
ATOM     92  C   UNL A   1      43.962  28.495  35.393  1.00  0.00     0.064 A 
ATOM     93  C   UNL A   1      43.688  27.450  36.286  1.00  0.00     0.173 A 
ATOM     94  C   UNL A   1      45.305  28.822  35.150  1.00  0.00     0.173 A 
ATOM     95  F   UNL A   1      42.420  27.112  36.561  1.00  0.00    -0.203 F 
ATOM     96  C   UNL A   1      44.720  26.769  36.926  1.00  0.00     0.198 A 
ATOM     97  C   UNL A   1      46.334  28.125  35.775  1.00  0.00     0.198 A 
ATOM     98  F   UNL A   1      45.617  29.812  34.300  1.00  0.00    -0.203 F 
ATOM     99  F   UNL A   1      44.436  25.798  37.804  1.00  0.00    -0.200 F 
ATOM    100  C   UNL A   1      46.041  27.104  36.666  1.00  0.00     0.200 A 
ATOM    101  F   UNL A   1      47.611  28.443  35.518  1.00  0.00    -0.200 F 
ATOM    102  F   UNL A   1      47.034  26.444  37.280  1.00  0.00    -0.200 F 
ENDBRANCH  69  92
ENDBRANCH  43  44
ENDBRANCH  36  38
ENDBRANCH  35  36
ENDBRANCH  34  35
ENDBRANCH   1  34
TORSDOF 16
ENDMDL
MODEL 2
REMARK VINA RESULT:     -12.6      0.321      1.542
REMARK SMILES CCOc1cc2c(cc1/C=C1/C(=O)N(c3cccc(C(=O)OCCOC(=O)c4ccc(-c5c6nc(c(-c7c(F)c(F)c(F)c(F)c7F)c7ccc([nH]7)c(-c7c(F)c(F)c(F)c(F)c7F)c7nc(c(-c8c(F)c(F)c(F)c(F)c8F)c8ccc5[nH]8)C=C7)C=C6)cc4)c3)C(=S)N=C1O)OCO2
REMARK SMILES IDX 23 1 22 2 20 3 21 4 19 5 15 6 16 7 91 8 17 9 18 10 14 11
REMARK SMILES IDX 10 12 11 13 12 14 95 15 13 16 94 17 92 18 93 19 9 20 4 21
REMARK SMILES IDX 5 22 6 23 8 24 7 25 99 26 97 27 98 28 3 29 2 30 1 31 96 32
REMARK SMILES IDX 24 34 25 35 26 36 27 37 28 38 29 39 90 40 30 41 89 42 31 43
REMARK SMILES IDX 32 44 33 45 83 46 34 47 88 48 82 49 84 50 35 51 87 52 81 53
REMARK SMILES IDX 80 54 36 56 68 57 48 58 67 59 49 60 52 61 66 62 85 63 50 64
REMARK SMILES IDX 51 65 65 67 86 68 53 69 37 70 38 71 46 72 39 73 40 74 44 75
REMARK SMILES IDX 47 76 41 77 42 78 45 79 43 80 69 81 70 82 78 83 71 84 72 85
REMARK SMILES IDX 76 86 79 87 73 88 74 89 77 90 75 91 54 92 55 93 63 94 56 95
REMARK SMILES IDX 57 96 61 97 64 98 58 99 59 100 62 101 60 102
REMARK H PARENT 96 33 84 55 52 66
REMARK Flexibility Score: inf
ROOT
ATOM      1  C   UNL A   1      33.530  31.910  28.003  1.00  0.00     0.275 C 
ENDROOT
BRANCH   1   2
ATOM      2  O   UNL A   1      33.815  31.071  26.865  1.00  0.00    -0.458 OA
BRANCH   2   3
ATOM      3  C   UNL A   1      34.330  29.845  27.134  1.00  0.00     0.338 C 
ATOM      4  O   UNL A   1      35.392  29.611  27.685  1.00  0.00    -0.246 OA
BRANCH   3   5
ATOM      5  C   UNL A   1      33.363  28.780  26.756  1.00  0.00     0.062 A 
ATOM      6  C   UNL A   1      32.771  26.743  25.575  1.00  0.00     0.052 A 
ATOM      7  C   UNL A   1      31.446  26.874  26.011  1.00  0.00     0.027 A 
ATOM      8  C   UNL A   1      33.725  27.706  25.942  1.00  0.00     0.042 A 
ATOM      9  C   UNL A   1      31.085  27.941  26.834  1.00  0.00     0.003 A 
ATOM     10  C   UNL A   1      32.045  28.876  27.224  1.00  0.00     0.016 A 
BRANCH   6  11
ATOM     11  N   UNL A   1      33.201  25.581  24.855  1.00  0.00    -0.251 N 
ATOM     12  C   UNL A   1      33.828  22.076  25.594  1.00  0.00     0.031 C 
ATOM     13  C   UNL A   1      33.891  23.244  24.917  1.00  0.00     0.103 C 
ATOM     14  C   UNL A   1      33.486  24.467  25.661  1.00  0.00     0.270 C 
ATOM     15  C   UNL A   1      34.283  23.500  23.539  1.00  0.00     0.226 C 
ATOM     16  O   UNL A   1      33.394  24.452  26.889  1.00  0.00    -0.268 OA
ATOM     17  N   UNL A   1      34.035  24.552  22.858  1.00  0.00    -0.184 NA
ATOM     18  C   UNL A   1      33.367  25.600  23.452  1.00  0.00     0.210 C 
ATOM     19  S   UNL A   1      32.905  26.880  22.435  1.00  0.00    -0.038 S 
BRANCH  12  20
ATOM     20  C   UNL A   1      34.149  20.696  25.168  1.00  0.00     0.021 A 
ATOM     21  C   UNL A   1      35.495  20.231  25.215  1.00  0.00     0.130 A 
ATOM     22  C   UNL A   1      35.828  18.952  24.756  1.00  0.00     0.097 A 
ATOM     23  C   UNL A   1      34.818  18.168  24.248  1.00  0.00     0.169 A 
ATOM     24  C   UNL A   1      33.142  19.814  24.750  1.00  0.00     0.062 A 
ATOM     25  C   UNL A   1      33.510  18.581  24.258  1.00  0.00     0.166 A 
ATOM     26  O   UNL A   1      34.964  16.924  23.720  1.00  0.00    -0.453 OA
ATOM     27  O   UNL A   1      32.667  17.652  23.736  1.00  0.00    -0.454 OA
ATOM     28  C   UNL A   1      33.610  16.651  23.302  1.00  0.00     0.468 C 
BRANCH  21  29
ATOM     29  O   UNL A   1      36.428  21.018  25.846  1.00  0.00    -0.493 OA
BRANCH  29  30
ATOM     30  C   UNL A   1      37.447  21.579  25.014  1.00  0.00     0.226 C 
ATOM     31  C   UNL A   1      37.672  23.056  25.305  1.00  0.00     0.049 C 
ENDBRANCH  29  30
ENDBRANCH  21  29
ENDBRANCH  12  20
BRANCH  15  32
ATOM     32  O   UNL A   1      35.034  22.575  22.940  1.00  0.00    -0.493 OA
ATOM     33  H   UNL A   1      34.827  22.295  22.071  1.00  0.00     0.295 HD
ENDBRANCH  15  32
ENDBRANCH   6  11
ENDBRANCH   3   5
ENDBRANCH   2   3
ENDBRANCH   1   2
BRANCH   1  34
ATOM     34  C   UNL A   1      32.594  33.054  27.616  1.00  0.00     0.275 C 
BRANCH  34  35
ATOM     35  O   UNL A   1      33.319  34.296  27.580  1.00  0.00    -0.458 OA
BRANCH  35  36
ATOM     36  C   UNL A   1      33.303  35.019  28.723  1.00  0.00     0.338 C 
ATOM     37  O   UNL A   1      32.485  35.847  29.077  1.00  0.00    -0.246 OA
BRANCH  36  38
ATOM     38  C   UNL A   1      34.411  34.574  29.581  1.00  0.00     0.060 A 
ATOM     39  C   UNL A   1      35.691  34.557  29.031  1.00  0.00     0.016 A 
ATOM     40  C   UNL A   1      34.182  34.066  30.859  1.00  0.00     0.016 A 
ATOM     41  C   UNL A   1      36.757  34.020  29.747  1.00  0.00     0.010 A 
ATOM     42  C   UNL A   1      35.257  33.540  31.586  1.00  0.00     0.010 A 
ATOM     43  C   UNL A   1      36.548  33.491  31.027  1.00  0.00    -0.014 A 
BRANCH  43  44
ATOM     44  C   UNL A   1      37.662  32.790  31.718  1.00  0.00     0.031 A 
ATOM     45  C   UNL A   1      38.342  31.631  31.044  1.00  0.00     0.074 A 
ATOM     46  C   UNL A   1      38.112  33.224  32.911  1.00  0.00     0.049 A 
ATOM     47  N   UNL A   1      39.272  30.831  31.503  1.00  0.00    -0.248 NA
ATOM     48  C   UNL A   1      37.916  31.330  29.669  1.00  0.00     0.031 C 
ATOM     49  C   UNL A   1      37.586  34.374  33.644  1.00  0.00     0.029 A 
ATOM     50  N   UNL A   1      39.126  32.753  33.708  1.00  0.00    -0.354 N 
ATOM     51  C   UNL A   1      39.509  29.908  30.493  1.00  0.00     0.074 A 
ATOM     52  C   UNL A   1      38.626  30.245  29.395  1.00  0.00     0.031 C 
ATOM     53  C   UNL A   1      38.300  34.537  34.770  1.00  0.00     0.029 A 
ATOM     54  C   UNL A   1      39.295  33.471  34.865  1.00  0.00     0.049 A 
ATOM     55  H   UNL A   1      39.681  31.974  33.471  1.00  0.00     0.167 HD
ATOM     56  C   UNL A   1      40.384  28.874  30.481  1.00  0.00     0.037 A 
ATOM     57  C   UNL A   1      40.141  33.280  35.895  1.00  0.00     0.037 A 
ATOM     58  C   UNL A   1      41.298  28.568  31.548  1.00  0.00     0.049 A 
ATOM     59  C   UNL A   1      41.091  32.112  35.868  1.00  0.00     0.074 A 
ATOM     60  C   UNL A   1      42.223  27.540  31.627  1.00  0.00     0.029 A 
ATOM     61  N   UNL A   1      41.417  29.302  32.719  1.00  0.00    -0.354 N 
ATOM     62  N   UNL A   1      41.269  31.212  34.932  1.00  0.00    -0.248 NA
ATOM     63  C   UNL A   1      41.947  31.926  37.049  1.00  0.00     0.031 C 
ATOM     64  C   UNL A   1      42.883  27.636  32.857  1.00  0.00     0.029 A 
ATOM     65  C   UNL A   1      42.394  28.745  33.529  1.00  0.00     0.049 A 
ATOM     66  H   UNL A   1      40.885  30.099  32.942  1.00  0.00     0.167 HD
ATOM     67  C   UNL A   1      42.261  30.363  35.402  1.00  0.00     0.074 A 
ATOM     68  C   UNL A   1      42.662  30.864  36.700  1.00  0.00     0.031 C 
ATOM     69  C   UNL A   1      42.787  29.261  34.813  1.00  0.00     0.037 A 
BRANCH  56  70
ATOM     70  C   UNL A   1      40.370  27.973  29.282  1.00  0.00     0.064 A 
ATOM     71  C   UNL A   1      39.581  26.816  29.233  1.00  0.00     0.173 A 
ATOM     72  C   UNL A   1      41.143  28.292  28.155  1.00  0.00     0.173 A 
ATOM     73  F   UNL A   1      38.837  26.462  30.292  1.00  0.00    -0.203 F 
ATOM     74  C   UNL A   1      39.582  25.998  28.107  1.00  0.00     0.198 A 
ATOM     75  C   UNL A   1      41.123  27.485  27.021  1.00  0.00     0.198 A 
ATOM     76  F   UNL A   1      41.912  29.391  28.151  1.00  0.00    -0.203 F 
ATOM     77  F   UNL A   1      38.851  24.875  28.095  1.00  0.00    -0.200 F 
ATOM     78  C   UNL A   1      40.348  26.335  27.000  1.00  0.00     0.200 A 
ATOM     79  F   UNL A   1      41.855  27.819  25.949  1.00  0.00    -0.200 F 
ATOM     80  F   UNL A   1      40.344  25.549  25.915  1.00  0.00    -0.200 F 
ENDBRANCH  56  70
BRANCH  57  81
ATOM     81  C   UNL A   1      40.118  34.208  37.055  1.00  0.00     0.064 A 
ATOM     82  C   UNL A   1      40.963  35.323  37.104  1.00  0.00     0.173 A 
ATOM     83  C   UNL A   1      39.253  33.995  38.139  1.00  0.00     0.173 A 
ATOM     84  F   UNL A   1      41.828  35.551  36.105  1.00  0.00    -0.203 F 
ATOM     85  C   UNL A   1      40.951  36.188  38.197  1.00  0.00     0.198 A 
ATOM     86  C   UNL A   1      39.222  34.873  39.219  1.00  0.00     0.198 A 
ATOM     87  F   UNL A   1      38.428  32.937  38.143  1.00  0.00    -0.203 F 
ATOM     88  F   UNL A   1      41.798  37.226  38.237  1.00  0.00    -0.200 F 
ATOM     89  C   UNL A   1      40.076  35.966  39.250  1.00  0.00     0.200 A 
ATOM     90  F   UNL A   1      38.369  34.662  40.230  1.00  0.00    -0.200 F 
ATOM     91  F   UNL A   1      40.060  36.802  40.297  1.00  0.00    -0.200 F 
ENDBRANCH  57  81
BRANCH  69  92
ATOM     92  C   UNL A   1      43.871  28.538  35.556  1.00  0.00     0.064 A 
ATOM     93  C   UNL A   1      45.224  28.852  35.365  1.00  0.00     0.173 A 
ATOM     94  C   UNL A   1      43.549  27.549  36.497  1.00  0.00     0.173 A 
ATOM     95  F   UNL A   1      45.581  29.780  34.465  1.00  0.00    -0.203 F 
ATOM     96  C   UNL A   1      46.218  28.188  36.077  1.00  0.00     0.198 A 
ATOM     97  C   UNL A   1      44.545  26.902  37.224  1.00  0.00     0.198 A 
ATOM     98  F   UNL A   1      42.268  27.216  36.718  1.00  0.00    -0.203 F 
ATOM     99  F   UNL A   1      47.507  28.477  35.852  1.00  0.00    -0.200 F 
ATOM    100  C   UNL A   1      45.878  27.218  37.009  1.00  0.00     0.200 A 
ATOM    101  F   UNL A   1      44.215  25.971  38.129  1.00  0.00    -0.200 F 
ATOM    102  F   UNL A   1      46.837  26.582  37.697  1.00  0.00    -0.200 F 
ENDBRANCH  69  92
ENDBRANCH  43  44
ENDBRANCH  36  38
ENDBRANCH  35  36
ENDBRANCH  34  35
ENDBRANCH   1  34
TORSDOF 16
ENDMDL
MODEL 3
REMARK VINA RESULT:     -12.4      4.321     10.512
REMARK SMILES CCOc1cc2c(cc1/C=C1/C(=O)N(c3cccc(C(=O)OCCOC(=O)c4ccc(-c5c6nc(c(-c7c(F)c(F)c(F)c(F)c7F)c7ccc([nH]7)c(-c7c(F)c(F)c(F)c(F)c7F)c7nc(c(-c8c(F)c(F)c(F)c(F)c8F)c8ccc5[nH]8)C=C7)C=C6)cc4)c3)C(=S)N=C1O)OCO2
REMARK SMILES IDX 23 1 22 2 20 3 21 4 19 5 15 6 16 7 91 8 17 9 18 10 14 11
REMARK SMILES IDX 10 12 11 13 12 14 95 15 13 16 94 17 92 18 93 19 9 20 4 21
REMARK SMILES IDX 5 22 6 23 8 24 7 25 99 26 97 27 98 28 3 29 2 30 1 31 96 32
REMARK SMILES IDX 24 34 25 35 26 36 27 37 28 38 29 39 90 40 30 41 89 42 31 43
REMARK SMILES IDX 32 44 33 45 83 46 34 47 88 48 82 49 84 50 35 51 87 52 81 53
REMARK SMILES IDX 80 54 36 56 68 57 48 58 67 59 49 60 52 61 66 62 85 63 50 64
REMARK SMILES IDX 51 65 65 67 86 68 53 69 37 70 38 71 46 72 39 73 40 74 44 75
REMARK SMILES IDX 47 76 41 77 42 78 45 79 43 80 69 81 70 82 78 83 71 84 72 85
REMARK SMILES IDX 76 86 79 87 73 88 74 89 77 90 75 91 54 92 55 93 63 94 56 95
REMARK SMILES IDX 57 96 61 97 64 98 58 99 59 100 62 101 60 102
REMARK H PARENT 96 33 84 55 52 66
REMARK Flexibility Score: inf
ROOT
ATOM      1  C   UNL A   1      35.929  20.802  24.761  1.00  0.00     0.275 C 
ENDROOT
BRANCH   1   2
ATOM      2  O   UNL A   1      34.927  21.352  25.639  1.00  0.00    -0.458 OA
BRANCH   2   3
ATOM      3  C   UNL A   1      33.648  20.958  25.415  1.00  0.00     0.338 C 
ATOM      4  O   UNL A   1      33.257  19.810  25.283  1.00  0.00    -0.246 OA
BRANCH   3   5
ATOM      5  C   UNL A   1      32.728  22.125  25.455  1.00  0.00     0.062 A 
ATOM      6  C   UNL A   1      32.295  24.515  25.479  1.00  0.00     0.052 A 
ATOM      7  C   UNL A   1      30.926  24.266  25.640  1.00  0.00     0.027 A 
ATOM      8  C   UNL A   1      33.194  23.439  25.398  1.00  0.00     0.042 A 
ATOM      9  C   UNL A   1      30.456  22.953  25.686  1.00  0.00     0.003 A 
ATOM     10  C   UNL A   1      31.351  21.888  25.569  1.00  0.00     0.016 A 
BRANCH   6  11
ATOM     11  N   UNL A   1      32.787  25.845  25.280  1.00  0.00    -0.251 N 
ATOM     12  C   UNL A   1      33.280  28.828  27.302  1.00  0.00     0.031 C 
ATOM     13  C   UNL A   1      33.130  28.083  26.184  1.00  0.00     0.103 C 
ATOM     14  C   UNL A   1      32.583  26.712  26.366  1.00  0.00     0.270 C 
ATOM     15  C   UNL A   1      33.443  28.409  24.801  1.00  0.00     0.226 C 
ATOM     16  O   UNL A   1      32.025  26.394  27.418  1.00  0.00    -0.268 OA
ATOM     17  N   UNL A   1      33.578  27.585  23.834  1.00  0.00    -0.184 NA
ATOM     18  C   UNL A   1      33.377  26.241  24.059  1.00  0.00     0.210 C 
ATOM     19  S   UNL A   1      33.761  25.191  22.779  1.00  0.00    -0.038 S 
BRANCH  12  20
ATOM     20  C   UNL A   1      33.788  30.206  27.481  1.00  0.00     0.021 A 
ATOM     21  C   UNL A   1      35.181  30.431  27.686  1.00  0.00     0.130 A 
ATOM     22  C   UNL A   1      35.672  31.720  27.921  1.00  0.00     0.097 A 
ATOM     23  C   UNL A   1      34.766  32.756  27.961  1.00  0.00     0.169 A 
ATOM     24  C   UNL A   1      32.926  31.310  27.416  1.00  0.00     0.062 A 
ATOM     25  C   UNL A   1      33.433  32.558  27.701  1.00  0.00     0.166 A 
ATOM     26  O   UNL A   1      35.056  34.057  28.220  1.00  0.00    -0.453 OA
ATOM     27  O   UNL A   1      32.715  33.711  27.766  1.00  0.00    -0.454 OA
ATOM     28  C   UNL A   1      33.734  34.635  28.199  1.00  0.00     0.468 C 
BRANCH  21  29
ATOM     29  O   UNL A   1      36.038  29.372  27.510  1.00  0.00    -0.493 OA
BRANCH  29  30
ATOM     30  C   UNL A   1      37.295  29.458  28.187  1.00  0.00     0.226 C 
ATOM     31  C   UNL A   1      38.462  29.553  27.215  1.00  0.00     0.049 C 
ENDBRANCH  29  30
ENDBRANCH  21  29
ENDBRANCH  12  20
BRANCH  15  32
ATOM     32  O   UNL A   1      33.536  29.703  24.488  1.00  0.00    -0.493 OA
ATOM     33  H   UNL A   1      34.376  30.114  24.442  1.00  0.00     0.295 HD
ENDBRANCH  15  32
ENDBRANCH   6  11
ENDBRANCH   3   5
ENDBRANCH   2   3
ENDBRANCH   1   2
BRANCH   1  34
ATOM     34  C   UNL A   1      37.036  21.820  24.490  1.00  0.00     0.275 C 
BRANCH  34  35
ATOM     35  O   UNL A   1      37.524  22.362  25.731  1.00  0.00    -0.458 OA
BRANCH  35  36
ATOM     36  C   UNL A   1      38.756  21.950  26.107  1.00  0.00     0.338 C 
ATOM     37  O   UNL A   1      39.293  20.882  25.882  1.00  0.00    -0.246 OA
BRANCH  36  38
ATOM     38  C   UNL A   1      39.445  23.065  26.774  1.00  0.00     0.060 A 
ATOM     39  C   UNL A   1      39.069  24.361  26.428  1.00  0.00     0.016 A 
ATOM     40  C   UNL A   1      40.524  22.844  27.628  1.00  0.00     0.016 A 
ATOM     41  C   UNL A   1      39.775  25.454  26.922  1.00  0.00     0.010 A 
ATOM     42  C   UNL A   1      41.226  23.944  28.139  1.00  0.00     0.010 A 
ATOM     43  C   UNL A   1      40.872  25.256  27.770  1.00  0.00    -0.014 A 
BRANCH  43  44
ATOM     44  C   UNL A   1      41.704  26.421  28.171  1.00  0.00     0.031 A 
ATOM     45  C   UNL A   1      41.141  27.447  29.115  1.00  0.00     0.074 A 
ATOM     46  C   UNL A   1      42.978  26.532  27.749  1.00  0.00     0.049 A 
ATOM     47  N   UNL A   1      41.663  28.576  29.523  1.00  0.00    -0.248 NA
ATOM     48  C   UNL A   1      39.810  27.163  29.673  1.00  0.00     0.031 C 
ATOM     49  C   UNL A   1      43.668  25.576  26.885  1.00  0.00     0.029 A 
ATOM     50  N   UNL A   1      43.923  27.495  28.007  1.00  0.00    -0.354 N 
ATOM     51  C   UNL A   1      40.708  29.158  30.347  1.00  0.00     0.074 A 
ATOM     52  C   UNL A   1      39.574  28.258  30.383  1.00  0.00     0.031 C 
ATOM     53  C   UNL A   1      44.935  25.986  26.706  1.00  0.00     0.029 A 
ATOM     54  C   UNL A   1      45.130  27.259  27.397  1.00  0.00     0.049 A 
ATOM     55  H   UNL A   1      43.752  28.280  28.577  1.00  0.00     0.167 HD
ATOM     56  C   UNL A   1      40.773  30.334  31.015  1.00  0.00     0.037 A 
ATOM     57  C   UNL A   1      46.257  27.995  27.377  1.00  0.00     0.037 A 
ATOM     58  C   UNL A   1      41.917  31.206  31.024  1.00  0.00     0.049 A 
ATOM     59  C   UNL A   1      46.297  29.309  28.111  1.00  0.00     0.074 A 
ATOM     60  C   UNL A   1      42.075  32.419  31.670  1.00  0.00     0.029 A 
ATOM     61  N   UNL A   1      43.110  30.946  30.366  1.00  0.00    -0.354 N 
ATOM     62  N   UNL A   1      45.370  29.877  28.843  1.00  0.00    -0.248 NA
ATOM     63  C   UNL A   1      47.537  30.091  28.003  1.00  0.00     0.031 C 
ATOM     64  C   UNL A   1      43.354  32.907  31.384  1.00  0.00     0.029 A 
ATOM     65  C   UNL A   1      44.006  31.979  30.586  1.00  0.00     0.049 A 
ATOM     66  H   UNL A   1      43.292  30.146  29.822  1.00  0.00     0.167 HD
ATOM     67  C   UNL A   1      45.914  31.072  29.291  1.00  0.00     0.074 A 
ATOM     68  C   UNL A   1      47.262  31.142  28.765  1.00  0.00     0.031 C 
ATOM     69  C   UNL A   1      45.345  32.030  30.063  1.00  0.00     0.037 A 
BRANCH  56  70
ATOM     70  C   UNL A   1      39.550  30.766  31.769  1.00  0.00     0.064 A 
ATOM     71  C   UNL A   1      39.358  30.440  33.119  1.00  0.00     0.173 A 
ATOM     72  C   UNL A   1      38.568  31.540  31.132  1.00  0.00     0.173 A 
ATOM     73  F   UNL A   1      40.261  29.689  33.767  1.00  0.00    -0.203 F 
ATOM     74  C   UNL A   1      38.216  30.856  33.798  1.00  0.00     0.198 A 
ATOM     75  C   UNL A   1      37.441  31.976  31.821  1.00  0.00     0.198 A 
ATOM     76  F   UNL A   1      38.708  31.882  29.842  1.00  0.00    -0.203 F 
ATOM     77  F   UNL A   1      38.032  30.500  35.077  1.00  0.00    -0.200 F 
ATOM     78  C   UNL A   1      37.261  31.628  33.151  1.00  0.00     0.200 A 
ATOM     79  F   UNL A   1      36.525  32.730  31.197  1.00  0.00    -0.200 F 
ATOM     80  F   UNL A   1      36.166  32.031  33.808  1.00  0.00    -0.200 F 
ENDBRANCH  56  70
BRANCH  57  81
ATOM     81  C   UNL A   1      47.442  27.516  26.620  1.00  0.00     0.064 A 
ATOM     82  C   UNL A   1      47.570  27.764  25.247  1.00  0.00     0.173 A 
ATOM     83  C   UNL A   1      48.467  26.797  27.253  1.00  0.00     0.173 A 
ATOM     84  F   UNL A   1      46.601  28.422  24.594  1.00  0.00    -0.203 F 
ATOM     85  C   UNL A   1      48.674  27.305  24.533  1.00  0.00     0.198 A 
ATOM     86  C   UNL A   1      49.583  26.361  26.544  1.00  0.00     0.198 A 
ATOM     87  F   UNL A   1      48.388  26.528  28.565  1.00  0.00    -0.203 F 
ATOM     88  F   UNL A   1      48.754  27.522  23.213  1.00  0.00    -0.200 F 
ATOM     89  C   UNL A   1      49.684  26.610  25.184  1.00  0.00     0.200 A 
ATOM     90  F   UNL A   1      50.560  25.698  27.178  1.00  0.00    -0.200 F 
ATOM     91  F   UNL A   1      50.749  26.174  24.497  1.00  0.00    -0.200 F 
ENDBRANCH  57  81
BRANCH  69  92
ATOM     92  C   UNL A   1      46.186  33.223  30.407  1.00  0.00     0.064 A 
ATOM     93  C   UNL A   1      46.185  34.374  29.607  1.00  0.00     0.173 A 
ATOM     94  C   UNL A   1      46.970  33.228  31.571  1.00  0.00     0.173 A 
ATOM     95  F   UNL A   1      45.464  34.410  28.477  1.00  0.00    -0.203 F 
ATOM     96  C   UNL A   1      46.954  35.482  29.950  1.00  0.00     0.198 A 
ATOM     97  C   UNL A   1      47.720  34.346  31.923  1.00  0.00     0.198 A 
ATOM     98  F   UNL A   1      47.000  32.151  32.371  1.00  0.00    -0.203 F 
ATOM     99  F   UNL A   1      46.968  36.559  29.152  1.00  0.00    -0.200 F 
ATOM    100  C   UNL A   1      47.716  35.469  31.110  1.00  0.00     0.200 A 
ATOM    101  F   UNL A   1      48.450  34.336  33.047  1.00  0.00    -0.200 F 
ATOM    102  F   UNL A   1      48.453  36.539  31.441  1.00  0.00    -0.200 F 
ENDBRANCH  69  92
ENDBRANCH  43  44
ENDBRANCH  36  38
ENDBRANCH  35  36
ENDBRANCH  34  35
ENDBRANCH   1  34
TORSDOF 16
ENDMDL
