MODEL 1
REMARK VINA RESULT:     -11.5      0.000      0.000
REMARK SMILES CCS(=O)(=O)c1ccccc1NC[C@H]1CC[C@H](C(=O)OCCOC(=O)c2ccc(-c3c4nc(c(-c5c(F)c(F)c(F)c(F)c5F)c5ccc([nH]5)c(-c5c(F)c(F)c(F)c(F)c5F)c5nc(c(-c6c(F)c(F)c(F)c(F)c6F)c6ccc3[nH]6)C=C5)C=C4)cc2)O1
REMARK SMILES IDX 20 1 18 2 19 3 17 4 14 5 15 6 89 7 16 8 13 9 12 10 11 12
REMARK SMILES IDX 6 13 7 14 8 15 10 16 9 17 3 18 4 19 5 20 2 21 1 22 21 23
REMARK SMILES IDX 22 24 23 25 24 26 25 27 26 28 27 29 88 30 28 31 87 32 29 33
REMARK SMILES IDX 30 34 31 35 81 36 32 37 86 38 80 39 82 40 33 41 85 42 79 43
REMARK SMILES IDX 78 44 34 46 66 47 46 48 65 49 47 50 50 51 64 52 83 53 48 54
REMARK SMILES IDX 49 55 63 57 84 58 51 59 35 60 36 61 44 62 37 63 38 64 42 65
REMARK SMILES IDX 45 66 39 67 40 68 43 69 41 70 67 71 68 72 76 73 69 74 70 75
REMARK SMILES IDX 74 76 77 77 71 78 72 79 75 80 73 81 52 82 53 83 61 84 54 85
REMARK SMILES IDX 55 86 59 87 62 88 56 89 57 90 60 91 58 92
REMARK H PARENT 12 11 82 45 50 56
REMARK Flexibility Score: inf
ROOT
ATOM      1  O   UNL A   1      31.820  29.235  23.510  1.00  0.00    -0.460 OA
ENDROOT
BRANCH   1   2
ATOM      2  C   UNL A   1      31.282  28.179  22.843  1.00  0.00     0.335 C 
ATOM      3  O   UNL A   1      30.367  28.261  22.030  1.00  0.00    -0.249 OA
BRANCH   2   4
ATOM      4  C   UNL A   1      31.955  26.849  23.199  1.00  0.00     0.228 C 
ATOM      5  C   UNL A   1      32.448  25.584  25.093  1.00  0.00     0.138 C 
ATOM      6  C   UNL A   1      33.582  26.576  24.907  1.00  0.00     0.037 C 
ATOM      7  O   UNL A   1      31.371  26.187  24.337  1.00  0.00    -0.361 OA
ATOM      8  C   UNL A   1      33.458  26.941  23.447  1.00  0.00     0.047 C 
BRANCH   5   9
ATOM      9  C   UNL A   1      32.702  24.155  24.546  1.00  0.00     0.145 C 
BRANCH   9  10
ATOM     10  N   UNL A   1      33.198  23.225  25.549  1.00  0.00    -0.381 N 
ATOM     11  H   UNL A   1      32.734  23.214  26.417  1.00  0.00     0.160 HD
BRANCH  10  12
ATOM     12  C   UNL A   1      34.263  22.353  25.396  1.00  0.00     0.053 A 
ATOM     13  C   UNL A   1      34.093  21.042  24.902  1.00  0.00     0.090 A 
ATOM     14  C   UNL A   1      35.183  20.166  24.752  1.00  0.00     0.022 A 
ATOM     15  C   UNL A   1      36.455  20.557  25.151  1.00  0.00     0.001 A 
ATOM     16  C   UNL A   1      35.561  22.708  25.798  1.00  0.00     0.027 A 
ATOM     17  C   UNL A   1      36.642  21.827  25.681  1.00  0.00     0.002 A 
BRANCH  13  18
ATOM     18  S   UNL A   1      32.501  20.437  24.357  1.00  0.00     0.180 S 
ATOM     19  O   UNL A   1      32.298  20.898  22.995  1.00  0.00    -0.224 OA
ATOM     20  O   UNL A   1      31.519  20.765  25.380  1.00  0.00    -0.224 OA
BRANCH  18  21
ATOM     21  C   UNL A   1      32.664  18.665  24.341  1.00  0.00     0.139 C 
ATOM     22  C   UNL A   1      32.567  18.048  22.962  1.00  0.00     0.021 C 
ENDBRANCH  18  21
ENDBRANCH  13  18
ENDBRANCH  10  12
ENDBRANCH   9  10
ENDBRANCH   5   9
ENDBRANCH   2   4
ENDBRANCH   1   2
BRANCH   1  23
ATOM     23  C   UNL A   1      31.071  29.720  24.639  1.00  0.00     0.274 C 
BRANCH  23  24
ATOM     24  C   UNL A   1      31.834  29.530  25.954  1.00  0.00     0.275 C 
BRANCH  24  25
ATOM     25  O   UNL A   1      33.137  30.145  25.912  1.00  0.00    -0.458 OA
BRANCH  25  26
ATOM     26  C   UNL A   1      33.347  31.124  26.822  1.00  0.00     0.338 C 
ATOM     27  O   UNL A   1      32.597  32.036  27.120  1.00  0.00    -0.246 OA
BRANCH  26  28
ATOM     28  C   UNL A   1      34.608  30.872  27.535  1.00  0.00     0.060 A 
ATOM     29  C   UNL A   1      34.861  29.575  27.991  1.00  0.00     0.016 A 
ATOM     30  C   UNL A   1      35.494  31.912  27.817  1.00  0.00     0.016 A 
ATOM     31  C   UNL A   1      36.016  29.307  28.722  1.00  0.00     0.010 A 
ATOM     32  C   UNL A   1      36.653  31.642  28.552  1.00  0.00     0.010 A 
ATOM     33  C   UNL A   1      36.920  30.338  29.009  1.00  0.00    -0.014 A 
BRANCH  33  34
ATOM     34  C   UNL A   1      38.144  30.054  29.793  1.00  0.00     0.031 A 
ATOM     35  C   UNL A   1      39.196  29.137  29.244  1.00  0.00     0.074 A 
ATOM     36  C   UNL A   1      38.305  30.625  31.000  1.00  0.00     0.049 A 
ATOM     37  N   UNL A   1      40.286  28.692  29.815  1.00  0.00    -0.248 NA
ATOM     38  C   UNL A   1      38.995  28.655  27.869  1.00  0.00     0.031 C 
ATOM     39  C   UNL A   1      37.370  31.563  31.619  1.00  0.00     0.029 A 
ATOM     40  N   UNL A   1      39.310  30.491  31.926  1.00  0.00    -0.354 N 
ATOM     41  C   UNL A   1      40.893  27.867  28.878  1.00  0.00     0.074 A 
ATOM     42  C   UNL A   1      40.044  27.862  27.705  1.00  0.00     0.031 C 
ATOM     43  C   UNL A   1      37.841  31.916  32.825  1.00  0.00     0.029 A 
ATOM     44  C   UNL A   1      39.084  31.195  33.082  1.00  0.00     0.049 A 
ATOM     45  H   UNL A   1      40.113  29.942  31.775  1.00  0.00     0.167 HD
ATOM     46  C   UNL A   1      42.055  27.181  28.991  1.00  0.00     0.037 A 
ATOM     47  C   UNL A   1      39.786  31.228  34.230  1.00  0.00     0.037 A 
ATOM     48  C   UNL A   1      42.902  27.197  30.156  1.00  0.00     0.049 A 
ATOM     49  C   UNL A   1      41.037  30.402  34.353  1.00  0.00     0.074 A 
ATOM     50  C   UNL A   1      44.112  26.556  30.355  1.00  0.00     0.029 A 
ATOM     51  N   UNL A   1      42.621  27.892  31.324  1.00  0.00    -0.354 N 
ATOM     52  N   UNL A   1      41.606  29.626  33.463  1.00  0.00    -0.248 NA
ATOM     53  C   UNL A   1      41.735  30.446  35.646  1.00  0.00     0.031 C 
ATOM     54  C   UNL A   1      44.543  26.828  31.658  1.00  0.00     0.029 A 
ATOM     55  C   UNL A   1      43.622  27.672  32.257  1.00  0.00     0.049 A 
ATOM     56  H   UNL A   1      41.828  28.457  31.469  1.00  0.00     0.167 HD
ATOM     57  C   UNL A   1      42.733  29.101  34.080  1.00  0.00     0.074 A 
ATOM     58  C   UNL A   1      42.778  29.659  35.415  1.00  0.00     0.031 C 
ATOM     59  C   UNL A   1      43.646  28.231  33.585  1.00  0.00     0.037 A 
BRANCH  46  60
ATOM     60  C   UNL A   1      42.471  26.328  27.830  1.00  0.00     0.064 A 
ATOM     61  C   UNL A   1      41.955  25.039  27.641  1.00  0.00     0.173 A 
ATOM     62  C   UNL A   1      43.367  26.825  26.872  1.00  0.00     0.173 A 
ATOM     63  F   UNL A   1      41.104  24.514  28.536  1.00  0.00    -0.203 F 
ATOM     64  C   UNL A   1      42.336  24.270  26.544  1.00  0.00     0.198 A 
ATOM     65  C   UNL A   1      43.729  26.063  25.765  1.00  0.00     0.198 A 
ATOM     66  F   UNL A   1      43.886  28.056  27.006  1.00  0.00    -0.203 F 
ATOM     67  F   UNL A   1      41.856  23.026  26.400  1.00  0.00    -0.200 F 
ATOM     68  C   UNL A   1      43.217  24.785  25.604  1.00  0.00     0.200 A 
ATOM     69  F   UNL A   1      44.573  26.566  24.853  1.00  0.00    -0.200 F 
ATOM     70  F   UNL A   1      43.576  24.046  24.545  1.00  0.00    -0.200 F 
ENDBRANCH  46  60
BRANCH  47  71
ATOM     71  C   UNL A   1      39.301  32.051  35.367  1.00  0.00     0.064 A 
ATOM     72  C   UNL A   1      39.661  33.399  35.486  1.00  0.00     0.173 A 
ATOM     73  C   UNL A   1      38.467  31.506  36.354  1.00  0.00     0.173 A 
ATOM     74  F   UNL A   1      40.479  33.956  34.581  1.00  0.00    -0.203 F 
ATOM     75  C   UNL A   1      39.212  34.170  36.557  1.00  0.00     0.198 A 
ATOM     76  C   UNL A   1      37.998  32.284  37.409  1.00  0.00     0.198 A 
ATOM     77  F   UNL A   1      38.099  30.218  36.286  1.00  0.00    -0.203 F 
ATOM     78  F   UNL A   1      39.601  35.447  36.668  1.00  0.00    -0.200 F 
ATOM     79  C   UNL A   1      38.375  33.614  37.512  1.00  0.00     0.200 A 
ATOM     80  F   UNL A   1      37.183  31.745  38.326  1.00  0.00    -0.200 F 
ATOM     81  F   UNL A   1      37.939  34.358  38.538  1.00  0.00    -0.200 F 
ENDBRANCH  47  71
BRANCH  59  82
ATOM     82  C   UNL A   1      44.776  27.839  34.489  1.00  0.00     0.064 A 
ATOM     83  C   UNL A   1      45.959  28.590  34.546  1.00  0.00     0.173 A 
ATOM     84  C   UNL A   1      44.662  26.723  35.332  1.00  0.00     0.173 A 
ATOM     85  F   UNL A   1      46.122  29.655  33.747  1.00  0.00    -0.203 F 
ATOM     86  C   UNL A   1      46.995  28.227  35.402  1.00  0.00     0.198 A 
ATOM     87  C   UNL A   1      45.691  26.377  36.203  1.00  0.00     0.198 A 
ATOM     88  F   UNL A   1      43.549  25.975  35.316  1.00  0.00    -0.203 F 
ATOM     89  F   UNL A   1      48.133  28.936  35.413  1.00  0.00    -0.200 F 
ATOM     90  C   UNL A   1      46.857  27.125  36.234  1.00  0.00     0.200 A 
ATOM     91  F   UNL A   1      45.554  25.317  37.012  1.00  0.00    -0.200 F 
ATOM     92  F   UNL A   1      47.854  26.780  37.061  1.00  0.00    -0.200 F 
ENDBRANCH  59  82
ENDBRANCH  33  34
ENDBRANCH  26  28
ENDBRANCH  25  26
ENDBRANCH  24  25
ENDBRANCH  23  24
ENDBRANCH   1  23
TORSDOF 16
ENDMDL
MODEL 2
REMARK VINA RESULT:     -11.4      0.903      1.999
REMARK SMILES CCS(=O)(=O)c1ccccc1NC[C@H]1CC[C@H](C(=O)OCCOC(=O)c2ccc(-c3c4nc(c(-c5c(F)c(F)c(F)c(F)c5F)c5ccc([nH]5)c(-c5c(F)c(F)c(F)c(F)c5F)c5nc(c(-c6c(F)c(F)c(F)c(F)c6F)c6ccc3[nH]6)C=C5)C=C4)cc2)O1
REMARK SMILES IDX 20 1 18 2 19 3 17 4 14 5 15 6 89 7 16 8 13 9 12 10 11 12
REMARK SMILES IDX 6 13 7 14 8 15 10 16 9 17 3 18 4 19 5 20 2 21 1 22 21 23
REMARK SMILES IDX 22 24 23 25 24 26 25 27 26 28 27 29 88 30 28 31 87 32 29 33
REMARK SMILES IDX 30 34 31 35 81 36 32 37 86 38 80 39 82 40 33 41 85 42 79 43
REMARK SMILES IDX 78 44 34 46 66 47 46 48 65 49 47 50 50 51 64 52 83 53 48 54
REMARK SMILES IDX 49 55 63 57 84 58 51 59 35 60 36 61 44 62 37 63 38 64 42 65
REMARK SMILES IDX 45 66 39 67 40 68 43 69 41 70 67 71 68 72 76 73 69 74 70 75
REMARK SMILES IDX 74 76 77 77 71 78 72 79 75 80 73 81 52 82 53 83 61 84 54 85
REMARK SMILES IDX 55 86 59 87 62 88 56 89 57 90 60 91 58 92
REMARK H PARENT 12 11 82 45 50 56
REMARK Flexibility Score: inf
ROOT
ATOM      1  O   UNL A   1      31.328  29.267  23.642  1.00  0.00    -0.460 OA
ENDROOT
BRANCH   1   2
ATOM      2  C   UNL A   1      30.876  28.183  22.957  1.00  0.00     0.335 C 
ATOM      3  O   UNL A   1      29.906  28.186  22.206  1.00  0.00    -0.249 OA
BRANCH   2   4
ATOM      4  C   UNL A   1      31.725  26.931  23.205  1.00  0.00     0.228 C 
ATOM      5  C   UNL A   1      33.649  25.921  22.363  1.00  0.00     0.138 C 
ATOM      6  C   UNL A   1      32.485  25.457  21.506  1.00  0.00     0.037 C 
ATOM      7  O   UNL A   1      33.133  27.127  22.974  1.00  0.00    -0.361 OA
ATOM      8  C   UNL A   1      31.300  25.702  22.408  1.00  0.00     0.047 C 
BRANCH   5   9
ATOM      9  C   UNL A   1      34.094  24.946  23.484  1.00  0.00     0.145 C 
BRANCH   9  10
ATOM     10  N   UNL A   1      34.189  23.560  23.051  1.00  0.00    -0.381 N 
ATOM     11  H   UNL A   1      33.720  23.319  22.219  1.00  0.00     0.160 HD
BRANCH  10  12
ATOM     12  C   UNL A   1      34.877  22.548  23.699  1.00  0.00     0.053 A 
ATOM     13  C   UNL A   1      34.214  21.501  24.371  1.00  0.00     0.090 A 
ATOM     14  C   UNL A   1      34.925  20.480  25.026  1.00  0.00     0.022 A 
ATOM     15  C   UNL A   1      36.313  20.517  25.078  1.00  0.00     0.001 A 
ATOM     16  C   UNL A   1      36.280  22.557  23.781  1.00  0.00     0.027 A 
ATOM     17  C   UNL A   1      36.990  21.561  24.460  1.00  0.00     0.002 A 
BRANCH  13  18
ATOM     18  S   UNL A   1      32.431  21.356  24.366  1.00  0.00     0.180 S 
ATOM     19  O   UNL A   1      32.097  20.025  24.841  1.00  0.00    -0.224 OA
ATOM     20  O   UNL A   1      31.946  21.798  23.067  1.00  0.00    -0.224 OA
BRANCH  18  21
ATOM     21  C   UNL A   1      31.870  22.547  25.563  1.00  0.00     0.139 C 
ATOM     22  C   UNL A   1      32.933  22.976  26.553  1.00  0.00     0.021 C 
ENDBRANCH  18  21
ENDBRANCH  13  18
ENDBRANCH  10  12
ENDBRANCH   9  10
ENDBRANCH   5   9
ENDBRANCH   2   4
ENDBRANCH   1   2
BRANCH   1  23
ATOM     23  C   UNL A   1      31.304  29.165  25.078  1.00  0.00     0.274 C 
BRANCH  23  24
ATOM     24  C   UNL A   1      31.684  30.488  25.750  1.00  0.00     0.275 C 
BRANCH  24  25
ATOM     25  O   UNL A   1      33.040  30.473  26.236  1.00  0.00    -0.458 OA
BRANCH  25  26
ATOM     26  C   UNL A   1      33.380  31.504  27.043  1.00  0.00     0.338 C 
ATOM     27  O   UNL A   1      32.735  32.511  27.276  1.00  0.00    -0.246 OA
BRANCH  26  28
ATOM     28  C   UNL A   1      34.637  31.192  27.740  1.00  0.00     0.060 A 
ATOM     29  C   UNL A   1      34.807  29.903  28.251  1.00  0.00     0.016 A 
ATOM     30  C   UNL A   1      35.604  32.176  27.952  1.00  0.00     0.016 A 
ATOM     31  C   UNL A   1      35.957  29.584  28.968  1.00  0.00     0.010 A 
ATOM     32  C   UNL A   1      36.758  31.854  28.674  1.00  0.00     0.010 A 
ATOM     33  C   UNL A   1      36.941  30.557  29.186  1.00  0.00    -0.014 A 
BRANCH  33  34
ATOM     34  C   UNL A   1      38.161  30.219  29.955  1.00  0.00     0.031 A 
ATOM     35  C   UNL A   1      39.180  29.281  29.380  1.00  0.00     0.074 A 
ATOM     36  C   UNL A   1      38.347  30.760  31.173  1.00  0.00     0.049 A 
ATOM     37  N   UNL A   1      40.259  28.792  29.935  1.00  0.00    -0.248 NA
ATOM     38  C   UNL A   1      38.955  28.834  27.998  1.00  0.00     0.031 C 
ATOM     39  C   UNL A   1      37.445  31.714  31.817  1.00  0.00     0.029 A 
ATOM     40  N   UNL A   1      39.353  30.575  32.089  1.00  0.00    -0.354 N 
ATOM     41  C   UNL A   1      40.835  27.968  28.978  1.00  0.00     0.074 A 
ATOM     42  C   UNL A   1      39.979  28.013  27.810  1.00  0.00     0.031 C 
ATOM     43  C   UNL A   1      37.935  32.027  33.027  1.00  0.00     0.029 A 
ATOM     44  C   UNL A   1      39.157  31.262  33.260  1.00  0.00     0.049 A 
ATOM     45  H   UNL A   1      40.138  30.005  31.921  1.00  0.00     0.167 HD
ATOM     46  C   UNL A   1      41.975  27.243  29.068  1.00  0.00     0.037 A 
ATOM     47  C   UNL A   1      39.867  31.250  34.405  1.00  0.00     0.037 A 
ATOM     48  C   UNL A   1      42.830  27.210  30.227  1.00  0.00     0.049 A 
ATOM     49  C   UNL A   1      41.092  30.383  34.502  1.00  0.00     0.074 A 
ATOM     50  C   UNL A   1      44.021  26.528  30.405  1.00  0.00     0.029 A 
ATOM     51  N   UNL A   1      42.578  27.889  31.411  1.00  0.00    -0.354 N 
ATOM     52  N   UNL A   1      41.631  29.609  33.592  1.00  0.00    -0.248 NA
ATOM     53  C   UNL A   1      41.799  30.380  35.790  1.00  0.00     0.031 C 
ATOM     54  C   UNL A   1      44.468  26.759  31.711  1.00  0.00     0.029 A 
ATOM     55  C   UNL A   1      43.578  27.618  32.333  1.00  0.00     0.049 A 
ATOM     56  H   UNL A   1      41.804  28.475  31.573  1.00  0.00     0.167 HD
ATOM     57  C   UNL A   1      42.745  29.036  34.190  1.00  0.00     0.074 A 
ATOM     58  C   UNL A   1      42.815  29.566  35.536  1.00  0.00     0.031 C 
ATOM     59  C   UNL A   1      43.627  28.149  33.671  1.00  0.00     0.037 A 
BRANCH  46  60
ATOM     60  C   UNL A   1      42.358  26.402  27.887  1.00  0.00     0.064 A 
ATOM     61  C   UNL A   1      41.806  25.130  27.680  1.00  0.00     0.173 A 
ATOM     62  C   UNL A   1      43.257  26.894  26.929  1.00  0.00     0.173 A 
ATOM     63  F   UNL A   1      40.951  24.611  28.574  1.00  0.00    -0.203 F 
ATOM     64  C   UNL A   1      42.155  24.373  26.564  1.00  0.00     0.198 A 
ATOM     65  C   UNL A   1      43.587  26.144  25.804  1.00  0.00     0.198 A 
ATOM     66  F   UNL A   1      43.808  28.109  27.080  1.00  0.00    -0.203 F 
ATOM     67  F   UNL A   1      41.643  23.144  26.403  1.00  0.00    -0.200 F 
ATOM     68  C   UNL A   1      43.040  24.883  25.625  1.00  0.00     0.200 A 
ATOM     69  F   UNL A   1      44.434  26.642  24.893  1.00  0.00    -0.200 F 
ATOM     70  F   UNL A   1      43.370  24.155  24.549  1.00  0.00    -0.200 F 
ENDBRANCH  46  60
BRANCH  47  71
ATOM     71  C   UNL A   1      39.414  32.064  35.561  1.00  0.00     0.064 A 
ATOM     72  C   UNL A   1      38.538  31.537  36.516  1.00  0.00     0.173 A 
ATOM     73  C   UNL A   1      39.853  33.386  35.733  1.00  0.00     0.173 A 
ATOM     74  F   UNL A   1      38.070  30.287  36.377  1.00  0.00    -0.203 F 
ATOM     75  C   UNL A   1      38.107  32.303  37.597  1.00  0.00     0.198 A 
ATOM     76  C   UNL A   1      39.443  34.143  36.827  1.00  0.00     0.198 A 
ATOM     77  F   UNL A   1      40.690  33.938  34.842  1.00  0.00    -0.203 F 
ATOM     78  F   UNL A   1      37.238  31.788  38.477  1.00  0.00    -0.200 F 
ATOM     79  C   UNL A   1      38.566  33.603  37.756  1.00  0.00     0.200 A 
ATOM     80  F   UNL A   1      39.894  35.395  36.981  1.00  0.00    -0.200 F 
ATOM     81  F   UNL A   1      38.156  34.337  38.799  1.00  0.00    -0.200 F 
ENDBRANCH  47  71
BRANCH  59  82
ATOM     82  C   UNL A   1      44.750  27.704  34.559  1.00  0.00     0.064 A 
ATOM     83  C   UNL A   1      44.641  26.554  35.354  1.00  0.00     0.173 A 
ATOM     84  C   UNL A   1      45.961  28.414  34.589  1.00  0.00     0.173 A 
ATOM     85  F   UNL A   1      43.498  25.852  35.372  1.00  0.00    -0.203 F 
ATOM     86  C   UNL A   1      45.697  26.140  36.162  1.00  0.00     0.198 A 
ATOM     87  C   UNL A   1      47.023  27.984  35.381  1.00  0.00     0.198 A 
ATOM     88  F   UNL A   1      46.115  29.518  33.844  1.00  0.00    -0.203 F 
ATOM     89  F   UNL A   1      45.557  25.061  36.943  1.00  0.00    -0.200 F 
ATOM     90  C   UNL A   1      46.888  26.851  36.169  1.00  0.00     0.200 A 
ATOM     91  F   UNL A   1      48.175  28.667  35.381  1.00  0.00    -0.200 F 
ATOM     92  F   UNL A   1      47.905  26.449  36.944  1.00  0.00    -0.200 F 
ENDBRANCH  59  82
ENDBRANCH  33  34
ENDBRANCH  26  28
ENDBRANCH  25  26
ENDBRANCH  24  25
ENDBRANCH  23  24
ENDBRANCH   1  23
TORSDOF 16
ENDMDL
MODEL 3
REMARK VINA RESULT:     -11.3      2.978      7.934
REMARK SMILES CCS(=O)(=O)c1ccccc1NC[C@H]1CC[C@H](C(=O)OCCOC(=O)c2ccc(-c3c4nc(c(-c5c(F)c(F)c(F)c(F)c5F)c5ccc([nH]5)c(-c5c(F)c(F)c(F)c(F)c5F)c5nc(c(-c6c(F)c(F)c(F)c(F)c6F)c6ccc3[nH]6)C=C5)C=C4)cc2)O1
REMARK SMILES IDX 20 1 18 2 19 3 17 4 14 5 15 6 89 7 16 8 13 9 12 10 11 12
REMARK SMILES IDX 6 13 7 14 8 15 10 16 9 17 3 18 4 19 5 20 2 21 1 22 21 23
REMARK SMILES IDX 22 24 23 25 24 26 25 27 26 28 27 29 88 30 28 31 87 32 29 33
REMARK SMILES IDX 30 34 31 35 81 36 32 37 86 38 80 39 82 40 33 41 85 42 79 43
REMARK SMILES IDX 78 44 34 46 66 47 46 48 65 49 47 50 50 51 64 52 83 53 48 54
REMARK SMILES IDX 49 55 63 57 84 58 51 59 35 60 36 61 44 62 37 63 38 64 42 65
REMARK SMILES IDX 45 66 39 67 40 68 43 69 41 70 67 71 68 72 76 73 69 74 70 75
REMARK SMILES IDX 74 76 77 77 71 78 72 79 75 80 73 81 52 82 53 83 61 84 54 85
REMARK SMILES IDX 55 86 59 87 62 88 56 89 57 90 60 91 58 92
REMARK H PARENT 12 11 82 45 50 56
REMARK Flexibility Score: inf
ROOT
ATOM      1  O   UNL A   1      32.368  29.653  24.851  1.00  0.00    -0.460 OA
ENDROOT
BRANCH   1   2
ATOM      2  C   UNL A   1      31.565  29.002  23.967  1.00  0.00     0.335 C 
ATOM      3  O   UNL A   1      30.510  29.445  23.526  1.00  0.00    -0.249 OA
BRANCH   2   4
ATOM      4  C   UNL A   1      32.127  27.638  23.552  1.00  0.00     0.228 C 
ATOM      5  C   UNL A   1      32.310  25.480  24.412  1.00  0.00     0.138 C 
ATOM      6  C   UNL A   1      33.502  26.271  24.923  1.00  0.00     0.037 C 
ATOM      7  O   UNL A   1      31.370  26.519  24.051  1.00  0.00    -0.361 OA
ATOM      8  C   UNL A   1      33.587  27.406  23.932  1.00  0.00     0.047 C 
BRANCH   5   9
ATOM      9  C   UNL A   1      32.572  24.591  23.169  1.00  0.00     0.145 C 
BRANCH   9  10
ATOM     10  N   UNL A   1      33.746  23.739  23.295  1.00  0.00    -0.381 N 
ATOM     11  H   UNL A   1      34.595  24.095  22.948  1.00  0.00     0.160 HD
BRANCH  10  12
ATOM     12  C   UNL A   1      33.778  22.475  23.858  1.00  0.00     0.053 A 
ATOM     13  C   UNL A   1      34.971  21.903  24.349  1.00  0.00     0.090 A 
ATOM     14  C   UNL A   1      34.990  20.617  24.918  1.00  0.00     0.022 A 
ATOM     15  C   UNL A   1      33.832  19.850  24.951  1.00  0.00     0.001 A 
ATOM     16  C   UNL A   1      32.631  21.666  23.900  1.00  0.00     0.027 A 
ATOM     17  C   UNL A   1      32.653  20.372  24.436  1.00  0.00     0.002 A 
BRANCH  13  18
ATOM     18  S   UNL A   1      36.516  22.803  24.357  1.00  0.00     0.180 S 
ATOM     19  O   UNL A   1      36.393  23.879  25.324  1.00  0.00    -0.224 OA
ATOM     20  O   UNL A   1      36.865  23.113  22.978  1.00  0.00    -0.224 OA
BRANCH  18  21
ATOM     21  C   UNL A   1      37.723  21.638  24.949  1.00  0.00     0.139 C 
ATOM     22  C   UNL A   1      38.760  22.240  25.875  1.00  0.00     0.021 C 
ENDBRANCH  18  21
ENDBRANCH  13  18
ENDBRANCH  10  12
ENDBRANCH   9  10
ENDBRANCH   5   9
ENDBRANCH   2   4
ENDBRANCH   1   2
BRANCH   1  23
ATOM     23  C   UNL A   1      31.850  29.800  26.187  1.00  0.00     0.274 C 
BRANCH  23  24
ATOM     24  C   UNL A   1      32.721  29.076  27.219  1.00  0.00     0.275 C 
BRANCH  24  25
ATOM     25  O   UNL A   1      34.122  29.346  27.022  1.00  0.00    -0.458 OA
BRANCH  25  26
ATOM     26  C   UNL A   1      34.629  30.356  27.767  1.00  0.00     0.338 C 
ATOM     27  O   UNL A   1      34.063  31.374  28.124  1.00  0.00    -0.246 OA
BRANCH  26  28
ATOM     28  C   UNL A   1      35.982  30.004  28.223  1.00  0.00     0.060 A 
ATOM     29  C   UNL A   1      37.042  30.155  27.324  1.00  0.00     0.016 A 
ATOM     30  C   UNL A   1      36.195  29.462  29.491  1.00  0.00     0.016 A 
ATOM     31  C   UNL A   1      38.329  29.777  27.696  1.00  0.00     0.010 A 
ATOM     32  C   UNL A   1      37.489  29.081  29.862  1.00  0.00     0.010 A 
ATOM     33  C   UNL A   1      38.562  29.236  28.967  1.00  0.00    -0.014 A 
BRANCH  33  34
ATOM     34  C   UNL A   1      39.931  28.827  29.359  1.00  0.00     0.031 A 
ATOM     35  C   UNL A   1      40.769  29.724  30.220  1.00  0.00     0.074 A 
ATOM     36  C   UNL A   1      40.415  27.646  28.937  1.00  0.00     0.049 A 
ATOM     37  N   UNL A   1      42.017  29.587  30.590  1.00  0.00    -0.248 NA
ATOM     38  C   UNL A   1      40.117  30.938  30.735  1.00  0.00     0.031 C 
ATOM     39  C   UNL A   1      39.680  26.674  28.130  1.00  0.00     0.029 A 
ATOM     40  N   UNL A   1      41.647  27.067  29.122  1.00  0.00    -0.354 N 
ATOM     41  C   UNL A   1      42.306  30.701  31.366  1.00  0.00     0.074 A 
ATOM     42  C   UNL A   1      41.107  31.512  31.405  1.00  0.00     0.031 C 
ATOM     43  C   UNL A   1      40.475  25.621  27.883  1.00  0.00     0.029 A 
ATOM     44  C   UNL A   1      41.787  25.865  28.474  1.00  0.00     0.049 A 
ATOM     45  H   UNL A   1      42.359  27.475  29.666  1.00  0.00     0.167 HD
ATOM     46  C   UNL A   1      43.467  31.013  31.989  1.00  0.00     0.037 A 
ATOM     47  C   UNL A   1      42.865  25.068  28.345  1.00  0.00     0.037 A 
ATOM     48  C   UNL A   1      44.654  30.198  31.956  1.00  0.00     0.049 A 
ATOM     49  C   UNL A   1      44.162  25.473  28.990  1.00  0.00     0.074 A 
ATOM     50  C   UNL A   1      45.871  30.416  32.579  1.00  0.00     0.029 A 
ATOM     51  N   UNL A   1      44.772  29.005  31.256  1.00  0.00    -0.354 N 
ATOM     52  N   UNL A   1      44.427  26.526  29.724  1.00  0.00    -0.248 NA
ATOM     53  C   UNL A   1      45.312  24.583  28.778  1.00  0.00     0.031 C 
ATOM     54  C   UNL A   1      46.739  29.378  32.221  1.00  0.00     0.029 A 
ATOM     55  C   UNL A   1      46.050  28.491  31.409  1.00  0.00     0.049 A 
ATOM     56  H   UNL A   1      44.054  28.586  30.728  1.00  0.00     0.167 HD
ATOM     57  C   UNL A   1      45.767  26.422  30.072  1.00  0.00     0.074 A 
ATOM     58  C   UNL A   1      46.256  25.193  29.483  1.00  0.00     0.031 C 
ATOM     59  C   UNL A   1      46.522  27.270  30.809  1.00  0.00     0.037 A 
BRANCH  46  60
ATOM     60  C   UNL A   1      43.523  32.308  32.743  1.00  0.00     0.064 A 
ATOM     61  C   UNL A   1      43.214  32.379  34.108  1.00  0.00     0.173 A 
ATOM     62  C   UNL A   1      43.931  33.485  32.097  1.00  0.00     0.173 A 
ATOM     63  F   UNL A   1      42.807  31.283  34.767  1.00  0.00    -0.203 F 
ATOM     64  C   UNL A   1      43.295  33.587  34.797  1.00  0.00     0.198 A 
ATOM     65  C   UNL A   1      44.032  34.686  32.794  1.00  0.00     0.198 A 
ATOM     66  F   UNL A   1      44.242  33.467  30.792  1.00  0.00    -0.203 F 
ATOM     67  F   UNL A   1      42.962  33.640  36.095  1.00  0.00    -0.200 F 
ATOM     68  C   UNL A   1      43.709  34.737  34.141  1.00  0.00     0.200 A 
ATOM     69  F   UNL A   1      44.442  35.794  32.161  1.00  0.00    -0.200 F 
ATOM     70  F   UNL A   1      43.792  35.897  34.808  1.00  0.00    -0.200 F 
ENDBRANCH  46  60
BRANCH  47  71
ATOM     71  C   UNL A   1      42.768  23.821  27.545  1.00  0.00     0.064 A 
ATOM     72  C   UNL A   1      42.329  22.625  28.124  1.00  0.00     0.173 A 
ATOM     73  C   UNL A   1      43.109  23.804  26.184  1.00  0.00     0.173 A 
ATOM     74  F   UNL A   1      42.019  22.587  29.429  1.00  0.00    -0.203 F 
ATOM     75  C   UNL A   1      42.245  21.452  27.375  1.00  0.00     0.198 A 
ATOM     76  C   UNL A   1      43.000  22.639  25.430  1.00  0.00     0.198 A 
ATOM     77  F   UNL A   1      43.539  24.925  25.585  1.00  0.00    -0.203 F 
ATOM     78  F   UNL A   1      41.859  20.312  27.962  1.00  0.00    -0.200 F 
ATOM     79  C   UNL A   1      42.573  21.463  26.027  1.00  0.00     0.200 A 
ATOM     80  F   UNL A   1      43.310  22.654  24.127  1.00  0.00    -0.200 F 
ATOM     81  F   UNL A   1      42.486  20.337  25.307  1.00  0.00    -0.200 F 
ENDBRANCH  47  71
BRANCH  59  82
ATOM     82  C   UNL A   1      47.956  26.891  31.029  1.00  0.00     0.064 A 
ATOM     83  C   UNL A   1      48.332  26.023  32.064  1.00  0.00     0.173 A 
ATOM     84  C   UNL A   1      48.960  27.373  30.175  1.00  0.00     0.173 A 
ATOM     85  F   UNL A   1      47.410  25.550  32.916  1.00  0.00    -0.203 F 
ATOM     86  C   UNL A   1      49.664  25.664  32.248  1.00  0.00     0.198 A 
ATOM     87  C   UNL A   1      50.289  26.993  30.348  1.00  0.00     0.198 A 
ATOM     88  F   UNL A   1      48.651  28.203  29.169  1.00  0.00    -0.203 F 
ATOM     89  F   UNL A   1      50.007  24.864  33.268  1.00  0.00    -0.200 F 
ATOM     90  C   UNL A   1      50.640  26.144  31.386  1.00  0.00     0.200 A 
ATOM     91  F   UNL A   1      51.229  27.451  29.511  1.00  0.00    -0.200 F 
ATOM     92  F   UNL A   1      51.922  25.794  31.563  1.00  0.00    -0.200 F 
ENDBRANCH  59  82
ENDBRANCH  33  34
ENDBRANCH  26  28
ENDBRANCH  25  26
ENDBRANCH  24  25
ENDBRANCH  23  24
ENDBRANCH   1  23
TORSDOF 16
ENDMDL
