MODEL 1
REMARK VINA RESULT:     -12.4      0.000      0.000
REMARK SMILES COc1ccc(C(=O)/C=C(\Nc2cccc(C(F)(F)F)c2)C(=O)OCCOC(=O)c2ccc(-c3c4nc(c(-c5c(F)c(F)c(F)c(F)c5F)c5ccc([nH]5)c(-c5c(F)c(F)c(F)c(F)c5F)c5nc(c(-c6c(F)c(F)c(F)c(F)c6F)c6ccc3[nH]6)C=C5)C=C4)cc2)cc1
REMARK SMILES IDX 25 1 24 2 22 3 23 4 10 5 9 6 7 7 8 8 6 9 3 10 4 11 94 12
REMARK SMILES IDX 5 13 93 14 2 15 1 16 11 17 12 19 13 20 21 21 14 22 16 23
REMARK SMILES IDX 15 24 17 25 18 26 19 27 20 28 26 29 27 30 28 31 29 32 30 33
REMARK SMILES IDX 31 34 92 35 32 36 91 37 33 38 34 39 35 40 85 41 36 42 90 43
REMARK SMILES IDX 84 44 86 45 37 46 89 47 83 48 82 49 38 51 70 52 50 53 69 54
REMARK SMILES IDX 51 55 54 56 68 57 87 58 52 59 53 60 67 62 88 63 55 64 39 65
REMARK SMILES IDX 40 66 48 67 41 68 42 69 46 70 49 71 43 72 44 73 47 74 45 75
REMARK SMILES IDX 71 76 72 77 80 78 73 79 74 80 78 81 81 82 75 83 76 84 79 85
REMARK SMILES IDX 77 86 56 87 57 88 65 89 58 90 59 91 63 92 66 93 60 94 61 95
REMARK SMILES IDX 64 96 62 97
REMARK H PARENT 11 18 86 50 54 61
REMARK Flexibility Score: inf
ROOT
ATOM      1  C   UNL A   1      31.796  28.278  26.813  1.00  0.00     0.275 C 
ENDROOT
BRANCH   1   2
ATOM      2  O   UNL A   1      31.794  27.376  25.687  1.00  0.00    -0.457 OA
BRANCH   2   3
ATOM      3  C   UNL A   1      31.155  26.191  25.862  1.00  0.00     0.355 C 
ATOM      4  O   UNL A   1      30.126  26.011  26.500  1.00  0.00    -0.244 OA
BRANCH   3   5
ATOM      5  C   UNL A   1      31.881  25.078  25.150  1.00  0.00     0.129 C 
ATOM      6  C   UNL A   1      32.898  25.552  24.406  1.00  0.00     0.086 C 
BRANCH   6   7
ATOM      7  C   UNL A   1      33.914  24.926  23.518  1.00  0.00     0.188 C 
ATOM      8  O   UNL A   1      33.785  25.023  22.300  1.00  0.00    -0.289 OA
BRANCH   7   9
ATOM      9  C   UNL A   1      35.030  24.144  24.060  1.00  0.00     0.022 A 
ATOM     10  C   UNL A   1      36.873  22.406  25.163  1.00  0.00     0.118 A 
ATOM     11  C   UNL A   1      36.418  22.181  23.866  1.00  0.00     0.047 A 
ATOM     12  C   UNL A   1      36.518  23.560  25.861  1.00  0.00     0.047 A 
ATOM     13  C   UNL A   1      35.485  23.053  23.312  1.00  0.00     0.016 A 
ATOM     14  C   UNL A   1      35.604  24.449  25.299  1.00  0.00     0.016 A 
BRANCH  10  15
ATOM     15  O   UNL A   1      37.690  21.477  25.745  1.00  0.00    -0.497 OA
ATOM     16  C   UNL A   1      38.921  22.103  26.126  1.00  0.00     0.278 C 
ENDBRANCH  10  15
ENDBRANCH   7   9
ENDBRANCH   6   7
BRANCH   5  17
ATOM     17  N   UNL A   1      31.433  23.774  25.279  1.00  0.00    -0.349 N 
ATOM     18  H   UNL A   1      30.464  23.628  25.169  1.00  0.00     0.167 HD
BRANCH  17  19
ATOM     19  C   UNL A   1      32.212  22.639  25.550  1.00  0.00     0.039 A 
ATOM     20  C   UNL A   1      32.948  22.595  26.741  1.00  0.00     0.026 A 
ATOM     21  C   UNL A   1      32.221  21.522  24.711  1.00  0.00     0.039 A 
ATOM     22  C   UNL A   1      33.666  21.456  27.099  1.00  0.00     0.003 A 
ATOM     23  C   UNL A   1      32.932  20.361  25.061  1.00  0.00     0.058 A 
ATOM     24  C   UNL A   1      33.658  20.343  26.261  1.00  0.00     0.013 A 
BRANCH  23  25
ATOM     25  C   UNL A   1      32.929  19.152  24.162  1.00  0.00     0.416 C 
ATOM     26  F   UNL A   1      32.159  18.143  24.651  1.00  0.00    -0.166 F 
ATOM     27  F   UNL A   1      32.444  19.427  22.918  1.00  0.00    -0.166 F 
ATOM     28  F   UNL A   1      34.168  18.622  23.964  1.00  0.00    -0.166 F 
ENDBRANCH  23  25
ENDBRANCH  17  19
ENDBRANCH   5  17
ENDBRANCH   3   5
ENDBRANCH   2   3
ENDBRANCH   1   2
BRANCH   1  29
ATOM     29  C   UNL A   1      31.772  29.733  26.354  1.00  0.00     0.275 C 
BRANCH  29  30
ATOM     30  O   UNL A   1      33.121  30.219  26.246  1.00  0.00    -0.458 OA
BRANCH  30  31
ATOM     31  C   UNL A   1      33.450  31.203  27.110  1.00  0.00     0.338 C 
ATOM     32  O   UNL A   1      32.754  32.116  27.515  1.00  0.00    -0.246 OA
BRANCH  31  33
ATOM     33  C   UNL A   1      34.799  30.944  27.621  1.00  0.00     0.060 A 
ATOM     34  C   UNL A   1      35.148  29.624  27.886  1.00  0.00     0.016 A 
ATOM     35  C   UNL A   1      35.652  31.985  27.976  1.00  0.00     0.016 A 
ATOM     36  C   UNL A   1      36.290  29.333  28.620  1.00  0.00     0.010 A 
ATOM     37  C   UNL A   1      36.859  31.684  28.617  1.00  0.00     0.010 A 
ATOM     38  C   UNL A   1      37.170  30.359  28.983  1.00  0.00    -0.014 A 
BRANCH  38  39
ATOM     39  C   UNL A   1      38.381  30.056  29.790  1.00  0.00     0.031 A 
ATOM     40  C   UNL A   1      39.456  29.172  29.218  1.00  0.00     0.074 A 
ATOM     41  C   UNL A   1      38.537  30.583  31.021  1.00  0.00     0.049 A 
ATOM     42  N   UNL A   1      40.468  28.601  29.818  1.00  0.00    -0.248 NA
ATOM     43  C   UNL A   1      39.371  28.879  27.778  1.00  0.00     0.031 C 
ATOM     44  C   UNL A   1      37.608  31.509  31.671  1.00  0.00     0.029 A 
ATOM     45  N   UNL A   1      39.538  30.415  31.945  1.00  0.00    -0.354 N 
ATOM     46  C   UNL A   1      41.104  27.838  28.846  1.00  0.00     0.074 A 
ATOM     47  C   UNL A   1      40.364  28.018  27.615  1.00  0.00     0.031 C 
ATOM     48  C   UNL A   1      38.094  31.848  32.874  1.00  0.00     0.029 A 
ATOM     49  C   UNL A   1      39.319  31.095  33.119  1.00  0.00     0.049 A 
ATOM     50  H   UNL A   1      40.335  29.861  31.784  1.00  0.00     0.167 HD
ATOM     51  C   UNL A   1      42.203  27.057  28.976  1.00  0.00     0.037 A 
ATOM     52  C   UNL A   1      40.000  31.077  34.280  1.00  0.00     0.037 A 
ATOM     53  C   UNL A   1      42.966  26.932  30.190  1.00  0.00     0.049 A 
ATOM     54  C   UNL A   1      41.205  30.189  34.405  1.00  0.00     0.074 A 
ATOM     55  C   UNL A   1      44.079  26.148  30.436  1.00  0.00     0.029 A 
ATOM     56  N   UNL A   1      42.706  27.637  31.356  1.00  0.00    -0.354 N 
ATOM     57  N   UNL A   1      41.741  29.393  33.512  1.00  0.00    -0.248 NA
ATOM     58  C   UNL A   1      41.889  30.179  35.705  1.00  0.00     0.031 C 
ATOM     59  C   UNL A   1      44.483  26.365  31.759  1.00  0.00     0.029 A 
ATOM     60  C   UNL A   1      43.642  27.309  32.324  1.00  0.00     0.049 A 
ATOM     61  H   UNL A   1      41.967  28.275  31.479  1.00  0.00     0.167 HD
ATOM     62  C   UNL A   1      42.827  28.796  34.136  1.00  0.00     0.074 A 
ATOM     63  C   UNL A   1      42.889  29.339  35.478  1.00  0.00     0.031 C 
ATOM     64  C   UNL A   1      43.689  27.871  33.648  1.00  0.00     0.037 A 
BRANCH  51  65
ATOM     65  C   UNL A   1      42.630  26.253  27.785  1.00  0.00     0.064 A 
ATOM     66  C   UNL A   1      43.568  26.735  26.862  1.00  0.00     0.173 A 
ATOM     67  C   UNL A   1      42.120  24.960  27.589  1.00  0.00     0.173 A 
ATOM     68  F   UNL A   1      44.073  27.971  26.996  1.00  0.00    -0.203 F 
ATOM     69  C   UNL A   1      43.968  25.959  25.776  1.00  0.00     0.198 A 
ATOM     70  C   UNL A   1      42.541  24.177  26.517  1.00  0.00     0.198 A 
ATOM     71  F   UNL A   1      41.223  24.449  28.445  1.00  0.00    -0.203 F 
ATOM     72  F   UNL A   1      44.838  26.453  24.885  1.00  0.00    -0.200 F 
ATOM     73  C   UNL A   1      43.461  24.679  25.609  1.00  0.00     0.200 A 
ATOM     74  F   UNL A   1      42.057  22.936  26.364  1.00  0.00    -0.200 F 
ATOM     75  F   UNL A   1      43.854  23.930  24.570  1.00  0.00    -0.200 F 
ENDBRANCH  51  65
BRANCH  52  76
ATOM     76  C   UNL A   1      39.520  31.882  35.435  1.00  0.00     0.064 A 
ATOM     77  C   UNL A   1      38.634  31.340  36.376  1.00  0.00     0.173 A 
ATOM     78  C   UNL A   1      39.934  33.210  35.617  1.00  0.00     0.173 A 
ATOM     79  F   UNL A   1      38.186  30.084  36.229  1.00  0.00    -0.203 F 
ATOM     80  C   UNL A   1      38.170  32.101  37.447  1.00  0.00     0.198 A 
ATOM     81  C   UNL A   1      39.495  33.959  36.706  1.00  0.00     0.198 A 
ATOM     82  F   UNL A   1      40.779  33.776  34.744  1.00  0.00    -0.203 F 
ATOM     83  F   UNL A   1      37.286  31.575  38.307  1.00  0.00    -0.200 F 
ATOM     84  C   UNL A   1      38.606  33.407  37.615  1.00  0.00     0.200 A 
ATOM     85  F   UNL A   1      39.930  35.215  36.871  1.00  0.00    -0.200 F 
ATOM     86  F   UNL A   1      38.163  34.135  38.649  1.00  0.00    -0.200 F 
ENDBRANCH  52  76
BRANCH  64  87
ATOM     87  C   UNL A   1      44.786  27.417  34.559  1.00  0.00     0.064 A 
ATOM     88  C   UNL A   1      44.633  26.292  35.383  1.00  0.00     0.173 A 
ATOM     89  C   UNL A   1      46.014  28.095  34.586  1.00  0.00     0.173 A 
ATOM     90  F   UNL A   1      43.472  25.622  35.402  1.00  0.00    -0.203 F 
ATOM     91  C   UNL A   1      45.666  25.874  36.217  1.00  0.00     0.198 A 
ATOM     92  C   UNL A   1      47.051  27.660  35.405  1.00  0.00     0.198 A 
ATOM     93  F   UNL A   1      46.207  29.174  33.813  1.00  0.00    -0.203 F 
ATOM     94  F   UNL A   1      45.487  24.822  37.026  1.00  0.00    -0.200 F 
ATOM     95  C   UNL A   1      46.875  26.555  36.224  1.00  0.00     0.200 A 
ATOM     96  F   UNL A   1      48.221  28.314  35.405  1.00  0.00    -0.200 F 
ATOM     97  F   UNL A   1      47.868  26.150  37.027  1.00  0.00    -0.200 F 
ENDBRANCH  64  87
ENDBRANCH  38  39
ENDBRANCH  31  33
ENDBRANCH  30  31
ENDBRANCH  29  30
ENDBRANCH   1  29
TORSDOF 17
ENDMDL
MODEL 2
REMARK VINA RESULT:     -12.4      0.263      1.648
REMARK SMILES COc1ccc(C(=O)/C=C(\Nc2cccc(C(F)(F)F)c2)C(=O)OCCOC(=O)c2ccc(-c3c4nc(c(-c5c(F)c(F)c(F)c(F)c5F)c5ccc([nH]5)c(-c5c(F)c(F)c(F)c(F)c5F)c5nc(c(-c6c(F)c(F)c(F)c(F)c6F)c6ccc3[nH]6)C=C5)C=C4)cc2)cc1
REMARK SMILES IDX 25 1 24 2 22 3 23 4 10 5 9 6 7 7 8 8 6 9 3 10 4 11 94 12
REMARK SMILES IDX 5 13 93 14 2 15 1 16 11 17 12 19 13 20 21 21 14 22 16 23
REMARK SMILES IDX 15 24 17 25 18 26 19 27 20 28 26 29 27 30 28 31 29 32 30 33
REMARK SMILES IDX 31 34 92 35 32 36 91 37 33 38 34 39 35 40 85 41 36 42 90 43
REMARK SMILES IDX 84 44 86 45 37 46 89 47 83 48 82 49 38 51 70 52 50 53 69 54
REMARK SMILES IDX 51 55 54 56 68 57 87 58 52 59 53 60 67 62 88 63 55 64 39 65
REMARK SMILES IDX 40 66 48 67 41 68 42 69 46 70 49 71 43 72 44 73 47 74 45 75
REMARK SMILES IDX 71 76 72 77 80 78 73 79 74 80 78 81 81 82 75 83 76 84 79 85
REMARK SMILES IDX 77 86 56 87 57 88 65 89 58 90 59 91 63 92 66 93 60 94 61 95
REMARK SMILES IDX 64 96 62 97
REMARK H PARENT 11 18 86 50 54 61
REMARK Flexibility Score: inf
ROOT
ATOM      1  C   UNL A   1      31.767  28.537  27.058  1.00  0.00     0.275 C 
ENDROOT
BRANCH   1   2
ATOM      2  O   UNL A   1      32.296  27.363  26.406  1.00  0.00    -0.457 OA
BRANCH   2   3
ATOM      3  C   UNL A   1      31.419  26.355  26.169  1.00  0.00     0.355 C 
ATOM      4  O   UNL A   1      30.242  26.328  26.500  1.00  0.00    -0.244 OA
BRANCH   3   5
ATOM      5  C   UNL A   1      32.083  25.230  25.417  1.00  0.00     0.129 C 
ATOM      6  C   UNL A   1      33.111  25.678  24.671  1.00  0.00     0.086 C 
BRANCH   6   7
ATOM      7  C   UNL A   1      34.084  25.031  23.750  1.00  0.00     0.188 C 
ATOM      8  O   UNL A   1      34.019  25.268  22.547  1.00  0.00    -0.289 OA
BRANCH   7   9
ATOM      9  C   UNL A   1      35.079  24.070  24.238  1.00  0.00     0.022 A 
ATOM     10  C   UNL A   1      37.212  22.520  25.063  1.00  0.00     0.118 A 
ATOM     11  C   UNL A   1      36.762  23.549  25.886  1.00  0.00     0.047 A 
ATOM     12  C   UNL A   1      36.526  22.175  23.898  1.00  0.00     0.047 A 
ATOM     13  C   UNL A   1      35.691  24.334  25.469  1.00  0.00     0.016 A 
ATOM     14  C   UNL A   1      35.437  22.943  23.491  1.00  0.00     0.016 A 
BRANCH  10  15
ATOM     15  O   UNL A   1      38.341  21.837  25.420  1.00  0.00    -0.497 OA
ATOM     16  C   UNL A   1      39.063  22.595  26.396  1.00  0.00     0.278 C 
ENDBRANCH  10  15
ENDBRANCH   7   9
ENDBRANCH   6   7
BRANCH   5  17
ATOM     17  N   UNL A   1      31.578  23.945  25.519  1.00  0.00    -0.349 N 
ATOM     18  H   UNL A   1      30.603  23.845  25.421  1.00  0.00     0.167 HD
BRANCH  17  19
ATOM     19  C   UNL A   1      32.310  22.768  25.745  1.00  0.00     0.039 A 
ATOM     20  C   UNL A   1      33.048  22.651  26.930  1.00  0.00     0.026 A 
ATOM     21  C   UNL A   1      32.267  21.682  24.868  1.00  0.00     0.039 A 
ATOM     22  C   UNL A   1      33.718  21.471  27.244  1.00  0.00     0.003 A 
ATOM     23  C   UNL A   1      32.929  20.480  25.174  1.00  0.00     0.058 A 
ATOM     24  C   UNL A   1      33.659  20.389  26.368  1.00  0.00     0.013 A 
BRANCH  23  25
ATOM     25  C   UNL A   1      32.869  19.305  24.234  1.00  0.00     0.416 C 
ATOM     26  F   UNL A   1      32.064  18.311  24.695  1.00  0.00    -0.166 F 
ATOM     27  F   UNL A   1      32.386  19.642  23.004  1.00  0.00    -0.166 F 
ATOM     28  F   UNL A   1      34.084  18.733  24.005  1.00  0.00    -0.166 F 
ENDBRANCH  23  25
ENDBRANCH  17  19
ENDBRANCH   5  17
ENDBRANCH   3   5
ENDBRANCH   2   3
ENDBRANCH   1   2
BRANCH   1  29
ATOM     29  C   UNL A   1      31.880  29.765  26.160  1.00  0.00     0.275 C 
BRANCH  29  30
ATOM     30  O   UNL A   1      33.237  30.238  26.171  1.00  0.00    -0.458 OA
BRANCH  30  31
ATOM     31  C   UNL A   1      33.512  31.178  27.101  1.00  0.00     0.338 C 
ATOM     32  O   UNL A   1      32.780  32.047  27.536  1.00  0.00    -0.246 OA
BRANCH  31  33
ATOM     33  C   UNL A   1      34.853  30.925  27.640  1.00  0.00     0.060 A 
ATOM     34  C   UNL A   1      35.192  29.609  27.936  1.00  0.00     0.016 A 
ATOM     35  C   UNL A   1      35.703  31.970  27.987  1.00  0.00     0.016 A 
ATOM     36  C   UNL A   1      36.321  29.330  28.694  1.00  0.00     0.010 A 
ATOM     37  C   UNL A   1      36.898  31.678  28.653  1.00  0.00     0.010 A 
ATOM     38  C   UNL A   1      37.199  30.360  29.051  1.00  0.00    -0.014 A 
BRANCH  38  39
ATOM     39  C   UNL A   1      38.396  30.068  29.884  1.00  0.00     0.031 A 
ATOM     40  C   UNL A   1      39.493  29.200  29.333  1.00  0.00     0.074 A 
ATOM     41  C   UNL A   1      38.518  30.594  31.119  1.00  0.00     0.049 A 
ATOM     42  N   UNL A   1      40.499  28.639  29.954  1.00  0.00    -0.248 NA
ATOM     43  C   UNL A   1      39.443  28.911  27.890  1.00  0.00     0.031 C 
ATOM     44  C   UNL A   1      37.564  31.506  31.751  1.00  0.00     0.029 A 
ATOM     45  N   UNL A   1      39.500  30.435  32.065  1.00  0.00    -0.354 N 
ATOM     46  C   UNL A   1      41.165  27.887  28.993  1.00  0.00     0.074 A 
ATOM     47  C   UNL A   1      40.451  28.062  27.747  1.00  0.00     0.031 C 
ATOM     48  C   UNL A   1      38.019  31.847  32.966  1.00  0.00     0.029 A 
ATOM     49  C   UNL A   1      39.247  31.109  33.235  1.00  0.00     0.049 A 
ATOM     50  H   UNL A   1      40.307  29.891  31.919  1.00  0.00     0.167 HD
ATOM     51  C   UNL A   1      42.271  27.119  29.145  1.00  0.00     0.037 A 
ATOM     52  C   UNL A   1      39.903  31.095  34.411  1.00  0.00     0.037 A 
ATOM     53  C   UNL A   1      43.009  26.999  30.375  1.00  0.00     0.049 A 
ATOM     54  C   UNL A   1      41.116  30.221  34.560  1.00  0.00     0.074 A 
ATOM     55  C   UNL A   1      44.126  26.228  30.643  1.00  0.00     0.029 A 
ATOM     56  N   UNL A   1      42.715  27.697  31.537  1.00  0.00    -0.354 N 
ATOM     57  N   UNL A   1      41.681  29.435  33.677  1.00  0.00    -0.248 NA
ATOM     58  C   UNL A   1      41.771  30.216  35.875  1.00  0.00     0.031 C 
ATOM     59  C   UNL A   1      44.497  26.446  31.975  1.00  0.00     0.029 A 
ATOM     60  C   UNL A   1      43.633  27.378  32.525  1.00  0.00     0.049 A 
ATOM     61  H   UNL A   1      41.965  28.326  31.645  1.00  0.00     0.167 HD
ATOM     62  C   UNL A   1      42.760  28.849  34.322  1.00  0.00     0.074 A 
ATOM     63  C   UNL A   1      42.786  29.388  35.667  1.00  0.00     0.031 C 
ATOM     64  C   UNL A   1      43.643  27.936  33.851  1.00  0.00     0.037 A 
BRANCH  51  65
ATOM     65  C   UNL A   1      42.734  26.324  27.961  1.00  0.00     0.064 A 
ATOM     66  C   UNL A   1      42.284  25.018  27.724  1.00  0.00     0.173 A 
ATOM     67  C   UNL A   1      43.609  26.898  27.027  1.00  0.00     0.173 A 
ATOM     68  F   UNL A   1      41.459  24.419  28.595  1.00  0.00    -0.203 F 
ATOM     69  C   UNL A   1      42.709  24.308  26.602  1.00  0.00     0.198 A 
ATOM     70  C   UNL A   1      44.012  26.195  25.894  1.00  0.00     0.198 A 
ATOM     71  F   UNL A   1      44.066  28.147  27.205  1.00  0.00    -0.203 F 
ATOM     72  F   UNL A   1      42.298  23.047  26.414  1.00  0.00    -0.200 F 
ATOM     73  C   UNL A   1      43.566  24.899  25.686  1.00  0.00     0.200 A 
ATOM     74  F   UNL A   1      44.831  26.773  25.004  1.00  0.00    -0.200 F 
ATOM     75  F   UNL A   1      43.965  24.218  24.603  1.00  0.00    -0.200 F 
ENDBRANCH  51  65
BRANCH  52  76
ATOM     76  C   UNL A   1      39.387  31.890  35.557  1.00  0.00     0.064 A 
ATOM     77  C   UNL A   1      39.812  33.208  35.772  1.00  0.00     0.173 A 
ATOM     78  C   UNL A   1      38.464  31.346  36.463  1.00  0.00     0.173 A 
ATOM     79  F   UNL A   1      40.716  33.763  34.950  1.00  0.00    -0.203 F 
ATOM     80  C   UNL A   1      39.342  33.947  36.856  1.00  0.00     0.198 A 
ATOM     81  C   UNL A   1      37.971  32.096  37.527  1.00  0.00     0.198 A 
ATOM     82  F   UNL A   1      38.027  30.089  36.303  1.00  0.00    -0.203 F 
ATOM     83  F   UNL A   1      39.800  35.189  37.066  1.00  0.00    -0.200 F 
ATOM     84  C   UNL A   1      38.417  33.393  37.729  1.00  0.00     0.200 A 
ATOM     85  F   UNL A   1      37.067  31.561  38.359  1.00  0.00    -0.200 F 
ATOM     86  F   UNL A   1      37.963  34.107  38.768  1.00  0.00    -0.200 F 
ENDBRANCH  52  76
BRANCH  64  87
ATOM     87  C   UNL A   1      44.726  27.493  34.785  1.00  0.00     0.064 A 
ATOM     88  C   UNL A   1      44.569  26.363  35.601  1.00  0.00     0.173 A 
ATOM     89  C   UNL A   1      45.944  28.186  34.841  1.00  0.00     0.173 A 
ATOM     90  F   UNL A   1      43.416  25.679  35.592  1.00  0.00    -0.203 F 
ATOM     91  C   UNL A   1      45.588  25.955  36.457  1.00  0.00     0.198 A 
ATOM     92  C   UNL A   1      46.969  27.761  35.682  1.00  0.00     0.198 A 
ATOM     93  F   UNL A   1      46.141  29.270  34.076  1.00  0.00    -0.203 F 
ATOM     94  F   UNL A   1      45.404  24.897  37.258  1.00  0.00    -0.200 F 
ATOM     95  C   UNL A   1      46.788  26.650  36.493  1.00  0.00     0.200 A 
ATOM     96  F   UNL A   1      48.130  28.430  35.710  1.00  0.00    -0.200 F 
ATOM     97  F   UNL A   1      47.769  26.255  37.316  1.00  0.00    -0.200 F 
ENDBRANCH  64  87
ENDBRANCH  38  39
ENDBRANCH  31  33
ENDBRANCH  30  31
ENDBRANCH  29  30
ENDBRANCH   1  29
TORSDOF 17
ENDMDL
MODEL 3
REMARK VINA RESULT:     -12.4      1.571      2.778
REMARK SMILES COc1ccc(C(=O)/C=C(\Nc2cccc(C(F)(F)F)c2)C(=O)OCCOC(=O)c2ccc(-c3c4nc(c(-c5c(F)c(F)c(F)c(F)c5F)c5ccc([nH]5)c(-c5c(F)c(F)c(F)c(F)c5F)c5nc(c(-c6c(F)c(F)c(F)c(F)c6F)c6ccc3[nH]6)C=C5)C=C4)cc2)cc1
REMARK SMILES IDX 25 1 24 2 22 3 23 4 10 5 9 6 7 7 8 8 6 9 3 10 4 11 94 12
REMARK SMILES IDX 5 13 93 14 2 15 1 16 11 17 12 19 13 20 21 21 14 22 16 23
REMARK SMILES IDX 15 24 17 25 18 26 19 27 20 28 26 29 27 30 28 31 29 32 30 33
REMARK SMILES IDX 31 34 92 35 32 36 91 37 33 38 34 39 35 40 85 41 36 42 90 43
REMARK SMILES IDX 84 44 86 45 37 46 89 47 83 48 82 49 38 51 70 52 50 53 69 54
REMARK SMILES IDX 51 55 54 56 68 57 87 58 52 59 53 60 67 62 88 63 55 64 39 65
REMARK SMILES IDX 40 66 48 67 41 68 42 69 46 70 49 71 43 72 44 73 47 74 45 75
REMARK SMILES IDX 71 76 72 77 80 78 73 79 74 80 78 81 81 82 75 83 76 84 79 85
REMARK SMILES IDX 77 86 56 87 57 88 65 89 58 90 59 91 63 92 66 93 60 94 61 95
REMARK SMILES IDX 64 96 62 97
REMARK H PARENT 11 18 86 50 54 61
REMARK Flexibility Score: inf
ROOT
ATOM      1  C   UNL A   1      31.464  28.927  25.366  1.00  0.00     0.275 C 
ENDROOT
BRANCH   1   2
ATOM      2  O   UNL A   1      31.989  27.943  26.282  1.00  0.00    -0.457 OA
BRANCH   2   3
ATOM      3  C   UNL A   1      33.108  27.284  25.886  1.00  0.00     0.355 C 
ATOM      4  O   UNL A   1      34.237  27.751  25.818  1.00  0.00    -0.244 OA
BRANCH   3   5
ATOM      5  C   UNL A   1      32.791  25.854  25.531  1.00  0.00     0.129 C 
ATOM      6  C   UNL A   1      32.023  25.272  26.472  1.00  0.00     0.086 C 
BRANCH   6   7
ATOM      7  C   UNL A   1      31.434  23.916  26.638  1.00  0.00     0.188 C 
ATOM      8  O   UNL A   1      30.340  23.801  27.185  1.00  0.00    -0.289 OA
BRANCH   7   9
ATOM      9  C   UNL A   1      32.158  22.709  26.222  1.00  0.00     0.022 A 
ATOM     10  C   UNL A   1      33.792  20.673  25.322  1.00  0.00     0.118 A 
ATOM     11  C   UNL A   1      34.068  21.273  26.548  1.00  0.00     0.047 A 
ATOM     12  C   UNL A   1      32.637  20.989  24.607  1.00  0.00     0.047 A 
ATOM     13  C   UNL A   1      33.248  22.304  27.000  1.00  0.00     0.016 A 
ATOM     14  C   UNL A   1      31.799  22.002  25.070  1.00  0.00     0.016 A 
BRANCH  10  15
ATOM     15  O   UNL A   1      34.673  19.752  24.826  1.00  0.00    -0.497 OA
ATOM     16  C   UNL A   1      33.980  18.525  24.570  1.00  0.00     0.278 C 
ENDBRANCH  10  15
ENDBRANCH   7   9
ENDBRANCH   6   7
BRANCH   5  17
ATOM     17  N   UNL A   1      33.324  25.299  24.379  1.00  0.00    -0.349 N 
ATOM     18  H   UNL A   1      32.867  25.514  23.533  1.00  0.00     0.167 HD
BRANCH  17  19
ATOM     19  C   UNL A   1      34.448  24.463  24.290  1.00  0.00     0.039 A 
ATOM     20  C   UNL A   1      34.592  23.646  23.161  1.00  0.00     0.026 A 
ATOM     21  C   UNL A   1      35.464  24.472  25.249  1.00  0.00     0.039 A 
ATOM     22  C   UNL A   1      35.732  22.865  22.982  1.00  0.00     0.003 A 
ATOM     23  C   UNL A   1      36.625  23.698  25.078  1.00  0.00     0.058 A 
ATOM     24  C   UNL A   1      36.745  22.891  23.937  1.00  0.00     0.013 A 
BRANCH  23  25
ATOM     25  C   UNL A   1      37.726  23.720  26.106  1.00  0.00     0.416 C 
ATOM     26  F   UNL A   1      37.287  24.125  27.329  1.00  0.00    -0.166 F 
ATOM     27  F   UNL A   1      38.290  22.494  26.296  1.00  0.00    -0.166 F 
ATOM     28  F   UNL A   1      38.755  24.550  25.779  1.00  0.00    -0.166 F 
ENDBRANCH  23  25
ENDBRANCH  17  19
ENDBRANCH   5  17
ENDBRANCH   3   5
ENDBRANCH   2   3
ENDBRANCH   1   2
BRANCH   1  29
ATOM     29  C   UNL A   1      31.514  30.326  25.970  1.00  0.00     0.275 C 
BRANCH  29  30
ATOM     30  O   UNL A   1      32.469  30.345  27.045  1.00  0.00    -0.458 OA
BRANCH  30  31
ATOM     31  C   UNL A   1      33.089  31.528  27.245  1.00  0.00     0.338 C 
ATOM     32  O   UNL A   1      32.624  32.649  27.156  1.00  0.00    -0.246 OA
BRANCH  31  33
ATOM     33  C   UNL A   1      34.448  31.267  27.730  1.00  0.00     0.060 A 
ATOM     34  C   UNL A   1      34.811  29.944  27.958  1.00  0.00     0.016 A 
ATOM     35  C   UNL A   1      35.298  32.306  28.097  1.00  0.00     0.016 A 
ATOM     36  C   UNL A   1      35.966  29.645  28.668  1.00  0.00     0.010 A 
ATOM     37  C   UNL A   1      36.516  31.999  28.713  1.00  0.00     0.010 A 
ATOM     38  C   UNL A   1      36.843  30.669  29.043  1.00  0.00    -0.014 A 
BRANCH  38  39
ATOM     39  C   UNL A   1      38.068  30.355  29.825  1.00  0.00     0.031 A 
ATOM     40  C   UNL A   1      39.133  29.480  29.223  1.00  0.00     0.074 A 
ATOM     41  C   UNL A   1      38.245  30.867  31.059  1.00  0.00     0.049 A 
ATOM     42  N   UNL A   1      40.156  28.901  29.798  1.00  0.00    -0.248 NA
ATOM     43  C   UNL A   1      39.022  29.205  27.781  1.00  0.00     0.031 C 
ATOM     44  C   UNL A   1      37.328  31.785  31.737  1.00  0.00     0.029 A 
ATOM     45  N   UNL A   1      39.262  30.688  31.964  1.00  0.00    -0.354 N 
ATOM     46  C   UNL A   1      40.774  28.151  28.805  1.00  0.00     0.074 A 
ATOM     47  C   UNL A   1      40.013  28.346  27.590  1.00  0.00     0.031 C 
ATOM     48  C   UNL A   1      37.835  32.109  32.936  1.00  0.00     0.029 A 
ATOM     49  C   UNL A   1      39.064  31.353  33.149  1.00  0.00     0.049 A 
ATOM     50  H   UNL A   1      40.056  30.137  31.781  1.00  0.00     0.167 HD
ATOM     51  C   UNL A   1      41.875  27.368  28.906  1.00  0.00     0.037 A 
ATOM     52  C   UNL A   1      39.765  31.320  34.298  1.00  0.00     0.037 A 
ATOM     53  C   UNL A   1      42.659  27.228  30.105  1.00  0.00     0.049 A 
ATOM     54  C   UNL A   1      40.973  30.431  34.391  1.00  0.00     0.074 A 
ATOM     55  C   UNL A   1      43.777  26.441  30.321  1.00  0.00     0.029 A 
ATOM     56  N   UNL A   1      42.420  27.918  31.284  1.00  0.00    -0.354 N 
ATOM     57  N   UNL A   1      41.493  29.647  33.479  1.00  0.00    -0.248 NA
ATOM     58  C   UNL A   1      41.679  30.405  35.679  1.00  0.00     0.031 C 
ATOM     59  C   UNL A   1      44.204  26.642  31.639  1.00  0.00     0.029 A 
ATOM     60  C   UNL A   1      43.373  27.578  32.231  1.00  0.00     0.049 A 
ATOM     61  H   UNL A   1      41.683  28.554  31.428  1.00  0.00     0.167 HD
ATOM     62  C   UNL A   1      42.590  29.042  34.075  1.00  0.00     0.074 A 
ATOM     63  C   UNL A   1      42.675  29.568  35.423  1.00  0.00     0.031 C 
ATOM     64  C   UNL A   1      43.442  28.124  33.561  1.00  0.00     0.037 A 
BRANCH  51  65
ATOM     65  C   UNL A   1      42.281  26.579  27.697  1.00  0.00     0.064 A 
ATOM     66  C   UNL A   1      43.291  27.018  26.830  1.00  0.00     0.173 A 
ATOM     67  C   UNL A   1      41.676  25.341  27.429  1.00  0.00     0.173 A 
ATOM     68  F   UNL A   1      43.888  28.202  27.034  1.00  0.00    -0.203 F 
ATOM     69  C   UNL A   1      43.668  26.255  25.727  1.00  0.00     0.198 A 
ATOM     70  C   UNL A   1      42.073  24.570  26.340  1.00  0.00     0.198 A 
ATOM     71  F   UNL A   1      40.707  24.873  28.231  1.00  0.00    -0.203 F 
ATOM     72  F   UNL A   1      44.609  26.711  24.889  1.00  0.00    -0.200 F 
ATOM     73  C   UNL A   1      43.065  25.029  25.488  1.00  0.00     0.200 A 
ATOM     74  F   UNL A   1      41.496  23.380  26.118  1.00  0.00    -0.200 F 
ATOM     75  F   UNL A   1      43.436  24.292  24.432  1.00  0.00    -0.200 F 
ENDBRANCH  51  65
BRANCH  52  76
ATOM     76  C   UNL A   1      39.305  32.111  35.471  1.00  0.00     0.064 A 
ATOM     77  C   UNL A   1      39.667  33.456  35.624  1.00  0.00     0.173 A 
ATOM     78  C   UNL A   1      38.498  31.535  36.464  1.00  0.00     0.173 A 
ATOM     79  F   UNL A   1      40.461  34.043  34.716  1.00  0.00    -0.203 F 
ATOM     80  C   UNL A   1      39.251  34.191  36.732  1.00  0.00     0.198 A 
ATOM     81  C   UNL A   1      38.056  32.280  37.554  1.00  0.00     0.198 A 
ATOM     82  F   UNL A   1      38.125  30.252  36.366  1.00  0.00    -0.203 F 
ATOM     83  F   UNL A   1      39.650  35.462  36.879  1.00  0.00    -0.200 F 
ATOM     84  C   UNL A   1      38.440  33.604  37.693  1.00  0.00     0.200 A 
ATOM     85  F   UNL A   1      37.261  31.713  38.473  1.00  0.00    -0.200 F 
ATOM     86  F   UNL A   1      38.036  34.314  38.755  1.00  0.00    -0.200 F 
ENDBRANCH  52  76
BRANCH  64  87
ATOM     87  C   UNL A   1      44.556  27.659  34.447  1.00  0.00     0.064 A 
ATOM     88  C   UNL A   1      44.416  26.525  35.262  1.00  0.00     0.173 A 
ATOM     89  C   UNL A   1      45.785  28.335  34.459  1.00  0.00     0.173 A 
ATOM     90  F   UNL A   1      43.254  25.857  35.295  1.00  0.00    -0.203 F 
ATOM     91  C   UNL A   1      45.464  26.098  36.072  1.00  0.00     0.198 A 
ATOM     92  C   UNL A   1      46.836  27.890  35.254  1.00  0.00     0.198 A 
ATOM     93  F   UNL A   1      45.966  29.422  33.693  1.00  0.00    -0.203 F 
ATOM     94  F   UNL A   1      45.297  25.037  36.873  1.00  0.00    -0.200 F 
ATOM     95  C   UNL A   1      46.673  26.776  36.064  1.00  0.00     0.200 A 
ATOM     96  F   UNL A   1      48.007  28.542  35.240  1.00  0.00    -0.200 F 
ATOM     97  F   UNL A   1      47.681  26.361  36.844  1.00  0.00    -0.200 F 
ENDBRANCH  64  87
ENDBRANCH  38  39
ENDBRANCH  31  33
ENDBRANCH  30  31
ENDBRANCH  29  30
ENDBRANCH   1  29
TORSDOF 17
ENDMDL
