MODEL 1
REMARK VINA RESULT:     -12.4      0.000      0.000
REMARK SMILES COc1ccc(C(=O)OCCOC(=O)c2ccc(-c3c4nc(c(-c5c(F)c(F)c(F)c(F)c5F)c5ccc([nH]5)c(-c5c(F)c(F)c(F)c(F)c5F)c5nc(c(-c6c(F)c(F)c(F)c(F)c6F)c6ccc3[nH]6)C=C5)C=C4)cc2)cc1NC(=O)c1cc([N+](=O)[O-])ccc1Cl
REMARK SMILES IDX 10 1 9 2 7 3 8 4 6 5 3 6 4 7 79 8 5 9 78 10 2 11 1 12 80 13
REMARK SMILES IDX 81 14 82 16 83 17 84 18 91 19 85 20 90 21 92 22 89 23 86 24
REMARK SMILES IDX 87 25 88 26 11 27 12 28 13 29 14 30 15 31 16 32 77 33 17 34
REMARK SMILES IDX 76 35 18 36 19 37 20 38 70 39 21 40 75 41 69 42 71 43 22 44
REMARK SMILES IDX 74 45 68 46 67 47 23 49 55 50 35 51 54 52 36 53 39 54 53 55
REMARK SMILES IDX 72 56 37 57 38 58 52 60 73 61 40 62 24 63 25 64 33 65 26 66
REMARK SMILES IDX 27 67 31 68 34 69 28 70 29 71 32 72 30 73 56 74 57 75 65 76
REMARK SMILES IDX 58 77 59 78 63 79 66 80 60 81 61 82 64 83 62 84 41 85 42 86
REMARK SMILES IDX 50 87 43 88 44 89 48 90 51 91 45 92 46 93 49 94 47 95
REMARK H PARENT 80 15 71 48 39 59
REMARK Flexibility Score: inf
ROOT
ATOM      1  C   UNL A   1      31.909  29.544  24.657  1.00  0.00     0.275 C 
ENDROOT
BRANCH   1   2
ATOM      2  O   UNL A   1      33.223  28.954  24.729  1.00  0.00    -0.458 OA
BRANCH   2   3
ATOM      3  C   UNL A   1      33.706  28.401  23.586  1.00  0.00     0.338 C 
ATOM      4  O   UNL A   1      34.402  28.954  22.756  1.00  0.00    -0.246 OA
BRANCH   3   5
ATOM      5  C   UNL A   1      33.283  26.978  23.462  1.00  0.00     0.062 A 
ATOM      6  C   UNL A   1      32.149  24.440  23.365  1.00  0.00     0.142 A 
ATOM      7  C   UNL A   1      32.238  25.194  22.197  1.00  0.00     0.049 A 
ATOM      8  C   UNL A   1      32.602  24.960  24.589  1.00  0.00     0.084 A 
ATOM      9  C   UNL A   1      32.719  26.502  22.271  1.00  0.00     0.019 A 
ATOM     10  C   UNL A   1      33.315  26.151  24.583  1.00  0.00     0.045 A 
BRANCH   6  11
ATOM     11  O   UNL A   1      31.622  23.177  23.300  1.00  0.00    -0.495 OA
ATOM     12  C   UNL A   1      32.345  22.345  22.392  1.00  0.00     0.278 C 
ENDBRANCH   6  11
BRANCH   8  13
ATOM     13  N   UNL A   1      32.183  24.321  25.773  1.00  0.00    -0.319 N 
ATOM     14  C   UNL A   1      32.715  23.267  26.486  1.00  0.00     0.257 C 
ATOM     15  H   UNL A   1      31.361  24.696  26.162  1.00  0.00     0.170 HD
ATOM     16  O   UNL A   1      32.229  22.949  27.571  1.00  0.00    -0.269 OA
BRANCH  14  17
ATOM     17  C   UNL A   1      33.833  22.443  25.985  1.00  0.00     0.065 A 
ATOM     18  C   UNL A   1      35.104  23.028  26.092  1.00  0.00     0.101 A 
ATOM     19  C   UNL A   1      33.694  21.151  25.456  1.00  0.00     0.054 A 
ATOM     20  C   UNL A   1      36.237  22.284  25.747  1.00  0.00     0.270 A 
ATOM     21  C   UNL A   1      34.840  20.397  25.162  1.00  0.00     0.028 A 
ATOM     22  Cl  UNL A   1      32.157  20.412  25.181  1.00  0.00    -0.083 Cl
ATOM     23  C   UNL A   1      36.114  20.957  25.317  1.00  0.00     0.087 A 
BRANCH  20  24
ATOM     24  N   UNL A   1      37.567  22.900  25.846  1.00  0.00     0.062 N 
ATOM     25  O   UNL A   1      37.627  24.077  26.229  1.00  0.00    -0.258 OA
ATOM     26  O   UNL A   1      38.543  22.205  25.539  1.00  0.00    -0.258 OA
ENDBRANCH  20  24
ENDBRANCH  14  17
ENDBRANCH   8  13
ENDBRANCH   3   5
ENDBRANCH   2   3
ENDBRANCH   1   2
BRANCH   1  27
ATOM     27  C   UNL A   1      31.646  30.456  25.856  1.00  0.00     0.275 C 
BRANCH  27  28
ATOM     28  O   UNL A   1      32.688  30.311  26.837  1.00  0.00    -0.458 OA
BRANCH  28  29
ATOM     29  C   UNL A   1      33.276  31.468  27.213  1.00  0.00     0.338 C 
ATOM     30  O   UNL A   1      32.768  32.576  27.286  1.00  0.00    -0.246 OA
BRANCH  29  31
ATOM     31  C   UNL A   1      34.630  31.195  27.701  1.00  0.00     0.060 A 
ATOM     32  C   UNL A   1      34.934  29.879  28.023  1.00  0.00     0.016 A 
ATOM     33  C   UNL A   1      35.526  32.214  28.001  1.00  0.00     0.016 A 
ATOM     34  C   UNL A   1      36.079  29.564  28.733  1.00  0.00     0.010 A 
ATOM     35  C   UNL A   1      36.733  31.888  28.631  1.00  0.00     0.010 A 
ATOM     36  C   UNL A   1      37.003  30.563  29.034  1.00  0.00    -0.014 A 
BRANCH  36  37
ATOM     37  C   UNL A   1      38.214  30.219  29.821  1.00  0.00     0.031 A 
ATOM     38  C   UNL A   1      39.251  29.307  29.232  1.00  0.00     0.074 A 
ATOM     39  C   UNL A   1      38.399  30.745  31.047  1.00  0.00     0.049 A 
ATOM     40  N   UNL A   1      40.278  28.734  29.806  1.00  0.00    -0.248 NA
ATOM     41  C   UNL A   1      39.098  28.978  27.807  1.00  0.00     0.031 C 
ATOM     42  C   UNL A   1      37.499  31.695  31.705  1.00  0.00     0.029 A 
ATOM     43  N   UNL A   1      39.405  30.555  31.960  1.00  0.00    -0.354 N 
ATOM     44  C   UNL A   1      40.853  27.928  28.833  1.00  0.00     0.074 A 
ATOM     45  C   UNL A   1      40.053  28.076  27.635  1.00  0.00     0.031 C 
ATOM     46  C   UNL A   1      38.000  32.017  32.905  1.00  0.00     0.029 A 
ATOM     47  C   UNL A   1      39.199  31.222  33.143  1.00  0.00     0.049 A 
ATOM     48  H   UNL A   1      40.196  29.996  31.786  1.00  0.00     0.167 HD
ATOM     49  C   UNL A   1      41.944  27.132  28.939  1.00  0.00     0.037 A 
ATOM     50  C   UNL A   1      39.861  31.156  34.312  1.00  0.00     0.037 A 
ATOM     51  C   UNL A   1      42.750  27.033  30.129  1.00  0.00     0.049 A 
ATOM     52  C   UNL A   1      41.044  30.239  34.424  1.00  0.00     0.074 A 
ATOM     53  C   UNL A   1      43.895  26.285  30.338  1.00  0.00     0.029 A 
ATOM     54  N   UNL A   1      42.493  27.709  31.316  1.00  0.00    -0.354 N 
ATOM     55  N   UNL A   1      41.563  29.446  33.516  1.00  0.00    -0.248 NA
ATOM     56  C   UNL A   1      41.726  30.195  35.722  1.00  0.00     0.031 C 
ATOM     57  C   UNL A   1      44.295  26.460  31.668  1.00  0.00     0.029 A 
ATOM     58  C   UNL A   1      43.441  27.372  32.270  1.00  0.00     0.049 A 
ATOM     59  H   UNL A   1      41.748  28.336  31.458  1.00  0.00     0.167 HD
ATOM     60  C   UNL A   1      42.638  28.818  34.127  1.00  0.00     0.074 A 
ATOM     61  C   UNL A   1      42.709  29.339  35.478  1.00  0.00     0.031 C 
ATOM     62  C   UNL A   1      43.488  27.893  33.615  1.00  0.00     0.037 A 
BRANCH  49  63
ATOM     63  C   UNL A   1      42.283  26.266  27.758  1.00  0.00     0.064 A 
ATOM     64  C   UNL A   1      41.656  25.032  27.522  1.00  0.00     0.173 A 
ATOM     65  C   UNL A   1      43.274  26.675  26.850  1.00  0.00     0.173 A 
ATOM     66  F   UNL A   1      40.711  24.583  28.363  1.00  0.00    -0.203 F 
ATOM     67  C   UNL A   1      42.046  24.219  26.459  1.00  0.00     0.198 A 
ATOM     68  C   UNL A   1      43.633  25.878  25.766  1.00  0.00     0.198 A 
ATOM     69  F   UNL A   1      43.902  27.848  27.018  1.00  0.00    -0.203 F 
ATOM     70  F   UNL A   1      41.489  23.011  26.303  1.00  0.00    -0.200 F 
ATOM     71  C   UNL A   1      43.031  24.643  25.581  1.00  0.00     0.200 A 
ATOM     72  F   UNL A   1      44.575  26.299  24.911  1.00  0.00    -0.200 F 
ATOM     73  F   UNL A   1      43.409  23.858  24.563  1.00  0.00    -0.200 F 
ENDBRANCH  49  63
BRANCH  50  74
ATOM     74  C   UNL A   1      39.369  31.947  35.469  1.00  0.00     0.064 A 
ATOM     75  C   UNL A   1      39.709  33.297  35.623  1.00  0.00     0.173 A 
ATOM     76  C   UNL A   1      38.498  31.382  36.414  1.00  0.00     0.173 A 
ATOM     77  F   UNL A   1      40.555  33.877  34.758  1.00  0.00    -0.203 F 
ATOM     78  C   UNL A   1      39.192  34.053  36.673  1.00  0.00     0.198 A 
ATOM     79  C   UNL A   1      37.956  32.147  37.445  1.00  0.00     0.198 A 
ATOM     80  F   UNL A   1      38.137  30.094  36.310  1.00  0.00    -0.203 F 
ATOM     81  F   UNL A   1      39.551  35.337  36.811  1.00  0.00    -0.200 F 
ATOM     82  C   UNL A   1      38.306  33.481  37.575  1.00  0.00     0.200 A 
ATOM     83  F   UNL A   1      37.083  31.595  38.298  1.00  0.00    -0.200 F 
ATOM     84  F   UNL A   1      37.789  34.217  38.568  1.00  0.00    -0.200 F 
ENDBRANCH  50  74
BRANCH  62  85
ATOM     85  C   UNL A   1      44.587  27.407  34.515  1.00  0.00     0.064 A 
ATOM     86  C   UNL A   1      44.442  26.255  35.302  1.00  0.00     0.173 A 
ATOM     87  C   UNL A   1      45.813  28.087  34.566  1.00  0.00     0.173 A 
ATOM     88  F   UNL A   1      43.283  25.579  35.303  1.00  0.00    -0.203 F 
ATOM     89  C   UNL A   1      45.474  25.819  36.129  1.00  0.00     0.198 A 
ATOM     90  C   UNL A   1      46.854  27.628  35.367  1.00  0.00     0.198 A 
ATOM     91  F   UNL A   1      46.006  29.192  33.830  1.00  0.00    -0.203 F 
ATOM     92  F   UNL A   1      45.294  24.747  36.912  1.00  0.00    -0.200 F 
ATOM     93  C   UNL A   1      46.682  26.500  36.154  1.00  0.00     0.200 A 
ATOM     94  F   UNL A   1      48.025  28.281  35.379  1.00  0.00    -0.200 F 
ATOM     95  F   UNL A   1      47.676  26.075  36.944  1.00  0.00    -0.200 F 
ENDBRANCH  62  85
ENDBRANCH  36  37
ENDBRANCH  29  31
ENDBRANCH  28  29
ENDBRANCH  27  28
ENDBRANCH   1  27
TORSDOF 15
ENDMDL
MODEL 2
REMARK VINA RESULT:     -12.3      1.259      2.187
REMARK SMILES COc1ccc(C(=O)OCCOC(=O)c2ccc(-c3c4nc(c(-c5c(F)c(F)c(F)c(F)c5F)c5ccc([nH]5)c(-c5c(F)c(F)c(F)c(F)c5F)c5nc(c(-c6c(F)c(F)c(F)c(F)c6F)c6ccc3[nH]6)C=C5)C=C4)cc2)cc1NC(=O)c1cc([N+](=O)[O-])ccc1Cl
REMARK SMILES IDX 10 1 9 2 7 3 8 4 6 5 3 6 4 7 79 8 5 9 78 10 2 11 1 12 80 13
REMARK SMILES IDX 81 14 82 16 83 17 84 18 91 19 85 20 90 21 92 22 89 23 86 24
REMARK SMILES IDX 87 25 88 26 11 27 12 28 13 29 14 30 15 31 16 32 77 33 17 34
REMARK SMILES IDX 76 35 18 36 19 37 20 38 70 39 21 40 75 41 69 42 71 43 22 44
REMARK SMILES IDX 74 45 68 46 67 47 23 49 55 50 35 51 54 52 36 53 39 54 53 55
REMARK SMILES IDX 72 56 37 57 38 58 52 60 73 61 40 62 24 63 25 64 33 65 26 66
REMARK SMILES IDX 27 67 31 68 34 69 28 70 29 71 32 72 30 73 56 74 57 75 65 76
REMARK SMILES IDX 58 77 59 78 63 79 66 80 60 81 61 82 64 83 62 84 41 85 42 86
REMARK SMILES IDX 50 87 43 88 44 89 48 90 51 91 45 92 46 93 49 94 47 95
REMARK H PARENT 80 15 71 48 39 59
REMARK Flexibility Score: inf
ROOT
ATOM      1  C   UNL A   1      31.952  29.032  25.181  1.00  0.00     0.275 C 
ENDROOT
BRANCH   1   2
ATOM      2  O   UNL A   1      33.327  28.610  25.079  1.00  0.00    -0.458 OA
BRANCH   2   3
ATOM      3  C   UNL A   1      33.701  28.026  23.911  1.00  0.00     0.338 C 
ATOM      4  O   UNL A   1      34.336  28.547  23.014  1.00  0.00    -0.246 OA
BRANCH   3   5
ATOM      5  C   UNL A   1      33.238  26.610  23.851  1.00  0.00     0.062 A 
ATOM      6  C   UNL A   1      32.046  24.098  23.903  1.00  0.00     0.142 A 
ATOM      7  C   UNL A   1      32.042  24.832  22.719  1.00  0.00     0.049 A 
ATOM      8  C   UNL A   1      32.622  24.625  25.070  1.00  0.00     0.084 A 
ATOM      9  C   UNL A   1      32.555  26.130  22.725  1.00  0.00     0.019 A 
ATOM     10  C   UNL A   1      33.357  25.800  24.977  1.00  0.00     0.045 A 
BRANCH   6  11
ATOM     11  O   UNL A   1      31.489  22.847  23.908  1.00  0.00    -0.495 OA
ATOM     12  C   UNL A   1      31.989  22.036  22.843  1.00  0.00     0.278 C 
ENDBRANCH   6  11
BRANCH   8  13
ATOM     13  N   UNL A   1      32.303  24.014  26.298  1.00  0.00    -0.319 N 
ATOM     14  C   UNL A   1      32.783  22.875  26.911  1.00  0.00     0.257 C 
ATOM     15  H   UNL A   1      31.609  24.486  26.813  1.00  0.00     0.170 HD
ATOM     16  O   UNL A   1      32.427  22.594  28.055  1.00  0.00    -0.269 OA
BRANCH  14  17
ATOM     17  C   UNL A   1      33.685  21.922  26.236  1.00  0.00     0.065 A 
ATOM     18  C   UNL A   1      33.109  20.687  25.901  1.00  0.00     0.101 A 
ATOM     19  C   UNL A   1      35.022  22.189  25.905  1.00  0.00     0.054 A 
ATOM     20  C   UNL A   1      33.848  19.759  25.161  1.00  0.00     0.270 A 
ATOM     21  C   UNL A   1      35.736  21.271  25.120  1.00  0.00     0.028 A 
ATOM     22  Cl  UNL A   1      35.836  23.633  26.390  1.00  0.00    -0.083 Cl
ATOM     23  C   UNL A   1      35.149  20.060  24.737  1.00  0.00     0.087 A 
BRANCH  20  24
ATOM     24  N   UNL A   1      33.251  18.460  24.820  1.00  0.00     0.062 N 
ATOM     25  O   UNL A   1      32.237  18.115  25.443  1.00  0.00    -0.258 OA
ATOM     26  O   UNL A   1      33.799  17.793  23.934  1.00  0.00    -0.258 OA
ENDBRANCH  20  24
ENDBRANCH  14  17
ENDBRANCH   8  13
ENDBRANCH   3   5
ENDBRANCH   2   3
ENDBRANCH   1   2
BRANCH   1  27
ATOM     27  C   UNL A   1      31.849  30.445  25.755  1.00  0.00     0.275 C 
BRANCH  27  28
ATOM     28  O   UNL A   1      32.509  30.520  27.031  1.00  0.00    -0.458 OA
BRANCH  28  29
ATOM     29  C   UNL A   1      33.164  31.679  27.261  1.00  0.00     0.338 C 
ATOM     30  O   UNL A   1      32.713  32.813  27.224  1.00  0.00    -0.246 OA
BRANCH  29  31
ATOM     31  C   UNL A   1      34.518  31.391  27.741  1.00  0.00     0.060 A 
ATOM     32  C   UNL A   1      34.782  30.090  28.149  1.00  0.00     0.016 A 
ATOM     33  C   UNL A   1      35.456  32.395  27.951  1.00  0.00     0.016 A 
ATOM     34  C   UNL A   1      35.931  29.783  28.857  1.00  0.00     0.010 A 
ATOM     35  C   UNL A   1      36.664  32.069  28.579  1.00  0.00     0.010 A 
ATOM     36  C   UNL A   1      36.896  30.767  29.069  1.00  0.00    -0.014 A 
BRANCH  36  37
ATOM     37  C   UNL A   1      38.111  30.434  29.855  1.00  0.00     0.031 A 
ATOM     38  C   UNL A   1      39.163  29.545  29.258  1.00  0.00     0.074 A 
ATOM     39  C   UNL A   1      38.285  30.950  31.087  1.00  0.00     0.049 A 
ATOM     40  N   UNL A   1      40.199  28.984  29.828  1.00  0.00    -0.248 NA
ATOM     41  C   UNL A   1      39.019  29.230  27.829  1.00  0.00     0.031 C 
ATOM     42  C   UNL A   1      37.369  31.877  31.753  1.00  0.00     0.029 A 
ATOM     43  N   UNL A   1      39.293  30.766  32.000  1.00  0.00    -0.354 N 
ATOM     44  C   UNL A   1      40.788  28.197  28.847  1.00  0.00     0.074 A 
ATOM     45  C   UNL A   1      39.989  28.346  27.649  1.00  0.00     0.031 C 
ATOM     46  C   UNL A   1      37.862  32.194  32.957  1.00  0.00     0.029 A 
ATOM     47  C   UNL A   1      39.073  31.417  33.189  1.00  0.00     0.049 A 
ATOM     48  H   UNL A   1      40.093  30.222  31.821  1.00  0.00     0.167 HD
ATOM     49  C   UNL A   1      41.893  27.419  28.946  1.00  0.00     0.037 A 
ATOM     50  C   UNL A   1      39.735  31.348  34.359  1.00  0.00     0.037 A 
ATOM     51  C   UNL A   1      42.698  27.319  30.137  1.00  0.00     0.049 A 
ATOM     52  C   UNL A   1      40.932  30.450  34.463  1.00  0.00     0.074 A 
ATOM     53  C   UNL A   1      43.855  26.589  30.340  1.00  0.00     0.029 A 
ATOM     54  N   UNL A   1      42.428  27.978  31.330  1.00  0.00    -0.354 N 
ATOM     55  N   UNL A   1      41.465  29.676  33.548  1.00  0.00    -0.248 NA
ATOM     56  C   UNL A   1      41.612  30.404  35.762  1.00  0.00     0.031 C 
ATOM     57  C   UNL A   1      44.250  26.756  31.672  1.00  0.00     0.029 A 
ATOM     58  C   UNL A   1      43.380  27.646  32.283  1.00  0.00     0.049 A 
ATOM     59  H   UNL A   1      41.673  28.591  31.478  1.00  0.00     0.167 HD
ATOM     60  C   UNL A   1      42.549  29.059  34.153  1.00  0.00     0.074 A 
ATOM     61  C   UNL A   1      42.609  29.566  35.511  1.00  0.00     0.031 C 
ATOM     62  C   UNL A   1      43.415  28.154  33.633  1.00  0.00     0.037 A 
BRANCH  49  63
ATOM     63  C   UNL A   1      42.248  26.571  27.756  1.00  0.00     0.064 A 
ATOM     64  C   UNL A   1      41.690  25.301  27.541  1.00  0.00     0.173 A 
ATOM     65  C   UNL A   1      43.185  27.036  26.819  1.00  0.00     0.173 A 
ATOM     66  F   UNL A   1      40.799  24.799  28.410  1.00  0.00    -0.203 F 
ATOM     67  C   UNL A   1      42.096  24.509  26.468  1.00  0.00     0.198 A 
ATOM     68  C   UNL A   1      43.559  26.259  25.726  1.00  0.00     0.198 A 
ATOM     69  F   UNL A   1      43.746  28.245  26.968  1.00  0.00    -0.203 F 
ATOM     70  F   UNL A   1      41.608  23.270  26.330  1.00  0.00    -0.200 F 
ATOM     71  C   UNL A   1      43.027  24.990  25.560  1.00  0.00     0.200 A 
ATOM     72  F   UNL A   1      44.448  26.733  24.842  1.00  0.00    -0.200 F 
ATOM     73  F   UNL A   1      43.422  24.226  24.532  1.00  0.00    -0.200 F 
ENDBRANCH  49  63
BRANCH  50  74
ATOM     74  C   UNL A   1      39.228  32.119  35.524  1.00  0.00     0.064 A 
ATOM     75  C   UNL A   1      38.405  31.522  36.487  1.00  0.00     0.173 A 
ATOM     76  C   UNL A   1      39.608  33.456  35.727  1.00  0.00     0.173 A 
ATOM     77  F   UNL A   1      37.998  30.254  36.326  1.00  0.00    -0.203 F 
ATOM     78  C   UNL A   1      37.986  32.230  37.612  1.00  0.00     0.198 A 
ATOM     79  C   UNL A   1      39.215  34.151  36.868  1.00  0.00     0.198 A 
ATOM     80  F   UNL A   1      40.399  34.072  34.837  1.00  0.00    -0.203 F 
ATOM     81  F   UNL A   1      37.180  31.643  38.508  1.00  0.00    -0.200 F 
ATOM     82  C   UNL A   1      38.402  33.539  37.808  1.00  0.00     0.200 A 
ATOM     83  F   UNL A   1      39.640  35.407  37.064  1.00  0.00    -0.200 F 
ATOM     84  F   UNL A   1      38.020  34.208  38.905  1.00  0.00    -0.200 F 
ENDBRANCH  50  74
BRANCH  62  85
ATOM     85  C   UNL A   1      44.521  27.676  34.530  1.00  0.00     0.064 A 
ATOM     86  C   UNL A   1      45.734  28.372  34.642  1.00  0.00     0.173 A 
ATOM     87  C   UNL A   1      44.351  26.522  35.310  1.00  0.00     0.173 A 
ATOM     88  F   UNL A   1      45.953  29.471  33.904  1.00  0.00    -0.203 F 
ATOM     89  C   UNL A   1      46.746  27.914  35.481  1.00  0.00     0.198 A 
ATOM     90  C   UNL A   1      45.352  26.087  36.173  1.00  0.00     0.198 A 
ATOM     91  F   UNL A   1      43.209  25.822  35.244  1.00  0.00    -0.203 F 
ATOM     92  F   UNL A   1      47.916  28.564  35.532  1.00  0.00    -0.200 F 
ATOM     93  C   UNL A   1      46.551  26.777  36.252  1.00  0.00     0.200 A 
ATOM     94  F   UNL A   1      45.156  24.997  36.928  1.00  0.00    -0.200 F 
ATOM     95  F   UNL A   1      47.524  26.342  37.065  1.00  0.00    -0.200 F 
ENDBRANCH  62  85
ENDBRANCH  36  37
ENDBRANCH  29  31
ENDBRANCH  28  29
ENDBRANCH  27  28
ENDBRANCH   1  27
TORSDOF 15
ENDMDL
MODEL 3
REMARK VINA RESULT:     -12.3      4.293      9.564
REMARK SMILES COc1ccc(C(=O)OCCOC(=O)c2ccc(-c3c4nc(c(-c5c(F)c(F)c(F)c(F)c5F)c5ccc([nH]5)c(-c5c(F)c(F)c(F)c(F)c5F)c5nc(c(-c6c(F)c(F)c(F)c(F)c6F)c6ccc3[nH]6)C=C5)C=C4)cc2)cc1NC(=O)c1cc([N+](=O)[O-])ccc1Cl
REMARK SMILES IDX 10 1 9 2 7 3 8 4 6 5 3 6 4 7 79 8 5 9 78 10 2 11 1 12 80 13
REMARK SMILES IDX 81 14 82 16 83 17 84 18 91 19 85 20 90 21 92 22 89 23 86 24
REMARK SMILES IDX 87 25 88 26 11 27 12 28 13 29 14 30 15 31 16 32 77 33 17 34
REMARK SMILES IDX 76 35 18 36 19 37 20 38 70 39 21 40 75 41 69 42 71 43 22 44
REMARK SMILES IDX 74 45 68 46 67 47 23 49 55 50 35 51 54 52 36 53 39 54 53 55
REMARK SMILES IDX 72 56 37 57 38 58 52 60 73 61 40 62 24 63 25 64 33 65 26 66
REMARK SMILES IDX 27 67 31 68 34 69 28 70 29 71 32 72 30 73 56 74 57 75 65 76
REMARK SMILES IDX 58 77 59 78 63 79 66 80 60 81 61 82 64 83 62 84 41 85 42 86
REMARK SMILES IDX 50 87 43 88 44 89 48 90 51 91 45 92 46 93 49 94 47 95
REMARK H PARENT 80 15 71 48 39 59
REMARK Flexibility Score: inf
ROOT
ATOM      1  C   UNL A   1      35.418  21.610  24.591  1.00  0.00     0.275 C 
ENDROOT
BRANCH   1   2
ATOM      2  O   UNL A   1      35.575  23.031  24.407  1.00  0.00    -0.458 OA
BRANCH   2   3
ATOM      3  C   UNL A   1      34.530  23.692  23.845  1.00  0.00     0.338 C 
ATOM      4  O   UNL A   1      34.530  24.261  22.770  1.00  0.00    -0.246 OA
BRANCH   3   5
ATOM      5  C   UNL A   1      33.326  23.629  24.722  1.00  0.00     0.062 A 
ATOM      6  C   UNL A   1      30.954  23.821  26.160  1.00  0.00     0.142 A 
ATOM      7  C   UNL A   1      31.054  22.891  25.128  1.00  0.00     0.049 A 
ATOM      8  C   UNL A   1      32.027  24.675  26.461  1.00  0.00     0.084 A 
ATOM      9  C   UNL A   1      32.211  22.867  24.349  1.00  0.00     0.019 A 
ATOM     10  C   UNL A   1      33.252  24.446  25.847  1.00  0.00     0.045 A 
BRANCH   6  11
ATOM     11  O   UNL A   1      29.794  23.882  26.886  1.00  0.00    -0.495 OA
ATOM     12  C   UNL A   1      29.325  22.584  27.252  1.00  0.00     0.278 C 
ENDBRANCH   6  11
BRANCH   8  13
ATOM     13  N   UNL A   1      31.767  25.808  27.258  1.00  0.00    -0.319 N 
ATOM     14  C   UNL A   1      31.749  27.155  26.963  1.00  0.00     0.257 C 
ATOM     15  H   UNL A   1      31.560  25.598  28.197  1.00  0.00     0.170 HD
ATOM     16  O   UNL A   1      31.380  27.966  27.811  1.00  0.00    -0.269 OA
BRANCH  14  17
ATOM     17  C   UNL A   1      32.209  27.699  25.670  1.00  0.00     0.065 A 
ATOM     18  C   UNL A   1      31.361  27.453  24.580  1.00  0.00     0.101 A 
ATOM     19  C   UNL A   1      33.388  28.439  25.493  1.00  0.00     0.054 A 
ATOM     20  C   UNL A   1      31.652  28.021  23.336  1.00  0.00     0.270 A 
ATOM     21  C   UNL A   1      33.643  29.045  24.253  1.00  0.00     0.028 A 
ATOM     22  Cl  UNL A   1      34.541  28.680  26.755  1.00  0.00    -0.083 Cl
ATOM     23  C   UNL A   1      32.772  28.847  23.176  1.00  0.00     0.087 A 
BRANCH  20  24
ATOM     24  N   UNL A   1      30.772  27.753  22.191  1.00  0.00     0.062 N 
ATOM     25  O   UNL A   1      29.827  28.532  22.000  1.00  0.00    -0.258 OA
ATOM     26  O   UNL A   1      31.028  26.766  21.491  1.00  0.00    -0.258 OA
ENDBRANCH  20  24
ENDBRANCH  14  17
ENDBRANCH   8  13
ENDBRANCH   3   5
ENDBRANCH   2   3
ENDBRANCH   1   2
BRANCH   1  27
ATOM     27  C   UNL A   1      36.722  20.965  25.062  1.00  0.00     0.275 C 
BRANCH  27  28
ATOM     28  O   UNL A   1      37.757  21.958  25.186  1.00  0.00    -0.458 OA
BRANCH  28  29
ATOM     29  C   UNL A   1      38.811  21.582  25.944  1.00  0.00     0.338 C 
ATOM     30  O   UNL A   1      39.336  20.482  26.005  1.00  0.00    -0.246 OA
BRANCH  29  31
ATOM     31  C   UNL A   1      39.383  22.758  26.606  1.00  0.00     0.060 A 
ATOM     32  C   UNL A   1      38.965  24.004  26.156  1.00  0.00     0.016 A 
ATOM     33  C   UNL A   1      40.425  22.658  27.519  1.00  0.00     0.016 A 
ATOM     34  C   UNL A   1      39.633  25.158  26.525  1.00  0.00     0.010 A 
ATOM     35  C   UNL A   1      41.040  23.831  27.974  1.00  0.00     0.010 A 
ATOM     36  C   UNL A   1      40.672  25.089  27.453  1.00  0.00    -0.014 A 
BRANCH  36  37
ATOM     37  C   UNL A   1      41.401  26.329  27.820  1.00  0.00     0.031 A 
ATOM     38  C   UNL A   1      40.692  27.410  28.585  1.00  0.00     0.074 A 
ATOM     39  C   UNL A   1      42.700  26.474  27.497  1.00  0.00     0.049 A 
ATOM     40  N   UNL A   1      41.076  28.634  28.843  1.00  0.00    -0.248 NA
ATOM     41  C   UNL A   1      39.362  27.073  29.113  1.00  0.00     0.031 C 
ATOM     42  C   UNL A   1      43.519  25.471  26.813  1.00  0.00     0.029 A 
ATOM     43  N   UNL A   1      43.561  27.523  27.699  1.00  0.00    -0.354 N 
ATOM     44  C   UNL A   1      40.010  29.232  29.502  1.00  0.00     0.074 A 
ATOM     45  C   UNL A   1      38.961  28.240  29.595  1.00  0.00     0.031 C 
ATOM     46  C   UNL A   1      44.764  25.943  26.668  1.00  0.00     0.029 A 
ATOM     47  C   UNL A   1      44.805  27.317  27.155  1.00  0.00     0.049 A 
ATOM     48  H   UNL A   1      43.312  28.342  28.185  1.00  0.00     0.167 HD
ATOM     49  C   UNL A   1      39.921  30.497  29.978  1.00  0.00     0.037 A 
ATOM     50  C   UNL A   1      45.844  28.158  27.004  1.00  0.00     0.037 A 
ATOM     51  C   UNL A   1      40.995  31.455  29.913  1.00  0.00     0.049 A 
ATOM     52  C   UNL A   1      45.713  29.568  27.501  1.00  0.00     0.074 A 
ATOM     53  C   UNL A   1      41.027  32.752  30.392  1.00  0.00     0.029 A 
ATOM     54  N   UNL A   1      42.234  31.214  29.331  1.00  0.00    -0.354 N 
ATOM     55  N   UNL A   1      44.692  30.145  28.088  1.00  0.00    -0.248 NA
ATOM     56  C   UNL A   1      46.870  30.448  27.305  1.00  0.00     0.031 C 
ATOM     57  C   UNL A   1      42.261  33.316  30.046  1.00  0.00     0.029 A 
ATOM     58  C   UNL A   1      43.026  32.349  29.413  1.00  0.00     0.049 A 
ATOM     59  H   UNL A   1      42.510  30.362  28.923  1.00  0.00     0.167 HD
ATOM     60  C   UNL A   1      45.083  31.451  28.342  1.00  0.00     0.074 A 
ATOM     61  C   UNL A   1      46.447  31.574  27.863  1.00  0.00     0.031 C 
ATOM     62  C   UNL A   1      44.379  32.455  28.919  1.00  0.00     0.037 A 
BRANCH  49  63
ATOM     63  C   UNL A   1      38.598  30.927  30.548  1.00  0.00     0.064 A 
ATOM     64  C   UNL A   1      38.338  30.937  31.927  1.00  0.00     0.173 A 
ATOM     65  C   UNL A   1      37.559  31.321  29.688  1.00  0.00     0.173 A 
ATOM     66  F   UNL A   1      39.287  30.559  32.796  1.00  0.00    -0.203 F 
ATOM     67  C   UNL A   1      37.076  31.270  32.418  1.00  0.00     0.198 A 
ATOM     68  C   UNL A   1      36.313  31.692  30.185  1.00  0.00     0.198 A 
ATOM     69  F   UNL A   1      37.751  31.340  28.360  1.00  0.00    -0.203 F 
ATOM     70  F   UNL A   1      36.830  31.195  33.733  1.00  0.00    -0.200 F 
ATOM     71  C   UNL A   1      36.067  31.651  31.548  1.00  0.00     0.200 A 
ATOM     72  F   UNL A   1      35.344  32.073  29.341  1.00  0.00    -0.200 F 
ATOM     73  F   UNL A   1      34.853  31.965  32.020  1.00  0.00    -0.200 F 
ENDBRANCH  49  63
BRANCH  50  74
ATOM     74  C   UNL A   1      47.065  27.683  26.303  1.00  0.00     0.064 A 
ATOM     75  C   UNL A   1      48.147  27.147  27.012  1.00  0.00     0.173 A 
ATOM     76  C   UNL A   1      47.147  27.702  24.901  1.00  0.00     0.173 A 
ATOM     77  F   UNL A   1      48.125  27.126  28.353  1.00  0.00    -0.203 F 
ATOM     78  C   UNL A   1      49.263  26.641  26.346  1.00  0.00     0.198 A 
ATOM     79  C   UNL A   1      48.248  27.167  24.236  1.00  0.00     0.198 A 
ATOM     80  F   UNL A   1      46.136  28.200  24.175  1.00  0.00    -0.203 F 
ATOM     81  F   UNL A   1      50.294  26.155  27.048  1.00  0.00    -0.200 F 
ATOM     82  C   UNL A   1      49.306  26.640  24.960  1.00  0.00     0.200 A 
ATOM     83  F   UNL A   1      48.274  27.146  22.897  1.00  0.00    -0.200 F 
ATOM     84  F   UNL A   1      50.368  26.129  24.321  1.00  0.00    -0.200 F 
ENDBRANCH  50  74
BRANCH  62  85
ATOM     85  C   UNL A   1      45.083  33.771  29.089  1.00  0.00     0.064 A 
ATOM     86  C   UNL A   1      45.002  34.782  28.120  1.00  0.00     0.173 A 
ATOM     87  C   UNL A   1      45.824  34.032  30.251  1.00  0.00     0.173 A 
ATOM     88  F   UNL A   1      44.321  34.575  26.982  1.00  0.00    -0.203 F 
ATOM     89  C   UNL A   1      45.660  35.996  28.297  1.00  0.00     0.198 A 
ATOM     90  C   UNL A   1      46.452  35.260  30.440  1.00  0.00     0.198 A 
ATOM     91  F   UNL A   1      45.930  33.101  31.210  1.00  0.00    -0.203 F 
ATOM     92  F   UNL A   1      45.614  36.928  27.336  1.00  0.00    -0.200 F 
ATOM     93  C   UNL A   1      46.377  36.237  29.460  1.00  0.00     0.200 A 
ATOM     94  F   UNL A   1      47.132  35.495  31.570  1.00  0.00    -0.200 F 
ATOM     95  F   UNL A   1      47.004  37.409  29.632  1.00  0.00    -0.200 F 
ENDBRANCH  62  85
ENDBRANCH  36  37
ENDBRANCH  29  31
ENDBRANCH  28  29
ENDBRANCH  27  28
ENDBRANCH   1  27
TORSDOF 15
ENDMDL
