MODEL 1
REMARK VINA RESULT:     -13.7      0.000      0.000
REMARK SMILES COc1ccc([C@H]2CC(c3ccc(S(C)(=O)=O)cc3)=NN2c2ccc(C(=O)OCCOC(=O)c3ccc(-c4c5nc(c(-c6c(F)c(F)c(F)c(F)c6F)c6ccc([nH]6)c(-c6c(F)c(F)c(F)c(F)c6F)c6nc(c(-c7c(F)c(F)c(F)c(F)c7F)c7ccc4[nH]7)C=C6)C=C5)cc3)cc2)cc1
REMARK SMILES IDX 29 1 28 2 26 3 27 4 25 5 22 6 23 7 98 8 24 9 97 10 21 11
REMARK SMILES IDX 7 12 8 13 9 14 20 15 6 16 3 17 4 18 100 19 5 20 99 21 2 22
REMARK SMILES IDX 1 23 10 24 11 25 19 26 12 27 18 28 13 29 14 30 15 31 16 32
REMARK SMILES IDX 17 33 30 34 31 35 32 36 33 37 34 38 35 39 96 40 36 41 95 42
REMARK SMILES IDX 37 43 38 44 39 45 89 46 40 47 94 48 88 49 90 50 41 51 93 52
REMARK SMILES IDX 87 53 86 54 42 56 74 57 54 58 73 59 55 60 58 61 72 62 91 63
REMARK SMILES IDX 56 64 57 65 71 67 92 68 59 69 43 70 44 71 52 72 45 73 46 74
REMARK SMILES IDX 50 75 53 76 47 77 48 78 51 79 49 80 75 81 76 82 84 83 77 84
REMARK SMILES IDX 78 85 82 86 85 87 79 88 80 89 83 90 81 91 60 92 61 93 69 94
REMARK SMILES IDX 62 95 63 96 67 97 70 98 64 99 65 100 68 101 66 102
REMARK H PARENT 90 55 58 66
REMARK Flexibility Score: inf
ROOT
ATOM      1  C   UNL A   1      32.544  31.916  27.058  1.00  0.00     0.275 C 
ENDROOT
BRANCH   1   2
ATOM      2  O   UNL A   1      33.427  31.280  28.007  1.00  0.00    -0.458 OA
BRANCH   2   3
ATOM      3  C   UNL A   1      34.301  30.391  27.477  1.00  0.00     0.338 C 
ATOM      4  O   UNL A   1      35.497  30.565  27.295  1.00  0.00    -0.246 OA
BRANCH   3   5
ATOM      5  C   UNL A   1      33.643  29.100  27.197  1.00  0.00     0.060 A 
ATOM      6  C   UNL A   1      32.368  26.727  26.369  1.00  0.00     0.060 A 
ATOM      7  C   UNL A   1      33.688  26.992  26.005  1.00  0.00     0.029 A 
ATOM      8  C   UNL A   1      31.710  27.651  27.197  1.00  0.00     0.029 A 
ATOM      9  C   UNL A   1      34.302  28.181  26.377  1.00  0.00     0.018 A 
ATOM     10  C   UNL A   1      32.348  28.823  27.633  1.00  0.00     0.018 A 
BRANCH   6  11
ATOM     11  N   UNL A   1      31.740  25.593  25.873  1.00  0.00    -0.257 N 
ATOM     12  C   UNL A   1      30.400  25.596  25.286  1.00  0.00     0.144 C 
ATOM     13  C   UNL A   1      30.285  24.177  24.709  1.00  0.00     0.091 C 
ATOM     14  C   UNL A   1      31.668  23.661  24.989  1.00  0.00     0.071 C 
ATOM     15  N   UNL A   1      32.460  24.467  25.618  1.00  0.00    -0.176 NA
BRANCH  12  16
ATOM     16  C   UNL A   1      30.210  26.683  24.234  1.00  0.00    -0.023 A 
ATOM     17  C   UNL A   1      29.944  28.734  22.306  1.00  0.00     0.118 A 
ATOM     18  C   UNL A   1      31.155  28.063  22.462  1.00  0.00     0.047 A 
ATOM     19  C   UNL A   1      28.848  28.351  23.076  1.00  0.00     0.047 A 
ATOM     20  C   UNL A   1      31.292  27.054  23.420  1.00  0.00     0.010 A 
ATOM     21  C   UNL A   1      28.977  27.327  24.026  1.00  0.00     0.010 A 
BRANCH  17  22
ATOM     22  O   UNL A   1      29.937  29.708  21.345  1.00  0.00    -0.497 OA
ATOM     23  C   UNL A   1      28.782  30.539  21.317  1.00  0.00     0.278 C 
ENDBRANCH  17  22
ENDBRANCH  12  16
BRANCH  14  24
ATOM     24  C   UNL A   1      32.048  22.286  24.640  1.00  0.00    -0.002 A 
ATOM     25  C   UNL A   1      32.403  21.418  25.680  1.00  0.00     0.011 A 
ATOM     26  C   UNL A   1      32.021  21.844  23.316  1.00  0.00     0.011 A 
ATOM     27  C   UNL A   1      32.695  20.084  25.399  1.00  0.00     0.021 A 
ATOM     28  C   UNL A   1      32.342  20.514  23.029  1.00  0.00     0.021 A 
ATOM     29  C   UNL A   1      32.667  19.641  24.073  1.00  0.00     0.067 A 
BRANCH  29  30
ATOM     30  S   UNL A   1      32.986  17.924  23.729  1.00  0.00     0.175 S 
ATOM     31  C   UNL A   1      34.713  17.715  24.069  1.00  0.00     0.163 C 
ATOM     32  O   UNL A   1      32.230  17.161  24.705  1.00  0.00    -0.224 OA
ATOM     33  O   UNL A   1      32.790  17.720  22.307  1.00  0.00    -0.224 OA
ENDBRANCH  29  30
ENDBRANCH  14  24
ENDBRANCH   6  11
ENDBRANCH   3   5
ENDBRANCH   2   3
ENDBRANCH   1   2
BRANCH   1  34
ATOM     34  C   UNL A   1      32.572  33.439  27.191  1.00  0.00     0.275 C 
BRANCH  34  35
ATOM     35  O   UNL A   1      32.348  33.830  28.558  1.00  0.00    -0.458 OA
BRANCH  35  36
ATOM     36  C   UNL A   1      32.957  34.974  28.942  1.00  0.00     0.338 C 
ATOM     37  O   UNL A   1      32.584  36.119  28.751  1.00  0.00    -0.246 OA
BRANCH  36  38
ATOM     38  C   UNL A   1      34.184  34.670  29.695  1.00  0.00     0.060 A 
ATOM     39  C   UNL A   1      35.390  34.582  29.013  1.00  0.00     0.016 A 
ATOM     40  C   UNL A   1      34.114  34.282  31.030  1.00  0.00     0.016 A 
ATOM     41  C   UNL A   1      36.483  33.951  29.598  1.00  0.00     0.010 A 
ATOM     42  C   UNL A   1      35.261  33.790  31.668  1.00  0.00     0.010 A 
ATOM     43  C   UNL A   1      36.447  33.563  30.945  1.00  0.00    -0.014 A 
BRANCH  43  44
ATOM     44  C   UNL A   1      37.629  32.903  31.581  1.00  0.00     0.031 A 
ATOM     45  C   UNL A   1      38.358  31.789  30.873  1.00  0.00     0.074 A 
ATOM     46  C   UNL A   1      38.068  33.304  32.793  1.00  0.00     0.049 A 
ATOM     47  N   UNL A   1      39.273  30.969  31.330  1.00  0.00    -0.248 NA
ATOM     48  C   UNL A   1      38.000  31.555  29.465  1.00  0.00     0.031 C 
ATOM     49  C   UNL A   1      37.506  34.401  33.581  1.00  0.00     0.029 A 
ATOM     50  N   UNL A   1      39.103  32.842  33.571  1.00  0.00    -0.354 N 
ATOM     51  C   UNL A   1      39.547  30.084  30.293  1.00  0.00     0.074 A 
ATOM     52  C   UNL A   1      38.697  30.463  29.184  1.00  0.00     0.031 C 
ATOM     53  C   UNL A   1      38.234  34.567  34.694  1.00  0.00     0.029 A 
ATOM     54  C   UNL A   1      39.243  33.519  34.758  1.00  0.00     0.049 A 
ATOM     55  H   UNL A   1      39.688  32.097  33.303  1.00  0.00     0.167 HD
ATOM     56  C   UNL A   1      40.425  29.051  30.269  1.00  0.00     0.037 A 
ATOM     57  C   UNL A   1      40.056  33.299  35.808  1.00  0.00     0.037 A 
ATOM     58  C   UNL A   1      41.313  28.714  31.354  1.00  0.00     0.049 A 
ATOM     59  C   UNL A   1      40.987  32.121  35.780  1.00  0.00     0.074 A 
ATOM     60  C   UNL A   1      42.252  27.698  31.420  1.00  0.00     0.029 A 
ATOM     61  N   UNL A   1      41.382  29.398  32.559  1.00  0.00    -0.354 N 
ATOM     62  N   UNL A   1      41.190  31.251  34.822  1.00  0.00    -0.248 NA
ATOM     63  C   UNL A   1      41.780  31.880  36.992  1.00  0.00     0.031 C 
ATOM     64  C   UNL A   1      42.860  27.743  32.680  1.00  0.00     0.029 A 
ATOM     65  C   UNL A   1      42.336  28.816  33.380  1.00  0.00     0.049 A 
ATOM     66  H   UNL A   1      40.835  30.181  32.796  1.00  0.00     0.167 HD
ATOM     67  C   UNL A   1      42.142  30.367  35.308  1.00  0.00     0.074 A 
ATOM     68  C   UNL A   1      42.491  30.818  36.639  1.00  0.00     0.031 C 
ATOM     69  C   UNL A   1      42.675  29.276  34.704  1.00  0.00     0.037 A 
BRANCH  56  70
ATOM     70  C   UNL A   1      40.440  28.181  29.042  1.00  0.00     0.064 A 
ATOM     71  C   UNL A   1      41.219  28.488  27.917  1.00  0.00     0.173 A 
ATOM     72  C   UNL A   1      39.666  27.009  29.000  1.00  0.00     0.173 A 
ATOM     73  F   UNL A   1      41.972  29.598  27.898  1.00  0.00    -0.203 F 
ATOM     74  C   UNL A   1      41.194  27.677  26.783  1.00  0.00     0.198 A 
ATOM     75  C   UNL A   1      39.668  26.185  27.877  1.00  0.00     0.198 A 
ATOM     76  F   UNL A   1      38.910  26.660  30.052  1.00  0.00    -0.203 F 
ATOM     77  F   UNL A   1      41.902  28.023  25.699  1.00  0.00    -0.200 F 
ATOM     78  C   UNL A   1      40.421  26.525  26.766  1.00  0.00     0.200 A 
ATOM     79  F   UNL A   1      38.933  25.063  27.871  1.00  0.00    -0.200 F 
ATOM     80  F   UNL A   1      40.399  25.747  25.674  1.00  0.00    -0.200 F 
ENDBRANCH  56  70
BRANCH  57  81
ATOM     81  C   UNL A   1      39.996  34.202  36.987  1.00  0.00     0.064 A 
ATOM     82  C   UNL A   1      40.796  35.351  37.052  1.00  0.00     0.173 A 
ATOM     83  C   UNL A   1      39.120  33.955  38.055  1.00  0.00     0.173 A 
ATOM     84  F   UNL A   1      41.668  35.616  36.068  1.00  0.00    -0.203 F 
ATOM     85  C   UNL A   1      40.720  36.219  38.139  1.00  0.00     0.198 A 
ATOM     86  C   UNL A   1      39.023  34.839  39.126  1.00  0.00     0.198 A 
ATOM     87  F   UNL A   1      38.335  32.867  38.043  1.00  0.00    -0.203 F 
ATOM     88  F   UNL A   1      41.518  37.294  38.191  1.00  0.00    -0.200 F 
ATOM     89  C   UNL A   1      39.826  35.969  39.169  1.00  0.00     0.200 A 
ATOM     90  F   UNL A   1      38.145  34.603  40.110  1.00  0.00    -0.200 F 
ATOM     91  F   UNL A   1      39.741  36.814  40.205  1.00  0.00    -0.200 F 
ENDBRANCH  57  81
BRANCH  69  92
ATOM     92  C   UNL A   1      43.719  28.516  35.468  1.00  0.00     0.064 A 
ATOM     93  C   UNL A   1      45.086  28.785  35.314  1.00  0.00     0.173 A 
ATOM     94  C   UNL A   1      43.343  27.519  36.380  1.00  0.00     0.173 A 
ATOM     95  F   UNL A   1      45.497  29.716  34.438  1.00  0.00    -0.203 F 
ATOM     96  C   UNL A   1      46.042  28.065  36.026  1.00  0.00     0.198 A 
ATOM     97  C   UNL A   1      44.299  26.821  37.113  1.00  0.00     0.198 A 
ATOM     98  F   UNL A   1      42.048  27.225  36.567  1.00  0.00    -0.203 F 
ATOM     99  F   UNL A   1      47.345  28.305  35.827  1.00  0.00    -0.200 F 
ATOM    100  C   UNL A   1      45.647  27.089  36.930  1.00  0.00     0.200 A 
ATOM    101  F   UNL A   1      43.916  25.885  37.991  1.00  0.00    -0.200 F 
ATOM    102  F   UNL A   1      46.567  26.400  37.617  1.00  0.00    -0.200 F 
ENDBRANCH  69  92
ENDBRANCH  43  44
ENDBRANCH  36  38
ENDBRANCH  35  36
ENDBRANCH  34  35
ENDBRANCH   1  34
TORSDOF 16
ENDMDL
MODEL 2
REMARK VINA RESULT:     -13.6      4.574      8.666
REMARK SMILES COc1ccc([C@H]2CC(c3ccc(S(C)(=O)=O)cc3)=NN2c2ccc(C(=O)OCCOC(=O)c3ccc(-c4c5nc(c(-c6c(F)c(F)c(F)c(F)c6F)c6ccc([nH]6)c(-c6c(F)c(F)c(F)c(F)c6F)c6nc(c(-c7c(F)c(F)c(F)c(F)c7F)c7ccc4[nH]7)C=C6)C=C5)cc3)cc2)cc1
REMARK SMILES IDX 29 1 28 2 26 3 27 4 25 5 22 6 23 7 98 8 24 9 97 10 21 11
REMARK SMILES IDX 7 12 8 13 9 14 20 15 6 16 3 17 4 18 100 19 5 20 99 21 2 22
REMARK SMILES IDX 1 23 10 24 11 25 19 26 12 27 18 28 13 29 14 30 15 31 16 32
REMARK SMILES IDX 17 33 30 34 31 35 32 36 33 37 34 38 35 39 96 40 36 41 95 42
REMARK SMILES IDX 37 43 38 44 39 45 89 46 40 47 94 48 88 49 90 50 41 51 93 52
REMARK SMILES IDX 87 53 86 54 42 56 74 57 54 58 73 59 55 60 58 61 72 62 91 63
REMARK SMILES IDX 56 64 57 65 71 67 92 68 59 69 43 70 44 71 52 72 45 73 46 74
REMARK SMILES IDX 50 75 53 76 47 77 48 78 51 79 49 80 75 81 76 82 84 83 77 84
REMARK SMILES IDX 78 85 82 86 85 87 79 88 80 89 83 90 81 91 60 92 61 93 69 94
REMARK SMILES IDX 62 95 63 96 67 97 70 98 64 99 65 100 68 101 66 102
REMARK H PARENT 90 55 58 66
REMARK Flexibility Score: inf
ROOT
ATOM      1  C   UNL A   1      34.152  33.020  28.218  1.00  0.00     0.275 C 
ENDROOT
BRANCH   1   2
ATOM      2  O   UNL A   1      33.565  31.727  27.960  1.00  0.00    -0.458 OA
BRANCH   2   3
ATOM      3  C   UNL A   1      34.430  30.776  27.533  1.00  0.00     0.338 C 
ATOM      4  O   UNL A   1      35.644  30.884  27.436  1.00  0.00    -0.246 OA
BRANCH   3   5
ATOM      5  C   UNL A   1      33.729  29.506  27.254  1.00  0.00     0.060 A 
ATOM      6  C   UNL A   1      32.394  27.167  26.426  1.00  0.00     0.060 A 
ATOM      7  C   UNL A   1      33.742  27.363  26.126  1.00  0.00     0.029 A 
ATOM      8  C   UNL A   1      31.735  28.144  27.190  1.00  0.00     0.029 A 
ATOM      9  C   UNL A   1      34.389  28.535  26.498  1.00  0.00     0.018 A 
ATOM     10  C   UNL A   1      32.402  29.300  27.626  1.00  0.00     0.018 A 
BRANCH   6  11
ATOM     11  N   UNL A   1      31.743  26.048  25.928  1.00  0.00    -0.257 N 
ATOM     12  C   UNL A   1      30.419  26.086  25.304  1.00  0.00     0.144 C 
ATOM     13  C   UNL A   1      30.273  24.663  24.744  1.00  0.00     0.091 C 
ATOM     14  C   UNL A   1      31.630  24.106  25.069  1.00  0.00     0.071 C 
ATOM     15  N   UNL A   1      32.432  24.895  25.709  1.00  0.00    -0.176 NA
BRANCH  12  16
ATOM     16  C   UNL A   1      30.294  27.163  24.232  1.00  0.00    -0.023 A 
ATOM     17  C   UNL A   1      29.985  29.114  22.210  1.00  0.00     0.118 A 
ATOM     18  C   UNL A   1      28.874  28.609  22.881  1.00  0.00     0.047 A 
ATOM     19  C   UNL A   1      31.258  28.684  22.579  1.00  0.00     0.047 A 
ATOM     20  C   UNL A   1      29.022  27.638  23.876  1.00  0.00     0.010 A 
ATOM     21  C   UNL A   1      31.411  27.723  23.590  1.00  0.00     0.010 A 
BRANCH  17  22
ATOM     22  O   UNL A   1      29.711  30.050  21.251  1.00  0.00    -0.497 OA
ATOM     23  C   UNL A   1      28.431  30.666  21.337  1.00  0.00     0.278 C 
ENDBRANCH  17  22
ENDBRANCH  12  16
BRANCH  14  24
ATOM     24  C   UNL A   1      31.974  22.714  24.750  1.00  0.00    -0.002 A 
ATOM     25  C   UNL A   1      32.372  21.878  25.799  1.00  0.00     0.011 A 
ATOM     26  C   UNL A   1      31.872  22.227  23.446  1.00  0.00     0.011 A 
ATOM     27  C   UNL A   1      32.632  20.531  25.551  1.00  0.00     0.021 A 
ATOM     28  C   UNL A   1      32.160  20.883  23.190  1.00  0.00     0.021 A 
ATOM     29  C   UNL A   1      32.528  20.042  24.246  1.00  0.00     0.067 A 
BRANCH  29  30
ATOM     30  S   UNL A   1      32.807  18.310  23.947  1.00  0.00     0.175 S 
ATOM     31  C   UNL A   1      34.538  18.079  24.251  1.00  0.00     0.163 C 
ATOM     32  O   UNL A   1      32.061  17.591  24.963  1.00  0.00    -0.224 OA
ATOM     33  O   UNL A   1      32.572  18.068  22.536  1.00  0.00    -0.224 OA
ENDBRANCH  29  30
ENDBRANCH  14  24
ENDBRANCH   6  11
ENDBRANCH   3   5
ENDBRANCH   2   3
ENDBRANCH   1   2
BRANCH   1  34
ATOM     34  C   UNL A   1      34.203  33.331  29.714  1.00  0.00     0.275 C 
BRANCH  34  35
ATOM     35  O   UNL A   1      34.537  32.149  30.464  1.00  0.00    -0.458 OA
BRANCH  35  36
ATOM     36  C   UNL A   1      35.316  32.350  31.551  1.00  0.00     0.338 C 
ATOM     37  O   UNL A   1      34.967  32.702  32.665  1.00  0.00    -0.246 OA
BRANCH  36  38
ATOM     38  C   UNL A   1      36.721  32.048  31.234  1.00  0.00     0.060 A 
ATOM     39  C   UNL A   1      37.260  32.517  30.044  1.00  0.00     0.016 A 
ATOM     40  C   UNL A   1      37.440  31.144  32.012  1.00  0.00     0.016 A 
ATOM     41  C   UNL A   1      38.432  31.963  29.539  1.00  0.00     0.010 A 
ATOM     42  C   UNL A   1      38.698  30.705  31.576  1.00  0.00     0.010 A 
ATOM     43  C   UNL A   1      39.186  31.063  30.306  1.00  0.00    -0.014 A 
BRANCH  43  44
ATOM     44  C   UNL A   1      40.457  30.483  29.772  1.00  0.00     0.031 A 
ATOM     45  C   UNL A   1      41.717  31.310  29.724  1.00  0.00     0.074 A 
ATOM     46  C   UNL A   1      40.498  29.206  29.337  1.00  0.00     0.049 A 
ATOM     47  N   UNL A   1      42.858  31.059  29.128  1.00  0.00    -0.248 NA
ATOM     48  C   UNL A   1      41.686  32.602  30.428  1.00  0.00     0.031 C 
ATOM     49  C   UNL A   1      39.381  28.261  29.366  1.00  0.00     0.029 A 
ATOM     50  N   UNL A   1      41.528  28.474  28.794  1.00  0.00    -0.354 N 
ATOM     51  C   UNL A   1      43.650  32.184  29.326  1.00  0.00     0.074 A 
ATOM     52  C   UNL A   1      42.858  33.123  30.093  1.00  0.00     0.031 C 
ATOM     53  C   UNL A   1      39.798  27.066  28.926  1.00  0.00     0.029 A 
ATOM     54  C   UNL A   1      41.177  27.185  28.475  1.00  0.00     0.049 A 
ATOM     55  H   UNL A   1      42.431  28.839  28.650  1.00  0.00     0.167 HD
ATOM     56  C   UNL A   1      44.918  32.413  28.907  1.00  0.00     0.037 A 
ATOM     57  C   UNL A   1      41.866  26.215  27.844  1.00  0.00     0.037 A 
ATOM     58  C   UNL A   1      45.725  31.452  28.196  1.00  0.00     0.049 A 
ATOM     59  C   UNL A   1      43.252  26.506  27.345  1.00  0.00     0.074 A 
ATOM     60  C   UNL A   1      47.027  31.581  27.744  1.00  0.00     0.029 A 
ATOM     61  N   UNL A   1      45.308  30.175  27.847  1.00  0.00    -0.354 N 
ATOM     62  N   UNL A   1      43.967  27.595  27.479  1.00  0.00    -0.248 NA
ATOM     63  C   UNL A   1      43.915  25.439  26.583  1.00  0.00     0.031 C 
ATOM     64  C   UNL A   1      47.384  30.397  27.087  1.00  0.00     0.029 A 
ATOM     65  C   UNL A   1      46.322  29.513  27.172  1.00  0.00     0.049 A 
ATOM     66  H   UNL A   1      44.423  29.796  28.050  1.00  0.00     0.167 HD
ATOM     67  C   UNL A   1      45.168  27.343  26.831  1.00  0.00     0.074 A 
ATOM     68  C   UNL A   1      45.092  25.989  26.322  1.00  0.00     0.031 C 
ATOM     69  C   UNL A   1      46.234  28.164  26.671  1.00  0.00     0.037 A 
BRANCH  56  70
ATOM     70  C   UNL A   1      45.502  33.774  29.171  1.00  0.00     0.064 A 
ATOM     71  C   UNL A   1      45.367  34.836  28.265  1.00  0.00     0.173 A 
ATOM     72  C   UNL A   1      46.200  34.020  30.366  1.00  0.00     0.173 A 
ATOM     73  F   UNL A   1      44.717  34.655  27.105  1.00  0.00    -0.203 F 
ATOM     74  C   UNL A   1      45.941  36.079  28.524  1.00  0.00     0.198 A 
ATOM     75  C   UNL A   1      46.745  35.273  30.636  1.00  0.00     0.198 A 
ATOM     76  F   UNL A   1      46.350  33.044  31.274  1.00  0.00    -0.203 F 
ATOM     77  F   UNL A   1      45.848  37.060  27.616  1.00  0.00    -0.200 F 
ATOM     78  C   UNL A   1      46.626  36.297  29.711  1.00  0.00     0.200 A 
ATOM     79  F   UNL A   1      47.392  35.486  31.791  1.00  0.00    -0.200 F 
ATOM     80  F   UNL A   1      47.177  37.494  29.959  1.00  0.00    -0.200 F 
ENDBRANCH  56  70
BRANCH  57  81
ATOM     81  C   UNL A   1      41.232  24.889  27.622  1.00  0.00     0.064 A 
ATOM     82  C   UNL A   1      40.157  24.748  26.734  1.00  0.00     0.173 A 
ATOM     83  C   UNL A   1      41.704  23.734  28.264  1.00  0.00     0.173 A 
ATOM     84  F   UNL A   1      39.653  25.826  26.116  1.00  0.00    -0.203 F 
ATOM     85  C   UNL A   1      39.580  23.502  26.496  1.00  0.00     0.198 A 
ATOM     86  C   UNL A   1      41.147  22.485  28.002  1.00  0.00     0.198 A 
ATOM     87  F   UNL A   1      42.729  23.816  29.126  1.00  0.00    -0.203 F 
ATOM     88  F   UNL A   1      38.534  23.399  25.666  1.00  0.00    -0.200 F 
ATOM     89  C   UNL A   1      40.083  22.371  27.121  1.00  0.00     0.200 A 
ATOM     90  F   UNL A   1      41.648  21.393  28.595  1.00  0.00    -0.200 F 
ATOM     91  F   UNL A   1      39.539  21.171  26.877  1.00  0.00    -0.200 F 
ENDBRANCH  57  81
BRANCH  69  92
ATOM     92  C   UNL A   1      47.421  27.605  25.942  1.00  0.00     0.064 A 
ATOM     93  C   UNL A   1      48.492  27.011  26.625  1.00  0.00     0.173 A 
ATOM     94  C   UNL A   1      47.476  27.648  24.541  1.00  0.00     0.173 A 
ATOM     95  F   UNL A   1      48.494  26.963  27.966  1.00  0.00    -0.203 F 
ATOM     96  C   UNL A   1      49.588  26.503  25.933  1.00  0.00     0.198 A 
ATOM     97  C   UNL A   1      48.559  27.113  23.850  1.00  0.00     0.198 A 
ATOM     98  F   UNL A   1      46.476  28.203  23.841  1.00  0.00    -0.203 F 
ATOM     99  F   UNL A   1      50.622  25.984  26.607  1.00  0.00    -0.200 F 
ATOM    100  C   UNL A   1      49.617  26.548  24.546  1.00  0.00     0.200 A 
ATOM    101  F   UNL A   1      48.583  27.150  22.511  1.00  0.00    -0.200 F 
ATOM    102  F   UNL A   1      50.671  26.056  23.881  1.00  0.00    -0.200 F 
ENDBRANCH  69  92
ENDBRANCH  43  44
ENDBRANCH  36  38
ENDBRANCH  35  36
ENDBRANCH  34  35
ENDBRANCH   1  34
TORSDOF 16
ENDMDL
MODEL 3
REMARK VINA RESULT:     -13.3      3.461      9.449
REMARK SMILES COc1ccc([C@H]2CC(c3ccc(S(C)(=O)=O)cc3)=NN2c2ccc(C(=O)OCCOC(=O)c3ccc(-c4c5nc(c(-c6c(F)c(F)c(F)c(F)c6F)c6ccc([nH]6)c(-c6c(F)c(F)c(F)c(F)c6F)c6nc(c(-c7c(F)c(F)c(F)c(F)c7F)c7ccc4[nH]7)C=C6)C=C5)cc3)cc2)cc1
REMARK SMILES IDX 29 1 28 2 26 3 27 4 25 5 22 6 23 7 98 8 24 9 97 10 21 11
REMARK SMILES IDX 7 12 8 13 9 14 20 15 6 16 3 17 4 18 100 19 5 20 99 21 2 22
REMARK SMILES IDX 1 23 10 24 11 25 19 26 12 27 18 28 13 29 14 30 15 31 16 32
REMARK SMILES IDX 17 33 30 34 31 35 32 36 33 37 34 38 35 39 96 40 36 41 95 42
REMARK SMILES IDX 37 43 38 44 39 45 89 46 40 47 94 48 88 49 90 50 41 51 93 52
REMARK SMILES IDX 87 53 86 54 42 56 74 57 54 58 73 59 55 60 58 61 72 62 91 63
REMARK SMILES IDX 56 64 57 65 71 67 92 68 59 69 43 70 44 71 52 72 45 73 46 74
REMARK SMILES IDX 50 75 53 76 47 77 48 78 51 79 49 80 75 81 76 82 84 83 77 84
REMARK SMILES IDX 78 85 82 86 85 87 79 88 80 89 83 90 81 91 60 92 61 93 69 94
REMARK SMILES IDX 62 95 63 96 67 97 70 98 64 99 65 100 68 101 66 102
REMARK H PARENT 90 55 58 66
REMARK Flexibility Score: inf
ROOT
ATOM      1  C   UNL A   1      40.461  21.089  26.629  1.00  0.00     0.275 C 
ENDROOT
BRANCH   1   2
ATOM      2  O   UNL A   1      39.337  21.549  25.849  1.00  0.00    -0.458 OA
BRANCH   2   3
ATOM      3  C   UNL A   1      38.909  22.802  26.137  1.00  0.00     0.338 C 
ATOM      4  O   UNL A   1      39.535  23.667  26.733  1.00  0.00    -0.246 OA
BRANCH   3   5
ATOM      5  C   UNL A   1      37.573  23.054  25.561  1.00  0.00     0.060 A 
ATOM      6  C   UNL A   1      35.163  23.727  24.266  1.00  0.00     0.060 A 
ATOM      7  C   UNL A   1      36.120  22.938  23.627  1.00  0.00     0.029 A 
ATOM      8  C   UNL A   1      35.414  24.136  25.585  1.00  0.00     0.029 A 
ATOM      9  C   UNL A   1      37.326  22.642  24.250  1.00  0.00     0.018 A 
ATOM     10  C   UNL A   1      36.602  23.783  26.245  1.00  0.00     0.018 A 
BRANCH   6  11
ATOM     11  N   UNL A   1      34.027  24.114  23.570  1.00  0.00    -0.257 N 
ATOM     12  C   UNL A   1      33.261  23.220  22.699  1.00  0.00     0.144 C 
ATOM     13  C   UNL A   1      32.017  24.059  22.371  1.00  0.00     0.091 C 
ATOM     14  C   UNL A   1      32.268  25.262  23.236  1.00  0.00     0.071 C 
ATOM     15  N   UNL A   1      33.378  25.262  23.903  1.00  0.00    -0.176 NA
BRANCH  12  16
ATOM     16  C   UNL A   1      32.924  21.888  23.358  1.00  0.00    -0.023 A 
ATOM     17  C   UNL A   1      32.376  19.425  24.634  1.00  0.00     0.118 A 
ATOM     18  C   UNL A   1      32.814  20.522  25.372  1.00  0.00     0.047 A 
ATOM     19  C   UNL A   1      32.162  19.567  23.264  1.00  0.00     0.047 A 
ATOM     20  C   UNL A   1      33.094  21.739  24.743  1.00  0.00     0.010 A 
ATOM     21  C   UNL A   1      32.425  20.791  22.633  1.00  0.00     0.010 A 
BRANCH  17  22
ATOM     22  O   UNL A   1      32.147  18.288  25.360  1.00  0.00    -0.497 OA
ATOM     23  C   UNL A   1      33.169  17.300  25.298  1.00  0.00     0.278 C 
ENDBRANCH  17  22
ENDBRANCH  12  16
BRANCH  14  24
ATOM     24  C   UNL A   1      31.339  26.399  23.241  1.00  0.00    -0.002 A 
ATOM     25  C   UNL A   1      31.823  27.645  22.823  1.00  0.00     0.011 A 
ATOM     26  C   UNL A   1      30.004  26.238  23.614  1.00  0.00     0.011 A 
ATOM     27  C   UNL A   1      30.955  28.733  22.738  1.00  0.00     0.021 A 
ATOM     28  C   UNL A   1      29.138  27.334  23.557  1.00  0.00     0.021 A 
ATOM     29  C   UNL A   1      29.617  28.572  23.111  1.00  0.00     0.067 A 
BRANCH  29  30
ATOM     30  S   UNL A   1      28.503  29.949  22.946  1.00  0.00     0.175 S 
ATOM     31  C   UNL A   1      28.664  30.452  21.254  1.00  0.00     0.163 C 
ATOM     32  O   UNL A   1      27.165  29.423  23.144  1.00  0.00    -0.224 OA
ATOM     33  O   UNL A   1      29.012  31.024  23.775  1.00  0.00    -0.224 OA
ENDBRANCH  29  30
ENDBRANCH  14  24
ENDBRANCH   6  11
ENDBRANCH   3   5
ENDBRANCH   2   3
ENDBRANCH   1   2
BRANCH   1  34
ATOM     34  C   UNL A   1      41.685  20.819  25.754  1.00  0.00     0.275 C 
BRANCH  34  35
ATOM     35  O   UNL A   1      42.806  21.606  26.197  1.00  0.00    -0.458 OA
BRANCH  35  36
ATOM     36  C   UNL A   1      42.948  22.808  25.593  1.00  0.00     0.338 C 
ATOM     37  O   UNL A   1      43.027  23.038  24.399  1.00  0.00    -0.246 OA
BRANCH  36  38
ATOM     38  C   UNL A   1      42.965  23.884  26.596  1.00  0.00     0.060 A 
ATOM     39  C   UNL A   1      42.856  23.555  27.940  1.00  0.00     0.016 A 
ATOM     40  C   UNL A   1      42.892  25.217  26.201  1.00  0.00     0.016 A 
ATOM     41  C   UNL A   1      42.503  24.525  28.874  1.00  0.00     0.010 A 
ATOM     42  C   UNL A   1      42.692  26.214  27.166  1.00  0.00     0.010 A 
ATOM     43  C   UNL A   1      42.437  25.878  28.509  1.00  0.00    -0.014 A 
BRANCH  43  44
ATOM     44  C   UNL A   1      42.078  26.923  29.515  1.00  0.00     0.031 A 
ATOM     45  C   UNL A   1      42.922  27.120  30.750  1.00  0.00     0.074 A 
ATOM     46  C   UNL A   1      41.002  27.715  29.328  1.00  0.00     0.049 A 
ATOM     47  N   UNL A   1      42.675  27.831  31.824  1.00  0.00    -0.248 NA
ATOM     48  C   UNL A   1      44.209  26.410  30.791  1.00  0.00     0.031 C 
ATOM     49  C   UNL A   1      40.118  27.686  28.162  1.00  0.00     0.029 A 
ATOM     50  N   UNL A   1      40.473  28.714  30.111  1.00  0.00    -0.354 N 
ATOM     51  C   UNL A   1      43.738  27.599  32.690  1.00  0.00     0.074 A 
ATOM     52  C   UNL A   1      44.630  26.677  32.020  1.00  0.00     0.031 C 
ATOM     53  C   UNL A   1      39.200  28.656  28.275  1.00  0.00     0.029 A 
ATOM     54  C   UNL A   1      39.355  29.302  29.572  1.00  0.00     0.049 A 
ATOM     55  H   UNL A   1      40.858  28.980  30.977  1.00  0.00     0.167 HD
ATOM     56  C   UNL A   1      43.949  28.108  33.929  1.00  0.00     0.037 A 
ATOM     57  C   UNL A   1      38.514  30.225  30.076  1.00  0.00     0.037 A 
ATOM     58  C   UNL A   1      43.090  29.074  34.568  1.00  0.00     0.049 A 
ATOM     59  C   UNL A   1      38.740  30.739  31.468  1.00  0.00     0.074 A 
ATOM     60  C   UNL A   1      43.228  29.664  35.813  1.00  0.00     0.029 A 
ATOM     61  N   UNL A   1      41.939  29.603  34.002  1.00  0.00    -0.354 N 
ATOM     62  N   UNL A   1      39.710  30.463  32.304  1.00  0.00    -0.248 NA
ATOM     63  C   UNL A   1      37.736  31.672  31.996  1.00  0.00     0.031 C 
ATOM     64  C   UNL A   1      42.138  30.519  36.017  1.00  0.00     0.029 A 
ATOM     65  C   UNL A   1      41.348  30.499  34.880  1.00  0.00     0.049 A 
ATOM     66  H   UNL A   1      41.593  29.375  33.110  1.00  0.00     0.167 HD
ATOM     67  C   UNL A   1      39.443  31.197  33.451  1.00  0.00     0.074 A 
ATOM     68  C   UNL A   1      38.230  31.945  33.195  1.00  0.00     0.031 C 
ATOM     69  C   UNL A   1      40.140  31.240  34.612  1.00  0.00     0.037 A 
BRANCH  56  70
ATOM     70  C   UNL A   1      45.139  27.599  34.695  1.00  0.00     0.064 A 
ATOM     71  C   UNL A   1      45.071  26.464  35.517  1.00  0.00     0.173 A 
ATOM     72  C   UNL A   1      46.377  28.256  34.590  1.00  0.00     0.173 A 
ATOM     73  F   UNL A   1      43.912  25.802  35.659  1.00  0.00    -0.203 F 
ATOM     74  C   UNL A   1      46.183  26.030  36.235  1.00  0.00     0.198 A 
ATOM     75  C   UNL A   1      47.494  27.800  35.285  1.00  0.00     0.198 A 
ATOM     76  F   UNL A   1      46.503  29.339  33.810  1.00  0.00    -0.203 F 
ATOM     77  F   UNL A   1      46.078  24.978  37.059  1.00  0.00    -0.200 F 
ATOM     78  C   UNL A   1      47.395  26.695  36.116  1.00  0.00     0.200 A 
ATOM     79  F   UNL A   1      48.668  28.435  35.154  1.00  0.00    -0.200 F 
ATOM     80  F   UNL A   1      48.463  26.276  36.808  1.00  0.00    -0.200 F 
ENDBRANCH  56  70
BRANCH  57  81
ATOM     81  C   UNL A   1      37.361  30.692  29.262  1.00  0.00     0.064 A 
ATOM     82  C   UNL A   1      36.276  29.844  29.005  1.00  0.00     0.173 A 
ATOM     83  C   UNL A   1      37.305  31.998  28.753  1.00  0.00     0.173 A 
ATOM     84  F   UNL A   1      36.295  28.578  29.447  1.00  0.00    -0.203 F 
ATOM     85  C   UNL A   1      35.177  30.286  28.271  1.00  0.00     0.198 A 
ATOM     86  C   UNL A   1      36.193  32.448  28.047  1.00  0.00     0.198 A 
ATOM     87  F   UNL A   1      38.320  32.848  28.969  1.00  0.00    -0.203 F 
ATOM     88  F   UNL A   1      34.166  29.446  28.012  1.00  0.00    -0.200 F 
ATOM     89  C   UNL A   1      35.131  31.591  27.802  1.00  0.00     0.200 A 
ATOM     90  F   UNL A   1      36.145  33.715  27.612  1.00  0.00    -0.200 F 
ATOM     91  F   UNL A   1      34.066  32.020  27.113  1.00  0.00    -0.200 F 
ENDBRANCH  57  81
BRANCH  69  92
ATOM     92  C   UNL A   1      39.625  32.157  35.683  1.00  0.00     0.064 A 
ATOM     93  C   UNL A   1      40.093  33.471  35.816  1.00  0.00     0.173 A 
ATOM     94  C   UNL A   1      38.634  31.717  36.574  1.00  0.00     0.173 A 
ATOM     95  F   UNL A   1      41.055  33.931  35.000  1.00  0.00    -0.203 F 
ATOM     96  C   UNL A   1      39.608  34.305  36.819  1.00  0.00     0.198 A 
ATOM     97  C   UNL A   1      38.130  32.563  37.558  1.00  0.00     0.198 A 
ATOM     98  F   UNL A   1      38.150  30.469  36.488  1.00  0.00    -0.203 F 
ATOM     99  F   UNL A   1      40.105  35.542  36.960  1.00  0.00    -0.200 F 
ATOM    100  C   UNL A   1      38.622  33.853  37.684  1.00  0.00     0.200 A 
ATOM    101  F   UNL A   1      37.172  32.128  38.387  1.00  0.00    -0.200 F 
ATOM    102  F   UNL A   1      38.154  34.658  38.648  1.00  0.00    -0.200 F 
ENDBRANCH  69  92
ENDBRANCH  43  44
ENDBRANCH  36  38
ENDBRANCH  35  36
ENDBRANCH  34  35
ENDBRANCH   1  34
TORSDOF 16
ENDMDL
