MODEL 1
REMARK VINA RESULT:     -11.8      0.000      0.000
REMARK SMILES O=C(OCCOC(=O)[C@@H]1CC=CC[C@@H]1C(=O)N1CCN(C(=O)c2sc3cc([N+](=O)[O-])ccc3c2Cl)CC1)c1ccc(-c2c3nc(c(-c4c(F)c(F)c(F)c(F)c4F)c4ccc([nH]4)c(-c4c(F)c(F)c(F)c(F)c4F)c4nc(c(-c5c(F)c(F)c(F)c(F)c5F)c5ccc2[nH]5)C=C4)C=C3)cc1
REMARK SMILES IDX 5 1 4 2 3 3 2 4 1 5 38 6 39 7 100 8 40 9 99 10 41 11 42 12
REMARK SMILES IDX 43 13 93 14 44 15 98 16 92 17 94 18 45 19 97 20 91 21 90 22
REMARK SMILES IDX 46 24 78 25 58 26 77 27 59 28 62 29 76 30 95 31 60 32 61 33
REMARK SMILES IDX 75 35 96 36 63 37 47 38 48 39 56 40 49 41 50 42 54 43 57 44
REMARK SMILES IDX 51 45 52 46 55 47 53 48 79 49 80 50 88 51 81 52 82 53 86 54
REMARK SMILES IDX 89 55 83 56 84 57 87 58 85 59 64 60 65 61 73 62 66 63 67 64
REMARK SMILES IDX 71 65 74 66 68 67 69 68 72 69 70 70 6 71 7 72 8 73 9 74
REMARK SMILES IDX 10 75 14 76 11 77 13 78 12 79 15 80 16 81 17 82 18 83 37 84
REMARK SMILES IDX 19 85 36 86 20 87 21 88 22 89 23 90 24 91 34 92 25 93 33 94
REMARK SMILES IDX 35 95 26 96 32 97 27 98 31 99 28 100 29 101 30 102
REMARK H PARENT 94 23 62 34
REMARK Flexibility Score: inf
ROOT
ATOM      1  C   UNL A   1      41.806  25.654  36.928  1.00  0.00     0.274 C 
ENDROOT
BRANCH   1   2
ATOM      2  C   UNL A   1      42.779  24.672  36.269  1.00  0.00     0.275 C 
BRANCH   2   3
ATOM      3  O   UNL A   1      44.108  24.762  36.850  1.00  0.00    -0.458 OA
BRANCH   3   4
ATOM      4  C   UNL A   1      45.172  24.071  36.352  1.00  0.00     0.338 C 
ATOM      5  O   UNL A   1      45.516  22.969  36.749  1.00  0.00    -0.246 OA
BRANCH   4   6
ATOM      6  C   UNL A   1      45.939  24.791  35.327  1.00  0.00     0.060 A 
ATOM      7  C   UNL A   1      45.783  26.165  35.226  1.00  0.00     0.016 A 
ATOM      8  C   UNL A   1      46.701  24.101  34.387  1.00  0.00     0.016 A 
ATOM      9  C   UNL A   1      46.146  26.777  34.035  1.00  0.00     0.010 A 
ATOM     10  C   UNL A   1      47.054  24.750  33.198  1.00  0.00     0.010 A 
ATOM     11  C   UNL A   1      46.524  26.022  32.910  1.00  0.00    -0.014 A 
BRANCH  11  12
ATOM     12  C   UNL A   1      46.456  26.810  31.408  1.00  0.00     0.031 A 
ATOM     13  C   UNL A   1      45.310  25.510  30.932  1.00  0.00     0.074 A 
ATOM     14  C   UNL A   1      47.132  28.264  30.555  1.00  0.00     0.049 A 
ATOM     15  N   UNL A   1      45.451  24.613  29.996  1.00  0.00    -0.248 NA
ATOM     16  C   UNL A   1      43.988  25.356  31.605  1.00  0.00     0.031 C 
ATOM     17  C   UNL A   1      47.977  29.646  30.838  1.00  0.00     0.029 A 
ATOM     18  N   UNL A   1      46.993  28.804  29.122  1.00  0.00    -0.354 N 
ATOM     19  C   UNL A   1      44.203  24.141  29.683  1.00  0.00     0.074 A 
ATOM     20  C   UNL A   1      43.379  24.444  30.830  1.00  0.00     0.031 C 
ATOM     21  C   UNL A   1      47.599  30.673  30.031  1.00  0.00     0.029 A 
ATOM     22  C   UNL A   1      46.794  30.170  28.971  1.00  0.00     0.049 A 
ATOM     23  H   UNL A   1      47.042  28.204  28.343  1.00  0.00     0.167 HD
ATOM     24  C   UNL A   1      43.837  23.793  28.417  1.00  0.00     0.037 A 
ATOM     25  C   UNL A   1      45.948  30.731  28.066  1.00  0.00     0.037 A 
ATOM     26  C   UNL A   1      44.769  24.047  27.338  1.00  0.00     0.049 A 
ATOM     27  C   UNL A   1      45.542  29.733  27.021  1.00  0.00     0.074 A 
ATOM     28  C   UNL A   1      45.504  23.298  26.445  1.00  0.00     0.029 A 
ATOM     29  N   UNL A   1      44.964  25.364  26.984  1.00  0.00    -0.354 N 
ATOM     30  N   UNL A   1      46.364  29.122  26.216  1.00  0.00    -0.248 NA
ATOM     31  C   UNL A   1      44.157  29.252  26.952  1.00  0.00     0.031 C 
ATOM     32  C   UNL A   1      46.195  24.205  25.583  1.00  0.00     0.029 A 
ATOM     33  C   UNL A   1      45.865  25.503  25.945  1.00  0.00     0.049 A 
ATOM     34  H   UNL A   1      44.512  26.122  27.422  1.00  0.00     0.167 HD
ATOM     35  C   UNL A   1      45.711  27.956  25.868  1.00  0.00     0.074 A 
ATOM     36  C   UNL A   1      44.319  28.149  26.216  1.00  0.00     0.031 C 
ATOM     37  C   UNL A   1      46.394  26.810  25.608  1.00  0.00     0.037 A 
BRANCH  24  38
ATOM     38  C   UNL A   1      42.432  23.500  28.039  1.00  0.00     0.064 A 
ATOM     39  C   UNL A   1      42.016  22.182  27.819  1.00  0.00     0.173 A 
ATOM     40  C   UNL A   1      41.553  24.531  27.682  1.00  0.00     0.173 A 
ATOM     41  F   UNL A   1      42.837  21.159  28.100  1.00  0.00    -0.203 F 
ATOM     42  C   UNL A   1      40.764  21.907  27.273  1.00  0.00     0.198 A 
ATOM     43  C   UNL A   1      40.295  24.253  27.157  1.00  0.00     0.198 A 
ATOM     44  F   UNL A   1      41.936  25.812  27.792  1.00  0.00    -0.203 F 
ATOM     45  F   UNL A   1      40.402  20.639  27.040  1.00  0.00    -0.200 F 
ATOM     46  C   UNL A   1      39.903  22.941  26.946  1.00  0.00     0.200 A 
ATOM     47  F   UNL A   1      39.477  25.259  26.824  1.00  0.00    -0.200 F 
ATOM     48  F   UNL A   1      38.705  22.677  26.409  1.00  0.00    -0.200 F 
ENDBRANCH  24  38
BRANCH  25  49
ATOM     49  C   UNL A   1      45.241  32.032  28.135  1.00  0.00     0.064 A 
ATOM     50  C   UNL A   1      45.356  32.977  27.105  1.00  0.00     0.173 A 
ATOM     51  C   UNL A   1      44.234  32.266  29.079  1.00  0.00     0.173 A 
ATOM     52  F   UNL A   1      46.246  32.794  26.119  1.00  0.00    -0.203 F 
ATOM     53  C   UNL A   1      44.512  34.089  27.033  1.00  0.00     0.198 A 
ATOM     54  C   UNL A   1      43.406  33.386  29.027  1.00  0.00     0.198 A 
ATOM     55  F   UNL A   1      43.975  31.357  30.019  1.00  0.00    -0.203 F 
ATOM     56  F   UNL A   1      44.613  34.936  26.001  1.00  0.00    -0.200 F 
ATOM     57  C   UNL A   1      43.539  34.294  27.996  1.00  0.00     0.200 A 
ATOM     58  F   UNL A   1      42.449  33.551  29.952  1.00  0.00    -0.200 F 
ATOM     59  F   UNL A   1      42.710  35.343  27.911  1.00  0.00    -0.200 F 
ENDBRANCH  25  49
BRANCH  37  60
ATOM     60  C   UNL A   1      47.794  26.993  25.099  1.00  0.00     0.064 A 
ATOM     61  C   UNL A   1      48.108  27.402  23.790  1.00  0.00     0.173 A 
ATOM     62  C   UNL A   1      48.866  26.644  25.933  1.00  0.00     0.173 A 
ATOM     63  F   UNL A   1      47.147  27.704  22.907  1.00  0.00    -0.203 F 
ATOM     64  C   UNL A   1      49.425  27.453  23.338  1.00  0.00     0.198 A 
ATOM     65  C   UNL A   1      50.183  26.701  25.480  1.00  0.00     0.198 A 
ATOM     66  F   UNL A   1      48.635  26.217  27.185  1.00  0.00    -0.203 F 
ATOM     67  F   UNL A   1      49.686  27.805  22.071  1.00  0.00    -0.200 F 
ATOM     68  C   UNL A   1      50.462  27.101  24.183  1.00  0.00     0.200 A 
ATOM     69  F   UNL A   1      51.185  26.344  26.296  1.00  0.00    -0.200 F 
ATOM     70  F   UNL A   1      51.728  27.127  23.742  1.00  0.00    -0.200 F 
ENDBRANCH  37  60
ENDBRANCH  11  12
ENDBRANCH   4   6
ENDBRANCH   3   4
ENDBRANCH   2   3
ENDBRANCH   1   2
BRANCH   1  71
ATOM     71  O   UNL A   1      41.208  26.539  35.955  1.00  0.00    -0.462 OA
BRANCH  71  72
ATOM     72  C   UNL A   1      41.819  27.749  35.749  1.00  0.00     0.310 C 
ATOM     73  O   UNL A   1      42.056  28.564  36.626  1.00  0.00    -0.252 OA
BRANCH  72  74
ATOM     74  C   UNL A   1      42.159  27.917  34.286  1.00  0.00     0.115 C 
ATOM     75  C   UNL A   1      43.307  28.898  34.066  1.00  0.00     0.043 C 
ATOM     76  C   UNL A   1      40.960  28.191  33.380  1.00  0.00     0.097 C 
ATOM     77  C   UNL A   1      43.655  28.988  32.608  1.00  0.00    -0.030 C 
ATOM     78  C   UNL A   1      41.388  28.196  31.891  1.00  0.00     0.041 C 
ATOM     79  C   UNL A   1      42.798  28.652  31.635  1.00  0.00    -0.030 C 
BRANCH  76  80
ATOM     80  C   UNL A   1      40.051  29.403  33.640  1.00  0.00     0.227 C 
ATOM     81  O   UNL A   1      40.096  30.038  34.690  1.00  0.00    -0.275 OA
ATOM     82  N   UNL A   1      39.373  29.891  32.517  1.00  0.00    -0.339 N 
ATOM     83  C   UNL A   1      39.725  31.680  32.021  1.00  0.00     0.141 C 
ATOM     84  C   UNL A   1      38.035  28.855  31.721  1.00  0.00     0.141 C 
ATOM     85  C   UNL A   1      38.668  32.473  30.460  1.00  0.00     0.141 C 
ATOM     86  C   UNL A   1      36.958  29.616  30.221  1.00  0.00     0.141 C 
ATOM     87  N   UNL A   1      37.312  31.381  29.647  1.00  0.00    -0.334 N 
ATOM     88  C   UNL A   1      36.450  32.033  28.754  1.00  0.00     0.265 C 
ATOM     89  O   UNL A   1      36.699  33.201  28.445  1.00  0.00    -0.268 OA
BRANCH  88  90
ATOM     90  C   UNL A   1      35.333  31.298  28.149  1.00  0.00     0.112 A 
ATOM     91  S   UNL A   1      35.687  29.708  27.585  1.00  0.00    -0.128 S 
ATOM     92  C   UNL A   1      34.037  31.642  27.793  1.00  0.00     0.072 A 
ATOM     93  C   UNL A   1      34.147  29.503  26.845  1.00  0.00     0.043 A 
ATOM     94  C   UNL A   1      33.327  30.602  27.085  1.00  0.00     0.012 A 
ATOM     95  Cl  UNL A   1      33.221  33.139  27.996  1.00  0.00    -0.082 Cl
ATOM     96  C   UNL A   1      33.703  28.407  26.073  1.00  0.00     0.105 A 
ATOM     97  C   UNL A   1      31.999  30.574  26.572  1.00  0.00     0.018 A 
ATOM     98  C   UNL A   1      32.399  28.437  25.551  1.00  0.00     0.270 A 
ATOM     99  C   UNL A   1      31.541  29.500  25.811  1.00  0.00     0.086 A 
BRANCH  98 100
ATOM    100  N   UNL A   1      31.930  27.336  24.699  1.00  0.00     0.062 N 
ATOM    101  O   UNL A   1      32.784  26.578  24.221  1.00  0.00    -0.258 OA
ATOM    102  O   UNL A   1      30.711  27.236  24.507  1.00  0.00    -0.258 OA
ENDBRANCH  98 100
ENDBRANCH  88  90
ENDBRANCH  76  80
ENDBRANCH  72  74
ENDBRANCH  71  72
ENDBRANCH   1  71
TORSDOF 14
ENDMDL
MODEL 2
REMARK VINA RESULT:     -11.7      3.876     10.214
REMARK SMILES O=C(OCCOC(=O)[C@@H]1CC=CC[C@@H]1C(=O)N1CCN(C(=O)c2sc3cc([N+](=O)[O-])ccc3c2Cl)CC1)c1ccc(-c2c3nc(c(-c4c(F)c(F)c(F)c(F)c4F)c4ccc([nH]4)c(-c4c(F)c(F)c(F)c(F)c4F)c4nc(c(-c5c(F)c(F)c(F)c(F)c5F)c5ccc2[nH]5)C=C4)C=C3)cc1
REMARK SMILES IDX 5 1 4 2 3 3 2 4 1 5 38 6 39 7 100 8 40 9 99 10 41 11 42 12
REMARK SMILES IDX 43 13 93 14 44 15 98 16 92 17 94 18 45 19 97 20 91 21 90 22
REMARK SMILES IDX 46 24 78 25 58 26 77 27 59 28 62 29 76 30 95 31 60 32 61 33
REMARK SMILES IDX 75 35 96 36 63 37 47 38 48 39 56 40 49 41 50 42 54 43 57 44
REMARK SMILES IDX 51 45 52 46 55 47 53 48 79 49 80 50 88 51 81 52 82 53 86 54
REMARK SMILES IDX 89 55 83 56 84 57 87 58 85 59 64 60 65 61 73 62 66 63 67 64
REMARK SMILES IDX 71 65 74 66 68 67 69 68 72 69 70 70 6 71 7 72 8 73 9 74
REMARK SMILES IDX 10 75 14 76 11 77 13 78 12 79 15 80 16 81 17 82 18 83 37 84
REMARK SMILES IDX 19 85 36 86 20 87 21 88 22 89 23 90 24 91 34 92 25 93 33 94
REMARK SMILES IDX 35 95 26 96 32 97 27 98 31 99 28 100 29 101 30 102
REMARK H PARENT 94 23 62 34
REMARK Flexibility Score: inf
ROOT
ATOM      1  C   UNL A   1      33.062  29.699  26.733  1.00  0.00     0.274 C 
ENDROOT
BRANCH   1   2
ATOM      2  C   UNL A   1      33.464  30.891  27.605  1.00  0.00     0.275 C 
BRANCH   2   3
ATOM      3  O   UNL A   1      34.877  31.201  27.473  1.00  0.00    -0.458 OA
BRANCH   3   4
ATOM      4  C   UNL A   1      35.588  31.808  28.465  1.00  0.00     0.338 C 
ATOM      5  O   UNL A   1      35.338  32.920  28.903  1.00  0.00    -0.246 OA
BRANCH   4   6
ATOM      6  C   UNL A   1      36.750  31.043  28.935  1.00  0.00     0.060 A 
ATOM      7  C   UNL A   1      37.873  31.736  29.362  1.00  0.00     0.016 A 
ATOM      8  C   UNL A   1      36.784  29.654  28.829  1.00  0.00     0.016 A 
ATOM      9  C   UNL A   1      39.084  31.062  29.393  1.00  0.00     0.010 A 
ATOM     10  C   UNL A   1      38.023  29.005  28.869  1.00  0.00     0.010 A 
ATOM     11  C   UNL A   1      39.211  29.760  28.875  1.00  0.00    -0.014 A 
BRANCH  11  12
ATOM     12  C   UNL A   1      40.784  29.238  28.507  1.00  0.00     0.031 A 
ATOM     13  C   UNL A   1      40.954  28.953  30.273  1.00  0.00     0.074 A 
ATOM     14  C   UNL A   1      41.887  29.006  27.083  1.00  0.00     0.049 A 
ATOM     15  N   UNL A   1      41.777  29.525  31.107  1.00  0.00    -0.248 NA
ATOM     16  C   UNL A   1      40.120  27.938  30.979  1.00  0.00     0.031 C 
ATOM     17  C   UNL A   1      41.883  28.989  25.439  1.00  0.00     0.029 A 
ATOM     18  N   UNL A   1      43.352  28.559  26.949  1.00  0.00    -0.354 N 
ATOM     19  C   UNL A   1      41.882  28.714  32.208  1.00  0.00     0.074 A 
ATOM     20  C   UNL A   1      40.696  27.890  32.191  1.00  0.00     0.031 C 
ATOM     21  C   UNL A   1      42.766  28.096  24.916  1.00  0.00     0.029 A 
ATOM     22  C   UNL A   1      43.653  27.656  25.938  1.00  0.00     0.049 A 
ATOM     23  H   UNL A   1      44.049  28.899  27.555  1.00  0.00     0.167 HD
ATOM     24  C   UNL A   1      43.043  28.555  32.904  1.00  0.00     0.037 A 
ATOM     25  C   UNL A   1      44.519  26.615  26.066  1.00  0.00     0.037 A 
ATOM     26  C   UNL A   1      44.245  29.175  32.388  1.00  0.00     0.049 A 
ATOM     27  C   UNL A   1      45.374  26.777  27.289  1.00  0.00     0.074 A 
ATOM     28  C   UNL A   1      45.113  30.171  32.779  1.00  0.00     0.029 A 
ATOM     29  N   UNL A   1      44.785  28.625  31.246  1.00  0.00    -0.354 N 
ATOM     30  N   UNL A   1      46.184  27.774  27.505  1.00  0.00    -0.248 NA
ATOM     31  C   UNL A   1      45.223  25.862  28.427  1.00  0.00     0.031 C 
ATOM     32  C   UNL A   1      46.158  30.244  31.806  1.00  0.00     0.029 A 
ATOM     33  C   UNL A   1      45.929  29.281  30.834  1.00  0.00     0.049 A 
ATOM     34  H   UNL A   1      44.399  27.850  30.775  1.00  0.00     0.167 HD
ATOM     35  C   UNL A   1      46.302  27.836  28.880  1.00  0.00     0.074 A 
ATOM     36  C   UNL A   1      45.824  26.568  29.388  1.00  0.00     0.031 C 
ATOM     37  C   UNL A   1      46.489  29.019  29.523  1.00  0.00     0.037 A 
BRANCH  24  38
ATOM     38  C   UNL A   1      43.217  27.515  33.948  1.00  0.00     0.064 A 
ATOM     39  C   UNL A   1      43.704  26.246  33.612  1.00  0.00     0.173 A 
ATOM     40  C   UNL A   1      42.701  27.696  35.238  1.00  0.00     0.173 A 
ATOM     41  F   UNL A   1      44.166  26.006  32.376  1.00  0.00    -0.203 F 
ATOM     42  C   UNL A   1      43.685  25.203  34.535  1.00  0.00     0.198 A 
ATOM     43  C   UNL A   1      42.703  26.658  36.164  1.00  0.00     0.198 A 
ATOM     44  F   UNL A   1      42.144  28.867  35.583  1.00  0.00    -0.203 F 
ATOM     45  F   UNL A   1      44.125  23.989  34.179  1.00  0.00    -0.200 F 
ATOM     46  C   UNL A   1      43.189  25.410  35.811  1.00  0.00     0.200 A 
ATOM     47  F   UNL A   1      42.203  26.861  37.390  1.00  0.00    -0.200 F 
ATOM     48  F   UNL A   1      43.158  24.404  36.694  1.00  0.00    -0.200 F 
ENDBRANCH  24  38
BRANCH  25  49
ATOM     49  C   UNL A   1      44.538  25.324  25.338  1.00  0.00     0.064 A 
ATOM     50  C   UNL A   1      45.726  24.809  24.801  1.00  0.00     0.173 A 
ATOM     51  C   UNL A   1      43.449  24.445  25.383  1.00  0.00     0.173 A 
ATOM     52  F   UNL A   1      46.838  25.558  24.784  1.00  0.00    -0.203 F 
ATOM     53  C   UNL A   1      45.811  23.493  24.336  1.00  0.00     0.198 A 
ATOM     54  C   UNL A   1      43.520  23.141  24.898  1.00  0.00     0.198 A 
ATOM     55  F   UNL A   1      42.319  24.813  25.989  1.00  0.00    -0.203 F 
ATOM     56  F   UNL A   1      46.980  23.020  23.886  1.00  0.00    -0.200 F 
ATOM     57  C   UNL A   1      44.706  22.661  24.382  1.00  0.00     0.200 A 
ATOM     58  F   UNL A   1      42.447  22.340  24.980  1.00  0.00    -0.200 F 
ATOM     59  F   UNL A   1      44.795  21.391  23.965  1.00  0.00    -0.200 F 
ENDBRANCH  25  49
BRANCH  37  60
ATOM     60  C   UNL A   1      47.175  30.088  28.724  1.00  0.00     0.064 A 
ATOM     61  C   UNL A   1      46.505  30.988  27.875  1.00  0.00     0.173 A 
ATOM     62  C   UNL A   1      48.576  30.144  28.734  1.00  0.00     0.173 A 
ATOM     63  F   UNL A   1      45.171  30.972  27.761  1.00  0.00    -0.203 F 
ATOM     64  C   UNL A   1      47.201  31.892  27.075  1.00  0.00     0.198 A 
ATOM     65  C   UNL A   1      49.270  31.053  27.936  1.00  0.00     0.198 A 
ATOM     66  F   UNL A   1      49.279  29.294  29.498  1.00  0.00    -0.203 F 
ATOM     67  F   UNL A   1      46.532  32.707  26.245  1.00  0.00    -0.200 F 
ATOM     68  C   UNL A   1      48.583  31.923  27.105  1.00  0.00     0.200 A 
ATOM     69  F   UNL A   1      50.610  31.069  27.955  1.00  0.00    -0.200 F 
ATOM     70  F   UNL A   1      49.254  32.776  26.318  1.00  0.00    -0.200 F 
ENDBRANCH  37  60
ENDBRANCH  11  12
ENDBRANCH   4   6
ENDBRANCH   3   4
ENDBRANCH   2   3
ENDBRANCH   1   2
BRANCH   1  71
ATOM     71  O   UNL A   1      32.712  30.117  25.395  1.00  0.00    -0.462 OA
BRANCH  71  72
ATOM     72  C   UNL A   1      32.914  29.215  24.382  1.00  0.00     0.310 C 
ATOM     73  O   UNL A   1      33.969  28.639  24.166  1.00  0.00    -0.252 OA
BRANCH  72  74
ATOM     74  C   UNL A   1      31.642  29.034  23.586  1.00  0.00     0.115 C 
ATOM     75  C   UNL A   1      30.485  29.856  24.146  1.00  0.00     0.043 C 
ATOM     76  C   UNL A   1      31.263  27.580  23.312  1.00  0.00     0.097 C 
ATOM     77  C   UNL A   1      29.261  29.698  23.291  1.00  0.00    -0.030 C 
ATOM     78  C   UNL A   1      30.037  27.501  22.367  1.00  0.00     0.041 C 
ATOM     79  C   UNL A   1      29.073  28.649  22.478  1.00  0.00    -0.030 C 
BRANCH  76  80
ATOM     80  C   UNL A   1      31.055  26.599  24.478  1.00  0.00     0.227 C 
ATOM     81  O   UNL A   1      30.120  26.713  25.266  1.00  0.00    -0.275 OA
ATOM     82  N   UNL A   1      31.827  25.433  24.420  1.00  0.00    -0.339 N 
ATOM     83  C   UNL A   1      30.891  23.794  24.348  1.00  0.00     0.141 C 
ATOM     84  C   UNL A   1      33.682  25.541  24.632  1.00  0.00     0.141 C 
ATOM     85  C   UNL A   1      31.976  22.061  24.385  1.00  0.00     0.141 C 
ATOM     86  C   UNL A   1      34.766  23.865  24.712  1.00  0.00     0.141 C 
ATOM     87  N   UNL A   1      33.883  22.200  24.583  1.00  0.00    -0.334 N 
ATOM     88  C   UNL A   1      34.563  21.003  24.849  1.00  0.00     0.265 C 
ATOM     89  O   UNL A   1      33.930  19.945  24.797  1.00  0.00    -0.268 OA
BRANCH  88  90
ATOM     90  C   UNL A   1      36.009  21.024  25.099  1.00  0.00     0.112 A 
ATOM     91  S   UNL A   1      36.875  19.599  24.661  1.00  0.00    -0.128 S 
ATOM     92  C   UNL A   1      36.859  21.907  25.747  1.00  0.00     0.072 A 
ATOM     93  C   UNL A   1      38.349  20.141  25.364  1.00  0.00     0.043 A 
ATOM     94  C   UNL A   1      38.219  21.434  25.865  1.00  0.00     0.012 A 
ATOM     95  Cl  UNL A   1      36.493  23.410  26.494  1.00  0.00    -0.082 Cl
ATOM     96  C   UNL A   1      39.564  19.429  25.470  1.00  0.00     0.105 A 
ATOM     97  C   UNL A   1      39.364  22.047  26.448  1.00  0.00     0.018 A 
ATOM     98  C   UNL A   1      40.659  20.057  26.088  1.00  0.00     0.270 A 
ATOM     99  C   UNL A   1      40.573  21.362  26.558  1.00  0.00     0.086 A 
BRANCH  98 100
ATOM    100  N   UNL A   1      41.919  19.320  26.260  1.00  0.00     0.062 N 
ATOM    101  O   UNL A   1      42.558  19.032  25.240  1.00  0.00    -0.258 OA
ATOM    102  O   UNL A   1      42.262  19.028  27.414  1.00  0.00    -0.258 OA
ENDBRANCH  98 100
ENDBRANCH  88  90
ENDBRANCH  76  80
ENDBRANCH  72  74
ENDBRANCH  71  72
ENDBRANCH   1  71
TORSDOF 14
ENDMDL
MODEL 3
REMARK VINA RESULT:     -11.7      4.645     12.282
REMARK SMILES O=C(OCCOC(=O)[C@@H]1CC=CC[C@@H]1C(=O)N1CCN(C(=O)c2sc3cc([N+](=O)[O-])ccc3c2Cl)CC1)c1ccc(-c2c3nc(c(-c4c(F)c(F)c(F)c(F)c4F)c4ccc([nH]4)c(-c4c(F)c(F)c(F)c(F)c4F)c4nc(c(-c5c(F)c(F)c(F)c(F)c5F)c5ccc2[nH]5)C=C4)C=C3)cc1
REMARK SMILES IDX 5 1 4 2 3 3 2 4 1 5 38 6 39 7 100 8 40 9 99 10 41 11 42 12
REMARK SMILES IDX 43 13 93 14 44 15 98 16 92 17 94 18 45 19 97 20 91 21 90 22
REMARK SMILES IDX 46 24 78 25 58 26 77 27 59 28 62 29 76 30 95 31 60 32 61 33
REMARK SMILES IDX 75 35 96 36 63 37 47 38 48 39 56 40 49 41 50 42 54 43 57 44
REMARK SMILES IDX 51 45 52 46 55 47 53 48 79 49 80 50 88 51 81 52 82 53 86 54
REMARK SMILES IDX 89 55 83 56 84 57 87 58 85 59 64 60 65 61 73 62 66 63 67 64
REMARK SMILES IDX 71 65 74 66 68 67 69 68 72 69 70 70 6 71 7 72 8 73 9 74
REMARK SMILES IDX 10 75 14 76 11 77 13 78 12 79 15 80 16 81 17 82 18 83 37 84
REMARK SMILES IDX 19 85 36 86 20 87 21 88 22 89 23 90 24 91 34 92 25 93 33 94
REMARK SMILES IDX 35 95 26 96 32 97 27 98 31 99 28 100 29 101 30 102
REMARK H PARENT 94 23 62 34
REMARK Flexibility Score: inf
ROOT
ATOM      1  C   UNL A   1      45.979  23.183  25.626  1.00  0.00     0.274 C 
ENDROOT
BRANCH   1   2
ATOM      2  C   UNL A   1      44.537  22.815  25.985  1.00  0.00     0.275 C 
BRANCH   2   3
ATOM      3  O   UNL A   1      43.964  23.753  26.935  1.00  0.00    -0.458 OA
BRANCH   3   4
ATOM      4  C   UNL A   1      43.163  24.787  26.549  1.00  0.00     0.338 C 
ATOM      5  O   UNL A   1      43.095  25.207  25.405  1.00  0.00    -0.246 OA
BRANCH   4   6
ATOM      6  C   UNL A   1      42.422  25.423  27.646  1.00  0.00     0.060 A 
ATOM      7  C   UNL A   1      41.066  25.661  27.480  1.00  0.00     0.016 A 
ATOM      8  C   UNL A   1      43.084  25.904  28.773  1.00  0.00     0.016 A 
ATOM      9  C   UNL A   1      40.467  26.614  28.290  1.00  0.00     0.010 A 
ATOM     10  C   UNL A   1      42.448  26.862  29.571  1.00  0.00     0.010 A 
ATOM     11  C   UNL A   1      41.227  27.422  29.154  1.00  0.00    -0.014 A 
BRANCH  11  12
ATOM     12  C   UNL A   1      40.491  28.851  29.702  1.00  0.00     0.031 A 
ATOM     13  C   UNL A   1      42.005  29.668  29.180  1.00  0.00     0.074 A 
ATOM     14  C   UNL A   1      38.942  29.433  30.451  1.00  0.00     0.049 A 
ATOM     15  N   UNL A   1      42.867  30.313  29.915  1.00  0.00    -0.248 NA
ATOM     16  C   UNL A   1      42.416  29.699  27.747  1.00  0.00     0.031 C 
ATOM     17  C   UNL A   1      37.413  28.938  30.797  1.00  0.00     0.029 A 
ATOM     18  N   UNL A   1      38.463  30.808  30.946  1.00  0.00    -0.354 N 
ATOM     19  C   UNL A   1      43.589  31.131  29.085  1.00  0.00     0.074 A 
ATOM     20  C   UNL A   1      43.444  30.562  27.765  1.00  0.00     0.031 C 
ATOM     21  C   UNL A   1      36.496  29.938  30.696  1.00  0.00     0.029 A 
ATOM     22  C   UNL A   1      37.169  31.189  30.617  1.00  0.00     0.049 A 
ATOM     23  H   UNL A   1      39.051  31.395  31.474  1.00  0.00     0.167 HD
ATOM     24  C   UNL A   1      44.023  32.369  29.455  1.00  0.00     0.037 A 
ATOM     25  C   UNL A   1      36.806  32.446  30.245  1.00  0.00     0.037 A 
ATOM     26  C   UNL A   1      43.600  32.889  30.738  1.00  0.00     0.049 A 
ATOM     27  C   UNL A   1      37.881  33.437  30.584  1.00  0.00     0.074 A 
ATOM     28  C   UNL A   1      44.195  33.229  31.934  1.00  0.00     0.029 A 
ATOM     29  N   UNL A   1      42.276  33.252  30.854  1.00  0.00    -0.354 N 
ATOM     30  N   UNL A   1      38.323  33.674  31.787  1.00  0.00    -0.248 NA
ATOM     31  C   UNL A   1      38.636  34.107  29.519  1.00  0.00     0.031 C 
ATOM     32  C   UNL A   1      43.179  33.750  32.793  1.00  0.00     0.029 A 
ATOM     33  C   UNL A   1      41.971  33.740  32.111  1.00  0.00     0.049 A 
ATOM     34  H   UNL A   1      41.620  33.175  30.124  1.00  0.00     0.167 HD
ATOM     35  C   UNL A   1      39.603  34.158  31.599  1.00  0.00     0.074 A 
ATOM     36  C   UNL A   1      39.693  34.545  30.207  1.00  0.00     0.031 C 
ATOM     37  C   UNL A   1      40.589  33.927  32.506  1.00  0.00     0.037 A 
BRANCH  24  38
ATOM     38  C   UNL A   1      44.602  33.339  28.493  1.00  0.00     0.064 A 
ATOM     39  C   UNL A   1      43.779  34.254  27.825  1.00  0.00     0.173 A 
ATOM     40  C   UNL A   1      45.931  33.224  28.066  1.00  0.00     0.173 A 
ATOM     41  F   UNL A   1      42.486  34.371  28.163  1.00  0.00    -0.203 F 
ATOM     42  C   UNL A   1      44.271  35.030  26.779  1.00  0.00     0.198 A 
ATOM     43  C   UNL A   1      46.426  34.016  27.035  1.00  0.00     0.198 A 
ATOM     44  F   UNL A   1      46.738  32.302  28.614  1.00  0.00    -0.203 F 
ATOM     45  F   UNL A   1      43.456  35.874  26.134  1.00  0.00    -0.200 F 
ATOM     46  C   UNL A   1      45.595  34.914  26.387  1.00  0.00     0.200 A 
ATOM     47  F   UNL A   1      47.701  33.883  26.649  1.00  0.00    -0.200 F 
ATOM     48  F   UNL A   1      46.064  35.652  25.373  1.00  0.00    -0.200 F 
ENDBRANCH  24  38
BRANCH  25  49
ATOM     49  C   UNL A   1      35.676  32.873  29.387  1.00  0.00     0.064 A 
ATOM     50  C   UNL A   1      35.262  32.101  28.292  1.00  0.00     0.173 A 
ATOM     51  C   UNL A   1      34.813  33.905  29.776  1.00  0.00     0.173 A 
ATOM     52  F   UNL A   1      35.992  31.048  27.895  1.00  0.00    -0.203 F 
ATOM     53  C   UNL A   1      34.057  32.353  27.629  1.00  0.00     0.198 A 
ATOM     54  C   UNL A   1      33.623  34.178  29.105  1.00  0.00     0.198 A 
ATOM     55  F   UNL A   1      35.068  34.608  30.880  1.00  0.00    -0.203 F 
ATOM     56  F   UNL A   1      33.669  31.556  26.627  1.00  0.00    -0.200 F 
ATOM     57  C   UNL A   1      33.240  33.395  28.035  1.00  0.00     0.200 A 
ATOM     58  F   UNL A   1      32.830  35.171  29.531  1.00  0.00    -0.200 F 
ATOM     59  F   UNL A   1      32.071  33.618  27.420  1.00  0.00    -0.200 F 
ENDBRANCH  25  49
BRANCH  37  60
ATOM     60  C   UNL A   1      40.131  33.720  33.920  1.00  0.00     0.064 A 
ATOM     61  C   UNL A   1      39.680  32.487  34.428  1.00  0.00     0.173 A 
ATOM     62  C   UNL A   1      40.047  34.830  34.772  1.00  0.00     0.173 A 
ATOM     63  F   UNL A   1      39.673  31.384  33.670  1.00  0.00    -0.203 F 
ATOM     64  C   UNL A   1      39.166  32.375  35.719  1.00  0.00     0.198 A 
ATOM     65  C   UNL A   1      39.537  34.714  36.064  1.00  0.00     0.198 A 
ATOM     66  F   UNL A   1      40.432  36.041  34.340  1.00  0.00    -0.203 F 
ATOM     67  F   UNL A   1      38.705  31.194  36.157  1.00  0.00    -0.200 F 
ATOM     68  C   UNL A   1      39.094  33.489  36.536  1.00  0.00     0.200 A 
ATOM     69  F   UNL A   1      39.453  35.798  36.848  1.00  0.00    -0.200 F 
ATOM     70  F   UNL A   1      38.579  33.386  37.769  1.00  0.00    -0.200 F 
ENDBRANCH  37  60
ENDBRANCH  11  12
ENDBRANCH   4   6
ENDBRANCH   3   4
ENDBRANCH   2   3
ENDBRANCH   1   2
BRANCH   1  71
ATOM     71  O   UNL A   1      46.762  23.467  26.806  1.00  0.00    -0.462 OA
BRANCH  71  72
ATOM     72  C   UNL A   1      47.588  24.560  26.764  1.00  0.00     0.310 C 
ATOM     73  O   UNL A   1      48.697  24.611  27.274  1.00  0.00    -0.252 OA
BRANCH  72  74
ATOM     74  C   UNL A   1      46.931  25.679  25.990  1.00  0.00     0.115 C 
ATOM     75  C   UNL A   1      47.877  26.319  24.979  1.00  0.00     0.043 C 
ATOM     76  C   UNL A   1      46.198  26.705  26.852  1.00  0.00     0.097 C 
ATOM     77  C   UNL A   1      47.168  27.381  24.188  1.00  0.00    -0.030 C 
ATOM     78  C   UNL A   1      45.434  27.720  25.965  1.00  0.00     0.041 C 
ATOM     79  C   UNL A   1      46.059  27.993  24.626  1.00  0.00    -0.030 C 
BRANCH  76  80
ATOM     80  C   UNL A   1      46.947  27.473  27.953  1.00  0.00     0.227 C 
ATOM     81  O   UNL A   1      47.739  28.375  27.693  1.00  0.00    -0.275 OA
ATOM     82  N   UNL A   1      46.473  27.265  29.253  1.00  0.00    -0.339 N 
ATOM     83  C   UNL A   1      45.843  28.784  30.183  1.00  0.00     0.141 C 
ATOM     84  C   UNL A   1      46.681  25.589  30.056  1.00  0.00     0.141 C 
ATOM     85  C   UNL A   1      45.254  28.549  32.127  1.00  0.00     0.141 C 
ATOM     86  C   UNL A   1      46.153  25.338  31.966  1.00  0.00     0.141 C 
ATOM     87  N   UNL A   1      45.460  26.812  32.924  1.00  0.00    -0.334 N 
ATOM     88  C   UNL A   1      45.279  26.747  34.312  1.00  0.00     0.265 C 
ATOM     89  O   UNL A   1      44.868  27.752  34.898  1.00  0.00    -0.268 OA
BRANCH  88  90
ATOM     90  C   UNL A   1      45.498  25.479  35.018  1.00  0.00     0.112 A 
ATOM     91  S   UNL A   1      46.853  25.429  36.084  1.00  0.00    -0.128 S 
ATOM     92  C   UNL A   1      44.926  24.219  34.932  1.00  0.00     0.072 A 
ATOM     93  C   UNL A   1      46.696  23.743  36.390  1.00  0.00     0.043 A 
ATOM     94  C   UNL A   1      45.574  23.222  35.751  1.00  0.00     0.012 A 
ATOM     95  Cl  UNL A   1      43.639  23.683  33.929  1.00  0.00    -0.082 Cl
ATOM     96  C   UNL A   1      47.552  22.925  37.160  1.00  0.00     0.105 A 
ATOM     97  C   UNL A   1      45.277  21.841  35.935  1.00  0.00     0.018 A 
ATOM     98  C   UNL A   1      47.246  21.559  37.283  1.00  0.00     0.270 A 
ATOM     99  C   UNL A   1      46.108  21.018  36.694  1.00  0.00     0.086 A 
BRANCH  98 100
ATOM    100  N   UNL A   1      48.148  20.675  38.032  1.00  0.00     0.062 N 
ATOM    101  O   UNL A   1      48.578  21.084  39.118  1.00  0.00    -0.258 OA
ATOM    102  O   UNL A   1      48.427  19.577  37.530  1.00  0.00    -0.258 OA
ENDBRANCH  98 100
ENDBRANCH  88  90
ENDBRANCH  76  80
ENDBRANCH  72  74
ENDBRANCH  71  72
ENDBRANCH   1  71
TORSDOF 14
ENDMDL
