MODEL 1
REMARK VINA RESULT:     -11.9      0.000      0.000
REMARK SMILES CC1(C)C[C@@H]([NH2+]C[C@@H]2CCCC[C@@H]2C(=O)OCCOC(=O)c2ccc(-c3c4nc(c(-c5c(F)c(F)c(F)c(F)c5F)c5ccc([nH]5)c(-c5c(F)c(F)c(F)c(F)c5F)c5nc(c(-c6c(F)c(F)c(F)c(F)c6F)c6ccc3[nH]6)C=C5)C=C4)cc2)C(C)(C)O1
REMARK SMILES IDX 17 1 16 2 14 3 15 4 13 5 8 6 9 7 10 8 12 9 11 10 7 11 6 12
REMARK SMILES IDX 5 15 1 16 2 17 3 18 4 19 88 20 85 21 86 22 87 23 18 24 19 25
REMARK SMILES IDX 20 26 21 27 22 28 23 29 84 30 24 31 83 32 25 33 26 34 27 35
REMARK SMILES IDX 77 36 28 37 82 38 76 39 78 40 29 41 81 42 75 43 74 44 30 46
REMARK SMILES IDX 62 47 42 48 61 49 43 50 46 51 60 52 79 53 44 54 45 55 59 57
REMARK SMILES IDX 80 58 47 59 31 60 32 61 40 62 33 63 34 64 38 65 41 66 35 67
REMARK SMILES IDX 36 68 39 69 37 70 63 71 64 72 72 73 65 74 66 75 70 76 73 77
REMARK SMILES IDX 67 78 68 79 71 80 69 81 48 82 49 83 57 84 50 85 51 86 55 87
REMARK SMILES IDX 58 88 52 89 53 90 56 91 54 92
REMARK H PARENT 6 13 6 14 78 45 46 56
REMARK Flexibility Score: inf
ROOT
ATOM      1  C   UNL A   1      35.349  20.646  25.392  1.00  0.00     0.274 C 
ENDROOT
BRANCH   1   2
ATOM      2  O   UNL A   1      35.367  21.958  25.999  1.00  0.00    -0.462 OA
BRANCH   2   3
ATOM      3  C   UNL A   1      34.181  22.620  25.949  1.00  0.00     0.309 C 
ATOM      4  O   UNL A   1      33.123  22.158  26.359  1.00  0.00    -0.252 OA
BRANCH   3   5
ATOM      5  C   UNL A   1      34.322  24.002  25.298  1.00  0.00     0.108 C 
ATOM      6  C   UNL A   1      32.982  24.739  25.040  1.00  0.00     0.058 C 
ATOM      7  C   UNL A   1      32.162  23.852  24.096  1.00  0.00     0.010 C 
ATOM      8  C   UNL A   1      32.820  23.738  22.729  1.00  0.00     0.001 C 
ATOM      9  C   UNL A   1      35.069  23.851  23.947  1.00  0.00     0.016 C 
ATOM     10  C   UNL A   1      34.241  23.199  22.828  1.00  0.00     0.001 C 
BRANCH   6  11
ATOM     11  C   UNL A   1      32.231  25.164  26.326  1.00  0.00     0.265 C 
BRANCH  11  12
ATOM     12  N   UNL A   1      31.667  26.534  26.338  1.00  0.00    -0.341 N 
ATOM     13  H   UNL A   1      31.034  26.621  25.543  1.00  0.00     0.346 HD
ATOM     14  H   UNL A   1      31.205  26.639  27.243  1.00  0.00     0.346 HD
BRANCH  12  15
ATOM     15  C   UNL A   1      32.644  27.619  26.258  1.00  0.00     0.217 C 
ATOM     16  C   UNL A   1      33.202  31.142  27.353  1.00  0.00     0.042 C 
ATOM     17  C   UNL A   1      33.499  29.741  26.835  1.00  0.00     0.069 C 
ATOM     18  C   UNL A   1      34.920  29.358  27.259  1.00  0.00     0.042 C 
ATOM     19  C   UNL A   1      32.470  28.717  27.305  1.00  0.00     0.103 C 
ATOM     20  O   UNL A   1      33.430  29.707  25.391  1.00  0.00    -0.363 OA
ATOM     21  C   UNL A   1      32.707  28.506  24.980  1.00  0.00     0.115 C 
ATOM     22  C   UNL A   1      31.343  28.967  24.451  1.00  0.00     0.048 C 
ATOM     23  C   UNL A   1      33.487  27.845  23.844  1.00  0.00     0.048 C 
ENDBRANCH  12  15
ENDBRANCH  11  12
ENDBRANCH   6  11
ENDBRANCH   3   5
ENDBRANCH   2   3
ENDBRANCH   1   2
BRANCH   1  24
ATOM     24  C   UNL A   1      36.745  20.221  24.939  1.00  0.00     0.275 C 
BRANCH  24  25
ATOM     25  O   UNL A   1      37.663  21.327  25.013  1.00  0.00    -0.458 OA
BRANCH  25  26
ATOM     26  C   UNL A   1      38.769  21.108  25.771  1.00  0.00     0.338 C 
ATOM     27  O   UNL A   1      39.328  20.035  25.926  1.00  0.00    -0.246 OA
BRANCH  26  28
ATOM     28  C   UNL A   1      39.278  22.374  26.371  1.00  0.00     0.060 A 
ATOM     29  C   UNL A   1      38.646  23.592  26.161  1.00  0.00     0.016 A 
ATOM     30  C   UNL A   1      40.482  22.363  27.083  1.00  0.00     0.016 A 
ATOM     31  C   UNL A   1      39.301  24.790  26.477  1.00  0.00     0.010 A 
ATOM     32  C   UNL A   1      41.055  23.564  27.540  1.00  0.00     0.010 A 
ATOM     33  C   UNL A   1      40.517  24.811  27.185  1.00  0.00    -0.014 A 
BRANCH  33  34
ATOM     34  C   UNL A   1      41.231  26.107  27.485  1.00  0.00     0.031 A 
ATOM     35  C   UNL A   1      40.549  27.226  28.261  1.00  0.00     0.074 A 
ATOM     36  C   UNL A   1      42.532  26.286  27.164  1.00  0.00     0.049 A 
ATOM     37  N   UNL A   1      41.003  28.423  28.567  1.00  0.00    -0.248 NA
ATOM     38  C   UNL A   1      39.209  26.956  28.806  1.00  0.00     0.031 C 
ATOM     39  C   UNL A   1      43.384  25.312  26.481  1.00  0.00     0.029 A 
ATOM     40  N   UNL A   1      43.382  27.350  27.392  1.00  0.00    -0.354 N 
ATOM     41  C   UNL A   1      40.020  29.023  29.348  1.00  0.00     0.074 A 
ATOM     42  C   UNL A   1      38.928  28.081  29.446  1.00  0.00     0.031 C 
ATOM     43  C   UNL A   1      44.636  25.786  26.410  1.00  0.00     0.029 A 
ATOM     44  C   UNL A   1      44.655  27.156  26.911  1.00  0.00     0.049 A 
ATOM     45  H   UNL A   1      43.102  28.171  27.856  1.00  0.00     0.167 HD
ATOM     46  C   UNL A   1      40.019  30.236  29.953  1.00  0.00     0.037 A 
ATOM     47  C   UNL A   1      45.711  27.989  26.800  1.00  0.00     0.037 A 
ATOM     48  C   UNL A   1      41.075  31.209  29.875  1.00  0.00     0.049 A 
ATOM     49  C   UNL A   1      45.592  29.416  27.252  1.00  0.00     0.074 A 
ATOM     50  C   UNL A   1      41.122  32.478  30.427  1.00  0.00     0.029 A 
ATOM     51  N   UNL A   1      42.267  31.026  29.197  1.00  0.00    -0.354 N 
ATOM     52  N   UNL A   1      44.623  29.995  27.913  1.00  0.00    -0.248 NA
ATOM     53  C   UNL A   1      46.699  30.318  26.897  1.00  0.00     0.031 C 
ATOM     54  C   UNL A   1      42.322  33.085  30.037  1.00  0.00     0.029 A 
ATOM     55  C   UNL A   1      43.036  32.177  29.276  1.00  0.00     0.049 A 
ATOM     56  H   UNL A   1      42.529  30.201  28.728  1.00  0.00     0.167 HD
ATOM     57  C   UNL A   1      44.999  31.324  28.052  1.00  0.00     0.074 A 
ATOM     58  C   UNL A   1      46.297  31.465  27.429  1.00  0.00     0.031 C 
ATOM     59  C   UNL A   1      44.316  32.335  28.639  1.00  0.00     0.037 A 
BRANCH  46  60
ATOM     60  C   UNL A   1      38.806  30.610  30.750  1.00  0.00     0.064 A 
ATOM     61  C   UNL A   1      38.772  30.460  32.144  1.00  0.00     0.173 A 
ATOM     62  C   UNL A   1      37.698  31.193  30.119  1.00  0.00     0.173 A 
ATOM     63  F   UNL A   1      39.811  29.911  32.789  1.00  0.00    -0.203 F 
ATOM     64  C   UNL A   1      37.664  30.875  32.878  1.00  0.00     0.198 A 
ATOM     65  C   UNL A   1      36.600  31.622  30.858  1.00  0.00     0.198 A 
ATOM     66  F   UNL A   1      37.693  31.367  28.789  1.00  0.00    -0.203 F 
ATOM     67  F   UNL A   1      37.642  30.715  34.208  1.00  0.00    -0.200 F 
ATOM     68  C   UNL A   1      36.582  31.462  32.235  1.00  0.00     0.200 A 
ATOM     69  F   UNL A   1      35.562  32.201  30.238  1.00  0.00    -0.200 F 
ATOM     70  F   UNL A   1      35.523  31.876  32.944  1.00  0.00    -0.200 F 
ENDBRANCH  46  60
BRANCH  47  71
ATOM     71  C   UNL A   1      46.947  27.519  26.116  1.00  0.00     0.064 A 
ATOM     72  C   UNL A   1      48.012  26.957  26.831  1.00  0.00     0.173 A 
ATOM     73  C   UNL A   1      47.082  27.629  24.722  1.00  0.00     0.173 A 
ATOM     74  F   UNL A   1      47.952  26.869  28.167  1.00  0.00    -0.203 F 
ATOM     75  C   UNL A   1      49.160  26.513  26.176  1.00  0.00     0.198 A 
ATOM     76  C   UNL A   1      48.211  27.151  24.066  1.00  0.00     0.198 A 
ATOM     77  F   UNL A   1      46.100  28.181  23.994  1.00  0.00    -0.203 F 
ATOM     78  F   UNL A   1      50.182  26.013  26.883  1.00  0.00    -0.200 F 
ATOM     79  C   UNL A   1      49.253  26.597  24.793  1.00  0.00     0.200 A 
ATOM     80  F   UNL A   1      48.286  27.223  22.730  1.00  0.00    -0.200 F 
ATOM     81  F   UNL A   1      50.347  26.152  24.162  1.00  0.00    -0.200 F 
ENDBRANCH  47  71
BRANCH  59  82
ATOM     82  C   UNL A   1      44.949  33.695  28.634  1.00  0.00     0.064 A 
ATOM     83  C   UNL A   1      45.870  34.070  29.622  1.00  0.00     0.173 A 
ATOM     84  C   UNL A   1      44.654  34.621  27.622  1.00  0.00     0.173 A 
ATOM     85  F   UNL A   1      46.171  33.226  30.620  1.00  0.00    -0.203 F 
ATOM     86  C   UNL A   1      46.459  35.332  29.608  1.00  0.00     0.198 A 
ATOM     87  C   UNL A   1      45.263  35.872  27.598  1.00  0.00     0.198 A 
ATOM     88  F   UNL A   1      43.781  34.309  26.652  1.00  0.00    -0.203 F 
ATOM     89  F   UNL A   1      47.305  35.684  30.585  1.00  0.00    -0.200 F 
ATOM     90  C   UNL A   1      46.161  36.229  28.594  1.00  0.00     0.200 A 
ATOM     91  F   UNL A   1      44.979  36.736  26.614  1.00  0.00    -0.200 F 
ATOM     92  F   UNL A   1      46.730  37.443  28.582  1.00  0.00    -0.200 F 
ENDBRANCH  59  82
ENDBRANCH  33  34
ENDBRANCH  26  28
ENDBRANCH  25  26
ENDBRANCH  24  25
ENDBRANCH   1  24
TORSDOF 14
ENDMDL
MODEL 2
REMARK VINA RESULT:     -11.8      4.028      9.824
REMARK SMILES CC1(C)C[C@@H]([NH2+]C[C@@H]2CCCC[C@@H]2C(=O)OCCOC(=O)c2ccc(-c3c4nc(c(-c5c(F)c(F)c(F)c(F)c5F)c5ccc([nH]5)c(-c5c(F)c(F)c(F)c(F)c5F)c5nc(c(-c6c(F)c(F)c(F)c(F)c6F)c6ccc3[nH]6)C=C5)C=C4)cc2)C(C)(C)O1
REMARK SMILES IDX 17 1 16 2 14 3 15 4 13 5 8 6 9 7 10 8 12 9 11 10 7 11 6 12
REMARK SMILES IDX 5 15 1 16 2 17 3 18 4 19 88 20 85 21 86 22 87 23 18 24 19 25
REMARK SMILES IDX 20 26 21 27 22 28 23 29 84 30 24 31 83 32 25 33 26 34 27 35
REMARK SMILES IDX 77 36 28 37 82 38 76 39 78 40 29 41 81 42 75 43 74 44 30 46
REMARK SMILES IDX 62 47 42 48 61 49 43 50 46 51 60 52 79 53 44 54 45 55 59 57
REMARK SMILES IDX 80 58 47 59 31 60 32 61 40 62 33 63 34 64 38 65 41 66 35 67
REMARK SMILES IDX 36 68 39 69 37 70 63 71 64 72 72 73 65 74 66 75 70 76 73 77
REMARK SMILES IDX 67 78 68 79 71 80 69 81 48 82 49 83 57 84 50 85 51 86 55 87
REMARK SMILES IDX 58 88 52 89 53 90 56 91 54 92
REMARK H PARENT 6 13 6 14 78 45 46 56
REMARK Flexibility Score: inf
ROOT
ATOM      1  C   UNL A   1      31.428  29.365  24.843  1.00  0.00     0.274 C 
ENDROOT
BRANCH   1   2
ATOM      2  O   UNL A   1      31.755  28.200  25.634  1.00  0.00    -0.462 OA
BRANCH   2   3
ATOM      3  C   UNL A   1      32.771  27.446  25.134  1.00  0.00     0.309 C 
ATOM      4  O   UNL A   1      33.745  27.910  24.553  1.00  0.00    -0.252 OA
BRANCH   3   5
ATOM      5  C   UNL A   1      32.539  25.947  25.365  1.00  0.00     0.108 C 
ATOM      6  C   UNL A   1      32.540  25.083  24.076  1.00  0.00     0.058 C 
ATOM      7  C   UNL A   1      31.404  25.609  23.190  1.00  0.00     0.010 C 
ATOM      8  C   UNL A   1      30.044  25.366  23.827  1.00  0.00     0.001 C 
ATOM      9  C   UNL A   1      31.181  25.750  26.089  1.00  0.00     0.016 C 
ATOM     10  C   UNL A   1      29.946  25.999  25.208  1.00  0.00     0.001 C 
BRANCH   6  11
ATOM     11  C   UNL A   1      33.913  25.000  23.367  1.00  0.00     0.265 C 
BRANCH  11  12
ATOM     12  N   UNL A   1      34.570  23.671  23.356  1.00  0.00    -0.341 N 
ATOM     13  H   UNL A   1      33.840  22.959  23.335  1.00  0.00     0.346 HD
ATOM     14  H   UNL A   1      35.174  23.664  22.532  1.00  0.00     0.346 HD
BRANCH  12  15
ATOM     15  C   UNL A   1      35.442  23.390  24.495  1.00  0.00     0.217 C 
ATOM     16  C   UNL A   1      38.526  21.506  25.424  1.00  0.00     0.042 C 
ATOM     17  C   UNL A   1      37.389  22.517  25.501  1.00  0.00     0.069 C 
ATOM     18  C   UNL A   1      37.893  23.757  26.248  1.00  0.00     0.042 C 
ATOM     19  C   UNL A   1      36.830  22.868  24.126  1.00  0.00     0.103 C 
ATOM     20  O   UNL A   1      36.270  21.968  26.233  1.00  0.00    -0.363 OA
ATOM     21  C   UNL A   1      35.035  22.297  25.526  1.00  0.00     0.115 C 
ATOM     22  C   UNL A   1      34.517  20.992  24.906  1.00  0.00     0.048 C 
ATOM     23  C   UNL A   1      34.019  22.803  26.548  1.00  0.00     0.048 C 
ENDBRANCH  12  15
ENDBRANCH  11  12
ENDBRANCH   6  11
ENDBRANCH   3   5
ENDBRANCH   2   3
ENDBRANCH   1   2
BRANCH   1  24
ATOM     24  C   UNL A   1      31.417  30.634  25.694  1.00  0.00     0.275 C 
BRANCH  24  25
ATOM     25  O   UNL A   1      32.238  30.467  26.864  1.00  0.00    -0.458 OA
BRANCH  25  26
ATOM     26  C   UNL A   1      33.000  31.543  27.192  1.00  0.00     0.338 C 
ATOM     27  O   UNL A   1      32.642  32.709  27.158  1.00  0.00    -0.246 OA
BRANCH  26  28
ATOM     28  C   UNL A   1      34.351  31.131  27.666  1.00  0.00     0.060 A 
ATOM     29  C   UNL A   1      34.694  29.796  27.837  1.00  0.00     0.016 A 
ATOM     30  C   UNL A   1      35.275  32.109  28.050  1.00  0.00     0.016 A 
ATOM     31  C   UNL A   1      35.843  29.450  28.559  1.00  0.00     0.010 A 
ATOM     32  C   UNL A   1      36.504  31.746  28.629  1.00  0.00     0.010 A 
ATOM     33  C   UNL A   1      36.786  30.413  28.966  1.00  0.00    -0.014 A 
BRANCH  33  34
ATOM     34  C   UNL A   1      38.001  30.030  29.776  1.00  0.00     0.031 A 
ATOM     35  C   UNL A   1      39.063  29.092  29.218  1.00  0.00     0.074 A 
ATOM     36  C   UNL A   1      38.244  30.583  30.987  1.00  0.00     0.049 A 
ATOM     37  N   UNL A   1      40.148  28.623  29.798  1.00  0.00    -0.248 NA
ATOM     38  C   UNL A   1      38.919  28.659  27.820  1.00  0.00     0.031 C 
ATOM     39  C   UNL A   1      37.389  31.555  31.667  1.00  0.00     0.029 A 
ATOM     40  N   UNL A   1      39.303  30.423  31.857  1.00  0.00    -0.354 N 
ATOM     41  C   UNL A   1      40.811  27.872  28.833  1.00  0.00     0.074 A 
ATOM     42  C   UNL A   1      39.998  27.911  27.638  1.00  0.00     0.031 C 
ATOM     43  C   UNL A   1      37.982  31.955  32.801  1.00  0.00     0.029 A 
ATOM     44  C   UNL A   1      39.193  31.167  33.008  1.00  0.00     0.049 A 
ATOM     45  H   UNL A   1      40.068  29.831  31.672  1.00  0.00     0.167 HD
ATOM     46  C   UNL A   1      41.998  27.221  28.910  1.00  0.00     0.037 A 
ATOM     47  C   UNL A   1      39.919  31.179  34.145  1.00  0.00     0.037 A 
ATOM     48  C   UNL A   1      42.833  27.144  30.078  1.00  0.00     0.049 A 
ATOM     49  C   UNL A   1      41.088  30.249  34.298  1.00  0.00     0.074 A 
ATOM     50  C   UNL A   1      44.028  26.463  30.241  1.00  0.00     0.029 A 
ATOM     51  N   UNL A   1      42.560  27.762  31.284  1.00  0.00    -0.354 N 
ATOM     52  N   UNL A   1      41.654  29.480  33.404  1.00  0.00    -0.248 NA
ATOM     53  C   UNL A   1      41.692  30.157  35.637  1.00  0.00     0.031 C 
ATOM     54  C   UNL A   1      44.451  26.625  31.565  1.00  0.00     0.029 A 
ATOM     55  C   UNL A   1      43.538  27.439  32.212  1.00  0.00     0.049 A 
ATOM     56  H   UNL A   1      41.785  28.344  31.459  1.00  0.00     0.167 HD
ATOM     57  C   UNL A   1      42.674  28.812  34.068  1.00  0.00     0.074 A 
ATOM     58  C   UNL A   1      42.669  29.283  35.436  1.00  0.00     0.031 C 
ATOM     59  C   UNL A   1      43.529  27.882  33.581  1.00  0.00     0.037 A 
BRANCH  46  60
ATOM     60  C   UNL A   1      42.468  26.495  27.686  1.00  0.00     0.064 A 
ATOM     61  C   UNL A   1      43.424  27.057  26.826  1.00  0.00     0.173 A 
ATOM     62  C   UNL A   1      42.015  25.197  27.415  1.00  0.00     0.173 A 
ATOM     63  F   UNL A   1      43.889  28.294  27.051  1.00  0.00    -0.203 F 
ATOM     64  C   UNL A   1      43.902  26.342  25.731  1.00  0.00     0.198 A 
ATOM     65  C   UNL A   1      42.508  24.481  26.329  1.00  0.00     0.198 A 
ATOM     66  F   UNL A   1      41.109  24.617  28.218  1.00  0.00    -0.203 F 
ATOM     67  F   UNL A   1      44.808  26.896  24.912  1.00  0.00    -0.200 F 
ATOM     68  C   UNL A   1      43.449  25.053  25.487  1.00  0.00     0.200 A 
ATOM     69  F   UNL A   1      42.079  23.231  26.102  1.00  0.00    -0.200 F 
ATOM     70  F   UNL A   1      43.922  24.361  24.442  1.00  0.00    -0.200 F 
ENDBRANCH  46  60
BRANCH  47  71
ATOM     71  C   UNL A   1      39.479  32.026  35.288  1.00  0.00     0.064 A 
ATOM     72  C   UNL A   1      39.919  33.347  35.433  1.00  0.00     0.173 A 
ATOM     73  C   UNL A   1      38.605  31.518  36.263  1.00  0.00     0.173 A 
ATOM     74  F   UNL A   1      40.789  33.866  34.554  1.00  0.00    -0.203 F 
ATOM     75  C   UNL A   1      39.492  34.131  36.504  1.00  0.00     0.198 A 
ATOM     76  C   UNL A   1      38.149  32.313  37.308  1.00  0.00     0.198 A 
ATOM     77  F   UNL A   1      38.172  30.251  36.181  1.00  0.00    -0.203 F 
ATOM     78  F   UNL A   1      39.954  35.381  36.644  1.00  0.00    -0.200 F 
ATOM     79  C   UNL A   1      38.596  33.619  37.432  1.00  0.00     0.200 A 
ATOM     80  F   UNL A   1      37.273  31.815  38.192  1.00  0.00    -0.200 F 
ATOM     81  F   UNL A   1      38.170  34.379  38.449  1.00  0.00    -0.200 F 
ENDBRANCH  47  71
BRANCH  59  82
ATOM     82  C   UNL A   1      44.533  27.299  34.529  1.00  0.00     0.064 A 
ATOM     83  C   UNL A   1      45.759  27.936  34.771  1.00  0.00     0.173 A 
ATOM     84  C   UNL A   1      44.263  26.108  35.220  1.00  0.00     0.173 A 
ATOM     85  F   UNL A   1      46.071  29.067  34.121  1.00  0.00    -0.203 F 
ATOM     86  C   UNL A   1      46.685  27.392  35.658  1.00  0.00     0.198 A 
ATOM     87  C   UNL A   1      45.181  25.581  36.123  1.00  0.00     0.198 A 
ATOM     88  F   UNL A   1      43.104  25.461  35.025  1.00  0.00    -0.203 F 
ATOM     89  F   UNL A   1      47.866  27.997  35.843  1.00  0.00    -0.200 F 
ATOM     90  C   UNL A   1      46.394  26.219  36.337  1.00  0.00     0.200 A 
ATOM     91  F   UNL A   1      44.895  24.450  36.784  1.00  0.00    -0.200 F 
ATOM     92  F   UNL A   1      47.286  25.698  37.190  1.00  0.00    -0.200 F 
ENDBRANCH  59  82
ENDBRANCH  33  34
ENDBRANCH  26  28
ENDBRANCH  25  26
ENDBRANCH  24  25
ENDBRANCH   1  24
TORSDOF 14
ENDMDL
MODEL 3
REMARK VINA RESULT:     -11.8      0.231      1.618
REMARK SMILES CC1(C)C[C@@H]([NH2+]C[C@@H]2CCCC[C@@H]2C(=O)OCCOC(=O)c2ccc(-c3c4nc(c(-c5c(F)c(F)c(F)c(F)c5F)c5ccc([nH]5)c(-c5c(F)c(F)c(F)c(F)c5F)c5nc(c(-c6c(F)c(F)c(F)c(F)c6F)c6ccc3[nH]6)C=C5)C=C4)cc2)C(C)(C)O1
REMARK SMILES IDX 17 1 16 2 14 3 15 4 13 5 8 6 9 7 10 8 12 9 11 10 7 11 6 12
REMARK SMILES IDX 5 15 1 16 2 17 3 18 4 19 88 20 85 21 86 22 87 23 18 24 19 25
REMARK SMILES IDX 20 26 21 27 22 28 23 29 84 30 24 31 83 32 25 33 26 34 27 35
REMARK SMILES IDX 77 36 28 37 82 38 76 39 78 40 29 41 81 42 75 43 74 44 30 46
REMARK SMILES IDX 62 47 42 48 61 49 43 50 46 51 60 52 79 53 44 54 45 55 59 57
REMARK SMILES IDX 80 58 47 59 31 60 32 61 40 62 33 63 34 64 38 65 41 66 35 67
REMARK SMILES IDX 36 68 39 69 37 70 63 71 64 72 72 73 65 74 66 75 70 76 73 77
REMARK SMILES IDX 67 78 68 79 71 80 69 81 48 82 49 83 57 84 50 85 51 86 55 87
REMARK SMILES IDX 58 88 52 89 53 90 56 91 54 92
REMARK H PARENT 6 13 6 14 78 45 46 56
REMARK Flexibility Score: inf
ROOT
ATOM      1  C   UNL A   1      35.272  20.697  25.421  1.00  0.00     0.274 C 
ENDROOT
BRANCH   1   2
ATOM      2  O   UNL A   1      35.268  21.929  26.176  1.00  0.00    -0.462 OA
BRANCH   2   3
ATOM      3  C   UNL A   1      34.120  22.651  26.073  1.00  0.00     0.309 C 
ATOM      4  O   UNL A   1      33.008  22.205  26.329  1.00  0.00    -0.252 OA
BRANCH   3   5
ATOM      5  C   UNL A   1      34.383  24.079  25.579  1.00  0.00     0.108 C 
ATOM      6  C   UNL A   1      33.118  24.850  25.118  1.00  0.00     0.058 C 
ATOM      7  C   UNL A   1      32.510  24.051  23.959  1.00  0.00     0.010 C 
ATOM      8  C   UNL A   1      33.431  24.041  22.747  1.00  0.00     0.001 C 
ATOM      9  C   UNL A   1      35.388  24.029  24.398  1.00  0.00     0.016 C 
ATOM     10  C   UNL A   1      34.805  23.480  23.086  1.00  0.00     0.001 C 
BRANCH   6  11
ATOM     11  C   UNL A   1      32.122  25.178  26.256  1.00  0.00     0.265 C 
BRANCH  11  12
ATOM     12  N   UNL A   1      31.596  26.563  26.294  1.00  0.00    -0.341 N 
ATOM     13  H   UNL A   1      30.987  26.690  25.486  1.00  0.00     0.346 HD
ATOM     14  H   UNL A   1      31.114  26.655  27.190  1.00  0.00     0.346 HD
BRANCH  12  15
ATOM     15  C   UNL A   1      32.605  27.621  26.270  1.00  0.00     0.217 C 
ATOM     16  C   UNL A   1      33.252  31.076  27.522  1.00  0.00     0.042 C 
ATOM     17  C   UNL A   1      33.514  29.690  26.947  1.00  0.00     0.069 C 
ATOM     18  C   UNL A   1      34.919  29.248  27.367  1.00  0.00     0.042 C 
ATOM     19  C   UNL A   1      32.451  28.678  27.362  1.00  0.00     0.103 C 
ATOM     20  O   UNL A   1      33.460  29.720  25.502  1.00  0.00    -0.363 OA
ATOM     21  C   UNL A   1      32.707  28.559  25.032  1.00  0.00     0.115 C 
ATOM     22  C   UNL A   1      31.362  29.083  24.511  1.00  0.00     0.048 C 
ATOM     23  C   UNL A   1      33.480  27.925  23.877  1.00  0.00     0.048 C 
ENDBRANCH  12  15
ENDBRANCH  11  12
ENDBRANCH   6  11
ENDBRANCH   3   5
ENDBRANCH   2   3
ENDBRANCH   1   2
BRANCH   1  24
ATOM     24  C   UNL A   1      36.689  20.292  25.018  1.00  0.00     0.275 C 
BRANCH  24  25
ATOM     25  O   UNL A   1      37.585  21.415  25.113  1.00  0.00    -0.458 OA
BRANCH  25  26
ATOM     26  C   UNL A   1      38.724  21.185  25.815  1.00  0.00     0.338 C 
ATOM     27  O   UNL A   1      39.294  20.112  25.923  1.00  0.00    -0.246 OA
BRANCH  26  28
ATOM     28  C   UNL A   1      39.255  22.440  26.420  1.00  0.00     0.060 A 
ATOM     29  C   UNL A   1      38.659  23.674  26.191  1.00  0.00     0.016 A 
ATOM     30  C   UNL A   1      40.444  22.402  27.154  1.00  0.00     0.016 A 
ATOM     31  C   UNL A   1      39.339  24.855  26.514  1.00  0.00     0.010 A 
ATOM     32  C   UNL A   1      41.039  23.590  27.617  1.00  0.00     0.010 A 
ATOM     33  C   UNL A   1      40.542  24.848  27.245  1.00  0.00    -0.014 A 
BRANCH  33  34
ATOM     34  C   UNL A   1      41.283  26.127  27.552  1.00  0.00     0.031 A 
ATOM     35  C   UNL A   1      40.617  27.266  28.313  1.00  0.00     0.074 A 
ATOM     36  C   UNL A   1      42.594  26.271  27.253  1.00  0.00     0.049 A 
ATOM     37  N   UNL A   1      41.096  28.452  28.623  1.00  0.00    -0.248 NA
ATOM     38  C   UNL A   1      39.262  27.032  28.836  1.00  0.00     0.031 C 
ATOM     39  C   UNL A   1      43.432  25.274  26.588  1.00  0.00     0.029 A 
ATOM     40  N   UNL A   1      43.466  27.314  27.492  1.00  0.00    -0.354 N 
ATOM     41  C   UNL A   1      40.116  29.081  29.385  1.00  0.00     0.074 A 
ATOM     42  C   UNL A   1      38.999  28.167  29.468  1.00  0.00     0.031 C 
ATOM     43  C   UNL A   1      44.696  25.715  26.537  1.00  0.00     0.029 A 
ATOM     44  C   UNL A   1      44.742  27.086  27.033  1.00  0.00     0.049 A 
ATOM     45  H   UNL A   1      43.200  28.144  27.949  1.00  0.00     0.167 HD
ATOM     46  C   UNL A   1      40.136  30.295  29.986  1.00  0.00     0.037 A 
ATOM     47  C   UNL A   1      45.821  27.891  26.937  1.00  0.00     0.037 A 
ATOM     48  C   UNL A   1      41.218  31.240  29.922  1.00  0.00     0.049 A 
ATOM     49  C   UNL A   1      45.731  29.323  27.381  1.00  0.00     0.074 A 
ATOM     50  C   UNL A   1      41.288  32.510  30.471  1.00  0.00     0.029 A 
ATOM     51  N   UNL A   1      42.416  31.024  29.265  1.00  0.00    -0.354 N 
ATOM     52  N   UNL A   1      44.766  29.928  28.024  1.00  0.00    -0.248 NA
ATOM     53  C   UNL A   1      46.867  30.195  27.043  1.00  0.00     0.031 C 
ATOM     54  C   UNL A   1      42.509  33.085  30.099  1.00  0.00     0.029 A 
ATOM     55  C   UNL A   1      43.213  32.155  29.353  1.00  0.00     0.049 A 
ATOM     56  H   UNL A   1      42.665  30.191  28.804  1.00  0.00     0.167 HD
ATOM     57  C   UNL A   1      45.174  31.248  28.166  1.00  0.00     0.074 A 
ATOM     58  C   UNL A   1      46.485  31.353  27.564  1.00  0.00     0.031 C 
ATOM     59  C   UNL A   1      44.507  32.279  28.738  1.00  0.00     0.037 A 
BRANCH  46  60
ATOM     60  C   UNL A   1      38.920  30.703  30.761  1.00  0.00     0.064 A 
ATOM     61  C   UNL A   1      37.800  31.258  30.123  1.00  0.00     0.173 A 
ATOM     62  C   UNL A   1      38.847  30.466  32.140  1.00  0.00     0.173 A 
ATOM     63  F   UNL A   1      37.824  31.497  28.804  1.00  0.00    -0.203 F 
ATOM     64  C   UNL A   1      36.651  31.568  30.846  1.00  0.00     0.198 A 
ATOM     65  C   UNL A   1      37.690  30.762  32.856  1.00  0.00     0.198 A 
ATOM     66  F   UNL A   1      39.890  29.926  32.788  1.00  0.00    -0.203 F 
ATOM     67  F   UNL A   1      35.592  32.107  30.225  1.00  0.00    -0.200 F 
ATOM     68  C   UNL A   1      36.595  31.314  32.209  1.00  0.00     0.200 A 
ATOM     69  F   UNL A   1      37.633  30.503  34.170  1.00  0.00    -0.200 F 
ATOM     70  F   UNL A   1      35.483  31.598  32.901  1.00  0.00    -0.200 F 
ENDBRANCH  46  60
BRANCH  47  71
ATOM     71  C   UNL A   1      47.056  27.388  26.275  1.00  0.00     0.064 A 
ATOM     72  C   UNL A   1      48.076  26.764  27.005  1.00  0.00     0.173 A 
ATOM     73  C   UNL A   1      47.235  27.526  24.889  1.00  0.00     0.173 A 
ATOM     74  F   UNL A   1      47.974  26.646  28.336  1.00  0.00    -0.203 F 
ATOM     75  C   UNL A   1      49.223  26.289  26.370  1.00  0.00     0.198 A 
ATOM     76  C   UNL A   1      48.362  27.018  24.252  1.00  0.00     0.198 A 
ATOM     77  F   UNL A   1      46.297  28.135  24.149  1.00  0.00    -0.203 F 
ATOM     78  F   UNL A   1      50.203  25.730  27.092  1.00  0.00    -0.200 F 
ATOM     79  C   UNL A   1      49.359  26.403  24.993  1.00  0.00     0.200 A 
ATOM     80  F   UNL A   1      48.478  27.119  22.921  1.00  0.00    -0.200 F 
ATOM     81  F   UNL A   1      50.451  25.928  24.382  1.00  0.00    -0.200 F 
ENDBRANCH  47  71
BRANCH  59  82
ATOM     82  C   UNL A   1      45.174  33.621  28.738  1.00  0.00     0.064 A 
ATOM     83  C   UNL A   1      44.910  34.563  27.733  1.00  0.00     0.173 A 
ATOM     84  C   UNL A   1      46.064  33.983  29.761  1.00  0.00     0.173 A 
ATOM     85  F   UNL A   1      44.081  34.258  26.724  1.00  0.00    -0.203 F 
ATOM     86  C   UNL A   1      45.528  35.811  27.741  1.00  0.00     0.198 A 
ATOM     87  C   UNL A   1      46.661  35.240  29.779  1.00  0.00     0.198 A 
ATOM     88  F   UNL A   1      46.348  33.118  30.747  1.00  0.00    -0.203 F 
ATOM     89  F   UNL A   1      45.293  36.679  26.748  1.00  0.00    -0.200 F 
ATOM     90  C   UNL A   1      46.398  36.151  28.767  1.00  0.00     0.200 A 
ATOM     91  F   UNL A   1      47.496  35.570  30.774  1.00  0.00    -0.200 F 
ATOM     92  F   UNL A   1      46.991  37.353  28.774  1.00  0.00    -0.200 F 
ENDBRANCH  59  82
ENDBRANCH  33  34
ENDBRANCH  26  28
ENDBRANCH  25  26
ENDBRANCH  24  25
ENDBRANCH   1  24
TORSDOF 14
ENDMDL
