MODEL 1
REMARK VINA RESULT:     -13.1      0.000      0.000
REMARK SMILES CC(C)(C(=O)OCCOC(=O)c1ccc(-c2c3nc(c(-c4c(F)c(F)c(F)c(F)c4F)c4ccc([nH]4)c(-c4c(F)c(F)c(F)c(F)c4F)c4nc(c(-c5c(F)c(F)c(F)c(F)c5F)c5ccc2[nH]5)C=C4)C=C3)cc1)c1ccc(NS(=O)(=O)c2c(F)cc(F)cc2F)cc1
REMARK SMILES IDX 7 1 6 2 4 3 5 4 2 5 1 6 3 7 75 8 76 9 93 10 77 11 92 12
REMARK SMILES IDX 78 13 79 14 80 16 81 17 82 18 83 19 84 20 90 21 85 22 86 23
REMARK SMILES IDX 89 24 91 25 87 26 88 27 8 28 9 29 10 30 11 31 12 32 13 33
REMARK SMILES IDX 74 34 14 35 73 36 15 37 16 38 17 39 67 40 18 41 72 42 66 43
REMARK SMILES IDX 68 44 19 45 71 46 65 47 64 48 20 50 52 51 32 52 51 53 33 54
REMARK SMILES IDX 36 55 50 56 69 57 34 58 35 59 49 61 70 62 37 63 21 64 22 65
REMARK SMILES IDX 30 66 23 67 24 68 28 69 31 70 25 71 26 72 29 73 27 74 53 75
REMARK SMILES IDX 54 76 62 77 55 78 56 79 60 80 63 81 57 82 58 83 61 84 59 85
REMARK SMILES IDX 38 86 39 87 47 88 40 89 41 90 45 91 48 92 42 93 43 94 46 95
REMARK SMILES IDX 44 96
REMARK H PARENT 79 15 68 49 36 60
REMARK Flexibility Score: inf
ROOT
ATOM      1  C   UNL A   1      31.371  30.346  25.482  1.00  0.00     0.274 C 
ENDROOT
BRANCH   1   2
ATOM      2  O   UNL A   1      32.304  29.283  25.769  1.00  0.00    -0.461 OA
BRANCH   2   3
ATOM      3  C   UNL A   1      31.794  28.117  26.259  1.00  0.00     0.316 C 
ATOM      4  O   UNL A   1      31.467  27.976  27.433  1.00  0.00    -0.251 OA
BRANCH   3   5
ATOM      5  C   UNL A   1      31.767  26.979  25.192  1.00  0.00     0.087 C 
ATOM      6  C   UNL A   1      30.316  26.768  24.690  1.00  0.00     0.028 C 
ATOM      7  C   UNL A   1      32.606  27.467  23.997  1.00  0.00     0.028 C 
BRANCH   5   8
ATOM      8  C   UNL A   1      32.391  25.669  25.735  1.00  0.00    -0.031 A 
ATOM      9  C   UNL A   1      33.778  25.452  25.753  1.00  0.00     0.007 A 
ATOM     10  C   UNL A   1      31.584  24.626  26.225  1.00  0.00     0.007 A 
ATOM     11  C   UNL A   1      34.318  24.201  26.069  1.00  0.00     0.027 A 
ATOM     12  C   UNL A   1      32.117  23.359  26.490  1.00  0.00     0.027 A 
ATOM     13  C   UNL A   1      33.477  23.121  26.308  1.00  0.00     0.049 A 
BRANCH  13  14
ATOM     14  N   UNL A   1      33.892  21.767  26.186  1.00  0.00    -0.279 N 
ATOM     15  H   UNL A   1      33.799  21.197  26.983  1.00  0.00     0.180 HD
BRANCH  14  16
ATOM     16  S   UNL A   1      34.526  21.055  24.814  1.00  0.00     0.267 S 
ATOM     17  O   UNL A   1      33.917  21.697  23.668  1.00  0.00    -0.201 OA
ATOM     18  O   UNL A   1      35.957  21.095  25.025  1.00  0.00    -0.201 OA
BRANCH  16  19
ATOM     19  C   UNL A   1      34.083  19.354  24.746  1.00  0.00     0.159 A 
ATOM     20  C   UNL A   1      34.966  18.292  24.641  1.00  0.00     0.149 A 
ATOM     21  C   UNL A   1      32.728  19.064  24.844  1.00  0.00     0.149 A 
ATOM     22  F   UNL A   1      36.281  18.472  24.587  1.00  0.00    -0.205 F 
ATOM     23  C   UNL A   1      34.527  16.969  24.612  1.00  0.00     0.080 A 
ATOM     24  C   UNL A   1      32.262  17.749  24.808  1.00  0.00     0.080 A 
ATOM     25  F   UNL A   1      31.834  20.048  24.994  1.00  0.00    -0.205 F 
ATOM     26  C   UNL A   1      33.171  16.709  24.684  1.00  0.00     0.129 A 
ATOM     27  F   UNL A   1      32.735  15.446  24.628  1.00  0.00    -0.207 F 
ENDBRANCH  16  19
ENDBRANCH  14  16
ENDBRANCH  13  14
ENDBRANCH   5   8
ENDBRANCH   3   5
ENDBRANCH   2   3
ENDBRANCH   1   2
BRANCH   1  28
ATOM     28  C   UNL A   1      31.511  31.477  26.497  1.00  0.00     0.275 C 
BRANCH  28  29
ATOM     29  O   UNL A   1      32.655  31.238  27.338  1.00  0.00    -0.458 OA
BRANCH  29  30
ATOM     30  C   UNL A   1      33.403  32.320  27.641  1.00  0.00     0.338 C 
ATOM     31  O   UNL A   1      33.026  33.466  27.827  1.00  0.00    -0.246 OA
BRANCH  30  32
ATOM     32  C   UNL A   1      34.814  31.932  27.779  1.00  0.00     0.060 A 
ATOM     33  C   UNL A   1      35.111  30.587  27.924  1.00  0.00     0.016 A 
ATOM     34  C   UNL A   1      35.805  32.892  28.001  1.00  0.00     0.016 A 
ATOM     35  C   UNL A   1      36.353  30.222  28.444  1.00  0.00     0.010 A 
ATOM     36  C   UNL A   1      37.086  32.501  28.435  1.00  0.00     0.010 A 
ATOM     37  C   UNL A   1      37.354  31.164  28.762  1.00  0.00    -0.014 A 
BRANCH  37  38
ATOM     38  C   UNL A   1      38.570  30.705  29.531  1.00  0.00     0.031 A 
ATOM     39  C   UNL A   1      38.829  31.128  30.974  1.00  0.00     0.074 A 
ATOM     40  C   UNL A   1      39.368  29.750  29.000  1.00  0.00     0.049 A 
ATOM     41  N   UNL A   1      39.730  30.677  31.817  1.00  0.00    -0.248 NA
ATOM     42  C   UNL A   1      37.975  32.174  31.557  1.00  0.00     0.031 C 
ATOM     43  C   UNL A   1      39.269  29.237  27.632  1.00  0.00     0.029 A 
ATOM     44  N   UNL A   1      40.375  28.993  29.556  1.00  0.00    -0.354 N 
ATOM     45  C   UNL A   1      39.521  31.344  33.022  1.00  0.00     0.074 A 
ATOM     46  C   UNL A   1      38.449  32.283  32.792  1.00  0.00     0.031 C 
ATOM     47  C   UNL A   1      40.091  28.189  27.490  1.00  0.00     0.029 A 
ATOM     48  C   UNL A   1      40.863  28.018  28.716  1.00  0.00     0.049 A 
ATOM     49  H   UNL A   1      40.714  29.137  30.469  1.00  0.00     0.167 HD
ATOM     50  C   UNL A   1      40.139  31.184  34.219  1.00  0.00     0.037 A 
ATOM     51  C   UNL A   1      41.839  27.101  28.884  1.00  0.00     0.037 A 
ATOM     52  C   UNL A   1      41.227  30.279  34.478  1.00  0.00     0.049 A 
ATOM     53  C   UNL A   1      42.611  27.066  30.173  1.00  0.00     0.074 A 
ATOM     54  C   UNL A   1      41.938  30.102  35.655  1.00  0.00     0.029 A 
ATOM     55  N   UNL A   1      41.761  29.397  33.555  1.00  0.00    -0.354 N 
ATOM     56  N   UNL A   1      42.395  27.719  31.285  1.00  0.00    -0.248 NA
ATOM     57  C   UNL A   1      43.791  26.188  30.212  1.00  0.00     0.031 C 
ATOM     58  C   UNL A   1      42.945  29.160  35.424  1.00  0.00     0.029 A 
ATOM     59  C   UNL A   1      42.840  28.728  34.113  1.00  0.00     0.049 A 
ATOM     60  H   UNL A   1      41.425  29.265  32.639  1.00  0.00     0.167 HD
ATOM     61  C   UNL A   1      43.410  27.341  32.152  1.00  0.00     0.074 A 
ATOM     62  C   UNL A   1      44.220  26.367  31.452  1.00  0.00     0.031 C 
ATOM     63  C   UNL A   1      43.661  27.781  33.408  1.00  0.00     0.037 A 
BRANCH  50  64
ATOM     64  C   UNL A   1      39.666  32.015  35.378  1.00  0.00     0.064 A 
ATOM     65  C   UNL A   1      40.133  33.323  35.562  1.00  0.00     0.173 A 
ATOM     66  C   UNL A   1      38.662  31.554  36.239  1.00  0.00     0.173 A 
ATOM     67  F   UNL A   1      41.060  33.827  34.742  1.00  0.00    -0.203 F 
ATOM     68  C   UNL A   1      39.638  34.132  36.581  1.00  0.00     0.198 A 
ATOM     69  C   UNL A   1      38.150  32.373  37.245  1.00  0.00     0.198 A 
ATOM     70  F   UNL A   1      38.160  30.319  36.090  1.00  0.00    -0.203 F 
ATOM     71  F   UNL A   1      40.127  35.369  36.750  1.00  0.00    -0.200 F 
ATOM     72  C   UNL A   1      38.642  33.658  37.418  1.00  0.00     0.200 A 
ATOM     73  F   UNL A   1      37.171  31.922  38.042  1.00  0.00    -0.200 F 
ATOM     74  F   UNL A   1      38.153  34.442  38.389  1.00  0.00    -0.200 F 
ENDBRANCH  50  64
BRANCH  51  75
ATOM     75  C   UNL A   1      42.202  26.181  27.770  1.00  0.00     0.064 A 
ATOM     76  C   UNL A   1      43.237  26.492  26.877  1.00  0.00     0.173 A 
ATOM     77  C   UNL A   1      41.500  24.984  27.559  1.00  0.00     0.173 A 
ATOM     78  F   UNL A   1      43.917  27.640  27.010  1.00  0.00    -0.203 F 
ATOM     79  C   UNL A   1      43.549  25.644  25.813  1.00  0.00     0.198 A 
ATOM     80  C   UNL A   1      41.839  24.120  26.523  1.00  0.00     0.198 A 
ATOM     81  F   UNL A   1      40.491  24.645  28.375  1.00  0.00    -0.203 F 
ATOM     82  F   UNL A   1      44.508  25.988  24.944  1.00  0.00    -0.200 F 
ATOM     83  C   UNL A   1      42.857  24.454  25.645  1.00  0.00     0.200 A 
ATOM     84  F   UNL A   1      41.177  22.964  26.376  1.00  0.00    -0.200 F 
ATOM     85  F   UNL A   1      43.166  23.633  24.632  1.00  0.00    -0.200 F 
ENDBRANCH  51  75
BRANCH  63  86
ATOM     86  C   UNL A   1      44.886  27.245  34.089  1.00  0.00     0.064 A 
ATOM     87  C   UNL A   1      46.111  27.924  34.004  1.00  0.00     0.173 A 
ATOM     88  C   UNL A   1      44.841  26.062  34.838  1.00  0.00     0.173 A 
ATOM     89  F   UNL A   1      46.209  29.055  33.288  1.00  0.00    -0.203 F 
ATOM     90  C   UNL A   1      47.254  27.420  34.617  1.00  0.00     0.198 A 
ATOM     91  C   UNL A   1      45.980  25.573  35.472  1.00  0.00     0.198 A 
ATOM     92  F   UNL A   1      43.693  25.378  34.957  1.00  0.00    -0.203 F 
ATOM     93  F   UNL A   1      48.425  28.057  34.477  1.00  0.00    -0.200 F 
ATOM     94  C   UNL A   1      47.187  26.246  35.355  1.00  0.00     0.200 A 
ATOM     95  F   UNL A   1      45.913  24.445  36.194  1.00  0.00    -0.200 F 
ATOM     96  F   UNL A   1      48.289  25.760  35.941  1.00  0.00    -0.200 F 
ENDBRANCH  63  86
ENDBRANCH  37  38
ENDBRANCH  30  32
ENDBRANCH  29  30
ENDBRANCH  28  29
ENDBRANCH   1  28
TORSDOF 15
ENDMDL
MODEL 2
REMARK VINA RESULT:     -12.9      1.683      7.507
REMARK SMILES CC(C)(C(=O)OCCOC(=O)c1ccc(-c2c3nc(c(-c4c(F)c(F)c(F)c(F)c4F)c4ccc([nH]4)c(-c4c(F)c(F)c(F)c(F)c4F)c4nc(c(-c5c(F)c(F)c(F)c(F)c5F)c5ccc2[nH]5)C=C4)C=C3)cc1)c1ccc(NS(=O)(=O)c2c(F)cc(F)cc2F)cc1
REMARK SMILES IDX 7 1 6 2 4 3 5 4 2 5 1 6 3 7 75 8 76 9 93 10 77 11 92 12
REMARK SMILES IDX 78 13 79 14 80 16 81 17 82 18 83 19 84 20 90 21 85 22 86 23
REMARK SMILES IDX 89 24 91 25 87 26 88 27 8 28 9 29 10 30 11 31 12 32 13 33
REMARK SMILES IDX 74 34 14 35 73 36 15 37 16 38 17 39 67 40 18 41 72 42 66 43
REMARK SMILES IDX 68 44 19 45 71 46 65 47 64 48 20 50 52 51 32 52 51 53 33 54
REMARK SMILES IDX 36 55 50 56 69 57 34 58 35 59 49 61 70 62 37 63 21 64 22 65
REMARK SMILES IDX 30 66 23 67 24 68 28 69 31 70 25 71 26 72 29 73 27 74 53 75
REMARK SMILES IDX 54 76 62 77 55 78 56 79 60 80 63 81 57 82 58 83 61 84 59 85
REMARK SMILES IDX 38 86 39 87 47 88 40 89 41 90 45 91 48 92 42 93 43 94 46 95
REMARK SMILES IDX 44 96
REMARK H PARENT 79 15 68 49 36 60
REMARK Flexibility Score: inf
ROOT
ATOM      1  C   UNL A   1      30.658  31.643  25.735  1.00  0.00     0.274 C 
ENDROOT
BRANCH   1   2
ATOM      2  O   UNL A   1      31.461  30.459  25.548  1.00  0.00    -0.461 OA
BRANCH   2   3
ATOM      3  C   UNL A   1      31.181  29.677  24.466  1.00  0.00     0.316 C 
ATOM      4  O   UNL A   1      30.182  29.836  23.772  1.00  0.00    -0.251 OA
BRANCH   3   5
ATOM      5  C   UNL A   1      32.210  28.518  24.281  1.00  0.00     0.087 C 
ATOM      6  C   UNL A   1      32.965  28.702  22.940  1.00  0.00     0.028 C 
ATOM      7  C   UNL A   1      33.240  28.651  25.416  1.00  0.00     0.028 C 
BRANCH   5   8
ATOM      8  C   UNL A   1      31.533  27.129  24.382  1.00  0.00    -0.031 A 
ATOM      9  C   UNL A   1      30.841  26.715  25.533  1.00  0.00     0.007 A 
ATOM     10  C   UNL A   1      31.597  26.208  23.321  1.00  0.00     0.007 A 
ATOM     11  C   UNL A   1      30.398  25.397  25.684  1.00  0.00     0.027 A 
ATOM     12  C   UNL A   1      31.202  24.876  23.491  1.00  0.00     0.027 A 
ATOM     13  C   UNL A   1      30.698  24.447  24.716  1.00  0.00     0.049 A 
BRANCH  13  14
ATOM     14  N   UNL A   1      30.703  23.049  24.971  1.00  0.00    -0.279 N 
ATOM     15  H   UNL A   1      29.973  22.519  24.575  1.00  0.00     0.180 HD
BRANCH  14  16
ATOM     16  S   UNL A   1      31.833  22.221  25.881  1.00  0.00     0.267 S 
ATOM     17  O   UNL A   1      31.637  22.594  27.265  1.00  0.00    -0.201 OA
ATOM     18  O   UNL A   1      31.697  20.847  25.446  1.00  0.00    -0.201 OA
BRANCH  16  19
ATOM     19  C   UNL A   1      33.461  22.720  25.439  1.00  0.00     0.159 A 
ATOM     20  C   UNL A   1      34.069  23.910  25.805  1.00  0.00     0.149 A 
ATOM     21  C   UNL A   1      34.202  21.817  24.688  1.00  0.00     0.149 A 
ATOM     22  F   UNL A   1      33.453  24.813  26.560  1.00  0.00    -0.205 F 
ATOM     23  C   UNL A   1      35.374  24.218  25.425  1.00  0.00     0.080 A 
ATOM     24  C   UNL A   1      35.508  22.105  24.286  1.00  0.00     0.080 A 
ATOM     25  F   UNL A   1      33.681  20.633  24.346  1.00  0.00    -0.205 F 
ATOM     26  C   UNL A   1      36.081  23.313  24.654  1.00  0.00     0.129 A 
ATOM     27  F   UNL A   1      37.323  23.608  24.257  1.00  0.00    -0.207 F 
ENDBRANCH  16  19
ENDBRANCH  14  16
ENDBRANCH  13  14
ENDBRANCH   5   8
ENDBRANCH   3   5
ENDBRANCH   2   3
ENDBRANCH   1   2
BRANCH   1  28
ATOM     28  C   UNL A   1      31.408  32.679  26.568  1.00  0.00     0.275 C 
BRANCH  28  29
ATOM     29  O   UNL A   1      32.619  32.101  27.089  1.00  0.00    -0.458 OA
BRANCH  29  30
ATOM     30  C   UNL A   1      33.494  32.965  27.646  1.00  0.00     0.338 C 
ATOM     31  O   UNL A   1      33.304  34.128  27.962  1.00  0.00    -0.246 OA
BRANCH  30  32
ATOM     32  C   UNL A   1      34.777  32.290  27.891  1.00  0.00     0.060 A 
ATOM     33  C   UNL A   1      34.770  30.916  28.069  1.00  0.00     0.016 A 
ATOM     34  C   UNL A   1      35.931  33.025  28.178  1.00  0.00     0.016 A 
ATOM     35  C   UNL A   1      35.866  30.310  28.682  1.00  0.00     0.010 A 
ATOM     36  C   UNL A   1      37.066  32.382  28.709  1.00  0.00     0.010 A 
ATOM     37  C   UNL A   1      37.020  31.026  29.066  1.00  0.00    -0.014 A 
BRANCH  37  38
ATOM     38  C   UNL A   1      38.053  30.338  29.927  1.00  0.00     0.031 A 
ATOM     39  C   UNL A   1      39.076  29.365  29.351  1.00  0.00     0.074 A 
ATOM     40  C   UNL A   1      38.201  30.721  31.216  1.00  0.00     0.049 A 
ATOM     41  N   UNL A   1      40.130  28.836  29.931  1.00  0.00    -0.248 NA
ATOM     42  C   UNL A   1      38.916  28.933  27.954  1.00  0.00     0.031 C 
ATOM     43  C   UNL A   1      37.307  31.635  31.931  1.00  0.00     0.029 A 
ATOM     44  N   UNL A   1      39.187  30.448  32.139  1.00  0.00    -0.354 N 
ATOM     45  C   UNL A   1      40.769  28.058  28.969  1.00  0.00     0.074 A 
ATOM     46  C   UNL A   1      39.956  28.126  27.778  1.00  0.00     0.031 C 
ATOM     47  C   UNL A   1      37.836  31.930  33.125  1.00  0.00     0.029 A 
ATOM     48  C   UNL A   1      39.049  31.144  33.318  1.00  0.00     0.049 A 
ATOM     49  H   UNL A   1      39.920  29.814  31.970  1.00  0.00     0.167 HD
ATOM     50  C   UNL A   1      41.935  27.368  29.047  1.00  0.00     0.037 A 
ATOM     51  C   UNL A   1      39.787  31.142  34.448  1.00  0.00     0.037 A 
ATOM     52  C   UNL A   1      42.757  27.257  30.222  1.00  0.00     0.049 A 
ATOM     53  C   UNL A   1      40.983  30.238  34.552  1.00  0.00     0.074 A 
ATOM     54  C   UNL A   1      43.926  26.530  30.389  1.00  0.00     0.029 A 
ATOM     55  N   UNL A   1      42.506  27.889  31.427  1.00  0.00    -0.354 N 
ATOM     56  N   UNL A   1      41.551  29.506  33.628  1.00  0.00    -0.248 NA
ATOM     57  C   UNL A   1      41.617  30.130  35.875  1.00  0.00     0.031 C 
ATOM     58  C   UNL A   1      44.345  26.669  31.717  1.00  0.00     0.029 A 
ATOM     59  C   UNL A   1      43.455  27.509  32.364  1.00  0.00     0.049 A 
ATOM     60  H   UNL A   1      41.764  28.514  31.595  1.00  0.00     0.167 HD
ATOM     61  C   UNL A   1      42.599  28.849  34.254  1.00  0.00     0.074 A 
ATOM     62  C   UNL A   1      42.618  29.298  35.629  1.00  0.00     0.031 C 
ATOM     63  C   UNL A   1      43.456  27.935  33.738  1.00  0.00     0.037 A 
BRANCH  50  64
ATOM     64  C   UNL A   1      42.418  26.651  27.819  1.00  0.00     0.064 A 
ATOM     65  C   UNL A   1      43.308  27.268  26.929  1.00  0.00     0.173 A 
ATOM     66  C   UNL A   1      42.090  25.310  27.586  1.00  0.00     0.173 A 
ATOM     67  F   UNL A   1      43.688  28.534  27.130  1.00  0.00    -0.203 F 
ATOM     68  C   UNL A   1      43.829  26.584  25.835  1.00  0.00     0.198 A 
ATOM     69  C   UNL A   1      42.632  24.618  26.503  1.00  0.00     0.198 A 
ATOM     70  F   UNL A   1      41.264  24.662  28.421  1.00  0.00    -0.203 F 
ATOM     71  F   UNL A   1      44.654  27.213  24.986  1.00  0.00    -0.200 F 
ATOM     72  C   UNL A   1      43.495  25.257  25.625  1.00  0.00     0.200 A 
ATOM     73  F   UNL A   1      42.324  23.327  26.312  1.00  0.00    -0.200 F 
ATOM     74  F   UNL A   1      44.010  24.593  24.582  1.00  0.00    -0.200 F 
ENDBRANCH  50  64
BRANCH  51  75
ATOM     75  C   UNL A   1      39.375  31.973  35.613  1.00  0.00     0.064 A 
ATOM     76  C   UNL A   1      39.910  33.253  35.820  1.00  0.00     0.173 A 
ATOM     77  C   UNL A   1      38.458  31.493  36.560  1.00  0.00     0.173 A 
ATOM     78  F   UNL A   1      40.818  33.747  34.965  1.00  0.00    -0.203 F 
ATOM     79  C   UNL A   1      39.549  34.014  36.932  1.00  0.00     0.198 A 
ATOM     80  C   UNL A   1      38.067  32.268  37.648  1.00  0.00     0.198 A 
ATOM     81  F   UNL A   1      37.927  30.269  36.420  1.00  0.00    -0.203 F 
ATOM     82  F   UNL A   1      40.112  35.211  37.134  1.00  0.00    -0.200 F 
ATOM     83  C   UNL A   1      38.620  33.525  37.838  1.00  0.00     0.200 A 
ATOM     84  F   UNL A   1      37.157  31.797  38.510  1.00  0.00    -0.200 F 
ATOM     85  F   UNL A   1      38.262  34.261  38.899  1.00  0.00    -0.200 F 
ENDBRANCH  51  75
BRANCH  63  86
ATOM     86  C   UNL A   1      44.456  27.327  34.678  1.00  0.00     0.064 A 
ATOM     87  C   UNL A   1      44.161  26.146  35.376  1.00  0.00     0.173 A 
ATOM     88  C   UNL A   1      45.713  27.912  34.877  1.00  0.00     0.173 A 
ATOM     89  F   UNL A   1      42.966  25.555  35.230  1.00  0.00    -0.203 F 
ATOM     90  C   UNL A   1      45.078  25.591  36.264  1.00  0.00     0.198 A 
ATOM     91  C   UNL A   1      46.639  27.341  35.746  1.00  0.00     0.198 A 
ATOM     92  F   UNL A   1      46.048  29.038  34.228  1.00  0.00    -0.203 F 
ATOM     93  F   UNL A   1      44.754  24.493  36.960  1.00  0.00    -0.200 F 
ATOM     94  C   UNL A   1      46.318  26.186  36.446  1.00  0.00     0.200 A 
ATOM     95  F   UNL A   1      47.841  27.909  35.913  1.00  0.00    -0.200 F 
ATOM     96  F   UNL A   1      47.198  25.653  37.304  1.00  0.00    -0.200 F 
ENDBRANCH  63  86
ENDBRANCH  37  38
ENDBRANCH  30  32
ENDBRANCH  29  30
ENDBRANCH  28  29
ENDBRANCH   1  28
TORSDOF 15
ENDMDL
MODEL 3
REMARK VINA RESULT:     -12.6      1.117      7.219
REMARK SMILES CC(C)(C(=O)OCCOC(=O)c1ccc(-c2c3nc(c(-c4c(F)c(F)c(F)c(F)c4F)c4ccc([nH]4)c(-c4c(F)c(F)c(F)c(F)c4F)c4nc(c(-c5c(F)c(F)c(F)c(F)c5F)c5ccc2[nH]5)C=C4)C=C3)cc1)c1ccc(NS(=O)(=O)c2c(F)cc(F)cc2F)cc1
REMARK SMILES IDX 7 1 6 2 4 3 5 4 2 5 1 6 3 7 75 8 76 9 93 10 77 11 92 12
REMARK SMILES IDX 78 13 79 14 80 16 81 17 82 18 83 19 84 20 90 21 85 22 86 23
REMARK SMILES IDX 89 24 91 25 87 26 88 27 8 28 9 29 10 30 11 31 12 32 13 33
REMARK SMILES IDX 74 34 14 35 73 36 15 37 16 38 17 39 67 40 18 41 72 42 66 43
REMARK SMILES IDX 68 44 19 45 71 46 65 47 64 48 20 50 52 51 32 52 51 53 33 54
REMARK SMILES IDX 36 55 50 56 69 57 34 58 35 59 49 61 70 62 37 63 21 64 22 65
REMARK SMILES IDX 30 66 23 67 24 68 28 69 31 70 25 71 26 72 29 73 27 74 53 75
REMARK SMILES IDX 54 76 62 77 55 78 56 79 60 80 63 81 57 82 58 83 61 84 59 85
REMARK SMILES IDX 38 86 39 87 47 88 40 89 41 90 45 91 48 92 42 93 43 94 46 95
REMARK SMILES IDX 44 96
REMARK H PARENT 79 15 68 49 36 60
REMARK Flexibility Score: inf
ROOT
ATOM      1  C   UNL A   1      31.556  29.078  27.314  1.00  0.00     0.274 C 
ENDROOT
BRANCH   1   2
ATOM      2  O   UNL A   1      32.156  28.166  26.371  1.00  0.00    -0.461 OA
BRANCH   2   3
ATOM      3  C   UNL A   1      31.374  27.159  25.889  1.00  0.00     0.316 C 
ATOM      4  O   UNL A   1      30.813  26.346  26.617  1.00  0.00    -0.251 OA
BRANCH   3   5
ATOM      5  C   UNL A   1      31.357  27.106  24.329  1.00  0.00     0.087 C 
ATOM      6  C   UNL A   1      29.893  27.133  23.822  1.00  0.00     0.028 C 
ATOM      7  C   UNL A   1      32.044  28.390  23.832  1.00  0.00     0.028 C 
BRANCH   5   8
ATOM      8  C   UNL A   1      32.138  25.883  23.788  1.00  0.00    -0.031 A 
ATOM      9  C   UNL A   1      31.507  24.840  23.089  1.00  0.00     0.007 A 
ATOM     10  C   UNL A   1      33.525  25.756  23.988  1.00  0.00     0.007 A 
ATOM     11  C   UNL A   1      32.184  23.660  22.770  1.00  0.00     0.027 A 
ATOM     12  C   UNL A   1      34.191  24.556  23.718  1.00  0.00     0.027 A 
ATOM     13  C   UNL A   1      33.490  23.467  23.204  1.00  0.00     0.049 A 
BRANCH  13  14
ATOM     14  N   UNL A   1      34.088  22.185  23.334  1.00  0.00    -0.279 N 
ATOM     15  H   UNL A   1      34.316  21.711  22.502  1.00  0.00     0.180 HD
BRANCH  14  16
ATOM     16  S   UNL A   1      34.440  21.407  24.771  1.00  0.00     0.267 S 
ATOM     17  O   UNL A   1      35.857  21.571  25.019  1.00  0.00    -0.201 OA
ATOM     18  O   UNL A   1      33.451  21.915  25.697  1.00  0.00    -0.201 OA
BRANCH  16  19
ATOM     19  C   UNL A   1      34.140  19.680  24.622  1.00  0.00     0.159 A 
ATOM     20  C   UNL A   1      35.107  18.689  24.626  1.00  0.00     0.149 A 
ATOM     21  C   UNL A   1      32.810  19.290  24.531  1.00  0.00     0.149 A 
ATOM     22  F   UNL A   1      36.400  18.965  24.755  1.00  0.00    -0.205 F 
ATOM     23  C   UNL A   1      34.777  17.338  24.522  1.00  0.00     0.080 A 
ATOM     24  C   UNL A   1      32.454  17.945  24.416  1.00  0.00     0.080 A 
ATOM     25  F   UNL A   1      31.833  20.202  24.569  1.00  0.00    -0.205 F 
ATOM     26  C   UNL A   1      33.447  16.978  24.405  1.00  0.00     0.129 A 
ATOM     27  F   UNL A   1      33.119  15.688  24.274  1.00  0.00    -0.207 F 
ENDBRANCH  16  19
ENDBRANCH  14  16
ENDBRANCH  13  14
ENDBRANCH   5   8
ENDBRANCH   3   5
ENDBRANCH   2   3
ENDBRANCH   1   2
BRANCH   1  28
ATOM     28  C   UNL A   1      31.643  30.516  26.809  1.00  0.00     0.275 C 
BRANCH  28  29
ATOM     29  O   UNL A   1      33.006  30.830  26.469  1.00  0.00    -0.458 OA
BRANCH  29  30
ATOM     30  C   UNL A   1      33.630  31.710  27.282  1.00  0.00     0.338 C 
ATOM     31  O   UNL A   1      33.191  32.751  27.739  1.00  0.00    -0.246 OA
BRANCH  30  32
ATOM     32  C   UNL A   1      34.974  31.216  27.616  1.00  0.00     0.060 A 
ATOM     33  C   UNL A   1      35.163  29.847  27.714  1.00  0.00     0.016 A 
ATOM     34  C   UNL A   1      35.970  32.091  28.060  1.00  0.00     0.016 A 
ATOM     35  C   UNL A   1      36.279  29.367  28.399  1.00  0.00     0.010 A 
ATOM     36  C   UNL A   1      37.137  31.587  28.665  1.00  0.00     0.010 A 
ATOM     37  C   UNL A   1      37.268  30.218  28.937  1.00  0.00    -0.014 A 
BRANCH  37  38
ATOM     38  C   UNL A   1      38.312  29.630  29.857  1.00  0.00     0.031 A 
ATOM     39  C   UNL A   1      39.376  28.654  29.365  1.00  0.00     0.074 A 
ATOM     40  C   UNL A   1      38.430  30.110  31.117  1.00  0.00     0.049 A 
ATOM     41  N   UNL A   1      40.440  28.206  29.994  1.00  0.00    -0.248 NA
ATOM     42  C   UNL A   1      39.250  28.117  28.002  1.00  0.00     0.031 C 
ATOM     43  C   UNL A   1      37.495  31.041  31.753  1.00  0.00     0.029 A 
ATOM     44  N   UNL A   1      39.411  29.939  32.068  1.00  0.00    -0.354 N 
ATOM     45  C   UNL A   1      41.118  27.384  29.098  1.00  0.00     0.074 A 
ATOM     46  C   UNL A   1      40.319  27.336  27.896  1.00  0.00     0.031 C 
ATOM     47  C   UNL A   1      37.997  31.440  32.929  1.00  0.00     0.029 A 
ATOM     48  C   UNL A   1      39.234  30.713  33.192  1.00  0.00     0.049 A 
ATOM     49  H   UNL A   1      40.168  29.320  31.954  1.00  0.00     0.167 HD
ATOM     50  C   UNL A   1      42.306  26.742  29.239  1.00  0.00     0.037 A 
ATOM     51  C   UNL A   1      39.956  30.818  34.328  1.00  0.00     0.037 A 
ATOM     52  C   UNL A   1      43.114  26.745  30.429  1.00  0.00     0.049 A 
ATOM     53  C   UNL A   1      41.180  29.967  34.510  1.00  0.00     0.074 A 
ATOM     54  C   UNL A   1      44.305  26.074  30.661  1.00  0.00     0.029 A 
ATOM     55  N   UNL A   1      42.826  27.453  31.582  1.00  0.00    -0.354 N 
ATOM     56  N   UNL A   1      41.786  29.191  33.648  1.00  0.00    -0.248 NA
ATOM     57  C   UNL A   1      41.799  29.977  35.845  1.00  0.00     0.031 C 
ATOM     58  C   UNL A   1      44.701  26.323  31.980  1.00  0.00     0.029 A 
ATOM     59  C   UNL A   1      43.774  27.175  32.554  1.00  0.00     0.049 A 
ATOM     60  H   UNL A   1      42.061  28.063  31.695  1.00  0.00     0.167 HD
ATOM     61  C   UNL A   1      42.847  28.617  34.332  1.00  0.00     0.074 A 
ATOM     62  C   UNL A   1      42.831  29.165  35.671  1.00  0.00     0.031 C 
ATOM     63  C   UNL A   1      43.742  27.699  33.894  1.00  0.00     0.037 A 
BRANCH  50  64
ATOM     64  C   UNL A   1      42.830  25.956  28.072  1.00  0.00     0.064 A 
ATOM     65  C   UNL A   1      42.435  24.627  27.864  1.00  0.00     0.173 A 
ATOM     66  C   UNL A   1      43.633  26.557  27.095  1.00  0.00     0.173 A 
ATOM     67  F   UNL A   1      41.634  24.020  28.745  1.00  0.00    -0.203 F 
ATOM     68  C   UNL A   1      42.847  23.917  26.741  1.00  0.00     0.198 A 
ATOM     69  C   UNL A   1      44.025  25.852  25.957  1.00  0.00     0.198 A 
ATOM     70  F   UNL A   1      44.017  27.835  27.230  1.00  0.00    -0.203 F 
ATOM     71  F   UNL A   1      42.476  22.638  26.586  1.00  0.00    -0.200 F 
ATOM     72  C   UNL A   1      43.637  24.532  25.784  1.00  0.00     0.200 A 
ATOM     73  F   UNL A   1      44.773  26.454  25.021  1.00  0.00    -0.200 F 
ATOM     74  F   UNL A   1      44.019  23.854  24.693  1.00  0.00    -0.200 F 
ENDBRANCH  50  64
BRANCH  51  75
ATOM     75  C   UNL A   1      39.500  31.717  35.425  1.00  0.00     0.064 A 
ATOM     76  C   UNL A   1      40.045  32.998  35.591  1.00  0.00     0.173 A 
ATOM     77  C   UNL A   1      38.528  31.301  36.347  1.00  0.00     0.173 A 
ATOM     78  F   UNL A   1      41.004  33.433  34.759  1.00  0.00    -0.203 F 
ATOM     79  C   UNL A   1      39.642  33.822  36.641  1.00  0.00     0.198 A 
ATOM     80  C   UNL A   1      38.096  32.139  37.371  1.00  0.00     0.198 A 
ATOM     81  F   UNL A   1      37.984  30.079  36.245  1.00  0.00    -0.203 F 
ATOM     82  F   UNL A   1      40.214  35.021  36.809  1.00  0.00    -0.200 F 
ATOM     83  C   UNL A   1      38.659  33.396  37.523  1.00  0.00     0.200 A 
ATOM     84  F   UNL A   1      37.135  31.727  38.209  1.00  0.00    -0.200 F 
ATOM     85  F   UNL A   1      38.261  34.193  38.523  1.00  0.00    -0.200 F 
ENDBRANCH  51  75
BRANCH  63  86
ATOM     86  C   UNL A   1      44.749  27.197  34.886  1.00  0.00     0.064 A 
ATOM     87  C   UNL A   1      45.970  27.862  35.072  1.00  0.00     0.173 A 
ATOM     88  C   UNL A   1      44.497  26.057  35.662  1.00  0.00     0.173 A 
ATOM     89  F   UNL A   1      46.265  28.950  34.343  1.00  0.00    -0.203 F 
ATOM     90  C   UNL A   1      46.915  27.387  35.976  1.00  0.00     0.198 A 
ATOM     91  C   UNL A   1      45.433  25.599  36.585  1.00  0.00     0.198 A 
ATOM     92  F   UNL A   1      43.342  25.388  35.528  1.00  0.00    -0.203 F 
ATOM     93  F   UNL A   1      48.096  28.009  36.098  1.00  0.00    -0.200 F 
ATOM     94  C   UNL A   1      46.645  26.258  36.735  1.00  0.00     0.200 A 
ATOM     95  F   UNL A   1      45.167  24.515  37.327  1.00  0.00    -0.200 F 
ATOM     96  F   UNL A   1      47.557  25.800  37.603  1.00  0.00    -0.200 F 
ENDBRANCH  63  86
ENDBRANCH  37  38
ENDBRANCH  30  32
ENDBRANCH  29  30
ENDBRANCH  28  29
ENDBRANCH   1  28
TORSDOF 15
ENDMDL
