MODEL 1
REMARK VINA RESULT:     -11.8      0.000      0.000
REMARK SMILES CC1(C(=O)N2CC[C@H](C(=O)OCCOC(=O)c3ccc(-c4c5nc(c(-c6c(F)c(F)c(F)c(F)c6F)c6ccc([nH]6)c(-c6c(F)c(F)c(F)c(F)c6F)c6nc(c(-c7c(F)c(F)c(F)c(F)c7F)c7ccc4[nH]7)C=C6)C=C5)cc3)C2)CCCC1
REMARK SMILES IDX 12 1 11 2 9 3 10 4 8 5 5 6 6 7 80 8 7 9 3 10 4 11 2 12 1 13
REMARK SMILES IDX 81 14 84 15 82 16 83 17 13 18 14 19 15 20 16 21 17 22 18 23
REMARK SMILES IDX 79 24 19 25 78 26 20 27 21 28 22 29 72 30 23 31 77 32 71 33
REMARK SMILES IDX 73 34 24 35 76 36 70 37 69 38 25 40 57 41 37 42 56 43 38 44
REMARK SMILES IDX 41 45 55 46 74 47 39 48 40 49 54 51 75 52 42 53 26 54 27 55
REMARK SMILES IDX 35 56 28 57 29 58 33 59 36 60 30 61 31 62 34 63 32 64 58 65
REMARK SMILES IDX 59 66 67 67 60 68 61 69 65 70 68 71 62 72 63 73 66 74 64 75
REMARK SMILES IDX 43 76 44 77 52 78 45 79 46 80 50 81 53 82 47 83 48 84 51 85
REMARK SMILES IDX 49 86
REMARK H PARENT 73 39 41 50
REMARK Flexibility Score: inf
ROOT
ATOM      1  C   UNL A   1      31.585  29.233  24.467  1.00  0.00     0.274 C 
ENDROOT
BRANCH   1   2
ATOM      2  O   UNL A   1      30.960  27.988  24.830  1.00  0.00    -0.462 OA
BRANCH   2   3
ATOM      3  C   UNL A   1      30.188  27.381  23.893  1.00  0.00     0.310 C 
ATOM      4  O   UNL A   1      29.726  27.933  22.902  1.00  0.00    -0.252 OA
BRANCH   3   5
ATOM      5  C   UNL A   1      29.952  25.917  24.187  1.00  0.00     0.120 C 
ATOM      6  N   UNL A   1      31.195  24.255  25.313  1.00  0.00    -0.341 N 
ATOM      7  C   UNL A   1      30.830  23.704  24.025  1.00  0.00     0.120 C 
ATOM      8  C   UNL A   1      30.524  25.523  25.540  1.00  0.00     0.134 C 
ATOM      9  C   UNL A   1      30.563  24.931  23.185  1.00  0.00     0.038 C 
BRANCH   6  10
ATOM     10  C   UNL A   1      31.903  23.661  26.330  1.00  0.00     0.228 C 
ATOM     11  O   UNL A   1      31.402  23.559  27.453  1.00  0.00    -0.274 OA
BRANCH  10  12
ATOM     12  C   UNL A   1      33.400  23.385  26.084  1.00  0.00     0.047 C 
ATOM     13  C   UNL A   1      34.186  22.924  27.317  1.00  0.00     0.022 C 
ATOM     14  C   UNL A   1      34.086  24.625  25.470  1.00  0.00     0.016 C 
ATOM     15  C   UNL A   1      33.505  22.385  24.914  1.00  0.00     0.016 C 
ATOM     16  C   UNL A   1      35.234  24.079  24.625  1.00  0.00     0.001 C 
ATOM     17  C   UNL A   1      34.842  22.656  24.240  1.00  0.00     0.001 C 
ENDBRANCH  10  12
ENDBRANCH   6  10
ENDBRANCH   3   5
ENDBRANCH   2   3
ENDBRANCH   1   2
BRANCH   1  18
ATOM     18  C   UNL A   1      31.751  30.138  25.692  1.00  0.00     0.275 C 
BRANCH  18  19
ATOM     19  O   UNL A   1      33.130  30.228  26.099  1.00  0.00    -0.458 OA
BRANCH  19  20
ATOM     20  C   UNL A   1      33.410  31.234  26.960  1.00  0.00     0.338 C 
ATOM     21  O   UNL A   1      32.696  32.175  27.261  1.00  0.00    -0.246 OA
BRANCH  20  22
ATOM     22  C   UNL A   1      34.686  30.964  27.641  1.00  0.00     0.060 A 
ATOM     23  C   UNL A   1      34.959  29.643  28.001  1.00  0.00     0.016 A 
ATOM     24  C   UNL A   1      35.560  31.990  28.000  1.00  0.00     0.016 A 
ATOM     25  C   UNL A   1      36.107  29.331  28.718  1.00  0.00     0.010 A 
ATOM     26  C   UNL A   1      36.715  31.678  28.728  1.00  0.00     0.010 A 
ATOM     27  C   UNL A   1      36.989  30.349  29.097  1.00  0.00    -0.014 A 
BRANCH  27  28
ATOM     28  C   UNL A   1      38.161  30.010  29.937  1.00  0.00     0.031 A 
ATOM     29  C   UNL A   1      39.231  29.111  29.393  1.00  0.00     0.074 A 
ATOM     30  C   UNL A   1      38.286  30.550  31.162  1.00  0.00     0.049 A 
ATOM     31  N   UNL A   1      40.297  28.638  29.985  1.00  0.00    -0.248 NA
ATOM     32  C   UNL A   1      39.084  28.691  27.990  1.00  0.00     0.031 C 
ATOM     33  C   UNL A   1      37.343  31.488  31.771  1.00  0.00     0.029 A 
ATOM     34  N   UNL A   1      39.261  30.388  32.114  1.00  0.00    -0.354 N 
ATOM     35  C   UNL A   1      40.937  27.849  29.039  1.00  0.00     0.074 A 
ATOM     36  C   UNL A   1      40.136  27.898  27.834  1.00  0.00     0.031 C 
ATOM     37  C   UNL A   1      37.787  31.821  32.994  1.00  0.00     0.029 A 
ATOM     38  C   UNL A   1      39.017  31.084  33.272  1.00  0.00     0.049 A 
ATOM     39  H   UNL A   1      40.060  29.830  31.979  1.00  0.00     0.167 HD
ATOM     40  C   UNL A   1      42.089  27.149  29.167  1.00  0.00     0.037 A 
ATOM     41  C   UNL A   1      39.694  31.100  34.435  1.00  0.00     0.037 A 
ATOM     42  C   UNL A   1      42.890  27.118  30.362  1.00  0.00     0.049 A 
ATOM     43  C   UNL A   1      40.938  30.264  34.571  1.00  0.00     0.074 A 
ATOM     44  C   UNL A   1      44.072  26.437  30.592  1.00  0.00     0.029 A 
ATOM     45  N   UNL A   1      42.591  27.805  31.530  1.00  0.00    -0.354 N 
ATOM     46  N   UNL A   1      41.523  29.500  33.680  1.00  0.00    -0.248 NA
ATOM     47  C   UNL A   1      41.612  30.288  35.876  1.00  0.00     0.031 C 
ATOM     48  C   UNL A   1      44.471  26.684  31.911  1.00  0.00     0.029 A 
ATOM     49  C   UNL A   1      43.558  27.552  32.489  1.00  0.00     0.049 A 
ATOM     50  H   UNL A   1      41.807  28.388  31.657  1.00  0.00     0.167 HD
ATOM     51  C   UNL A   1      42.640  28.967  34.308  1.00  0.00     0.074 A 
ATOM     52  C   UNL A   1      42.661  29.508  35.652  1.00  0.00     0.031 C 
ATOM     53  C   UNL A   1      43.563  28.105  33.818  1.00  0.00     0.037 A 
BRANCH  40  54
ATOM     54  C   UNL A   1      42.535  26.331  27.993  1.00  0.00     0.064 A 
ATOM     55  C   UNL A   1      42.089  25.017  27.797  1.00  0.00     0.173 A 
ATOM     56  C   UNL A   1      43.394  26.885  27.033  1.00  0.00     0.173 A 
ATOM     57  F   UNL A   1      41.280  24.437  28.698  1.00  0.00    -0.203 F 
ATOM     58  C   UNL A   1      42.501  24.280  26.689  1.00  0.00     0.198 A 
ATOM     59  C   UNL A   1      43.786  26.154  25.914  1.00  0.00     0.198 A 
ATOM     60  F   UNL A   1      43.848  28.140  27.175  1.00  0.00    -0.203 F 
ATOM     61  F   UNL A   1      42.092  23.013  26.540  1.00  0.00    -0.200 F 
ATOM     62  C   UNL A   1      43.343  24.851  25.747  1.00  0.00     0.200 A 
ATOM     63  F   UNL A   1      44.593  26.710  25.001  1.00  0.00    -0.200 F 
ATOM     64  F   UNL A   1      43.734  24.142  24.678  1.00  0.00    -0.200 F 
ENDBRANCH  40  54
BRANCH  41  65
ATOM     65  C   UNL A   1      39.194  31.911  35.574  1.00  0.00     0.064 A 
ATOM     66  C   UNL A   1      39.573  33.251  35.729  1.00  0.00     0.173 A 
ATOM     67  C   UNL A   1      38.335  31.357  36.536  1.00  0.00     0.173 A 
ATOM     68  F   UNL A   1      40.415  33.814  34.851  1.00  0.00    -0.203 F 
ATOM     69  C   UNL A   1      39.122  34.004  36.812  1.00  0.00     0.198 A 
ATOM     70  C   UNL A   1      37.864  32.119  37.603  1.00  0.00     0.198 A 
ATOM     71  F   UNL A   1      37.948  30.078  36.434  1.00  0.00    -0.203 F 
ATOM     72  F   UNL A   1      39.533  35.269  36.962  1.00  0.00    -0.200 F 
ATOM     73  C   UNL A   1      38.263  33.439  37.744  1.00  0.00     0.200 A 
ATOM     74  F   UNL A   1      37.027  31.572  38.495  1.00  0.00    -0.200 F 
ATOM     75  F   UNL A   1      37.829  34.164  38.783  1.00  0.00    -0.200 F 
ENDBRANCH  41  65
BRANCH  53  76
ATOM     76  C   UNL A   1      44.688  27.716  34.731  1.00  0.00     0.064 A 
ATOM     77  C   UNL A   1      45.863  28.476  34.810  1.00  0.00     0.173 A 
ATOM     78  C   UNL A   1      44.571  26.591  35.561  1.00  0.00     0.173 A 
ATOM     79  F   UNL A   1      46.026  29.550  34.023  1.00  0.00    -0.203 F 
ATOM     80  C   UNL A   1      46.891  28.112  35.675  1.00  0.00     0.198 A 
ATOM     81  C   UNL A   1      45.591  26.244  36.442  1.00  0.00     0.198 A 
ATOM     82  F   UNL A   1      43.463  25.835  35.525  1.00  0.00    -0.203 F 
ATOM     83  F   UNL A   1      48.023  28.828  35.706  1.00  0.00    -0.200 F 
ATOM     84  C   UNL A   1      46.752  27.001  36.493  1.00  0.00     0.200 A 
ATOM     85  F   UNL A   1      45.452  25.176  37.239  1.00  0.00    -0.200 F 
ATOM     86  F   UNL A   1      47.742  26.654  37.328  1.00  0.00    -0.200 F 
ENDBRANCH  53  76
ENDBRANCH  27  28
ENDBRANCH  20  22
ENDBRANCH  19  20
ENDBRANCH  18  19
ENDBRANCH   1  18
TORSDOF 13
ENDMDL
MODEL 2
REMARK VINA RESULT:     -11.7      4.400      9.663
REMARK SMILES CC1(C(=O)N2CC[C@H](C(=O)OCCOC(=O)c3ccc(-c4c5nc(c(-c6c(F)c(F)c(F)c(F)c6F)c6ccc([nH]6)c(-c6c(F)c(F)c(F)c(F)c6F)c6nc(c(-c7c(F)c(F)c(F)c(F)c7F)c7ccc4[nH]7)C=C6)C=C5)cc3)C2)CCCC1
REMARK SMILES IDX 12 1 11 2 9 3 10 4 8 5 5 6 6 7 80 8 7 9 3 10 4 11 2 12 1 13
REMARK SMILES IDX 81 14 84 15 82 16 83 17 13 18 14 19 15 20 16 21 17 22 18 23
REMARK SMILES IDX 79 24 19 25 78 26 20 27 21 28 22 29 72 30 23 31 77 32 71 33
REMARK SMILES IDX 73 34 24 35 76 36 70 37 69 38 25 40 57 41 37 42 56 43 38 44
REMARK SMILES IDX 41 45 55 46 74 47 39 48 40 49 54 51 75 52 42 53 26 54 27 55
REMARK SMILES IDX 35 56 28 57 29 58 33 59 36 60 30 61 31 62 34 63 32 64 58 65
REMARK SMILES IDX 59 66 67 67 60 68 61 69 65 70 68 71 62 72 63 73 66 74 64 75
REMARK SMILES IDX 43 76 44 77 52 78 45 79 46 80 50 81 53 82 47 83 48 84 51 85
REMARK SMILES IDX 49 86
REMARK H PARENT 73 39 41 50
REMARK Flexibility Score: inf
ROOT
ATOM      1  C   UNL A   1      36.638  22.678  23.530  1.00  0.00     0.274 C 
ENDROOT
BRANCH   1   2
ATOM      2  O   UNL A   1      35.589  23.521  24.041  1.00  0.00    -0.462 OA
BRANCH   2   3
ATOM      3  C   UNL A   1      34.363  23.408  23.470  1.00  0.00     0.310 C 
ATOM      4  O   UNL A   1      34.149  23.419  22.264  1.00  0.00    -0.252 OA
BRANCH   3   5
ATOM      5  C   UNL A   1      33.255  23.252  24.486  1.00  0.00     0.120 C 
ATOM      6  N   UNL A   1      32.134  24.751  25.924  1.00  0.00    -0.341 N 
ATOM      7  C   UNL A   1      32.573  23.640  26.740  1.00  0.00     0.120 C 
ATOM      8  C   UNL A   1      32.352  24.475  24.515  1.00  0.00     0.134 C 
ATOM      9  C   UNL A   1      33.707  23.047  25.936  1.00  0.00     0.038 C 
BRANCH   6  10
ATOM     10  C   UNL A   1      31.421  25.864  26.303  1.00  0.00     0.228 C 
ATOM     11  O   UNL A   1      30.205  25.783  26.496  1.00  0.00    -0.274 OA
BRANCH  10  12
ATOM     12  C   UNL A   1      32.136  27.228  26.213  1.00  0.00     0.047 C 
ATOM     13  C   UNL A   1      33.664  27.153  26.122  1.00  0.00     0.022 C 
ATOM     14  C   UNL A   1      31.734  28.130  27.400  1.00  0.00     0.016 C 
ATOM     15  C   UNL A   1      31.515  28.005  25.034  1.00  0.00     0.016 C 
ATOM     16  C   UNL A   1      31.845  29.561  26.881  1.00  0.00     0.001 C 
ATOM     17  C   UNL A   1      31.669  29.481  25.369  1.00  0.00     0.001 C 
ENDBRANCH  10  12
ENDBRANCH   6  10
ENDBRANCH   3   5
ENDBRANCH   2   3
ENDBRANCH   1   2
BRANCH   1  18
ATOM     18  C   UNL A   1      36.871  21.478  24.453  1.00  0.00     0.275 C 
BRANCH  18  19
ATOM     19  O   UNL A   1      37.320  21.894  25.758  1.00  0.00    -0.458 OA
BRANCH  19  20
ATOM     20  C   UNL A   1      38.607  21.591  26.046  1.00  0.00     0.338 C 
ATOM     21  O   UNL A   1      39.194  20.547  25.819  1.00  0.00    -0.246 OA
BRANCH  20  22
ATOM     22  C   UNL A   1      39.295  22.787  26.556  1.00  0.00     0.060 A 
ATOM     23  C   UNL A   1      38.853  24.031  26.099  1.00  0.00     0.016 A 
ATOM     24  C   UNL A   1      40.405  22.696  27.396  1.00  0.00     0.016 A 
ATOM     25  C   UNL A   1      39.512  25.194  26.477  1.00  0.00     0.010 A 
ATOM     26  C   UNL A   1      41.072  23.868  27.773  1.00  0.00     0.010 A 
ATOM     27  C   UNL A   1      40.634  25.121  27.308  1.00  0.00    -0.014 A 
BRANCH  27  28
ATOM     28  C   UNL A   1      41.376  26.363  27.629  1.00  0.00     0.031 A 
ATOM     29  C   UNL A   1      40.709  27.440  28.432  1.00  0.00     0.074 A 
ATOM     30  C   UNL A   1      42.657  26.496  27.244  1.00  0.00     0.049 A 
ATOM     31  N   UNL A   1      41.155  28.626  28.760  1.00  0.00    -0.248 NA
ATOM     32  C   UNL A   1      39.360  27.141  28.938  1.00  0.00     0.031 C 
ATOM     33  C   UNL A   1      43.428  25.489  26.516  1.00  0.00     0.029 A 
ATOM     34  N   UNL A   1      43.537  27.535  27.415  1.00  0.00    -0.354 N 
ATOM     35  C   UNL A   1      40.138  29.223  29.491  1.00  0.00     0.074 A 
ATOM     36  C   UNL A   1      39.046  28.274  29.552  1.00  0.00     0.031 C 
ATOM     37  C   UNL A   1      44.669  25.959  26.304  1.00  0.00     0.029 A 
ATOM     38  C   UNL A   1      44.762  27.315  26.837  1.00  0.00     0.049 A 
ATOM     39  H   UNL A   1      43.312  28.358  27.904  1.00  0.00     0.167 HD
ATOM     40  C   UNL A   1      40.120  30.452  30.058  1.00  0.00     0.037 A 
ATOM     41  C   UNL A   1      45.829  28.129  26.727  1.00  0.00     0.037 A 
ATOM     42  C   UNL A   1      41.216  31.384  30.009  1.00  0.00     0.049 A 
ATOM     43  C   UNL A   1      45.760  29.512  27.315  1.00  0.00     0.074 A 
ATOM     44  C   UNL A   1      41.294  32.655  30.551  1.00  0.00     0.029 A 
ATOM     45  N   UNL A   1      42.429  31.141  29.382  1.00  0.00    -0.354 N 
ATOM     46  N   UNL A   1      44.785  30.080  27.981  1.00  0.00    -0.248 NA
ATOM     47  C   UNL A   1      46.938  30.371  27.126  1.00  0.00     0.031 C 
ATOM     48  C   UNL A   1      42.544  33.195  30.223  1.00  0.00     0.029 A 
ATOM     49  C   UNL A   1      43.257  32.244  29.511  1.00  0.00     0.049 A 
ATOM     50  H   UNL A   1      42.667  30.307  28.915  1.00  0.00     0.167 HD
ATOM     51  C   UNL A   1      45.235  31.352  28.308  1.00  0.00     0.074 A 
ATOM     52  C   UNL A   1      46.579  31.468  27.780  1.00  0.00     0.031 C 
ATOM     53  C   UNL A   1      44.593  32.336  28.982  1.00  0.00     0.037 A 
BRANCH  40  54
ATOM     54  C   UNL A   1      38.863  30.874  30.756  1.00  0.00     0.064 A 
ATOM     55  C   UNL A   1      37.787  31.441  30.059  1.00  0.00     0.173 A 
ATOM     56  C   UNL A   1      38.720  30.673  32.137  1.00  0.00     0.173 A 
ATOM     57  F   UNL A   1      37.882  31.669  28.740  1.00  0.00    -0.203 F 
ATOM     58  C   UNL A   1      36.619  31.808  30.723  1.00  0.00     0.198 A 
ATOM     59  C   UNL A   1      37.543  31.020  32.794  1.00  0.00     0.198 A 
ATOM     60  F   UNL A   1      39.721  30.132  32.849  1.00  0.00    -0.203 F 
ATOM     61  F   UNL A   1      35.617  32.383  30.044  1.00  0.00    -0.200 F 
ATOM     62  C   UNL A   1      36.496  31.592  32.087  1.00  0.00     0.200 A 
ATOM     63  F   UNL A   1      37.422  30.803  34.111  1.00  0.00    -0.200 F 
ATOM     64  F   UNL A   1      35.369  31.941  32.724  1.00  0.00    -0.200 F 
ENDBRANCH  40  54
BRANCH  41  65
ATOM     65  C   UNL A   1      47.043  27.668  26.005  1.00  0.00     0.064 A 
ATOM     66  C   UNL A   1      47.128  27.745  24.609  1.00  0.00     0.173 A 
ATOM     67  C   UNL A   1      48.138  27.131  26.700  1.00  0.00     0.173 A 
ATOM     68  F   UNL A   1      46.095  28.224  23.902  1.00  0.00    -0.203 F 
ATOM     69  C   UNL A   1      48.257  27.290  23.932  1.00  0.00     0.198 A 
ATOM     70  C   UNL A   1      49.277  26.701  26.024  1.00  0.00     0.198 A 
ATOM     71  F   UNL A   1      48.103  27.032  28.036  1.00  0.00    -0.203 F 
ATOM     72  F   UNL A   1      48.296  27.334  22.594  1.00  0.00    -0.200 F 
ATOM     73  C   UNL A   1      49.334  26.774  24.640  1.00  0.00     0.200 A 
ATOM     74  F   UNL A   1      50.318  26.212  26.712  1.00  0.00    -0.200 F 
ATOM     75  F   UNL A   1      50.419  26.339  23.988  1.00  0.00    -0.200 F 
ENDBRANCH  41  65
BRANCH  53  76
ATOM     76  C   UNL A   1      45.347  33.613  29.209  1.00  0.00     0.064 A 
ATOM     77  C   UNL A   1      46.171  33.787  30.329  1.00  0.00     0.173 A 
ATOM     78  C   UNL A   1      45.271  34.658  28.276  1.00  0.00     0.173 A 
ATOM     79  F   UNL A   1      46.262  32.822  31.257  1.00  0.00    -0.203 F 
ATOM     80  C   UNL A   1      46.878  34.972  30.518  1.00  0.00     0.198 A 
ATOM     81  C   UNL A   1      45.997  35.830  28.456  1.00  0.00     0.198 A 
ATOM     82  F   UNL A   1      44.499  34.536  27.185  1.00  0.00    -0.203 F 
ATOM     83  F   UNL A   1      47.629  35.134  31.616  1.00  0.00    -0.200 F 
ATOM     84  C   UNL A   1      46.795  35.989  29.579  1.00  0.00     0.200 A 
ATOM     85  F   UNL A   1      45.925  36.809  27.543  1.00  0.00    -0.200 F 
ATOM     86  F   UNL A   1      47.480  37.127  29.760  1.00  0.00    -0.200 F 
ENDBRANCH  53  76
ENDBRANCH  27  28
ENDBRANCH  20  22
ENDBRANCH  19  20
ENDBRANCH  18  19
ENDBRANCH   1  18
TORSDOF 13
ENDMDL
MODEL 3
REMARK VINA RESULT:     -11.7      2.756      8.834
REMARK SMILES CC1(C(=O)N2CC[C@H](C(=O)OCCOC(=O)c3ccc(-c4c5nc(c(-c6c(F)c(F)c(F)c(F)c6F)c6ccc([nH]6)c(-c6c(F)c(F)c(F)c(F)c6F)c6nc(c(-c7c(F)c(F)c(F)c(F)c7F)c7ccc4[nH]7)C=C6)C=C5)cc3)C2)CCCC1
REMARK SMILES IDX 12 1 11 2 9 3 10 4 8 5 5 6 6 7 80 8 7 9 3 10 4 11 2 12 1 13
REMARK SMILES IDX 81 14 84 15 82 16 83 17 13 18 14 19 15 20 16 21 17 22 18 23
REMARK SMILES IDX 79 24 19 25 78 26 20 27 21 28 22 29 72 30 23 31 77 32 71 33
REMARK SMILES IDX 73 34 24 35 76 36 70 37 69 38 25 40 57 41 37 42 56 43 38 44
REMARK SMILES IDX 41 45 55 46 74 47 39 48 40 49 54 51 75 52 42 53 26 54 27 55
REMARK SMILES IDX 35 56 28 57 29 58 33 59 36 60 30 61 31 62 34 63 32 64 58 65
REMARK SMILES IDX 59 66 67 67 60 68 61 69 65 70 68 71 62 72 63 73 66 74 64 75
REMARK SMILES IDX 43 76 44 77 52 78 45 79 46 80 50 81 53 82 47 83 48 84 51 85
REMARK SMILES IDX 49 86
REMARK H PARENT 73 39 41 50
REMARK Flexibility Score: inf
ROOT
ATOM      1  C   UNL A   1      33.036  34.597  28.595  1.00  0.00     0.274 C 
ENDROOT
BRANCH   1   2
ATOM      2  O   UNL A   1      34.289  33.911  28.412  1.00  0.00    -0.462 OA
BRANCH   2   3
ATOM      3  C   UNL A   1      34.398  32.662  28.931  1.00  0.00     0.310 C 
ATOM      4  O   UNL A   1      34.342  32.393  30.125  1.00  0.00    -0.252 OA
BRANCH   3   5
ATOM      5  C   UNL A   1      34.593  31.601  27.872  1.00  0.00     0.120 C 
ATOM      6  N   UNL A   1      33.423  29.633  27.296  1.00  0.00    -0.341 N 
ATOM      7  C   UNL A   1      34.816  29.266  27.433  1.00  0.00     0.120 C 
ATOM      8  C   UNL A   1      33.260  31.075  27.362  1.00  0.00     0.134 C 
ATOM      9  C   UNL A   1      35.378  30.360  28.310  1.00  0.00     0.038 C 
BRANCH   6  10
ATOM     10  C   UNL A   1      32.356  28.837  26.951  1.00  0.00     0.228 C 
ATOM     11  O   UNL A   1      31.752  28.205  27.821  1.00  0.00    -0.274 OA
BRANCH  10  12
ATOM     12  C   UNL A   1      32.130  28.567  25.450  1.00  0.00     0.047 C 
ATOM     13  C   UNL A   1      33.407  28.498  24.604  1.00  0.00     0.022 C 
ATOM     14  C   UNL A   1      31.170  29.616  24.849  1.00  0.00     0.016 C 
ATOM     15  C   UNL A   1      31.277  27.287  25.329  1.00  0.00     0.016 C 
ATOM     16  C   UNL A   1      30.458  28.907  23.700  1.00  0.00     0.001 C 
ATOM     17  C   UNL A   1      30.497  27.418  24.028  1.00  0.00     0.001 C 
ENDBRANCH  10  12
ENDBRANCH   6  10
ENDBRANCH   3   5
ENDBRANCH   2   3
ENDBRANCH   1   2
BRANCH   1  18
ATOM     18  C   UNL A   1      33.142  35.636  29.716  1.00  0.00     0.275 C 
BRANCH  18  19
ATOM     19  O   UNL A   1      32.373  35.247  30.871  1.00  0.00    -0.458 OA
BRANCH  19  20
ATOM     20  C   UNL A   1      32.780  35.793  32.041  1.00  0.00     0.338 C 
ATOM     21  O   UNL A   1      32.235  36.678  32.677  1.00  0.00    -0.246 OA
BRANCH  20  22
ATOM     22  C   UNL A   1      33.939  35.048  32.558  1.00  0.00     0.060 A 
ATOM     23  C   UNL A   1      35.203  35.615  32.380  1.00  0.00     0.016 A 
ATOM     24  C   UNL A   1      33.806  33.782  33.129  1.00  0.00     0.016 A 
ATOM     25  C   UNL A   1      36.344  34.926  32.772  1.00  0.00     0.010 A 
ATOM     26  C   UNL A   1      34.956  33.085  33.518  1.00  0.00     0.010 A 
ATOM     27  C   UNL A   1      36.230  33.651  33.333  1.00  0.00    -0.014 A 
BRANCH  27  28
ATOM     28  C   UNL A   1      37.462  32.895  33.663  1.00  0.00     0.031 A 
ATOM     29  C   UNL A   1      38.164  33.149  34.964  1.00  0.00     0.074 A 
ATOM     30  C   UNL A   1      37.915  31.952  32.819  1.00  0.00     0.049 A 
ATOM     31  N   UNL A   1      39.287  32.649  35.411  1.00  0.00    -0.248 NA
ATOM     32  C   UNL A   1      37.511  34.089  35.889  1.00  0.00     0.031 C 
ATOM     33  C   UNL A   1      37.279  31.573  31.558  1.00  0.00     0.029 A 
ATOM     34  N   UNL A   1      39.016  31.137  32.899  1.00  0.00    -0.354 N 
ATOM     35  C   UNL A   1      39.488  33.227  36.657  1.00  0.00     0.074 A 
ATOM     36  C   UNL A   1      38.376  34.124  36.894  1.00  0.00     0.031 C 
ATOM     37  C   UNL A   1      38.000  30.597  30.981  1.00  0.00     0.029 A 
ATOM     38  C   UNL A   1      39.172  30.318  31.809  1.00  0.00     0.049 A 
ATOM     39  H   UNL A   1      39.634  31.138  33.665  1.00  0.00     0.167 HD
ATOM     40  C   UNL A   1      40.509  33.025  37.522  1.00  0.00     0.037 A 
ATOM     41  C   UNL A   1      40.163  29.462  31.500  1.00  0.00     0.037 A 
ATOM     42  C   UNL A   1      41.603  32.119  37.289  1.00  0.00     0.049 A 
ATOM     43  C   UNL A   1      41.317  29.302  32.452  1.00  0.00     0.074 A 
ATOM     44  C   UNL A   1      42.688  31.847  38.104  1.00  0.00     0.029 A 
ATOM     45  N   UNL A   1      41.747  31.334  36.155  1.00  0.00    -0.354 N 
ATOM     46  N   UNL A   1      41.514  29.872  33.616  1.00  0.00    -0.248 NA
ATOM     47  C   UNL A   1      42.391  28.386  32.043  1.00  0.00     0.031 C 
ATOM     48  C   UNL A   1      43.507  30.921  37.447  1.00  0.00     0.029 A 
ATOM     49  C   UNL A   1      42.911  30.588  36.242  1.00  0.00     0.049 A 
ATOM     50  H   UNL A   1      41.115  31.310  35.400  1.00  0.00     0.167 HD
ATOM     51  C   UNL A   1      42.721  29.372  34.087  1.00  0.00     0.074 A 
ATOM     52  C   UNL A   1      43.204  28.440  33.089  1.00  0.00     0.031 C 
ATOM     53  C   UNL A   1      43.371  29.662  35.240  1.00  0.00     0.037 A 
BRANCH  40  54
ATOM     54  C   UNL A   1      40.509  33.824  38.791  1.00  0.00     0.064 A 
ATOM     55  C   UNL A   1      41.222  35.025  38.907  1.00  0.00     0.173 A 
ATOM     56  C   UNL A   1      39.754  33.397  39.893  1.00  0.00     0.173 A 
ATOM     57  F   UNL A   1      41.974  35.465  37.886  1.00  0.00    -0.203 F 
ATOM     58  C   UNL A   1      41.194  35.762  40.088  1.00  0.00     0.198 A 
ATOM     59  C   UNL A   1      39.709  34.148  41.065  1.00  0.00     0.198 A 
ATOM     60  F   UNL A   1      39.052  32.255  39.832  1.00  0.00    -0.203 F 
ATOM     61  F   UNL A   1      41.913  36.888  40.191  1.00  0.00    -0.200 F 
ATOM     62  C   UNL A   1      40.432  35.326  41.162  1.00  0.00     0.200 A 
ATOM     63  F   UNL A   1      38.967  33.730  42.099  1.00  0.00    -0.200 F 
ATOM     64  F   UNL A   1      40.402  36.040  42.297  1.00  0.00    -0.200 F 
ENDBRANCH  40  54
BRANCH  41  65
ATOM     65  C   UNL A   1      40.124  28.712  30.218  1.00  0.00     0.064 A 
ATOM     66  C   UNL A   1      39.490  27.467  30.128  1.00  0.00     0.173 A 
ATOM     67  C   UNL A   1      40.731  29.224  29.061  1.00  0.00     0.173 A 
ATOM     68  F   UNL A   1      38.921  26.925  31.214  1.00  0.00    -0.203 F 
ATOM     69  C   UNL A   1      39.475  26.753  28.931  1.00  0.00     0.198 A 
ATOM     70  C   UNL A   1      40.692  28.523  27.858  1.00  0.00     0.198 A 
ATOM     71  F   UNL A   1      41.355  30.410  29.098  1.00  0.00    -0.203 F 
ATOM     72  F   UNL A   1      38.900  25.545  28.881  1.00  0.00    -0.200 F 
ATOM     73  C   UNL A   1      40.071  27.285  27.795  1.00  0.00     0.200 A 
ATOM     74  F   UNL A   1      41.261  29.044  26.763  1.00  0.00    -0.200 F 
ATOM     75  F   UNL A   1      40.054  26.599  26.645  1.00  0.00    -0.200 F 
ENDBRANCH  41  65
BRANCH  53  76
ATOM     76  C   UNL A   1      44.662  28.941  35.495  1.00  0.00     0.064 A 
ATOM     77  C   UNL A   1      45.891  29.474  35.085  1.00  0.00     0.173 A 
ATOM     78  C   UNL A   1      44.668  27.722  36.190  1.00  0.00     0.173 A 
ATOM     79  F   UNL A   1      45.933  30.628  34.403  1.00  0.00    -0.203 F 
ATOM     80  C   UNL A   1      47.082  28.802  35.344  1.00  0.00     0.198 A 
ATOM     81  C   UNL A   1      45.863  27.065  36.468  1.00  0.00     0.198 A 
ATOM     82  F   UNL A   1      43.517  27.175  36.608  1.00  0.00    -0.203 F 
ATOM     83  F   UNL A   1      48.244  29.308  34.908  1.00  0.00    -0.200 F 
ATOM     84  C   UNL A   1      47.068  27.601  36.039  1.00  0.00     0.200 A 
ATOM     85  F   UNL A   1      45.848  25.911  37.148  1.00  0.00    -0.200 F 
ATOM     86  F   UNL A   1      48.216  26.958  36.291  1.00  0.00    -0.200 F 
ENDBRANCH  53  76
ENDBRANCH  27  28
ENDBRANCH  20  22
ENDBRANCH  19  20
ENDBRANCH  18  19
ENDBRANCH   1  18
TORSDOF 13
ENDMDL
