MODEL 1
REMARK VINA RESULT:     -12.6      0.000      0.000
REMARK SMILES CCC[C@H]1CCc2c(sc(NC(=O)[C@H]3[C@@H](C(=O)OCCOC(=O)c4ccc(-c5c6nc(c(-c7c(F)c(F)c(F)c(F)c7F)c7ccc([nH]7)c(-c7c(F)c(F)c(F)c(F)c7F)c7nc(c(-c8c(F)c(F)c(F)c(F)c8F)c8ccc5[nH]8)C=C7)C=C6)cc4)[C@H]4CC[C@@H]3O4)c2C(N)=O)C1
REMARK SMILES IDX 19 1 18 2 16 3 17 4 15 5 14 6 90 7 87 8 89 9 91 10 88 11
REMARK SMILES IDX 12 12 11 13 13 15 10 16 4 17 5 18 96 19 6 20 8 21 7 22 9 23
REMARK SMILES IDX 92 24 3 25 2 26 1 27 93 28 94 29 95 30 20 33 21 34 22 35
REMARK SMILES IDX 23 36 24 37 25 38 86 39 26 40 85 41 27 42 28 43 29 44 79 45
REMARK SMILES IDX 30 46 84 47 78 48 80 49 31 50 83 51 77 52 76 53 32 55 64 56
REMARK SMILES IDX 44 57 63 58 45 59 48 60 62 61 81 62 46 63 47 64 61 66 82 67
REMARK SMILES IDX 49 68 33 69 34 70 42 71 35 72 36 73 40 74 43 75 37 76 38 77
REMARK SMILES IDX 41 78 39 79 65 80 66 81 74 82 67 83 68 84 72 85 75 86 69 87
REMARK SMILES IDX 70 88 73 89 71 90 50 91 51 92 59 93 52 94 53 95 57 96 60 97
REMARK SMILES IDX 54 98 55 99 58 100 56 101
REMARK H PARENT 11 14 94 31 94 32 80 54 48 65
REMARK Flexibility Score: inf
ROOT
ATOM      1  C   UNL A   1      31.901  27.481  25.988  1.00  0.00     0.274 C 
ENDROOT
BRANCH   1   2
ATOM      2  O   UNL A   1      31.688  26.349  26.895  1.00  0.00    -0.462 OA
BRANCH   2   3
ATOM      3  C   UNL A   1      32.049  25.099  26.447  1.00  0.00     0.312 C 
ATOM      4  O   UNL A   1      31.616  24.068  26.942  1.00  0.00    -0.252 OA
BRANCH   3   5
ATOM      5  C   UNL A   1      32.994  25.153  25.222  1.00  0.00     0.143 C 
ATOM      6  C   UNL A   1      32.879  23.982  24.227  1.00  0.00     0.124 C 
ATOM      7  C   UNL A   1      34.151  23.191  24.480  1.00  0.00     0.132 C 
ATOM      8  C   UNL A   1      34.523  25.101  25.481  1.00  0.00     0.133 C 
ATOM      9  C   UNL A   1      34.463  22.794  25.927  1.00  0.00     0.035 C 
ATOM     10  O   UNL A   1      35.040  24.340  24.328  1.00  0.00    -0.373 OA
ATOM     11  C   UNL A   1      34.952  24.111  26.541  1.00  0.00     0.036 C 
BRANCH   6  12
ATOM     12  C   UNL A   1      31.597  23.204  24.069  1.00  0.00     0.231 C 
ATOM     13  N   UNL A   1      30.700  23.703  23.122  1.00  0.00    -0.317 N 
ATOM     14  H   UNL A   1      30.092  23.094  22.643  1.00  0.00     0.170 HD
ATOM     15  O   UNL A   1      31.347  22.171  24.681  1.00  0.00    -0.274 OA
BRANCH  13  16
ATOM     16  C   UNL A   1      30.675  25.063  22.862  1.00  0.00     0.108 A 
ATOM     17  C   UNL A   1      29.565  29.789  22.960  1.00  0.00    -0.006 C 
ATOM     18  C   UNL A   1      31.110  29.834  22.842  1.00  0.00     0.009 C 
ATOM     19  C   UNL A   1      29.179  28.548  23.777  1.00  0.00     0.050 C 
ATOM     20  C   UNL A   1      31.669  28.623  22.046  1.00  0.00     0.038 C 
ATOM     21  C   UNL A   1      29.904  27.352  23.255  1.00  0.00     0.011 A 
ATOM     22  C   UNL A   1      31.029  27.330  22.463  1.00  0.00    -0.019 A 
ATOM     23  S   UNL A   1      29.422  25.816  23.646  1.00  0.00    -0.122 S 
ATOM     24  C   UNL A   1      31.431  25.957  22.125  1.00  0.00     0.077 A 
BRANCH  17  25
ATOM     25  C   UNL A   1      28.972  31.060  23.606  1.00  0.00     0.004 C 
BRANCH  25  26
ATOM     26  C   UNL A   1      27.982  31.803  22.697  1.00  0.00    -0.003 C 
ATOM     27  C   UNL A   1      28.208  31.588  21.209  1.00  0.00     0.004 C 
ENDBRANCH  25  26
ENDBRANCH  17  25
BRANCH  24  28
ATOM     28  C   UNL A   1      32.462  25.613  21.158  1.00  0.00     0.251 C 
ATOM     29  N   UNL A   1      32.067  25.493  19.858  1.00  0.00    -0.365 N 
ATOM     30  O   UNL A   1      33.632  25.444  21.472  1.00  0.00    -0.269 OA
ATOM     31  H   UNL A   1      31.123  25.631  19.616  1.00  0.00     0.159 HD
ATOM     32  H   UNL A   1      32.725  25.267  19.162  1.00  0.00     0.159 HD
ENDBRANCH  24  28
ENDBRANCH  13  16
ENDBRANCH   6  12
ENDBRANCH   3   5
ENDBRANCH   2   3
ENDBRANCH   1   2
BRANCH   1  33
ATOM     33  C   UNL A   1      31.807  28.890  26.676  1.00  0.00     0.275 C 
BRANCH  33  34
ATOM     34  O   UNL A   1      32.634  29.920  26.043  1.00  0.00    -0.458 OA
BRANCH  34  35
ATOM     35  C   UNL A   1      33.012  30.984  26.831  1.00  0.00     0.338 C 
ATOM     36  O   UNL A   1      32.275  31.908  27.139  1.00  0.00    -0.246 OA
BRANCH  35  37
ATOM     37  C   UNL A   1      34.387  30.807  27.456  1.00  0.00     0.060 A 
ATOM     38  C   UNL A   1      34.844  29.565  27.884  1.00  0.00     0.016 A 
ATOM     39  C   UNL A   1      35.179  31.920  27.786  1.00  0.00     0.016 A 
ATOM     40  C   UNL A   1      35.925  29.466  28.782  1.00  0.00     0.010 A 
ATOM     41  C   UNL A   1      36.382  31.783  28.531  1.00  0.00     0.010 A 
ATOM     42  C   UNL A   1      36.784  30.543  29.053  1.00  0.00    -0.014 A 
BRANCH  42  43
ATOM     43  C   UNL A   1      38.122  30.329  29.738  1.00  0.00     0.031 A 
ATOM     44  C   UNL A   1      39.221  29.444  29.171  1.00  0.00     0.074 A 
ATOM     45  C   UNL A   1      38.368  30.895  30.946  1.00  0.00     0.049 A 
ATOM     46  N   UNL A   1      40.250  28.897  29.784  1.00  0.00    -0.248 NA
ATOM     47  C   UNL A   1      39.167  29.143  27.733  1.00  0.00     0.031 C 
ATOM     48  C   UNL A   1      37.488  31.830  31.650  1.00  0.00     0.029 A 
ATOM     49  N   UNL A   1      39.433  30.754  31.816  1.00  0.00    -0.354 N 
ATOM     50  C   UNL A   1      40.924  28.137  28.828  1.00  0.00     0.074 A 
ATOM     51  C   UNL A   1      40.201  28.320  27.584  1.00  0.00     0.031 C 
ATOM     52  C   UNL A   1      38.052  32.206  32.800  1.00  0.00     0.029 A 
ATOM     53  C   UNL A   1      39.256  31.420  33.008  1.00  0.00     0.049 A 
ATOM     54  H   UNL A   1      40.239  30.230  31.603  1.00  0.00     0.167 HD
ATOM     55  C   UNL A   1      42.027  27.353  28.978  1.00  0.00     0.037 A 
ATOM     56  C   UNL A   1      39.899  31.355  34.189  1.00  0.00     0.037 A 
ATOM     57  C   UNL A   1      42.796  27.216  30.198  1.00  0.00     0.049 A 
ATOM     58  C   UNL A   1      41.055  30.422  34.365  1.00  0.00     0.074 A 
ATOM     59  C   UNL A   1      43.922  26.438  30.431  1.00  0.00     0.029 A 
ATOM     60  N   UNL A   1      42.535  27.885  31.384  1.00  0.00    -0.354 N 
ATOM     61  N   UNL A   1      41.603  29.617  33.492  1.00  0.00    -0.248 NA
ATOM     62  C   UNL A   1      41.666  30.373  35.700  1.00  0.00     0.031 C 
ATOM     63  C   UNL A   1      44.312  26.602  31.766  1.00  0.00     0.029 A 
ATOM     64  C   UNL A   1      43.465  27.524  32.352  1.00  0.00     0.049 A 
ATOM     65  H   UNL A   1      41.798  28.523  31.521  1.00  0.00     0.167 HD
ATOM     66  C   UNL A   1      42.635  28.979  34.164  1.00  0.00     0.074 A 
ATOM     67  C   UNL A   1      42.648  29.504  35.513  1.00  0.00     0.031 C 
ATOM     68  C   UNL A   1      43.491  28.041  33.695  1.00  0.00     0.037 A 
BRANCH  55  69
ATOM     69  C   UNL A   1      42.467  26.509  27.807  1.00  0.00     0.064 A 
ATOM     70  C   UNL A   1      41.880  25.272  27.506  1.00  0.00     0.173 A 
ATOM     71  C   UNL A   1      43.432  27.005  26.911  1.00  0.00     0.173 A 
ATOM     72  F   UNL A   1      40.946  24.754  28.317  1.00  0.00    -0.203 F 
ATOM     73  C   UNL A   1      42.263  24.551  26.374  1.00  0.00     0.198 A 
ATOM     74  C   UNL A   1      43.791  26.297  25.766  1.00  0.00     0.198 A 
ATOM     75  F   UNL A   1      44.007  28.197  27.131  1.00  0.00    -0.203 F 
ATOM     76  F   UNL A   1      41.713  23.354  26.124  1.00  0.00    -0.200 F 
ATOM     77  C   UNL A   1      43.211  25.067  25.503  1.00  0.00     0.200 A 
ATOM     78  F   UNL A   1      44.687  26.812  24.914  1.00  0.00    -0.200 F 
ATOM     79  F   UNL A   1      43.567  24.379  24.408  1.00  0.00    -0.200 F 
ENDBRANCH  55  69
BRANCH  56  80
ATOM     80  C   UNL A   1      39.386  32.149  35.340  1.00  0.00     0.064 A 
ATOM     81  C   UNL A   1      38.534  31.573  36.290  1.00  0.00     0.173 A 
ATOM     82  C   UNL A   1      39.764  33.489  35.525  1.00  0.00     0.173 A 
ATOM     83  F   UNL A   1      38.121  30.307  36.139  1.00  0.00    -0.203 F 
ATOM     84  C   UNL A   1      38.078  32.308  37.383  1.00  0.00     0.198 A 
ATOM     85  C   UNL A   1      39.340  34.209  36.638  1.00  0.00     0.198 A 
ATOM     86  F   UNL A   1      40.581  34.085  34.644  1.00  0.00    -0.203 F 
ATOM     87  F   UNL A   1      37.235  31.747  38.259  1.00  0.00    -0.200 F 
ATOM     88  C   UNL A   1      38.493  33.620  37.563  1.00  0.00     0.200 A 
ATOM     89  F   UNL A   1      39.764  35.468  36.820  1.00  0.00    -0.200 F 
ATOM     90  F   UNL A   1      38.073  34.317  38.628  1.00  0.00    -0.200 F 
ENDBRANCH  56  80
BRANCH  68  91
ATOM     91  C   UNL A   1      44.554  27.560  34.640  1.00  0.00     0.064 A 
ATOM     92  C   UNL A   1      44.363  26.437  35.459  1.00  0.00     0.173 A 
ATOM     93  C   UNL A   1      45.774  28.245  34.742  1.00  0.00     0.173 A 
ATOM     94  F   UNL A   1      43.204  25.762  35.419  1.00  0.00    -0.203 F 
ATOM     95  C   UNL A   1      45.339  26.039  36.370  1.00  0.00     0.198 A 
ATOM     96  C   UNL A   1      46.760  27.828  35.634  1.00  0.00     0.198 A 
ATOM     97  F   UNL A   1      46.008  29.327  33.984  1.00  0.00    -0.203 F 
ATOM     98  F   UNL A   1      45.109  25.001  37.186  1.00  0.00    -0.200 F 
ATOM     99  C   UNL A   1      46.538  26.732  36.454  1.00  0.00     0.200 A 
ATOM    100  F   UNL A   1      47.918  28.497  35.711  1.00  0.00    -0.200 F 
ATOM    101  F   UNL A   1      47.473  26.352  37.336  1.00  0.00    -0.200 F 
ENDBRANCH  68  91
ENDBRANCH  42  43
ENDBRANCH  35  37
ENDBRANCH  34  35
ENDBRANCH  33  34
ENDBRANCH   1  33
TORSDOF 16
ENDMDL
MODEL 2
REMARK VINA RESULT:     -12.4      0.319      1.578
REMARK SMILES CCC[C@H]1CCc2c(sc(NC(=O)[C@H]3[C@@H](C(=O)OCCOC(=O)c4ccc(-c5c6nc(c(-c7c(F)c(F)c(F)c(F)c7F)c7ccc([nH]7)c(-c7c(F)c(F)c(F)c(F)c7F)c7nc(c(-c8c(F)c(F)c(F)c(F)c8F)c8ccc5[nH]8)C=C7)C=C6)cc4)[C@H]4CC[C@@H]3O4)c2C(N)=O)C1
REMARK SMILES IDX 19 1 18 2 16 3 17 4 15 5 14 6 90 7 87 8 89 9 91 10 88 11
REMARK SMILES IDX 12 12 11 13 13 15 10 16 4 17 5 18 96 19 6 20 8 21 7 22 9 23
REMARK SMILES IDX 92 24 3 25 2 26 1 27 93 28 94 29 95 30 20 33 21 34 22 35
REMARK SMILES IDX 23 36 24 37 25 38 86 39 26 40 85 41 27 42 28 43 29 44 79 45
REMARK SMILES IDX 30 46 84 47 78 48 80 49 31 50 83 51 77 52 76 53 32 55 64 56
REMARK SMILES IDX 44 57 63 58 45 59 48 60 62 61 81 62 46 63 47 64 61 66 82 67
REMARK SMILES IDX 49 68 33 69 34 70 42 71 35 72 36 73 40 74 43 75 37 76 38 77
REMARK SMILES IDX 41 78 39 79 65 80 66 81 74 82 67 83 68 84 72 85 75 86 69 87
REMARK SMILES IDX 70 88 73 89 71 90 50 91 51 92 59 93 52 94 53 95 57 96 60 97
REMARK SMILES IDX 54 98 55 99 58 100 56 101
REMARK H PARENT 11 14 94 31 94 32 80 54 48 65
REMARK Flexibility Score: inf
ROOT
ATOM      1  C   UNL A   1      31.984  27.265  25.996  1.00  0.00     0.274 C 
ENDROOT
BRANCH   1   2
ATOM      2  O   UNL A   1      31.689  26.119  26.861  1.00  0.00    -0.462 OA
BRANCH   2   3
ATOM      3  C   UNL A   1      32.163  24.887  26.469  1.00  0.00     0.312 C 
ATOM      4  O   UNL A   1      31.816  23.844  27.003  1.00  0.00    -0.252 OA
BRANCH   3   5
ATOM      5  C   UNL A   1      33.113  24.975  25.250  1.00  0.00     0.143 C 
ATOM      6  C   UNL A   1      32.998  23.834  24.221  1.00  0.00     0.124 C 
ATOM      7  C   UNL A   1      34.267  23.031  24.456  1.00  0.00     0.132 C 
ATOM      8  C   UNL A   1      34.641  24.910  25.513  1.00  0.00     0.133 C 
ATOM      9  C   UNL A   1      34.571  22.591  25.891  1.00  0.00     0.035 C 
ATOM     10  O   UNL A   1      35.160  24.180  24.341  1.00  0.00    -0.373 OA
ATOM     11  C   UNL A   1      35.062  23.887  26.545  1.00  0.00     0.036 C 
BRANCH   6  12
ATOM     12  C   UNL A   1      31.714  23.064  24.034  1.00  0.00     0.231 C 
ATOM     13  N   UNL A   1      30.833  23.581  23.082  1.00  0.00    -0.317 N 
ATOM     14  H   UNL A   1      30.228  22.982  22.587  1.00  0.00     0.170 HD
ATOM     15  O   UNL A   1      31.450  22.025  24.629  1.00  0.00    -0.274 OA
BRANCH  13  16
ATOM     16  C   UNL A   1      30.819  24.945  22.841  1.00  0.00     0.108 A 
ATOM     17  C   UNL A   1      29.663  29.661  22.908  1.00  0.00    -0.006 C 
ATOM     18  C   UNL A   1      31.212  29.718  22.927  1.00  0.00     0.009 C 
ATOM     19  C   UNL A   1      29.217  28.405  23.670  1.00  0.00     0.050 C 
ATOM     20  C   UNL A   1      31.849  28.524  22.166  1.00  0.00     0.038 C 
ATOM     21  C   UNL A   1      29.996  27.222  23.197  1.00  0.00     0.011 A 
ATOM     22  C   UNL A   1      31.187  27.220  22.507  1.00  0.00    -0.019 A 
ATOM     23  S   UNL A   1      29.495  25.677  23.522  1.00  0.00    -0.122 S 
ATOM     24  C   UNL A   1      31.629  25.855  22.186  1.00  0.00     0.077 A 
BRANCH  17  25
ATOM     25  C   UNL A   1      29.004  30.917  23.518  1.00  0.00     0.004 C 
BRANCH  25  26
ATOM     26  C   UNL A   1      28.795  32.051  22.504  1.00  0.00    -0.003 C 
ATOM     27  C   UNL A   1      28.902  33.451  23.090  1.00  0.00     0.004 C 
ENDBRANCH  25  26
ENDBRANCH  17  25
BRANCH  24  28
ATOM     28  C   UNL A   1      32.743  25.534  21.308  1.00  0.00     0.251 C 
ATOM     29  N   UNL A   1      32.431  25.029  20.080  1.00  0.00    -0.365 N 
ATOM     30  O   UNL A   1      33.910  25.708  21.632  1.00  0.00    -0.269 OA
ATOM     31  H   UNL A   1      31.489  24.893  19.829  1.00  0.00     0.159 HD
ATOM     32  H   UNL A   1      33.148  24.800  19.446  1.00  0.00     0.159 HD
ENDBRANCH  24  28
ENDBRANCH  13  16
ENDBRANCH   6  12
ENDBRANCH   3   5
ENDBRANCH   2   3
ENDBRANCH   1   2
BRANCH   1  33
ATOM     33  C   UNL A   1      31.890  28.659  26.714  1.00  0.00     0.275 C 
BRANCH  33  34
ATOM     34  O   UNL A   1      32.686  29.713  26.078  1.00  0.00    -0.458 OA
BRANCH  34  35
ATOM     35  C   UNL A   1      33.058  30.774  26.872  1.00  0.00     0.338 C 
ATOM     36  O   UNL A   1      32.308  31.682  27.203  1.00  0.00    -0.246 OA
BRANCH  35  37
ATOM     37  C   UNL A   1      34.446  30.616  27.473  1.00  0.00     0.060 A 
ATOM     38  C   UNL A   1      34.889  29.401  27.985  1.00  0.00     0.016 A 
ATOM     39  C   UNL A   1      35.269  31.734  27.693  1.00  0.00     0.016 A 
ATOM     40  C   UNL A   1      35.993  29.349  28.860  1.00  0.00     0.010 A 
ATOM     41  C   UNL A   1      36.489  31.629  28.416  1.00  0.00     0.010 A 
ATOM     42  C   UNL A   1      36.881  30.425  29.023  1.00  0.00    -0.014 A 
BRANCH  42  43
ATOM     43  C   UNL A   1      38.232  30.235  29.687  1.00  0.00     0.031 A 
ATOM     44  C   UNL A   1      39.329  29.348  29.117  1.00  0.00     0.074 A 
ATOM     45  C   UNL A   1      38.495  30.827  30.879  1.00  0.00     0.049 A 
ATOM     46  N   UNL A   1      40.373  28.822  29.721  1.00  0.00    -0.248 NA
ATOM     47  C   UNL A   1      39.251  29.019  27.687  1.00  0.00     0.031 C 
ATOM     48  C   UNL A   1      37.620  31.768  31.581  1.00  0.00     0.029 A 
ATOM     49  N   UNL A   1      39.577  30.712  31.732  1.00  0.00    -0.354 N 
ATOM     50  C   UNL A   1      41.037  28.049  28.769  1.00  0.00     0.074 A 
ATOM     51  C   UNL A   1      40.289  28.202  27.535  1.00  0.00     0.031 C 
ATOM     52  C   UNL A   1      38.202  32.171  32.713  1.00  0.00     0.029 A 
ATOM     53  C   UNL A   1      39.416  31.399  32.914  1.00  0.00     0.049 A 
ATOM     54  H   UNL A   1      40.384  30.190  31.515  1.00  0.00     0.167 HD
ATOM     55  C   UNL A   1      42.149  27.278  28.914  1.00  0.00     0.037 A 
ATOM     56  C   UNL A   1      40.081  31.363  34.084  1.00  0.00     0.037 A 
ATOM     57  C   UNL A   1      42.941  27.171  30.122  1.00  0.00     0.049 A 
ATOM     58  C   UNL A   1      41.247  30.442  34.257  1.00  0.00     0.074 A 
ATOM     59  C   UNL A   1      44.077  26.407  30.349  1.00  0.00     0.029 A 
ATOM     60  N   UNL A   1      42.695  27.860  31.299  1.00  0.00    -0.354 N 
ATOM     61  N   UNL A   1      41.787  29.625  33.390  1.00  0.00    -0.248 NA
ATOM     62  C   UNL A   1      41.883  30.425  35.582  1.00  0.00     0.031 C 
ATOM     63  C   UNL A   1      44.490  26.599  31.674  1.00  0.00     0.029 A 
ATOM     64  C   UNL A   1      43.645  27.526  32.257  1.00  0.00     0.049 A 
ATOM     65  H   UNL A   1      41.956  28.495  31.438  1.00  0.00     0.167 HD
ATOM     66  C   UNL A   1      42.836  29.009  34.055  1.00  0.00     0.074 A 
ATOM     67  C   UNL A   1      42.869  29.560  35.394  1.00  0.00     0.031 C 
ATOM     68  C   UNL A   1      43.691  28.069  33.590  1.00  0.00     0.037 A 
BRANCH  55  69
ATOM     69  C   UNL A   1      42.574  26.415  27.752  1.00  0.00     0.064 A 
ATOM     70  C   UNL A   1      41.968  25.184  27.464  1.00  0.00     0.173 A 
ATOM     71  C   UNL A   1      43.547  26.885  26.851  1.00  0.00     0.173 A 
ATOM     72  F   UNL A   1      41.026  24.689  28.279  1.00  0.00    -0.203 F 
ATOM     73  C   UNL A   1      42.339  24.445  26.339  1.00  0.00     0.198 A 
ATOM     74  C   UNL A   1      43.894  26.160  25.713  1.00  0.00     0.198 A 
ATOM     75  F   UNL A   1      44.141  28.071  27.058  1.00  0.00    -0.203 F 
ATOM     76  F   UNL A   1      41.769  23.255  26.102  1.00  0.00    -0.200 F 
ATOM     77  C   UNL A   1      43.295  24.937  25.462  1.00  0.00     0.200 A 
ATOM     78  F   UNL A   1      44.799  26.651  24.855  1.00  0.00    -0.200 F 
ATOM     79  F   UNL A   1      43.639  24.231  24.375  1.00  0.00    -0.200 F 
ENDBRANCH  55  69
BRANCH  56  80
ATOM     80  C   UNL A   1      39.582  32.175  35.229  1.00  0.00     0.064 A 
ATOM     81  C   UNL A   1      39.968  33.511  35.387  1.00  0.00     0.173 A 
ATOM     82  C   UNL A   1      38.686  31.636  36.167  1.00  0.00     0.173 A 
ATOM     83  F   UNL A   1      40.845  34.060  34.534  1.00  0.00    -0.203 F 
ATOM     84  C   UNL A   1      39.477  34.279  36.441  1.00  0.00     0.198 A 
ATOM     85  C   UNL A   1      38.166  32.416  37.195  1.00  0.00     0.198 A 
ATOM     86  F   UNL A   1      38.283  30.361  36.058  1.00  0.00    -0.203 F 
ATOM     87  F   UNL A   1      39.890  35.545  36.593  1.00  0.00    -0.200 F 
ATOM     88  C   UNL A   1      38.566  33.735  37.335  1.00  0.00     0.200 A 
ATOM     89  F   UNL A   1      37.268  31.893  38.042  1.00  0.00    -0.200 F 
ATOM     90  F   UNL A   1      38.077  34.483  38.334  1.00  0.00    -0.200 F 
ENDBRANCH  56  80
BRANCH  68  91
ATOM     91  C   UNL A   1      44.776  27.615  34.524  1.00  0.00     0.064 A 
ATOM     92  C   UNL A   1      46.015  28.270  34.591  1.00  0.00     0.173 A 
ATOM     93  C   UNL A   1      44.580  26.496  35.347  1.00  0.00     0.173 A 
ATOM     94  F   UNL A   1      46.262  29.329  33.806  1.00  0.00    -0.203 F 
ATOM     95  C   UNL A   1      47.028  27.801  35.424  1.00  0.00     0.198 A 
ATOM     96  C   UNL A   1      45.586  26.047  36.199  1.00  0.00     0.198 A 
ATOM     97  F   UNL A   1      43.415  25.832  35.319  1.00  0.00    -0.203 F 
ATOM     98  F   UNL A   1      48.226  28.405  35.425  1.00  0.00    -0.200 F 
ATOM     99  C   UNL A   1      46.813  26.692  36.229  1.00  0.00     0.200 A 
ATOM    100  F   UNL A   1      45.374  24.977  36.978  1.00  0.00    -0.200 F 
ATOM    101  F   UNL A   1      47.792  26.238  37.023  1.00  0.00    -0.200 F 
ENDBRANCH  68  91
ENDBRANCH  42  43
ENDBRANCH  35  37
ENDBRANCH  34  35
ENDBRANCH  33  34
ENDBRANCH   1  33
TORSDOF 16
ENDMDL
MODEL 3
REMARK VINA RESULT:     -12.4      1.942      4.702
REMARK SMILES CCC[C@H]1CCc2c(sc(NC(=O)[C@H]3[C@@H](C(=O)OCCOC(=O)c4ccc(-c5c6nc(c(-c7c(F)c(F)c(F)c(F)c7F)c7ccc([nH]7)c(-c7c(F)c(F)c(F)c(F)c7F)c7nc(c(-c8c(F)c(F)c(F)c(F)c8F)c8ccc5[nH]8)C=C7)C=C6)cc4)[C@H]4CC[C@@H]3O4)c2C(N)=O)C1
REMARK SMILES IDX 19 1 18 2 16 3 17 4 15 5 14 6 90 7 87 8 89 9 91 10 88 11
REMARK SMILES IDX 12 12 11 13 13 15 10 16 4 17 5 18 96 19 6 20 8 21 7 22 9 23
REMARK SMILES IDX 92 24 3 25 2 26 1 27 93 28 94 29 95 30 20 33 21 34 22 35
REMARK SMILES IDX 23 36 24 37 25 38 86 39 26 40 85 41 27 42 28 43 29 44 79 45
REMARK SMILES IDX 30 46 84 47 78 48 80 49 31 50 83 51 77 52 76 53 32 55 64 56
REMARK SMILES IDX 44 57 63 58 45 59 48 60 62 61 81 62 46 63 47 64 61 66 82 67
REMARK SMILES IDX 49 68 33 69 34 70 42 71 35 72 36 73 40 74 43 75 37 76 38 77
REMARK SMILES IDX 41 78 39 79 65 80 66 81 74 82 67 83 68 84 72 85 75 86 69 87
REMARK SMILES IDX 70 88 73 89 71 90 50 91 51 92 59 93 52 94 53 95 57 96 60 97
REMARK SMILES IDX 54 98 55 99 58 100 56 101
REMARK H PARENT 11 14 94 31 94 32 80 54 48 65
REMARK Flexibility Score: inf
ROOT
ATOM      1  C   UNL A   1      31.043  28.249  25.417  1.00  0.00     0.274 C 
ENDROOT
BRANCH   1   2
ATOM      2  O   UNL A   1      31.127  27.343  24.268  1.00  0.00    -0.462 OA
BRANCH   2   3
ATOM      3  C   UNL A   1      30.946  25.999  24.505  1.00  0.00     0.312 C 
ATOM      4  O   UNL A   1      30.115  25.571  25.293  1.00  0.00    -0.252 OA
BRANCH   3   5
ATOM      5  C   UNL A   1      31.852  25.109  23.619  1.00  0.00     0.143 C 
ATOM      6  C   UNL A   1      33.354  25.121  23.963  1.00  0.00     0.124 C 
ATOM      7  C   UNL A   1      33.961  25.921  22.823  1.00  0.00     0.132 C 
ATOM      8  C   UNL A   1      31.949  25.448  22.107  1.00  0.00     0.133 C 
ATOM      9  C   UNL A   1      33.349  27.291  22.514  1.00  0.00     0.035 C 
ATOM     10  O   UNL A   1      33.346  25.117  21.771  1.00  0.00    -0.373 OA
ATOM     11  C   UNL A   1      32.046  26.924  21.795  1.00  0.00     0.036 C 
BRANCH   6  12
ATOM     12  C   UNL A   1      33.842  25.420  25.359  1.00  0.00     0.231 C 
ATOM     13  N   UNL A   1      34.408  24.344  26.045  1.00  0.00    -0.317 N 
ATOM     14  H   UNL A   1      35.108  24.497  26.720  1.00  0.00     0.170 HD
ATOM     15  O   UNL A   1      33.802  26.534  25.870  1.00  0.00    -0.274 OA
BRANCH  13  16
ATOM     16  C   UNL A   1      33.974  23.058  25.766  1.00  0.00     0.108 A 
ATOM     17  C   UNL A   1      33.821  18.411  24.369  1.00  0.00    -0.006 C 
ATOM     18  C   UNL A   1      32.970  18.376  25.664  1.00  0.00     0.009 C 
ATOM     19  C   UNL A   1      34.913  19.476  24.537  1.00  0.00     0.050 C 
ATOM     20  C   UNL A   1      32.213  19.711  25.901  1.00  0.00     0.038 C 
ATOM     21  C   UNL A   1      34.310  20.743  25.047  1.00  0.00     0.011 A 
ATOM     22  C   UNL A   1      33.091  20.906  25.664  1.00  0.00    -0.019 A 
ATOM     23  S   UNL A   1      35.129  22.181  24.960  1.00  0.00    -0.122 S 
ATOM     24  C   UNL A   1      32.830  22.315  25.994  1.00  0.00     0.077 A 
BRANCH  17  25
ATOM     25  C   UNL A   1      34.456  17.045  24.027  1.00  0.00     0.004 C 
BRANCH  25  26
ATOM     26  C   UNL A   1      34.474  16.066  25.210  1.00  0.00    -0.003 C 
ATOM     27  C   UNL A   1      33.288  15.115  25.262  1.00  0.00     0.004 C 
ENDBRANCH  25  26
ENDBRANCH  17  25
BRANCH  24  28
ATOM     28  C   UNL A   1      31.558  22.828  26.477  1.00  0.00     0.251 C 
ATOM     29  N   UNL A   1      30.457  22.545  25.724  1.00  0.00    -0.365 N 
ATOM     30  O   UNL A   1      31.457  23.476  27.510  1.00  0.00    -0.269 OA
ATOM     31  H   UNL A   1      30.549  22.023  24.894  1.00  0.00     0.159 HD
ATOM     32  H   UNL A   1      29.570  22.863  26.008  1.00  0.00     0.159 HD
ENDBRANCH  24  28
ENDBRANCH  13  16
ENDBRANCH   6  12
ENDBRANCH   3   5
ENDBRANCH   2   3
ENDBRANCH   1   2
BRANCH   1  33
ATOM     33  C   UNL A   1      31.442  29.735  25.100  1.00  0.00     0.275 C 
BRANCH  33  34
ATOM     34  O   UNL A   1      32.816  30.078  25.476  1.00  0.00    -0.458 OA
BRANCH  34  35
ATOM     35  C   UNL A   1      32.977  30.853  26.603  1.00  0.00     0.338 C 
ATOM     36  O   UNL A   1      32.075  31.475  27.145  1.00  0.00    -0.246 OA
BRANCH  35  37
ATOM     37  C   UNL A   1      34.350  30.706  27.239  1.00  0.00     0.060 A 
ATOM     38  C   UNL A   1      34.852  29.468  27.625  1.00  0.00     0.016 A 
ATOM     39  C   UNL A   1      35.093  31.837  27.621  1.00  0.00     0.016 A 
ATOM     40  C   UNL A   1      35.926  29.377  28.533  1.00  0.00     0.010 A 
ATOM     41  C   UNL A   1      36.291  31.719  28.377  1.00  0.00     0.010 A 
ATOM     42  C   UNL A   1      36.737  30.477  28.857  1.00  0.00    -0.014 A 
BRANCH  42  43
ATOM     43  C   UNL A   1      38.074  30.290  29.551  1.00  0.00     0.031 A 
ATOM     44  C   UNL A   1      39.203  29.445  28.979  1.00  0.00     0.074 A 
ATOM     45  C   UNL A   1      38.293  30.843  30.770  1.00  0.00     0.049 A 
ATOM     46  N   UNL A   1      40.242  28.918  29.593  1.00  0.00    -0.248 NA
ATOM     47  C   UNL A   1      39.171  29.167  27.537  1.00  0.00     0.031 C 
ATOM     48  C   UNL A   1      37.380  31.740  31.481  1.00  0.00     0.029 A 
ATOM     49  N   UNL A   1      39.354  30.718  31.647  1.00  0.00    -0.354 N 
ATOM     50  C   UNL A   1      40.947  28.194  28.632  1.00  0.00     0.074 A 
ATOM     51  C   UNL A   1      40.229  28.377  27.384  1.00  0.00     0.031 C 
ATOM     52  C   UNL A   1      37.923  32.114  32.642  1.00  0.00     0.029 A 
ATOM     53  C   UNL A   1      39.147  31.358  32.848  1.00  0.00     0.049 A 
ATOM     54  H   UNL A   1      40.177  30.220  31.434  1.00  0.00     0.167 HD
ATOM     55  C   UNL A   1      42.070  27.440  28.779  1.00  0.00     0.037 A 
ATOM     56  C   UNL A   1      39.781  31.293  34.034  1.00  0.00     0.037 A 
ATOM     57  C   UNL A   1      42.832  27.305  30.004  1.00  0.00     0.049 A 
ATOM     58  C   UNL A   1      40.961  30.390  34.206  1.00  0.00     0.074 A 
ATOM     59  C   UNL A   1      43.977  26.555  30.235  1.00  0.00     0.029 A 
ATOM     60  N   UNL A   1      42.540  27.946  31.198  1.00  0.00    -0.354 N 
ATOM     61  N   UNL A   1      41.541  29.615  33.325  1.00  0.00    -0.248 NA
ATOM     62  C   UNL A   1      41.562  30.337  35.546  1.00  0.00     0.031 C 
ATOM     63  C   UNL A   1      44.350  26.708  31.577  1.00  0.00     0.029 A 
ATOM     64  C   UNL A   1      43.472  27.596  32.169  1.00  0.00     0.049 A 
ATOM     65  H   UNL A   1      41.785  28.561  31.339  1.00  0.00     0.167 HD
ATOM     66  C   UNL A   1      42.584  28.997  33.996  1.00  0.00     0.074 A 
ATOM     67  C   UNL A   1      42.570  29.499  35.354  1.00  0.00     0.031 C 
ATOM     68  C   UNL A   1      43.471  28.091  33.521  1.00  0.00     0.037 A 
BRANCH  55  69
ATOM     69  C   UNL A   1      42.544  26.628  27.599  1.00  0.00     0.064 A 
ATOM     70  C   UNL A   1      43.539  27.081  26.722  1.00  0.00     0.173 A 
ATOM     71  C   UNL A   1      42.054  25.323  27.407  1.00  0.00     0.173 A 
ATOM     72  F   UNL A   1      44.052  28.312  26.862  1.00  0.00    -0.203 F 
ATOM     73  C   UNL A   1      44.003  26.274  25.682  1.00  0.00     0.198 A 
ATOM     74  C   UNL A   1      42.541  24.509  26.386  1.00  0.00     0.198 A 
ATOM     75  F   UNL A   1      41.123  24.823  28.233  1.00  0.00    -0.203 F 
ATOM     76  F   UNL A   1      44.930  26.741  24.834  1.00  0.00    -0.200 F 
ATOM     77  C   UNL A   1      43.509  24.988  25.520  1.00  0.00     0.200 A 
ATOM     78  F   UNL A   1      42.080  23.258  26.250  1.00  0.00    -0.200 F 
ATOM     79  F   UNL A   1      43.967  24.209  24.528  1.00  0.00    -0.200 F 
ENDBRANCH  55  69
BRANCH  56  80
ATOM     80  C   UNL A   1      39.235  32.053  35.193  1.00  0.00     0.064 A 
ATOM     81  C   UNL A   1      38.471  31.415  36.178  1.00  0.00     0.173 A 
ATOM     82  C   UNL A   1      39.494  33.424  35.350  1.00  0.00     0.173 A 
ATOM     83  F   UNL A   1      38.172  30.114  36.055  1.00  0.00    -0.203 F 
ATOM     84  C   UNL A   1      37.986  32.120  37.277  1.00  0.00     0.198 A 
ATOM     85  C   UNL A   1      39.043  34.118  36.469  1.00  0.00     0.198 A 
ATOM     86  F   UNL A   1      40.224  34.080  34.436  1.00  0.00    -0.203 F 
ATOM     87  F   UNL A   1      37.226  31.497  38.187  1.00  0.00    -0.200 F 
ATOM     88  C   UNL A   1      38.284  33.467  37.428  1.00  0.00     0.200 A 
ATOM     89  F   UNL A   1      39.355  35.413  36.623  1.00  0.00    -0.200 F 
ATOM     90  F   UNL A   1      37.837  34.138  38.499  1.00  0.00    -0.200 F 
ENDBRANCH  56  80
BRANCH  68  91
ATOM     91  C   UNL A   1      44.539  27.625  34.467  1.00  0.00     0.064 A 
ATOM     92  C   UNL A   1      45.755  28.311  34.605  1.00  0.00     0.173 A 
ATOM     93  C   UNL A   1      44.352  26.463  35.231  1.00  0.00     0.173 A 
ATOM     94  F   UNL A   1      45.995  29.413  33.878  1.00  0.00    -0.203 F 
ATOM     95  C   UNL A   1      46.757  27.832  35.447  1.00  0.00     0.198 A 
ATOM     96  C   UNL A   1      45.345  26.003  36.093  1.00  0.00     0.198 A 
ATOM     97  F   UNL A   1      43.209  25.768  35.135  1.00  0.00    -0.203 F 
ATOM     98  F   UNL A   1      47.934  28.470  35.515  1.00  0.00    -0.200 F 
ATOM     99  C   UNL A   1      46.550  26.681  36.193  1.00  0.00     0.200 A 
ATOM    100  F   UNL A   1      45.141  24.893  36.816  1.00  0.00    -0.200 F 
ATOM    101  F   UNL A   1      47.517  26.218  36.997  1.00  0.00    -0.200 F 
ENDBRANCH  68  91
ENDBRANCH  42  43
ENDBRANCH  35  37
ENDBRANCH  34  35
ENDBRANCH  33  34
ENDBRANCH   1  33
TORSDOF 16
ENDMDL
