MODEL 1
REMARK VINA RESULT:     -10.1      0.000      0.000
REMARK SMILES CC(C)C[C@H](NC(=O)[C@H](Cc1ccccc1)NC(=O)CNC(=O)CNC(=O)OCc1ccccc1)C(=O)OCCOC(=O)c1ccc(-c2c3nc(c(-c4c(F)c(F)c(F)c(F)c4F)c4ccc([nH]4)c(-c4c(F)c(F)c(F)c(F)c4F)c4nc(c(-c5c(F)c(F)c(F)c(F)c5F)c5ccc2[nH]5)C=C4)C=C3)cc1
REMARK SMILES IDX 6 1 7 2 8 3 5 5 4 6 2 7 1 8 3 9 36 10 37 11 38 12 39 13
REMARK SMILES IDX 40 14 41 15 42 16 43 17 44 18 45 19 106 20 46 21 105 22
REMARK SMILES IDX 47 23 48 24 49 25 99 26 50 27 104 28 98 29 100 30 51 31
REMARK SMILES IDX 103 32 97 33 96 34 52 36 84 37 64 38 83 39 65 40 68 41 82 42
REMARK SMILES IDX 101 43 66 44 67 45 81 47 102 48 69 49 53 50 54 51 62 52
REMARK SMILES IDX 55 53 56 54 60 55 63 56 57 57 58 58 61 59 59 60 85 61 86 62
REMARK SMILES IDX 94 63 87 64 88 65 92 66 95 67 89 68 90 69 93 70 91 71 70 72
REMARK SMILES IDX 71 73 79 74 72 75 73 76 77 77 80 78 74 79 75 80 78 81 76 82
REMARK SMILES IDX 9 83 17 84 18 85 19 87 20 88 21 89 22 90 23 92 24 93 25 94
REMARK SMILES IDX 26 95 27 97 28 98 29 99 30 100 31 101 35 102 32 103 34 104
REMARK SMILES IDX 33 105 10 106 11 107 12 108 16 109 13 110 15 111 14 112
REMARK H PARENT 6 4 100 35 68 46 17 86 21 91 25 96
REMARK Flexibility Score: inf
ROOT
ATOM      1  N   UNL A   1      34.104  25.489  24.730  1.00  0.00    -0.341 N 
ATOM      2  C   UNL A   1      33.546  26.694  25.036  1.00  0.00     0.243 C 
ATOM      3  O   UNL A   1      34.054  27.665  24.462  1.00  0.00    -0.273 OA
ATOM      4  H   UNL A   1      34.837  25.605  24.082  1.00  0.00     0.164 HD
ENDROOT
BRANCH   1   5
ATOM      5  C   UNL A   1      33.945  24.060  25.074  1.00  0.00     0.192 C 
BRANCH   5   6
ATOM      6  C   UNL A   1      33.274  23.051  24.063  1.00  0.00     0.040 C 
BRANCH   6   7
ATOM      7  C   UNL A   1      32.093  22.072  24.342  1.00  0.00    -0.015 C 
ATOM      8  C   UNL A   1      32.432  20.641  24.805  1.00  0.00     0.007 C 
ATOM      9  C   UNL A   1      31.224  22.649  25.472  1.00  0.00     0.007 C 
ENDBRANCH   6   7
ENDBRANCH   5   6
BRANCH   5  10
ATOM     10  C   UNL A   1      34.960  23.391  26.055  1.00  0.00     0.328 C 
ATOM     11  O   UNL A   1      34.598  22.884  27.113  1.00  0.00    -0.250 OA
BRANCH  10  12
ATOM     12  O   UNL A   1      36.257  23.469  25.647  1.00  0.00    -0.461 OA
BRANCH  12  13
ATOM     13  C   UNL A   1      36.772  22.334  24.913  1.00  0.00     0.274 C 
BRANCH  13  14
ATOM     14  C   UNL A   1      37.737  21.479  25.738  1.00  0.00     0.275 C 
BRANCH  14  15
ATOM     15  O   UNL A   1      39.083  21.942  25.650  1.00  0.00    -0.458 OA
BRANCH  15  16
ATOM     16  C   UNL A   1      39.802  21.822  26.785  1.00  0.00     0.338 C 
ATOM     17  O   UNL A   1      40.126  20.820  27.400  1.00  0.00    -0.246 OA
BRANCH  16  18
ATOM     18  C   UNL A   1      40.289  23.144  27.106  1.00  0.00     0.060 A 
ATOM     19  C   UNL A   1      41.343  23.241  28.013  1.00  0.00     0.016 A 
ATOM     20  C   UNL A   1      39.753  24.251  26.458  1.00  0.00     0.016 A 
ATOM     21  C   UNL A   1      41.900  24.471  28.279  1.00  0.00     0.010 A 
ATOM     22  C   UNL A   1      40.349  25.479  26.680  1.00  0.00     0.010 A 
ATOM     23  C   UNL A   1      41.431  25.581  27.576  1.00  0.00    -0.014 A 
BRANCH  23  24
ATOM     24  C   UNL A   1      42.096  26.877  27.734  1.00  0.00     0.031 A 
ATOM     25  C   UNL A   1      43.407  27.087  27.066  1.00  0.00     0.074 A 
ATOM     26  C   UNL A   1      41.540  27.777  28.561  1.00  0.00     0.049 A 
ATOM     27  N   UNL A   1      44.283  28.031  27.253  1.00  0.00    -0.248 NA
ATOM     28  C   UNL A   1      43.802  26.068  26.080  1.00  0.00     0.031 C 
ATOM     29  C   UNL A   1      40.247  27.622  29.232  1.00  0.00     0.029 A 
ATOM     30  N   UNL A   1      42.009  28.981  29.007  1.00  0.00    -0.354 N 
ATOM     31  C   UNL A   1      45.356  27.702  26.440  1.00  0.00     0.074 A 
ATOM     32  C   UNL A   1      45.032  26.455  25.781  1.00  0.00     0.031 C 
ATOM     33  C   UNL A   1      40.035  28.683  30.024  1.00  0.00     0.029 A 
ATOM     34  C   UNL A   1      41.207  29.547  29.965  1.00  0.00     0.049 A 
ATOM     35  H   UNL A   1      42.837  29.398  28.676  1.00  0.00     0.167 HD
ATOM     36  C   UNL A   1      46.507  28.391  26.279  1.00  0.00     0.037 A 
ATOM     37  C   UNL A   1      41.431  30.616  30.747  1.00  0.00     0.037 A 
ATOM     38  C   UNL A   1      46.778  29.624  26.970  1.00  0.00     0.049 A 
ATOM     39  C   UNL A   1      42.726  31.352  30.572  1.00  0.00     0.074 A 
ATOM     40  C   UNL A   1      47.882  30.446  26.872  1.00  0.00     0.029 A 
ATOM     41  N   UNL A   1      45.925  30.202  27.908  1.00  0.00    -0.354 N 
ATOM     42  N   UNL A   1      43.736  31.064  29.783  1.00  0.00    -0.248 NA
ATOM     43  C   UNL A   1      42.918  32.556  31.385  1.00  0.00     0.031 C 
ATOM     44  C   UNL A   1      47.729  31.483  27.799  1.00  0.00     0.029 A 
ATOM     45  C   UNL A   1      46.493  31.355  28.419  1.00  0.00     0.049 A 
ATOM     46  H   UNL A   1      45.046  29.842  28.168  1.00  0.00     0.167 HD
ATOM     47  C   UNL A   1      44.674  32.065  29.980  1.00  0.00     0.074 A 
ATOM     48  C   UNL A   1      44.108  32.969  30.964  1.00  0.00     0.031 C 
ATOM     49  C   UNL A   1      45.888  32.230  29.396  1.00  0.00     0.037 A 
BRANCH  36  50
ATOM     50  C   UNL A   1      47.549  27.788  25.382  1.00  0.00     0.064 A 
ATOM     51  C   UNL A   1      48.667  27.105  25.888  1.00  0.00     0.173 A 
ATOM     52  C   UNL A   1      47.451  27.935  23.991  1.00  0.00     0.173 A 
ATOM     53  F   UNL A   1      48.824  26.951  27.212  1.00  0.00    -0.203 F 
ATOM     54  C   UNL A   1      49.672  26.645  25.040  1.00  0.00     0.198 A 
ATOM     55  C   UNL A   1      48.436  27.436  23.143  1.00  0.00     0.198 A 
ATOM     56  F   UNL A   1      46.405  28.578  23.450  1.00  0.00    -0.203 F 
ATOM     57  F   UNL A   1      50.771  26.074  25.555  1.00  0.00    -0.200 F 
ATOM     58  C   UNL A   1      49.554  26.806  23.669  1.00  0.00     0.200 A 
ATOM     59  F   UNL A   1      48.315  27.584  21.817  1.00  0.00    -0.200 F 
ATOM     60  F   UNL A   1      50.525  26.371  22.855  1.00  0.00    -0.200 F 
ENDBRANCH  36  50
BRANCH  37  61
ATOM     61  C   UNL A   1      40.409  31.014  31.746  1.00  0.00     0.064 A 
ATOM     62  C   UNL A   1      40.293  30.338  32.966  1.00  0.00     0.173 A 
ATOM     63  C   UNL A   1      39.581  32.129  31.537  1.00  0.00     0.173 A 
ATOM     64  F   UNL A   1      41.058  29.264  33.211  1.00  0.00    -0.203 F 
ATOM     65  C   UNL A   1      39.385  30.756  33.937  1.00  0.00     0.198 A 
ATOM     66  C   UNL A   1      38.693  32.563  32.520  1.00  0.00     0.198 A 
ATOM     67  F   UNL A   1      39.665  32.824  30.393  1.00  0.00    -0.203 F 
ATOM     68  F   UNL A   1      39.279  30.077  35.089  1.00  0.00    -0.200 F 
ATOM     69  C   UNL A   1      38.592  31.873  33.718  1.00  0.00     0.200 A 
ATOM     70  F   UNL A   1      37.948  33.658  32.312  1.00  0.00    -0.200 F 
ATOM     71  F   UNL A   1      37.735  32.287  34.661  1.00  0.00    -0.200 F 
ENDBRANCH  37  61
BRANCH  49  72
ATOM     72  C   UNL A   1      46.661  33.459  29.770  1.00  0.00     0.064 A 
ATOM     73  C   UNL A   1      47.567  33.469  30.838  1.00  0.00     0.173 A 
ATOM     74  C   UNL A   1      46.540  34.622  28.992  1.00  0.00     0.173 A 
ATOM     75  F   UNL A   1      47.703  32.388  31.620  1.00  0.00    -0.203 F 
ATOM     76  C   UNL A   1      48.319  34.606  31.123  1.00  0.00     0.198 A 
ATOM     77  C   UNL A   1      47.319  35.743  29.258  1.00  0.00     0.198 A 
ATOM     78  F   UNL A   1      45.690  34.658  27.956  1.00  0.00    -0.203 F 
ATOM     79  F   UNL A   1      49.151  34.610  32.173  1.00  0.00    -0.200 F 
ATOM     80  C   UNL A   1      48.203  35.736  30.326  1.00  0.00     0.200 A 
ATOM     81  F   UNL A   1      47.220  36.825  28.475  1.00  0.00    -0.200 F 
ATOM     82  F   UNL A   1      48.944  36.821  30.589  1.00  0.00    -0.200 F 
ENDBRANCH  49  72
ENDBRANCH  23  24
ENDBRANCH  16  18
ENDBRANCH  15  16
ENDBRANCH  14  15
ENDBRANCH  13  14
ENDBRANCH  12  13
ENDBRANCH  10  12
ENDBRANCH   5  10
ENDBRANCH   1   5
BRANCH   2  83
ATOM     83  C   UNL A   1      32.563  26.896  26.202  1.00  0.00     0.175 C 
BRANCH  83  84
ATOM     84  N   UNL A   1      32.648  28.301  26.621  1.00  0.00    -0.342 N 
ATOM     85  C   UNL A   1      33.544  29.236  26.984  1.00  0.00     0.240 C 
ATOM     86  H   UNL A   1      31.744  28.689  26.641  1.00  0.00     0.164 HD
ATOM     87  O   UNL A   1      33.122  30.397  27.056  1.00  0.00    -0.273 OA
BRANCH  85  88
ATOM     88  C   UNL A   1      34.982  28.950  27.310  1.00  0.00     0.216 C 
BRANCH  88  89
ATOM     89  N   UNL A   1      35.204  29.329  28.682  1.00  0.00    -0.346 N 
ATOM     90  C   UNL A   1      36.161  30.154  29.178  1.00  0.00     0.239 C 
ATOM     91  H   UNL A   1      34.585  28.942  29.342  1.00  0.00     0.164 HD
ATOM     92  O   UNL A   1      36.308  30.198  30.399  1.00  0.00    -0.273 OA
BRANCH  90  93
ATOM     93  C   UNL A   1      37.035  30.974  28.221  1.00  0.00     0.219 C 
BRANCH  93  94
ATOM     94  N   UNL A   1      37.455  32.226  28.813  1.00  0.00    -0.312 N 
ATOM     95  C   UNL A   1      36.766  33.399  28.871  1.00  0.00     0.407 C 
ATOM     96  H   UNL A   1      38.350  32.229  29.224  1.00  0.00     0.167 HD
ATOM     97  O   UNL A   1      37.351  34.440  29.126  1.00  0.00    -0.225 OA
BRANCH  95  98
ATOM     98  O   UNL A   1      35.448  33.293  28.564  1.00  0.00    -0.445 OA
BRANCH  98  99
ATOM     99  C   UNL A   1      34.708  34.531  28.645  1.00  0.00     0.270 C 
BRANCH  99 100
ATOM    100  C   UNL A   1      34.048  34.813  29.976  1.00  0.00    -0.011 A 
ATOM    101  C   UNL A   1      33.006  35.748  30.053  1.00  0.00     0.007 A 
ATOM    102  C   UNL A   1      34.506  34.226  31.157  1.00  0.00     0.007 A 
ATOM    103  C   UNL A   1      32.524  36.189  31.283  1.00  0.00     0.000 A 
ATOM    104  C   UNL A   1      34.023  34.661  32.392  1.00  0.00     0.000 A 
ATOM    105  C   UNL A   1      33.051  35.659  32.456  1.00  0.00     0.000 A 
ENDBRANCH  99 100
ENDBRANCH  98  99
ENDBRANCH  95  98
ENDBRANCH  93  94
ENDBRANCH  90  93
ENDBRANCH  88  89
ENDBRANCH  85  88
ENDBRANCH  83  84
BRANCH  83 106
ATOM    106  C   UNL A   1      31.178  26.499  25.635  1.00  0.00     0.070 C 
BRANCH 106 107
ATOM    107  C   UNL A   1      30.520  27.446  24.660  1.00  0.00    -0.045 A 
ATOM    108  C   UNL A   1      30.933  28.782  24.547  1.00  0.00     0.004 A 
ATOM    109  C   UNL A   1      29.398  27.022  23.940  1.00  0.00     0.004 A 
ATOM    110  C   UNL A   1      30.221  29.675  23.740  1.00  0.00     0.000 A 
ATOM    111  C   UNL A   1      28.699  27.910  23.125  1.00  0.00     0.000 A 
ATOM    112  C   UNL A   1      29.105  29.238  23.030  1.00  0.00     0.000 A 
ENDBRANCH 106 107
ENDBRANCH  83 106
ENDBRANCH   2  83
TORSDOF 25
ENDMDL
MODEL 2
REMARK VINA RESULT:     -10.1      3.728      8.708
REMARK SMILES CC(C)C[C@H](NC(=O)[C@H](Cc1ccccc1)NC(=O)CNC(=O)CNC(=O)OCc1ccccc1)C(=O)OCCOC(=O)c1ccc(-c2c3nc(c(-c4c(F)c(F)c(F)c(F)c4F)c4ccc([nH]4)c(-c4c(F)c(F)c(F)c(F)c4F)c4nc(c(-c5c(F)c(F)c(F)c(F)c5F)c5ccc2[nH]5)C=C4)C=C3)cc1
REMARK SMILES IDX 6 1 7 2 8 3 5 5 4 6 2 7 1 8 3 9 36 10 37 11 38 12 39 13
REMARK SMILES IDX 40 14 41 15 42 16 43 17 44 18 45 19 106 20 46 21 105 22
REMARK SMILES IDX 47 23 48 24 49 25 99 26 50 27 104 28 98 29 100 30 51 31
REMARK SMILES IDX 103 32 97 33 96 34 52 36 84 37 64 38 83 39 65 40 68 41 82 42
REMARK SMILES IDX 101 43 66 44 67 45 81 47 102 48 69 49 53 50 54 51 62 52
REMARK SMILES IDX 55 53 56 54 60 55 63 56 57 57 58 58 61 59 59 60 85 61 86 62
REMARK SMILES IDX 94 63 87 64 88 65 92 66 95 67 89 68 90 69 93 70 91 71 70 72
REMARK SMILES IDX 71 73 79 74 72 75 73 76 77 77 80 78 74 79 75 80 78 81 76 82
REMARK SMILES IDX 9 83 17 84 18 85 19 87 20 88 21 89 22 90 23 92 24 93 25 94
REMARK SMILES IDX 26 95 27 97 28 98 29 99 30 100 31 101 35 102 32 103 34 104
REMARK SMILES IDX 33 105 10 106 11 107 12 108 16 109 13 110 15 111 14 112
REMARK H PARENT 6 4 100 35 68 46 17 86 21 91 25 96
REMARK Flexibility Score: inf
ROOT
ATOM      1  N   UNL A   1      33.308  29.275  27.749  1.00  0.00    -0.341 N 
ATOM      2  C   UNL A   1      32.732  28.300  26.991  1.00  0.00     0.243 C 
ATOM      3  O   UNL A   1      31.966  27.547  27.604  1.00  0.00    -0.273 OA
ATOM      4  H   UNL A   1      33.003  29.208  28.683  1.00  0.00     0.164 HD
ENDROOT
BRANCH   1   5
ATOM      5  C   UNL A   1      34.253  30.402  27.597  1.00  0.00     0.192 C 
BRANCH   5   6
ATOM      6  C   UNL A   1      33.738  31.894  27.569  1.00  0.00     0.040 C 
BRANCH   6   7
ATOM      7  C   UNL A   1      34.256  33.093  28.422  1.00  0.00    -0.015 C 
ATOM      8  C   UNL A   1      35.525  33.827  27.944  1.00  0.00     0.007 C 
ATOM      9  C   UNL A   1      33.170  34.181  28.463  1.00  0.00     0.007 C 
ENDBRANCH   6   7
ENDBRANCH   5   6
BRANCH   5  10
ATOM     10  C   UNL A   1      35.718  30.249  28.114  1.00  0.00     0.328 C 
ATOM     11  O   UNL A   1      36.654  30.029  27.350  1.00  0.00    -0.250 OA
BRANCH  10  12
ATOM     12  O   UNL A   1      35.840  30.334  29.468  1.00  0.00    -0.461 OA
BRANCH  12  13
ATOM     13  C   UNL A   1      37.012  31.016  29.970  1.00  0.00     0.274 C 
BRANCH  13  14
ATOM     14  C   UNL A   1      36.682  32.060  31.038  1.00  0.00     0.275 C 
BRANCH  14  15
ATOM     15  O   UNL A   1      37.266  33.330  30.754  1.00  0.00    -0.458 OA
BRANCH  15  16
ATOM     16  C   UNL A   1      38.110  33.794  31.700  1.00  0.00     0.338 C 
ATOM     17  O   UNL A   1      38.010  33.765  32.914  1.00  0.00    -0.246 OA
BRANCH  16  18
ATOM     18  C   UNL A   1      39.302  34.229  31.008  1.00  0.00     0.060 A 
ATOM     19  C   UNL A   1      40.500  34.222  31.722  1.00  0.00     0.016 A 
ATOM     20  C   UNL A   1      39.234  34.563  29.661  1.00  0.00     0.016 A 
ATOM     21  C   UNL A   1      41.675  34.540  31.080  1.00  0.00     0.010 A 
ATOM     22  C   UNL A   1      40.420  34.827  29.002  1.00  0.00     0.010 A 
ATOM     23  C   UNL A   1      41.637  34.797  29.710  1.00  0.00    -0.014 A 
BRANCH  23  24
ATOM     24  C   UNL A   1      42.887  35.001  28.973  1.00  0.00     0.031 A 
ATOM     25  C   UNL A   1      43.758  33.825  28.716  1.00  0.00     0.074 A 
ATOM     26  C   UNL A   1      43.238  36.258  28.656  1.00  0.00     0.049 A 
ATOM     27  N   UNL A   1      44.996  33.790  28.313  1.00  0.00    -0.248 NA
ATOM     28  C   UNL A   1      43.163  32.506  28.989  1.00  0.00     0.031 C 
ATOM     29  C   UNL A   1      42.411  37.447  28.878  1.00  0.00     0.029 A 
ATOM     30  N   UNL A   1      44.394  36.749  28.119  1.00  0.00    -0.354 N 
ATOM     31  C   UNL A   1      45.347  32.450  28.324  1.00  0.00     0.074 A 
ATOM     32  C   UNL A   1      44.201  31.707  28.800  1.00  0.00     0.031 C 
ATOM     33  C   UNL A   1      43.096  38.534  28.499  1.00  0.00     0.029 A 
ATOM     34  C   UNL A   1      44.428  38.119  28.078  1.00  0.00     0.049 A 
ATOM     35  H   UNL A   1      45.128  36.177  27.794  1.00  0.00     0.167 HD
ATOM     36  C   UNL A   1      46.534  31.909  27.970  1.00  0.00     0.037 A 
ATOM     37  C   UNL A   1      45.450  38.942  27.788  1.00  0.00     0.037 A 
ATOM     38  C   UNL A   1      47.644  32.701  27.511  1.00  0.00     0.049 A 
ATOM     39  C   UNL A   1      46.766  38.322  27.424  1.00  0.00     0.074 A 
ATOM     40  C   UNL A   1      48.887  32.283  27.083  1.00  0.00     0.029 A 
ATOM     41  N   UNL A   1      47.637  34.092  27.438  1.00  0.00    -0.354 N 
ATOM     42  N   UNL A   1      47.100  37.052  27.403  1.00  0.00    -0.248 NA
ATOM     43  C   UNL A   1      47.845  39.237  27.043  1.00  0.00     0.031 C 
ATOM     44  C   UNL A   1      49.656  33.422  26.817  1.00  0.00     0.029 A 
ATOM     45  C   UNL A   1      48.867  34.550  27.001  1.00  0.00     0.049 A 
ATOM     46  H   UNL A   1      46.870  34.666  27.664  1.00  0.00     0.167 HD
ATOM     47  C   UNL A   1      48.419  37.009  26.978  1.00  0.00     0.074 A 
ATOM     48  C   UNL A   1      48.821  38.386  26.751  1.00  0.00     0.031 C 
ATOM     49  C   UNL A   1      49.222  35.934  26.783  1.00  0.00     0.037 A 
BRANCH  36  50
ATOM     50  C   UNL A   1      46.687  30.424  28.131  1.00  0.00     0.064 A 
ATOM     51  C   UNL A   1      47.120  29.843  29.334  1.00  0.00     0.173 A 
ATOM     52  C   UNL A   1      46.438  29.569  27.047  1.00  0.00     0.173 A 
ATOM     53  F   UNL A   1      47.392  30.614  30.399  1.00  0.00    -0.203 F 
ATOM     54  C   UNL A   1      47.354  28.472  29.427  1.00  0.00     0.198 A 
ATOM     55  C   UNL A   1      46.631  28.194  27.157  1.00  0.00     0.198 A 
ATOM     56  F   UNL A   1      46.023  30.066  25.873  1.00  0.00    -0.203 F 
ATOM     57  F   UNL A   1      47.851  27.954  30.559  1.00  0.00    -0.200 F 
ATOM     58  C   UNL A   1      47.105  27.649  28.340  1.00  0.00     0.200 A 
ATOM     59  F   UNL A   1      46.380  27.399  26.108  1.00  0.00    -0.200 F 
ATOM     60  F   UNL A   1      47.338  26.332  28.428  1.00  0.00    -0.200 F 
ENDBRANCH  36  50
BRANCH  37  61
ATOM     61  C   UNL A   1      45.241  40.410  27.850  1.00  0.00     0.064 A 
ATOM     62  C   UNL A   1      45.625  41.145  28.978  1.00  0.00     0.173 A 
ATOM     63  C   UNL A   1      44.730  41.120  26.752  1.00  0.00     0.173 A 
ATOM     64  F   UNL A   1      46.114  40.511  30.054  1.00  0.00    -0.203 F 
ATOM     65  C   UNL A   1      45.500  42.533  29.009  1.00  0.00     0.198 A 
ATOM     66  C   UNL A   1      44.631  42.510  26.773  1.00  0.00     0.198 A 
ATOM     67  F   UNL A   1      44.365  40.466  25.639  1.00  0.00    -0.203 F 
ATOM     68  F   UNL A   1      45.855  43.210  30.110  1.00  0.00    -0.200 F 
ATOM     69  C   UNL A   1      45.012  43.215  27.904  1.00  0.00     0.200 A 
ATOM     70  F   UNL A   1      44.183  43.165  25.693  1.00  0.00    -0.200 F 
ATOM     71  F   UNL A   1      44.913  44.551  27.928  1.00  0.00    -0.200 F 
ENDBRANCH  37  61
BRANCH  49  72
ATOM     72  C   UNL A   1      50.599  36.200  26.252  1.00  0.00     0.064 A 
ATOM     73  C   UNL A   1      51.707  36.330  27.099  1.00  0.00     0.173 A 
ATOM     74  C   UNL A   1      50.814  36.252  24.866  1.00  0.00     0.173 A 
ATOM     75  F   UNL A   1      51.548  36.305  28.430  1.00  0.00    -0.203 F 
ATOM     76  C   UNL A   1      52.985  36.514  26.576  1.00  0.00     0.198 A 
ATOM     77  C   UNL A   1      52.096  36.399  24.347  1.00  0.00     0.198 A 
ATOM     78  F   UNL A   1      49.784  36.128  24.016  1.00  0.00    -0.203 F 
ATOM     79  F   UNL A   1      54.027  36.676  27.402  1.00  0.00    -0.200 F 
ATOM     80  C   UNL A   1      53.178  36.536  25.202  1.00  0.00     0.200 A 
ATOM     81  F   UNL A   1      52.283  36.400  23.021  1.00  0.00    -0.200 F 
ATOM     82  F   UNL A   1      54.412  36.691  24.701  1.00  0.00    -0.200 F 
ENDBRANCH  49  72
ENDBRANCH  23  24
ENDBRANCH  16  18
ENDBRANCH  15  16
ENDBRANCH  14  15
ENDBRANCH  13  14
ENDBRANCH  12  13
ENDBRANCH  10  12
ENDBRANCH   5  10
ENDBRANCH   1   5
BRANCH   2  83
ATOM     83  C   UNL A   1      33.191  27.962  25.561  1.00  0.00     0.175 C 
BRANCH  83  84
ATOM     84  N   UNL A   1      32.849  26.558  25.302  1.00  0.00    -0.342 N 
ATOM     85  C   UNL A   1      33.371  25.320  25.369  1.00  0.00     0.240 C 
ATOM     86  H   UNL A   1      31.925  26.505  24.968  1.00  0.00     0.164 HD
ATOM     87  O   UNL A   1      32.576  24.384  25.221  1.00  0.00    -0.273 OA
BRANCH  85  88
ATOM     88  C   UNL A   1      34.827  25.026  25.593  1.00  0.00     0.216 C 
BRANCH  88  89
ATOM     89  N   UNL A   1      35.208  23.978  24.680  1.00  0.00    -0.346 N 
ATOM     90  C   UNL A   1      36.404  23.345  24.585  1.00  0.00     0.239 C 
ATOM     91  H   UNL A   1      34.513  23.685  24.046  1.00  0.00     0.164 HD
ATOM     92  O   UNL A   1      36.595  22.614  23.613  1.00  0.00    -0.273 OA
BRANCH  90  93
ATOM     93  C   UNL A   1      37.477  23.572  25.659  1.00  0.00     0.219 C 
BRANCH  93  94
ATOM     94  N   UNL A   1      38.447  22.499  25.686  1.00  0.00    -0.312 N 
ATOM     95  C   UNL A   1      39.618  22.445  26.381  1.00  0.00     0.407 C 
ATOM     96  H   UNL A   1      38.237  21.712  25.133  1.00  0.00     0.167 HD
ATOM     97  O   UNL A   1      40.471  21.625  26.079  1.00  0.00    -0.225 OA
BRANCH  95  98
ATOM     98  O   UNL A   1      39.745  23.395  27.342  1.00  0.00    -0.445 OA
BRANCH  98  99
ATOM     99  C   UNL A   1      40.789  24.363  27.098  1.00  0.00     0.270 C 
BRANCH  99 100
ATOM    100  C   UNL A   1      40.368  25.813  27.173  1.00  0.00    -0.011 A 
ATOM    101  C   UNL A   1      40.962  26.757  26.322  1.00  0.00     0.007 A 
ATOM    102  C   UNL A   1      39.455  26.260  28.131  1.00  0.00     0.007 A 
ATOM    103  C   UNL A   1      40.759  28.122  26.509  1.00  0.00     0.000 A 
ATOM    104  C   UNL A   1      39.246  27.627  28.318  1.00  0.00     0.000 A 
ATOM    105  C   UNL A   1      39.916  28.558  27.525  1.00  0.00     0.000 A 
ENDBRANCH  99 100
ENDBRANCH  98  99
ENDBRANCH  95  98
ENDBRANCH  93  94
ENDBRANCH  90  93
ENDBRANCH  88  89
ENDBRANCH  85  88
ENDBRANCH  83  84
BRANCH  83 106
ATOM    106  C   UNL A   1      32.440  28.963  24.650  1.00  0.00     0.070 C 
BRANCH 106 107
ATOM    107  C   UNL A   1      31.035  28.610  24.225  1.00  0.00    -0.045 A 
ATOM    108  C   UNL A   1      30.566  27.289  24.278  1.00  0.00     0.004 A 
ATOM    109  C   UNL A   1      30.222  29.594  23.654  1.00  0.00     0.004 A 
ATOM    110  C   UNL A   1      29.313  26.963  23.751  1.00  0.00     0.000 A 
ATOM    111  C   UNL A   1      28.965  29.270  23.142  1.00  0.00     0.000 A 
ATOM    112  C   UNL A   1      28.514  27.953  23.184  1.00  0.00     0.000 A 
ENDBRANCH 106 107
ENDBRANCH  83 106
ENDBRANCH   2  83
TORSDOF 25
ENDMDL
MODEL 3
REMARK VINA RESULT:      -9.9      6.774     10.980
REMARK SMILES CC(C)C[C@H](NC(=O)[C@H](Cc1ccccc1)NC(=O)CNC(=O)CNC(=O)OCc1ccccc1)C(=O)OCCOC(=O)c1ccc(-c2c3nc(c(-c4c(F)c(F)c(F)c(F)c4F)c4ccc([nH]4)c(-c4c(F)c(F)c(F)c(F)c4F)c4nc(c(-c5c(F)c(F)c(F)c(F)c5F)c5ccc2[nH]5)C=C4)C=C3)cc1
REMARK SMILES IDX 6 1 7 2 8 3 5 5 4 6 2 7 1 8 3 9 36 10 37 11 38 12 39 13
REMARK SMILES IDX 40 14 41 15 42 16 43 17 44 18 45 19 106 20 46 21 105 22
REMARK SMILES IDX 47 23 48 24 49 25 99 26 50 27 104 28 98 29 100 30 51 31
REMARK SMILES IDX 103 32 97 33 96 34 52 36 84 37 64 38 83 39 65 40 68 41 82 42
REMARK SMILES IDX 101 43 66 44 67 45 81 47 102 48 69 49 53 50 54 51 62 52
REMARK SMILES IDX 55 53 56 54 60 55 63 56 57 57 58 58 61 59 59 60 85 61 86 62
REMARK SMILES IDX 94 63 87 64 88 65 92 66 95 67 89 68 90 69 93 70 91 71 70 72
REMARK SMILES IDX 71 73 79 74 72 75 73 76 77 77 80 78 74 79 75 80 78 81 76 82
REMARK SMILES IDX 9 83 17 84 18 85 19 87 20 88 21 89 22 90 23 92 24 93 25 94
REMARK SMILES IDX 26 95 27 97 28 98 29 99 30 100 31 101 35 102 32 103 34 104
REMARK SMILES IDX 33 105 10 106 11 107 12 108 16 109 13 110 15 111 14 112
REMARK H PARENT 6 4 100 35 68 46 17 86 21 91 25 96
REMARK Flexibility Score: inf
ROOT
ATOM      1  N   UNL A   1      39.560  27.555  29.229  1.00  0.00    -0.341 N 
ATOM      2  C   UNL A   1      39.451  27.909  30.540  1.00  0.00     0.243 C 
ATOM      3  O   UNL A   1      38.296  27.931  30.982  1.00  0.00    -0.273 OA
ATOM      4  H   UNL A   1      38.670  27.370  28.850  1.00  0.00     0.164 HD
ENDROOT
BRANCH   1   5
ATOM      5  C   UNL A   1      40.606  27.364  28.203  1.00  0.00     0.192 C 
BRANCH   5   6
ATOM      6  C   UNL A   1      40.725  26.005  27.407  1.00  0.00     0.040 C 
BRANCH   6   7
ATOM      7  C   UNL A   1      40.111  24.624  27.791  1.00  0.00    -0.015 C 
ATOM      8  C   UNL A   1      38.985  24.059  26.901  1.00  0.00     0.007 C 
ATOM      9  C   UNL A   1      41.217  23.557  27.740  1.00  0.00     0.007 C 
ENDBRANCH   6   7
ENDBRANCH   5   6
BRANCH   5  10
ATOM     10  C   UNL A   1      41.148  28.603  27.422  1.00  0.00     0.328 C 
ATOM     11  O   UNL A   1      40.503  29.132  26.521  1.00  0.00    -0.250 OA
BRANCH  10  12
ATOM     12  O   UNL A   1      42.397  28.994  27.800  1.00  0.00    -0.461 OA
BRANCH  12  13
ATOM     13  C   UNL A   1      43.366  29.174  26.742  1.00  0.00     0.274 C 
BRANCH  13  14
ATOM     14  C   UNL A   1      43.778  27.857  26.080  1.00  0.00     0.275 C 
BRANCH  14  15
ATOM     15  O   UNL A   1      44.093  26.846  27.036  1.00  0.00    -0.458 OA
BRANCH  15  16
ATOM     16  C   UNL A   1      45.379  26.832  27.446  1.00  0.00     0.338 C 
ATOM     17  O   UNL A   1      46.403  26.986  26.804  1.00  0.00    -0.246 OA
BRANCH  16  18
ATOM     18  C   UNL A   1      45.349  26.745  28.888  1.00  0.00     0.060 A 
ATOM     19  C   UNL A   1      46.495  27.134  29.581  1.00  0.00     0.016 A 
ATOM     20  C   UNL A   1      44.180  26.356  29.531  1.00  0.00     0.016 A 
ATOM     21  C   UNL A   1      46.483  27.156  30.957  1.00  0.00     0.010 A 
ATOM     22  C   UNL A   1      44.147  26.432  30.911  1.00  0.00     0.010 A 
ATOM     23  C   UNL A   1      45.292  26.848  31.617  1.00  0.00    -0.014 A 
BRANCH  23  24
ATOM     24  C   UNL A   1      45.209  26.997  33.072  1.00  0.00     0.031 A 
ATOM     25  C   UNL A   1      44.794  28.312  33.628  1.00  0.00     0.074 A 
ATOM     26  C   UNL A   1      45.611  25.971  33.839  1.00  0.00     0.049 A 
ATOM     27  N   UNL A   1      44.880  28.754  34.849  1.00  0.00    -0.248 NA
ATOM     28  C   UNL A   1      44.243  29.277  32.662  1.00  0.00     0.031 C 
ATOM     29  C   UNL A   1      46.017  24.654  33.341  1.00  0.00     0.029 A 
ATOM     30  N   UNL A   1      45.783  25.886  35.192  1.00  0.00    -0.354 N 
ATOM     31  C   UNL A   1      44.435  30.065  34.797  1.00  0.00     0.074 A 
ATOM     32  C   UNL A   1      44.106  30.355  33.419  1.00  0.00     0.031 C 
ATOM     33  C   UNL A   1      46.412  23.898  34.375  1.00  0.00     0.029 A 
ATOM     34  C   UNL A   1      46.352  24.703  35.587  1.00  0.00     0.049 A 
ATOM     35  H   UNL A   1      45.525  26.602  35.818  1.00  0.00     0.167 HD
ATOM     36  C   UNL A   1      44.325  30.936  35.825  1.00  0.00     0.037 A 
ATOM     37  C   UNL A   1      46.826  24.341  36.792  1.00  0.00     0.037 A 
ATOM     38  C   UNL A   1      44.676  30.592  37.177  1.00  0.00     0.049 A 
ATOM     39  C   UNL A   1      46.720  25.333  37.912  1.00  0.00     0.074 A 
ATOM     40  C   UNL A   1      44.578  31.361  38.319  1.00  0.00     0.029 A 
ATOM     41  N   UNL A   1      45.213  29.365  37.560  1.00  0.00    -0.354 N 
ATOM     42  N   UNL A   1      46.271  26.567  37.880  1.00  0.00    -0.248 NA
ATOM     43  C   UNL A   1      47.177  24.891  39.232  1.00  0.00     0.031 C 
ATOM     44  C   UNL A   1      45.118  30.626  39.380  1.00  0.00     0.029 A 
ATOM     45  C   UNL A   1      45.480  29.367  38.918  1.00  0.00     0.049 A 
ATOM     46  H   UNL A   1      45.378  28.607  36.954  1.00  0.00     0.167 HD
ATOM     47  C   UNL A   1      46.364  27.044  39.178  1.00  0.00     0.074 A 
ATOM     48  C   UNL A   1      46.911  25.959  39.973  1.00  0.00     0.031 C 
ATOM     49  C   UNL A   1      46.021  28.260  39.671  1.00  0.00     0.037 A 
BRANCH  36  50
ATOM     50  C   UNL A   1      43.872  32.329  35.497  1.00  0.00     0.064 A 
ATOM     51  C   UNL A   1      42.532  32.730  35.624  1.00  0.00     0.173 A 
ATOM     52  C   UNL A   1      44.789  33.269  35.002  1.00  0.00     0.173 A 
ATOM     53  F   UNL A   1      41.608  31.867  36.074  1.00  0.00    -0.203 F 
ATOM     54  C   UNL A   1      42.119  33.997  35.215  1.00  0.00     0.198 A 
ATOM     55  C   UNL A   1      44.380  34.549  34.635  1.00  0.00     0.198 A 
ATOM     56  F   UNL A   1      46.082  32.943  34.858  1.00  0.00    -0.203 F 
ATOM     57  F   UNL A   1      40.820  34.324  35.266  1.00  0.00    -0.200 F 
ATOM     58  C   UNL A   1      43.043  34.906  34.725  1.00  0.00     0.200 A 
ATOM     59  F   UNL A   1      45.277  35.429  34.171  1.00  0.00    -0.200 F 
ATOM     60  F   UNL A   1      42.644  36.120  34.325  1.00  0.00    -0.200 F 
ENDBRANCH  36  50
BRANCH  37  61
ATOM     61  C   UNL A   1      47.437  23.000  36.960  1.00  0.00     0.064 A 
ATOM     62  C   UNL A   1      48.826  22.830  36.909  1.00  0.00     0.173 A 
ATOM     63  C   UNL A   1      46.652  21.874  37.256  1.00  0.00     0.173 A 
ATOM     64  F   UNL A   1      49.618  23.874  36.624  1.00  0.00    -0.203 F 
ATOM     65  C   UNL A   1      49.407  21.584  37.141  1.00  0.00     0.198 A 
ATOM     66  C   UNL A   1      47.236  20.635  37.516  1.00  0.00     0.198 A 
ATOM     67  F   UNL A   1      45.318  21.987  37.336  1.00  0.00    -0.203 F 
ATOM     68  F   UNL A   1      50.738  21.444  37.065  1.00  0.00    -0.200 F 
ATOM     69  C   UNL A   1      48.613  20.490  37.454  1.00  0.00     0.200 A 
ATOM     70  F   UNL A   1      46.465  19.588  37.842  1.00  0.00    -0.200 F 
ATOM     71  F   UNL A   1      49.175  19.299  37.698  1.00  0.00    -0.200 F 
ENDBRANCH  37  61
BRANCH  49  72
ATOM     72  C   UNL A   1      46.180  28.464  41.148  1.00  0.00     0.064 A 
ATOM     73  C   UNL A   1      45.238  27.986  42.068  1.00  0.00     0.173 A 
ATOM     74  C   UNL A   1      47.336  29.085  41.646  1.00  0.00     0.173 A 
ATOM     75  F   UNL A   1      44.109  27.401  41.638  1.00  0.00    -0.203 F 
ATOM     76  C   UNL A   1      45.442  28.133  43.438  1.00  0.00     0.198 A 
ATOM     77  C   UNL A   1      47.553  29.198  43.015  1.00  0.00     0.198 A 
ATOM     78  F   UNL A   1      48.269  29.554  40.804  1.00  0.00    -0.203 F 
ATOM     79  F   UNL A   1      44.510  27.705  44.301  1.00  0.00    -0.200 F 
ATOM     80  C   UNL A   1      46.603  28.727  43.909  1.00  0.00     0.200 A 
ATOM     81  F   UNL A   1      48.684  29.754  43.468  1.00  0.00    -0.200 F 
ATOM     82  F   UNL A   1      46.808  28.848  45.228  1.00  0.00    -0.200 F 
ENDBRANCH  49  72
ENDBRANCH  23  24
ENDBRANCH  16  18
ENDBRANCH  15  16
ENDBRANCH  14  15
ENDBRANCH  13  14
ENDBRANCH  12  13
ENDBRANCH  10  12
ENDBRANCH   5  10
ENDBRANCH   1   5
BRANCH   2  83
ATOM     83  C   UNL A   1      40.613  28.512  31.350  1.00  0.00     0.175 C 
BRANCH  83  84
ATOM     84  N   UNL A   1      41.028  29.752  30.681  1.00  0.00    -0.342 N 
ATOM     85  C   UNL A   1      40.561  30.965  30.333  1.00  0.00     0.240 C 
ATOM     86  H   UNL A   1      41.965  29.667  30.391  1.00  0.00     0.164 HD
ATOM     87  O   UNL A   1      41.403  31.780  29.936  1.00  0.00    -0.273 OA
BRANCH  85  88
ATOM     88  C   UNL A   1      39.113  31.361  30.384  1.00  0.00     0.216 C 
BRANCH  88  89
ATOM     89  N   UNL A   1      39.052  32.750  30.765  1.00  0.00    -0.346 N 
ATOM     90  C   UNL A   1      38.062  33.643  30.514  1.00  0.00     0.239 C 
ATOM     91  H   UNL A   1      39.824  33.092  31.271  1.00  0.00     0.164 HD
ATOM     92  O   UNL A   1      38.282  34.830  30.753  1.00  0.00    -0.273 OA
BRANCH  90  93
ATOM     93  C   UNL A   1      36.728  33.162  29.928  1.00  0.00     0.219 C 
BRANCH  93  94
ATOM     94  N   UNL A   1      35.669  34.126  30.136  1.00  0.00    -0.312 N 
ATOM     95  C   UNL A   1      34.502  33.955  30.818  1.00  0.00     0.407 C 
ATOM     96  H   UNL A   1      35.809  35.014  29.735  1.00  0.00     0.167 HD
ATOM     97  O   UNL A   1      33.581  34.740  30.659  1.00  0.00    -0.225 OA
BRANCH  95  98
ATOM     98  O   UNL A   1      34.462  32.841  31.593  1.00  0.00    -0.445 OA
BRANCH  98  99
ATOM     99  C   UNL A   1      34.526  33.093  33.014  1.00  0.00     0.270 C 
BRANCH  99 100
ATOM    100  C   UNL A   1      35.879  32.884  33.656  1.00  0.00    -0.011 A 
ATOM    101  C   UNL A   1      36.637  31.750  33.332  1.00  0.00     0.007 A 
ATOM    102  C   UNL A   1      36.364  33.753  34.636  1.00  0.00     0.007 A 
ATOM    103  C   UNL A   1      37.778  31.416  34.057  1.00  0.00     0.000 A 
ATOM    104  C   UNL A   1      37.509  33.424  35.362  1.00  0.00     0.000 A 
ATOM    105  C   UNL A   1      38.202  32.244  35.090  1.00  0.00     0.000 A 
ENDBRANCH  99 100
ENDBRANCH  98  99
ENDBRANCH  95  98
ENDBRANCH  93  94
ENDBRANCH  90  93
ENDBRANCH  88  89
ENDBRANCH  85  88
ENDBRANCH  83  84
BRANCH  83 106
ATOM    106  C   UNL A   1      40.042  28.734  32.771  1.00  0.00     0.070 C 
BRANCH 106 107
ATOM    107  C   UNL A   1      40.859  28.243  33.942  1.00  0.00    -0.045 A 
ATOM    108  C   UNL A   1      41.428  26.961  33.949  1.00  0.00     0.004 A 
ATOM    109  C   UNL A   1      40.953  29.030  35.094  1.00  0.00     0.004 A 
ATOM    110  C   UNL A   1      42.062  26.475  35.097  1.00  0.00     0.000 A 
ATOM    111  C   UNL A   1      41.598  28.551  36.233  1.00  0.00     0.000 A 
ATOM    112  C   UNL A   1      42.147  27.271  36.238  1.00  0.00     0.000 A 
ENDBRANCH 106 107
ENDBRANCH  83 106
ENDBRANCH   2  83
TORSDOF 25
ENDMDL
