MODEL 1
REMARK VINA RESULT:     -10.9      0.000      0.000
REMARK SMILES C[C@@H](CO)CS[C@@H](C)C[C@@](C)([NH3+])C(=O)OCCOC(=O)c1ccc(-c2c3nc(c(-c4c(F)c(F)c(F)c(F)c4F)c4ccc([nH]4)c(-c4c(F)c(F)c(F)c(F)c4F)c4nc(c(-c5c(F)c(F)c(F)c(F)c5F)c5ccc2[nH]5)C=C4)C=C3)cc1
REMARK SMILES IDX 13 1 14 2 10 3 11 4 9 5 7 6 8 7 6 8 5 9 2 10 1 11 3 12 4 13
REMARK SMILES IDX 12 15 15 19 16 20 17 21 18 22 19 23 20 24 21 25 22 26 83 27
REMARK SMILES IDX 23 28 82 29 24 30 25 31 26 32 76 33 27 34 81 35 75 36 77 37
REMARK SMILES IDX 28 38 80 39 74 40 73 41 29 43 61 44 41 45 60 46 42 47 45 48
REMARK SMILES IDX 59 49 78 50 43 51 44 52 58 54 79 55 46 56 30 57 31 58 39 59
REMARK SMILES IDX 32 60 33 61 37 62 40 63 34 64 35 65 38 66 36 67 62 68 63 69
REMARK SMILES IDX 71 70 64 71 65 72 69 73 72 74 66 75 67 76 70 77 68 78 47 79
REMARK SMILES IDX 48 80 56 81 49 82 50 83 54 84 57 85 51 86 52 87 55 88 53 89
REMARK H PARENT 4 14 12 16 12 17 12 18 77 42 45 53
REMARK Flexibility Score: inf
ROOT
ATOM      1  C   UNL A   1      32.377  25.913  26.207  1.00  0.00     0.367 C 
ATOM      2  O   UNL A   1      31.363  25.656  26.856  1.00  0.00    -0.245 OA
ENDROOT
BRANCH   1   3
ATOM      3  C   UNL A   1      33.064  24.952  25.253  1.00  0.00     0.191 C 
ATOM      4  C   UNL A   1      32.664  23.525  25.665  1.00  0.00     0.092 C 
BRANCH   3   5
ATOM      5  C   UNL A   1      32.690  25.262  23.780  1.00  0.00     0.094 C 
BRANCH   5   6
ATOM      6  C   UNL A   1      31.347  25.947  23.242  1.00  0.00     0.050 C 
ATOM      7  C   UNL A   1      31.787  26.730  21.971  1.00  0.00     0.019 C 
BRANCH   6   8
ATOM      8  S   UNL A   1      29.569  26.707  23.885  1.00  0.00    -0.158 SA
BRANCH   8   9
ATOM      9  C   UNL A   1      28.430  28.280  23.125  1.00  0.00     0.075 C 
BRANCH   9  10
ATOM     10  C   UNL A   1      28.214  29.912  22.676  1.00  0.00     0.021 C 
ATOM     11  C   UNL A   1      27.742  31.148  23.502  1.00  0.00     0.011 C 
BRANCH  10  12
ATOM     12  C   UNL A   1      29.495  30.437  21.967  1.00  0.00     0.160 C 
BRANCH  12  13
ATOM     13  O   UNL A   1      29.529  31.860  21.945  1.00  0.00    -0.396 OA
ATOM     14  H   UNL A   1      28.781  32.194  21.427  1.00  0.00     0.210 HD
ENDBRANCH  12  13
ENDBRANCH  10  12
ENDBRANCH   9  10
ENDBRANCH   8   9
ENDBRANCH   6   8
ENDBRANCH   5   6
ENDBRANCH   3   5
BRANCH   3  15
ATOM     15  N   UNL A   1      34.546  24.927  25.443  1.00  0.00    -0.344 N 
ATOM     16  H   UNL A   1      34.952  24.198  24.857  1.00  0.00     0.345 HD
ATOM     17  H   UNL A   1      34.759  24.736  26.422  1.00  0.00     0.345 HD
ATOM     18  H   UNL A   1      34.938  25.831  25.181  1.00  0.00     0.345 HD
ENDBRANCH   3  15
ENDBRANCH   1   3
BRANCH   1  19
ATOM     19  O   UNL A   1      32.976  27.126  26.184  1.00  0.00    -0.457 OA
BRANCH  19  20
ATOM     20  C   UNL A   1      32.284  28.061  26.988  1.00  0.00     0.274 C 
BRANCH  20  21
ATOM     21  C   UNL A   1      32.059  29.353  26.177  1.00  0.00     0.275 C 
BRANCH  21  22
ATOM     22  O   UNL A   1      33.188  30.315  26.134  1.00  0.00    -0.458 OA
BRANCH  22  23
ATOM     23  C   UNL A   1      33.536  31.238  27.084  1.00  0.00     0.338 C 
ATOM     24  O   UNL A   1      32.884  32.249  27.293  1.00  0.00    -0.246 OA
BRANCH  23  25
ATOM     25  C   UNL A   1      34.808  30.906  27.909  1.00  0.00     0.060 A 
ATOM     26  C   UNL A   1      35.871  31.808  27.987  1.00  0.00     0.016 A 
ATOM     27  C   UNL A   1      35.032  29.693  28.565  1.00  0.00     0.016 A 
ATOM     28  C   UNL A   1      37.039  31.507  28.736  1.00  0.00     0.010 A 
ATOM     29  C   UNL A   1      36.162  29.359  29.290  1.00  0.00     0.010 A 
ATOM     30  C   UNL A   1      37.181  30.276  29.389  1.00  0.00    -0.014 A 
BRANCH  30  31
ATOM     31  C   UNL A   1      38.380  29.797  30.098  1.00  0.00     0.031 A 
ATOM     32  C   UNL A   1      38.693  30.397  31.433  1.00  0.00     0.074 A 
ATOM     33  C   UNL A   1      39.294  29.066  29.431  1.00  0.00     0.049 A 
ATOM     34  N   UNL A   1      39.622  30.073  32.289  1.00  0.00    -0.248 NA
ATOM     35  C   UNL A   1      37.876  31.555  31.843  1.00  0.00     0.031 C 
ATOM     36  C   UNL A   1      39.193  28.693  28.021  1.00  0.00     0.029 A 
ATOM     37  N   UNL A   1      40.501  28.548  29.812  1.00  0.00    -0.354 N 
ATOM     38  C   UNL A   1      39.452  30.932  33.366  1.00  0.00     0.074 A 
ATOM     39  C   UNL A   1      38.404  31.863  33.018  1.00  0.00     0.031 C 
ATOM     40  C   UNL A   1      40.270  27.984  27.658  1.00  0.00     0.029 A 
ATOM     41  C   UNL A   1      41.132  27.833  28.818  1.00  0.00     0.049 A 
ATOM     42  H   UNL A   1      40.883  28.675  30.711  1.00  0.00     0.167 HD
ATOM     43  C   UNL A   1      40.105  30.900  34.550  1.00  0.00     0.037 A 
ATOM     44  C   UNL A   1      42.264  27.108  28.870  1.00  0.00     0.037 A 
ATOM     45  C   UNL A   1      41.210  30.010  34.783  1.00  0.00     0.049 A 
ATOM     46  C   UNL A   1      42.942  27.022  30.209  1.00  0.00     0.074 A 
ATOM     47  C   UNL A   1      41.938  29.799  35.936  1.00  0.00     0.029 A 
ATOM     48  N   UNL A   1      41.770  29.200  33.797  1.00  0.00    -0.354 N 
ATOM     49  N   UNL A   1      42.640  27.653  31.322  1.00  0.00    -0.248 NA
ATOM     50  C   UNL A   1      44.080  26.109  30.321  1.00  0.00     0.031 C 
ATOM     51  C   UNL A   1      42.969  28.899  35.632  1.00  0.00     0.029 A 
ATOM     52  C   UNL A   1      42.846  28.502  34.307  1.00  0.00     0.049 A 
ATOM     53  H   UNL A   1      41.444  29.135  32.869  1.00  0.00     0.167 HD
ATOM     54  C   UNL A   1      43.531  27.196  32.277  1.00  0.00     0.074 A 
ATOM     55  C   UNL A   1      44.374  26.217  31.609  1.00  0.00     0.031 C 
ATOM     56  C   UNL A   1      43.651  27.545  33.582  1.00  0.00     0.037 A 
BRANCH  43  57
ATOM     57  C   UNL A   1      39.618  31.818  35.639  1.00  0.00     0.064 A 
ATOM     58  C   UNL A   1      38.572  31.433  36.497  1.00  0.00     0.173 A 
ATOM     59  C   UNL A   1      40.189  33.081  35.844  1.00  0.00     0.173 A 
ATOM     60  F   UNL A   1      37.978  30.238  36.346  1.00  0.00    -0.203 F 
ATOM     61  C   UNL A   1      38.091  32.290  37.484  1.00  0.00     0.198 A 
ATOM     62  C   UNL A   1      39.726  33.926  36.854  1.00  0.00     0.198 A 
ATOM     63  F   UNL A   1      41.191  33.508  35.061  1.00  0.00    -0.203 F 
ATOM     64  F   UNL A   1      37.052  31.918  38.246  1.00  0.00    -0.200 F 
ATOM     65  C   UNL A   1      38.672  33.534  37.666  1.00  0.00     0.200 A 
ATOM     66  F   UNL A   1      40.292  35.127  37.034  1.00  0.00    -0.200 F 
ATOM     67  F   UNL A   1      38.209  34.360  38.615  1.00  0.00    -0.200 F 
ENDBRANCH  43  57
BRANCH  44  68
ATOM     68  C   UNL A   1      42.721  26.338  27.681  1.00  0.00     0.064 A 
ATOM     69  C   UNL A   1      43.700  26.853  26.818  1.00  0.00     0.173 A 
ATOM     70  C   UNL A   1      42.237  25.048  27.407  1.00  0.00     0.173 A 
ATOM     71  F   UNL A   1      44.202  28.079  27.032  1.00  0.00    -0.203 F 
ATOM     72  C   UNL A   1      44.157  26.126  25.718  1.00  0.00     0.198 A 
ATOM     73  C   UNL A   1      42.714  24.310  26.322  1.00  0.00     0.198 A 
ATOM     74  F   UNL A   1      41.320  24.491  28.210  1.00  0.00    -0.203 F 
ATOM     75  F   UNL A   1      45.067  26.662  24.894  1.00  0.00    -0.200 F 
ATOM     76  C   UNL A   1      43.667  24.852  25.474  1.00  0.00     0.200 A 
ATOM     77  F   UNL A   1      42.254  23.070  26.103  1.00  0.00    -0.200 F 
ATOM     78  F   UNL A   1      44.113  24.150  24.423  1.00  0.00    -0.200 F 
ENDBRANCH  44  68
BRANCH  56  79
ATOM     79  C   UNL A   1      44.721  26.845  34.359  1.00  0.00     0.064 A 
ATOM     80  C   UNL A   1      46.005  27.390  34.488  1.00  0.00     0.173 A 
ATOM     81  C   UNL A   1      44.435  25.643  35.023  1.00  0.00     0.173 A 
ATOM     82  F   UNL A   1      46.324  28.530  33.855  1.00  0.00    -0.203 F 
ATOM     83  C   UNL A   1      46.979  26.741  35.239  1.00  0.00     0.198 A 
ATOM     84  C   UNL A   1      45.400  25.017  35.802  1.00  0.00     0.198 A 
ATOM     85  F   UNL A   1      43.216  25.091  34.931  1.00  0.00    -0.203 F 
ATOM     86  F   UNL A   1      48.216  27.249  35.310  1.00  0.00    -0.200 F 
ATOM     87  C   UNL A   1      46.672  25.562  35.903  1.00  0.00     0.200 A 
ATOM     88  F   UNL A   1      45.097  23.889  36.459  1.00  0.00    -0.200 F 
ATOM     89  F   UNL A   1      47.606  24.945  36.639  1.00  0.00    -0.200 F 
ENDBRANCH  56  79
ENDBRANCH  30  31
ENDBRANCH  23  25
ENDBRANCH  22  23
ENDBRANCH  21  22
ENDBRANCH  20  21
ENDBRANCH  19  20
ENDBRANCH   1  19
TORSDOF 19
ENDMDL
MODEL 2
REMARK VINA RESULT:     -10.8      2.194      8.231
REMARK SMILES C[C@@H](CO)CS[C@@H](C)C[C@@](C)([NH3+])C(=O)OCCOC(=O)c1ccc(-c2c3nc(c(-c4c(F)c(F)c(F)c(F)c4F)c4ccc([nH]4)c(-c4c(F)c(F)c(F)c(F)c4F)c4nc(c(-c5c(F)c(F)c(F)c(F)c5F)c5ccc2[nH]5)C=C4)C=C3)cc1
REMARK SMILES IDX 13 1 14 2 10 3 11 4 9 5 7 6 8 7 6 8 5 9 2 10 1 11 3 12 4 13
REMARK SMILES IDX 12 15 15 19 16 20 17 21 18 22 19 23 20 24 21 25 22 26 83 27
REMARK SMILES IDX 23 28 82 29 24 30 25 31 26 32 76 33 27 34 81 35 75 36 77 37
REMARK SMILES IDX 28 38 80 39 74 40 73 41 29 43 61 44 41 45 60 46 42 47 45 48
REMARK SMILES IDX 59 49 78 50 43 51 44 52 58 54 79 55 46 56 30 57 31 58 39 59
REMARK SMILES IDX 32 60 33 61 37 62 40 63 34 64 35 65 38 66 36 67 62 68 63 69
REMARK SMILES IDX 71 70 64 71 65 72 69 73 72 74 66 75 67 76 70 77 68 78 47 79
REMARK SMILES IDX 48 80 56 81 49 82 50 83 54 84 57 85 51 86 52 87 55 88 53 89
REMARK H PARENT 4 14 12 16 12 17 12 18 77 42 45 53
REMARK Flexibility Score: inf
ROOT
ATOM      1  C   UNL A   1      31.834  29.642  25.633  1.00  0.00     0.367 C 
ATOM      2  O   UNL A   1      31.001  29.750  24.733  1.00  0.00    -0.245 OA
ENDROOT
BRANCH   1   3
ATOM      3  C   UNL A   1      32.227  28.337  26.301  1.00  0.00     0.191 C 
ATOM      4  C   UNL A   1      31.488  28.265  27.649  1.00  0.00     0.092 C 
BRANCH   3   5
ATOM      5  C   UNL A   1      31.904  27.123  25.391  1.00  0.00     0.094 C 
BRANCH   5   6
ATOM      6  C   UNL A   1      30.458  26.539  25.027  1.00  0.00     0.050 C 
ATOM      7  C   UNL A   1      30.580  25.007  25.273  1.00  0.00     0.019 C 
BRANCH   6   8
ATOM      8  S   UNL A   1      28.856  26.874  23.813  1.00  0.00    -0.158 SA
BRANCH   8   9
ATOM      9  C   UNL A   1      28.226  28.629  22.878  1.00  0.00     0.075 C 
BRANCH   9  10
ATOM     10  C   UNL A   1      28.489  30.212  22.299  1.00  0.00     0.021 C 
ATOM     11  C   UNL A   1      28.009  30.918  20.993  1.00  0.00     0.011 C 
BRANCH  10  12
ATOM     12  C   UNL A   1      28.125  31.245  23.404  1.00  0.00     0.160 C 
BRANCH  12  13
ATOM     13  O   UNL A   1      29.284  31.903  23.901  1.00  0.00    -0.396 OA
ATOM     14  H   UNL A   1      29.204  32.858  23.751  1.00  0.00     0.210 HD
ENDBRANCH  12  13
ENDBRANCH  10  12
ENDBRANCH   9  10
ENDBRANCH   8   9
ENDBRANCH   6   8
ENDBRANCH   5   6
ENDBRANCH   3   5
BRANCH   3  15
ATOM     15  N   UNL A   1      33.658  28.329  26.729  1.00  0.00    -0.344 N 
ATOM     16  H   UNL A   1      33.855  29.167  27.275  1.00  0.00     0.345 HD
ATOM     17  H   UNL A   1      34.259  28.309  25.905  1.00  0.00     0.345 HD
ATOM     18  H   UNL A   1      33.838  27.502  27.300  1.00  0.00     0.345 HD
ENDBRANCH   3  15
ENDBRANCH   1   3
BRANCH   1  19
ATOM     19  O   UNL A   1      32.585  30.667  26.097  1.00  0.00    -0.457 OA
BRANCH  19  20
ATOM     20  C   UNL A   1      31.780  31.746  26.531  1.00  0.00     0.274 C 
BRANCH  20  21
ATOM     21  C   UNL A   1      32.499  32.479  27.681  1.00  0.00     0.275 C 
BRANCH  21  22
ATOM     22  O   UNL A   1      32.307  33.949  27.753  1.00  0.00    -0.458 OA
BRANCH  22  23
ATOM     23  C   UNL A   1      32.903  34.829  28.618  1.00  0.00     0.338 C 
ATOM     24  O   UNL A   1      32.467  35.950  28.825  1.00  0.00    -0.246 OA
BRANCH  23  25
ATOM     25  C   UNL A   1      34.164  34.298  29.351  1.00  0.00     0.060 A 
ATOM     26  C   UNL A   1      35.439  34.473  28.808  1.00  0.00     0.016 A 
ATOM     27  C   UNL A   1      34.139  33.563  30.538  1.00  0.00     0.016 A 
ATOM     28  C   UNL A   1      36.596  33.985  29.471  1.00  0.00     0.010 A 
ATOM     29  C   UNL A   1      35.242  33.059  31.205  1.00  0.00     0.010 A 
ATOM     30  C   UNL A   1      36.492  33.276  30.675  1.00  0.00    -0.014 A 
BRANCH  30  31
ATOM     31  C   UNL A   1      37.595  32.622  31.400  1.00  0.00     0.031 A 
ATOM     32  C   UNL A   1      38.176  31.372  30.816  1.00  0.00     0.074 A 
ATOM     33  C   UNL A   1      37.859  32.986  32.670  1.00  0.00     0.049 A 
ATOM     34  N   UNL A   1      39.209  30.679  31.206  1.00  0.00    -0.248 NA
ATOM     35  C   UNL A   1      37.467  30.794  29.658  1.00  0.00     0.031 C 
ATOM     36  C   UNL A   1      37.121  34.007  33.412  1.00  0.00     0.029 A 
ATOM     37  N   UNL A   1      38.766  32.521  33.582  1.00  0.00    -0.354 N 
ATOM     38  C   UNL A   1      39.319  29.633  30.301  1.00  0.00     0.074 A 
ATOM     39  C   UNL A   1      38.190  29.714  29.404  1.00  0.00     0.031 C 
ATOM     40  C   UNL A   1      37.617  34.117  34.652  1.00  0.00     0.029 A 
ATOM     41  C   UNL A   1      38.725  33.186  34.787  1.00  0.00     0.049 A 
ATOM     42  H   UNL A   1      39.388  31.781  33.394  1.00  0.00     0.167 HD
ATOM     43  C   UNL A   1      40.312  28.717  30.224  1.00  0.00     0.037 A 
ATOM     44  C   UNL A   1      39.529  33.069  35.859  1.00  0.00     0.037 A 
ATOM     45  C   UNL A   1      41.348  28.635  31.218  1.00  0.00     0.049 A 
ATOM     46  C   UNL A   1      40.671  32.099  35.734  1.00  0.00     0.074 A 
ATOM     47  C   UNL A   1      42.460  27.819  31.261  1.00  0.00     0.029 A 
ATOM     48  N   UNL A   1      41.360  29.399  32.383  1.00  0.00    -0.354 N 
ATOM     49  N   UNL A   1      40.931  31.260  34.756  1.00  0.00    -0.248 NA
ATOM     50  C   UNL A   1      41.648  32.078  36.824  1.00  0.00     0.031 C 
ATOM     51  C   UNL A   1      43.115  28.055  32.477  1.00  0.00     0.029 A 
ATOM     52  C   UNL A   1      42.448  29.061  33.163  1.00  0.00     0.049 A 
ATOM     53  H   UNL A   1      40.689  30.082  32.617  1.00  0.00     0.167 HD
ATOM     54  C   UNL A   1      42.114  30.629  35.095  1.00  0.00     0.074 A 
ATOM     55  C   UNL A   1      42.529  31.199  36.365  1.00  0.00     0.031 C 
ATOM     56  C   UNL A   1      42.800  29.667  34.428  1.00  0.00     0.037 A 
BRANCH  43  57
ATOM     57  C   UNL A   1      40.313  27.789  29.039  1.00  0.00     0.064 A 
ATOM     58  C   UNL A   1      41.044  28.099  27.877  1.00  0.00     0.173 A 
ATOM     59  C   UNL A   1      39.597  26.585  29.048  1.00  0.00     0.173 A 
ATOM     60  F   UNL A   1      41.743  29.242  27.803  1.00  0.00    -0.203 F 
ATOM     61  C   UNL A   1      41.022  27.264  26.762  1.00  0.00     0.198 A 
ATOM     62  C   UNL A   1      39.602  25.735  27.941  1.00  0.00     0.198 A 
ATOM     63  F   UNL A   1      38.881  26.230  30.126  1.00  0.00    -0.203 F 
ATOM     64  F   UNL A   1      41.680  27.617  25.648  1.00  0.00    -0.200 F 
ATOM     65  C   UNL A   1      40.306  26.079  26.797  1.00  0.00     0.200 A 
ATOM     66  F   UNL A   1      38.914  24.585  27.978  1.00  0.00    -0.200 F 
ATOM     67  F   UNL A   1      40.283  25.276  25.724  1.00  0.00    -0.200 F 
ENDBRANCH  43  57
BRANCH  44  68
ATOM     68  C   UNL A   1      39.351  33.961  37.037  1.00  0.00     0.064 A 
ATOM     69  C   UNL A   1      38.667  33.521  38.180  1.00  0.00     0.173 A 
ATOM     70  C   UNL A   1      39.905  35.251  37.076  1.00  0.00     0.173 A 
ATOM     71  F   UNL A   1      38.120  32.296  38.202  1.00  0.00    -0.203 F 
ATOM     72  C   UNL A   1      38.521  34.339  39.301  1.00  0.00     0.198 A 
ATOM     73  C   UNL A   1      39.781  36.059  38.208  1.00  0.00     0.198 A 
ATOM     74  F   UNL A   1      40.592  35.719  36.024  1.00  0.00    -0.203 F 
ATOM     75  F   UNL A   1      37.831  33.901  40.363  1.00  0.00    -0.200 F 
ATOM     76  C   UNL A   1      39.083  35.606  39.316  1.00  0.00     0.200 A 
ATOM     77  F   UNL A   1      40.345  37.275  38.226  1.00  0.00    -0.200 F 
ATOM     78  F   UNL A   1      38.951  36.389  40.397  1.00  0.00    -0.200 F 
ENDBRANCH  44  68
BRANCH  56  79
ATOM     79  C   UNL A   1      44.071  29.199  35.064  1.00  0.00     0.064 A 
ATOM     80  C   UNL A   1      45.294  29.830  34.801  1.00  0.00     0.173 A 
ATOM     81  C   UNL A   1      44.048  28.143  35.986  1.00  0.00     0.173 A 
ATOM     82  F   UNL A   1      45.362  30.834  33.914  1.00  0.00    -0.203 F 
ATOM     83  C   UNL A   1      46.461  29.401  35.425  1.00  0.00     0.198 A 
ATOM     84  C   UNL A   1      45.209  27.742  36.634  1.00  0.00     0.198 A 
ATOM     85  F   UNL A   1      42.897  27.517  36.270  1.00  0.00    -0.203 F 
ATOM     86  F   UNL A   1      47.630  29.981  35.124  1.00  0.00    -0.200 F 
ATOM     87  C   UNL A   1      46.415  28.366  36.347  1.00  0.00     0.200 A 
ATOM     88  F   UNL A   1      45.161  26.756  37.539  1.00  0.00    -0.200 F 
ATOM     89  F   UNL A   1      47.537  27.964  36.959  1.00  0.00    -0.200 F 
ENDBRANCH  56  79
ENDBRANCH  30  31
ENDBRANCH  23  25
ENDBRANCH  22  23
ENDBRANCH  21  22
ENDBRANCH  20  21
ENDBRANCH  19  20
ENDBRANCH   1  19
TORSDOF 19
ENDMDL
MODEL 3
REMARK VINA RESULT:     -10.5      5.143      8.409
REMARK SMILES C[C@@H](CO)CS[C@@H](C)C[C@@](C)([NH3+])C(=O)OCCOC(=O)c1ccc(-c2c3nc(c(-c4c(F)c(F)c(F)c(F)c4F)c4ccc([nH]4)c(-c4c(F)c(F)c(F)c(F)c4F)c4nc(c(-c5c(F)c(F)c(F)c(F)c5F)c5ccc2[nH]5)C=C4)C=C3)cc1
REMARK SMILES IDX 13 1 14 2 10 3 11 4 9 5 7 6 8 7 6 8 5 9 2 10 1 11 3 12 4 13
REMARK SMILES IDX 12 15 15 19 16 20 17 21 18 22 19 23 20 24 21 25 22 26 83 27
REMARK SMILES IDX 23 28 82 29 24 30 25 31 26 32 76 33 27 34 81 35 75 36 77 37
REMARK SMILES IDX 28 38 80 39 74 40 73 41 29 43 61 44 41 45 60 46 42 47 45 48
REMARK SMILES IDX 59 49 78 50 43 51 44 52 58 54 79 55 46 56 30 57 31 58 39 59
REMARK SMILES IDX 32 60 33 61 37 62 40 63 34 64 35 65 38 66 36 67 62 68 63 69
REMARK SMILES IDX 71 70 64 71 65 72 69 73 72 74 66 75 67 76 70 77 68 78 47 79
REMARK SMILES IDX 48 80 56 81 49 82 50 83 54 84 57 85 51 86 52 87 55 88 53 89
REMARK H PARENT 4 14 12 16 12 17 12 18 77 42 45 53
REMARK Flexibility Score: inf
ROOT
ATOM      1  C   UNL A   1      36.612  21.623  25.192  1.00  0.00     0.367 C 
ATOM      2  O   UNL A   1      35.890  21.127  26.057  1.00  0.00    -0.245 OA
ENDROOT
BRANCH   1   3
ATOM      3  C   UNL A   1      36.452  23.023  24.627  1.00  0.00     0.191 C 
ATOM      4  C   UNL A   1      36.683  22.940  23.108  1.00  0.00     0.092 C 
BRANCH   3   5
ATOM      5  C   UNL A   1      35.060  23.613  24.975  1.00  0.00     0.094 C 
BRANCH   5   6
ATOM      6  C   UNL A   1      34.333  24.860  24.285  1.00  0.00     0.050 C 
ATOM      7  C   UNL A   1      34.099  25.870  25.445  1.00  0.00     0.019 C 
BRANCH   6   8
ATOM      8  S   UNL A   1      33.075  25.332  22.752  1.00  0.00    -0.158 SA
BRANCH   8   9
ATOM      9  C   UNL A   1      31.356  26.513  22.745  1.00  0.00     0.075 C 
BRANCH   9  10
ATOM     10  C   UNL A   1      30.083  27.335  23.528  1.00  0.00     0.021 C 
ATOM     11  C   UNL A   1      29.045  28.368  22.988  1.00  0.00     0.011 C 
BRANCH  10  12
ATOM     12  C   UNL A   1      29.191  26.317  24.295  1.00  0.00     0.160 C 
BRANCH  12  13
ATOM     13  O   UNL A   1      27.867  26.292  23.774  1.00  0.00    -0.396 OA
ATOM     14  H   UNL A   1      27.674  25.410  23.421  1.00  0.00     0.210 HD
ENDBRANCH  12  13
ENDBRANCH  10  12
ENDBRANCH   9  10
ENDBRANCH   8   9
ENDBRANCH   6   8
ENDBRANCH   5   6
ENDBRANCH   3   5
BRANCH   3  15
ATOM     15  N   UNL A   1      37.553  23.938  25.059  1.00  0.00    -0.344 N 
ATOM     16  H   UNL A   1      37.957  24.393  24.242  1.00  0.00     0.345 HD
ATOM     17  H   UNL A   1      38.273  23.399  25.540  1.00  0.00     0.345 HD
ATOM     18  H   UNL A   1      37.179  24.645  25.692  1.00  0.00     0.345 HD
ENDBRANCH   3  15
ENDBRANCH   1   3
BRANCH   1  19
ATOM     19  O   UNL A   1      37.712  21.021  24.684  1.00  0.00    -0.457 OA
BRANCH  19  20
ATOM     20  C   UNL A   1      38.749  20.940  25.641  1.00  0.00     0.274 C 
BRANCH  20  21
ATOM     21  C   UNL A   1      39.269  19.491  25.700  1.00  0.00     0.275 C 
BRANCH  21  22
ATOM     22  O   UNL A   1      40.679  19.274  25.289  1.00  0.00    -0.458 OA
BRANCH  22  23
ATOM     23  C   UNL A   1      41.792  19.281  26.086  1.00  0.00     0.338 C 
ATOM     24  O   UNL A   1      42.326  18.258  26.486  1.00  0.00    -0.246 OA
BRANCH  23  25
ATOM     25  C   UNL A   1      42.361  20.683  26.433  1.00  0.00     0.060 A 
ATOM     26  C   UNL A   1      42.474  21.107  27.759  1.00  0.00     0.016 A 
ATOM     27  C   UNL A   1      42.731  21.643  25.487  1.00  0.00     0.016 A 
ATOM     28  C   UNL A   1      42.988  22.390  28.081  1.00  0.00     0.010 A 
ATOM     29  C   UNL A   1      43.222  22.907  25.763  1.00  0.00     0.010 A 
ATOM     30  C   UNL A   1      43.363  23.291  27.076  1.00  0.00    -0.014 A 
BRANCH  30  31
ATOM     31  C   UNL A   1      43.799  24.684  27.271  1.00  0.00     0.031 A 
ATOM     32  C   UNL A   1      42.754  25.713  27.566  1.00  0.00     0.074 A 
ATOM     33  C   UNL A   1      45.048  25.042  26.912  1.00  0.00     0.049 A 
ATOM     34  N   UNL A   1      42.895  26.971  27.877  1.00  0.00    -0.248 NA
ATOM     35  C   UNL A   1      41.349  25.278  27.449  1.00  0.00     0.031 C 
ATOM     36  C   UNL A   1      46.036  24.137  26.329  1.00  0.00     0.029 A 
ATOM     37  N   UNL A   1      45.690  26.250  26.928  1.00  0.00    -0.354 N 
ATOM     38  C   UNL A   1      41.608  27.455  28.067  1.00  0.00     0.074 A 
ATOM     39  C   UNL A   1      40.690  26.391  27.735  1.00  0.00     0.031 C 
ATOM     40  C   UNL A   1      47.169  24.805  26.067  1.00  0.00     0.029 A 
ATOM     41  C   UNL A   1      46.992  26.186  26.485  1.00  0.00     0.049 A 
ATOM     42  H   UNL A   1      45.261  27.084  27.226  1.00  0.00     0.167 HD
ATOM     43  C   UNL A   1      41.251  28.679  28.519  1.00  0.00     0.037 A 
ATOM     44  C   UNL A   1      47.939  27.142  26.465  1.00  0.00     0.037 A 
ATOM     45  C   UNL A   1      42.219  29.722  28.728  1.00  0.00     0.049 A 
ATOM     46  C   UNL A   1      47.551  28.478  27.035  1.00  0.00     0.074 A 
ATOM     47  C   UNL A   1      42.044  30.991  29.242  1.00  0.00     0.029 A 
ATOM     48  N   UNL A   1      43.564  29.607  28.385  1.00  0.00    -0.354 N 
ATOM     49  N   UNL A   1      46.372  28.878  27.455  1.00  0.00    -0.248 NA
ATOM     50  C   UNL A   1      48.612  29.477  27.170  1.00  0.00     0.031 C 
ATOM     51  C   UNL A   1      43.273  31.658  29.161  1.00  0.00     0.029 A 
ATOM     52  C   UNL A   1      44.228  30.787  28.655  1.00  0.00     0.049 A 
ATOM     53  H   UNL A   1      43.981  28.800  28.003  1.00  0.00     0.167 HD
ATOM     54  C   UNL A   1      46.549  30.166  27.929  1.00  0.00     0.074 A 
ATOM     55  C   UNL A   1      47.961  30.469  27.760  1.00  0.00     0.031 C 
ATOM     56  C   UNL A   1      45.640  31.025  28.455  1.00  0.00     0.037 A 
BRANCH  43  57
ATOM     57  C   UNL A   1      39.796  28.912  28.824  1.00  0.00     0.064 A 
ATOM     58  C   UNL A   1      39.280  28.683  30.112  1.00  0.00     0.173 A 
ATOM     59  C   UNL A   1      38.905  29.370  27.844  1.00  0.00     0.173 A 
ATOM     60  F   UNL A   1      40.081  28.236  31.092  1.00  0.00    -0.203 F 
ATOM     61  C   UNL A   1      37.927  28.862  30.394  1.00  0.00     0.198 A 
ATOM     62  C   UNL A   1      37.556  29.578  28.136  1.00  0.00     0.198 A 
ATOM     63  F   UNL A   1      39.334  29.609  26.595  1.00  0.00    -0.203 F 
ATOM     64  F   UNL A   1      37.454  28.577  31.616  1.00  0.00    -0.200 F 
ATOM     65  C   UNL A   1      37.067  29.315  29.408  1.00  0.00     0.200 A 
ATOM     66  F   UNL A   1      36.726  30.023  27.184  1.00  0.00    -0.200 F 
ATOM     67  F   UNL A   1      35.765  29.486  29.677  1.00  0.00    -0.200 F 
ENDBRANCH  43  57
BRANCH  44  68
ATOM     68  C   UNL A   1      49.323  26.824  26.018  1.00  0.00     0.064 A 
ATOM     69  C   UNL A   1      50.265  26.290  26.909  1.00  0.00     0.173 A 
ATOM     70  C   UNL A   1      49.722  26.988  24.682  1.00  0.00     0.173 A 
ATOM     71  F   UNL A   1      49.938  26.107  28.197  1.00  0.00    -0.203 F 
ATOM     72  C   UNL A   1      51.555  25.960  26.493  1.00  0.00     0.198 A 
ATOM     73  C   UNL A   1      51.005  26.633  24.260  1.00  0.00     0.198 A 
ATOM     74  F   UNL A   1      48.858  27.470  23.777  1.00  0.00    -0.203 F 
ATOM     75  F   UNL A   1      52.443  25.485  27.378  1.00  0.00    -0.200 F 
ATOM     76  C   UNL A   1      51.923  26.127  25.167  1.00  0.00     0.200 A 
ATOM     77  F   UNL A   1      51.349  26.775  22.972  1.00  0.00    -0.200 F 
ATOM     78  F   UNL A   1      53.160  25.801  24.765  1.00  0.00    -0.200 F 
ENDBRANCH  44  68
BRANCH  56  79
ATOM     79  C   UNL A   1      46.163  32.356  28.894  1.00  0.00     0.064 A 
ATOM     80  C   UNL A   1      46.185  33.455  28.024  1.00  0.00     0.173 A 
ATOM     81  C   UNL A   1      46.595  32.541  30.214  1.00  0.00     0.173 A 
ATOM     82  F   UNL A   1      45.796  33.316  26.748  1.00  0.00    -0.203 F 
ATOM     83  C   UNL A   1      46.647  34.693  28.458  1.00  0.00     0.198 A 
ATOM     84  C   UNL A   1      47.021  33.787  30.654  1.00  0.00     0.198 A 
ATOM     85  F   UNL A   1      46.584  31.516  31.080  1.00  0.00    -0.203 F 
ATOM     86  F   UNL A   1      46.710  35.719  27.600  1.00  0.00    -0.200 F 
ATOM     87  C   UNL A   1      47.054  34.859  29.774  1.00  0.00     0.200 A 
ATOM     88  F   UNL A   1      47.395  33.953  31.930  1.00  0.00    -0.200 F 
ATOM     89  F   UNL A   1      47.484  36.056  30.194  1.00  0.00    -0.200 F 
ENDBRANCH  56  79
ENDBRANCH  30  31
ENDBRANCH  23  25
ENDBRANCH  22  23
ENDBRANCH  21  22
ENDBRANCH  20  21
ENDBRANCH  19  20
ENDBRANCH   1  19
TORSDOF 19
ENDMDL
