MODEL 1
REMARK VINA RESULT:     -12.3      0.000      0.000
REMARK SMILES CNC(=O)[C@H](C)S(=O)(=O)c1cc(C(=O)OCCOC(=O)c2ccc(-c3c4nc(c(-c5c(F)c(F)c(F)c(F)c5F)c5ccc([nH]5)c(-c5c(F)c(F)c(F)c(F)c5F)c5nc(c(-c6c(F)c(F)c(F)c(F)c6F)c6ccc3[nH]6)C=C5)C=C4)cc2)c(C)cc1C
REMARK SMILES IDX 16 1 15 2 13 3 14 4 12 5 10 6 11 7 87 8 86 9 88 10 84 11
REMARK SMILES IDX 85 12 7 13 8 14 9 15 5 16 6 17 3 18 1 19 2 20 4 22 17 23
REMARK SMILES IDX 18 24 19 25 20 26 21 27 22 28 83 29 23 30 82 31 24 32 25 33
REMARK SMILES IDX 26 34 76 35 27 36 81 37 75 38 77 39 28 40 80 41 74 42 73 43
REMARK SMILES IDX 29 45 61 46 41 47 60 48 42 49 45 50 59 51 78 52 43 53 44 54
REMARK SMILES IDX 58 56 79 57 46 58 30 59 31 60 39 61 32 62 33 63 37 64 40 65
REMARK SMILES IDX 34 66 35 67 38 68 36 69 62 70 63 71 71 72 64 73 65 74 69 75
REMARK SMILES IDX 72 76 66 77 67 78 70 79 68 80 47 81 48 82 56 83 49 84 50 85
REMARK SMILES IDX 54 86 57 87 51 88 52 89 55 90 53 91
REMARK H PARENT 2 21 77 44 45 55
REMARK Flexibility Score: inf
ROOT
ATOM      1  C   UNL A   1      31.458  29.164  24.959  1.00  0.00     0.275 C 
ENDROOT
BRANCH   1   2
ATOM      2  O   UNL A   1      32.339  28.185  25.552  1.00  0.00    -0.458 OA
BRANCH   2   3
ATOM      3  C   UNL A   1      31.749  27.127  26.154  1.00  0.00     0.338 C 
ATOM      4  O   UNL A   1      31.142  27.140  27.210  1.00  0.00    -0.246 OA
BRANCH   3   5
ATOM      5  C   UNL A   1      31.837  25.901  25.313  1.00  0.00     0.064 A 
ATOM      6  C   UNL A   1      33.314  24.116  24.514  1.00  0.00     0.071 A 
ATOM      7  C   UNL A   1      33.091  25.253  25.299  1.00  0.00     0.036 A 
ATOM      8  C   UNL A   1      32.283  23.641  23.681  1.00  0.00    -0.032 A 
ATOM      9  C   UNL A   1      31.030  24.279  23.723  1.00  0.00     0.009 A 
ATOM     10  C   UNL A   1      32.425  22.462  22.753  1.00  0.00     0.046 C 
ATOM     11  C   UNL A   1      30.790  25.417  24.514  1.00  0.00    -0.036 A 
ATOM     12  C   UNL A   1      29.422  26.031  24.414  1.00  0.00     0.045 C 
BRANCH   6  13
ATOM     13  S   UNL A   1      34.880  23.251  24.539  1.00  0.00     0.190 S 
ATOM     14  O   UNL A   1      35.633  23.915  25.591  1.00  0.00    -0.223 OA
ATOM     15  O   UNL A   1      35.397  23.278  23.180  1.00  0.00    -0.223 OA
BRANCH  13  16
ATOM     16  C   UNL A   1      34.765  21.571  24.974  1.00  0.00     0.199 C 
ATOM     17  C   UNL A   1      36.096  20.814  24.997  1.00  0.00     0.036 C 
BRANCH  16  18
ATOM     18  C   UNL A   1      33.850  21.112  26.080  1.00  0.00     0.238 C 
ATOM     19  C   UNL A   1      32.915  18.767  25.510  1.00  0.00     0.142 C 
ATOM     20  N   UNL A   1      33.019  20.057  26.149  1.00  0.00    -0.358 N 
ATOM     21  H   UNL A   1      32.295  20.203  26.802  1.00  0.00     0.163 HD
ATOM     22  O   UNL A   1      33.747  21.862  27.066  1.00  0.00    -0.274 OA
ENDBRANCH  16  18
ENDBRANCH  13  16
ENDBRANCH   6  13
ENDBRANCH   3   5
ENDBRANCH   2   3
ENDBRANCH   1   2
BRANCH   1  23
ATOM     23  C   UNL A   1      31.464  30.456  25.771  1.00  0.00     0.275 C 
BRANCH  23  24
ATOM     24  O   UNL A   1      32.436  30.344  26.824  1.00  0.00    -0.458 OA
BRANCH  24  25
ATOM     25  C   UNL A   1      33.066  31.483  27.169  1.00  0.00     0.338 C 
ATOM     26  O   UNL A   1      32.611  32.616  27.222  1.00  0.00    -0.246 OA
BRANCH  25  27
ATOM     27  C   UNL A   1      34.433  31.157  27.590  1.00  0.00     0.060 A 
ATOM     28  C   UNL A   1      34.756  29.818  27.780  1.00  0.00     0.016 A 
ATOM     29  C   UNL A   1      35.335  32.161  27.943  1.00  0.00     0.016 A 
ATOM     30  C   UNL A   1      35.947  29.490  28.418  1.00  0.00     0.010 A 
ATOM     31  C   UNL A   1      36.563  31.814  28.527  1.00  0.00     0.010 A 
ATOM     32  C   UNL A   1      36.858  30.474  28.836  1.00  0.00    -0.014 A 
BRANCH  32  33
ATOM     33  C   UNL A   1      38.014  30.093  29.711  1.00  0.00     0.031 A 
ATOM     34  C   UNL A   1      39.167  29.299  29.138  1.00  0.00     0.074 A 
ATOM     35  C   UNL A   1      38.128  30.555  30.974  1.00  0.00     0.049 A 
ATOM     36  N   UNL A   1      40.185  28.740  29.751  1.00  0.00    -0.248 NA
ATOM     37  C   UNL A   1      39.169  29.088  27.681  1.00  0.00     0.031 C 
ATOM     38  C   UNL A   1      37.165  31.421  31.654  1.00  0.00     0.029 A 
ATOM     39  N   UNL A   1      39.135  30.396  31.899  1.00  0.00    -0.354 N 
ATOM     40  C   UNL A   1      40.901  28.066  28.768  1.00  0.00     0.074 A 
ATOM     41  C   UNL A   1      40.208  28.284  27.517  1.00  0.00     0.031 C 
ATOM     42  C   UNL A   1      37.668  31.792  32.841  1.00  0.00     0.029 A 
ATOM     43  C   UNL A   1      38.934  31.099  33.062  1.00  0.00     0.049 A 
ATOM     44  H   UNL A   1      39.925  29.831  31.742  1.00  0.00     0.167 HD
ATOM     45  C   UNL A   1      42.030  27.328  28.895  1.00  0.00     0.037 A 
ATOM     46  C   UNL A   1      39.661  31.157  34.195  1.00  0.00     0.037 A 
ATOM     47  C   UNL A   1      42.779  27.183  30.115  1.00  0.00     0.049 A 
ATOM     48  C   UNL A   1      40.898  30.309  34.326  1.00  0.00     0.074 A 
ATOM     49  C   UNL A   1      43.909  26.417  30.353  1.00  0.00     0.029 A 
ATOM     50  N   UNL A   1      42.498  27.856  31.293  1.00  0.00    -0.354 N 
ATOM     51  N   UNL A   1      41.476  29.542  33.436  1.00  0.00    -0.248 NA
ATOM     52  C   UNL A   1      41.560  30.306  35.640  1.00  0.00     0.031 C 
ATOM     53  C   UNL A   1      44.298  26.611  31.684  1.00  0.00     0.029 A 
ATOM     54  C   UNL A   1      43.432  27.524  32.262  1.00  0.00     0.049 A 
ATOM     55  H   UNL A   1      41.747  28.478  31.423  1.00  0.00     0.167 HD
ATOM     56  C   UNL A   1      42.562  28.963  34.078  1.00  0.00     0.074 A 
ATOM     57  C   UNL A   1      42.586  29.493  35.425  1.00  0.00     0.031 C 
ATOM     58  C   UNL A   1      43.449  28.059  33.597  1.00  0.00     0.037 A 
BRANCH  45  59
ATOM     59  C   UNL A   1      42.495  26.564  27.690  1.00  0.00     0.064 A 
ATOM     60  C   UNL A   1      43.462  27.069  26.809  1.00  0.00     0.173 A 
ATOM     61  C   UNL A   1      41.973  25.286  27.433  1.00  0.00     0.173 A 
ATOM     62  F   UNL A   1      43.978  28.292  27.000  1.00  0.00    -0.203 F 
ATOM     63  C   UNL A   1      43.870  26.331  25.699  1.00  0.00     0.198 A 
ATOM     64  C   UNL A   1      42.403  24.542  26.338  1.00  0.00     0.198 A 
ATOM     65  F   UNL A   1      41.050  24.756  28.248  1.00  0.00    -0.203 F 
ATOM     66  F   UNL A   1      44.759  26.851  24.842  1.00  0.00    -0.200 F 
ATOM     67  C   UNL A   1      43.345  25.068  25.468  1.00  0.00     0.200 A 
ATOM     68  F   UNL A   1      41.902  23.318  26.123  1.00  0.00    -0.200 F 
ATOM     69  F   UNL A   1      43.742  24.360  24.402  1.00  0.00    -0.200 F 
ENDBRANCH  45  59
BRANCH  46  70
ATOM     70  C   UNL A   1      39.207  32.006  35.328  1.00  0.00     0.064 A 
ATOM     71  C   UNL A   1      38.408  31.479  36.353  1.00  0.00     0.173 A 
ATOM     72  C   UNL A   1      39.555  33.363  35.407  1.00  0.00     0.173 A 
ATOM     73  F   UNL A   1      38.019  30.197  36.307  1.00  0.00    -0.203 F 
ATOM     74  C   UNL A   1      37.974  32.278  37.410  1.00  0.00     0.198 A 
ATOM     75  C   UNL A   1      39.149  34.151  36.480  1.00  0.00     0.198 A 
ATOM     76  F   UNL A   1      40.306  33.920  34.446  1.00  0.00    -0.203 F 
ATOM     77  F   UNL A   1      37.177  31.761  38.354  1.00  0.00    -0.200 F 
ATOM     78  C   UNL A   1      38.353  33.610  37.478  1.00  0.00     0.200 A 
ATOM     79  F   UNL A   1      39.530  35.435  36.547  1.00  0.00    -0.200 F 
ATOM     80  F   UNL A   1      37.947  34.374  38.500  1.00  0.00    -0.200 F 
ENDBRANCH  46  70
BRANCH  58  81
ATOM     81  C   UNL A   1      44.528  27.592  34.529  1.00  0.00     0.064 A 
ATOM     82  C   UNL A   1      45.746  28.278  34.637  1.00  0.00     0.173 A 
ATOM     83  C   UNL A   1      44.329  26.468  35.344  1.00  0.00     0.173 A 
ATOM     84  F   UNL A   1      45.988  29.349  33.867  1.00  0.00    -0.203 F 
ATOM     85  C   UNL A   1      46.736  27.842  35.514  1.00  0.00     0.198 A 
ATOM     86  C   UNL A   1      45.311  26.049  36.236  1.00  0.00     0.198 A 
ATOM     87  F   UNL A   1      43.178  25.781  35.281  1.00  0.00    -0.203 F 
ATOM     88  F   UNL A   1      47.908  28.489  35.574  1.00  0.00    -0.200 F 
ATOM     89  C   UNL A   1      46.516  26.732  36.317  1.00  0.00     0.200 A 
ATOM     90  F   UNL A   1      45.096  24.981  37.017  1.00  0.00    -0.200 F 
ATOM     91  F   UNL A   1      47.468  26.316  37.162  1.00  0.00    -0.200 F 
ENDBRANCH  58  81
ENDBRANCH  32  33
ENDBRANCH  25  27
ENDBRANCH  24  25
ENDBRANCH  23  24
ENDBRANCH   1  23
TORSDOF 14
ENDMDL
MODEL 2
REMARK VINA RESULT:     -12.3      0.673      1.832
REMARK SMILES CNC(=O)[C@H](C)S(=O)(=O)c1cc(C(=O)OCCOC(=O)c2ccc(-c3c4nc(c(-c5c(F)c(F)c(F)c(F)c5F)c5ccc([nH]5)c(-c5c(F)c(F)c(F)c(F)c5F)c5nc(c(-c6c(F)c(F)c(F)c(F)c6F)c6ccc3[nH]6)C=C5)C=C4)cc2)c(C)cc1C
REMARK SMILES IDX 16 1 15 2 13 3 14 4 12 5 10 6 11 7 87 8 86 9 88 10 84 11
REMARK SMILES IDX 85 12 7 13 8 14 9 15 5 16 6 17 3 18 1 19 2 20 4 22 17 23
REMARK SMILES IDX 18 24 19 25 20 26 21 27 22 28 83 29 23 30 82 31 24 32 25 33
REMARK SMILES IDX 26 34 76 35 27 36 81 37 75 38 77 39 28 40 80 41 74 42 73 43
REMARK SMILES IDX 29 45 61 46 41 47 60 48 42 49 45 50 59 51 78 52 43 53 44 54
REMARK SMILES IDX 58 56 79 57 46 58 30 59 31 60 39 61 32 62 33 63 37 64 40 65
REMARK SMILES IDX 34 66 35 67 38 68 36 69 62 70 63 71 71 72 64 73 65 74 69 75
REMARK SMILES IDX 72 76 66 77 67 78 70 79 68 80 47 81 48 82 56 83 49 84 50 85
REMARK SMILES IDX 54 86 57 87 51 88 52 89 55 90 53 91
REMARK H PARENT 2 21 77 44 45 55
REMARK Flexibility Score: inf
ROOT
ATOM      1  C   UNL A   1      31.445  29.108  24.984  1.00  0.00     0.275 C 
ENDROOT
BRANCH   1   2
ATOM      2  O   UNL A   1      32.257  28.059  25.554  1.00  0.00    -0.458 OA
BRANCH   2   3
ATOM      3  C   UNL A   1      31.611  27.131  26.297  1.00  0.00     0.338 C 
ATOM      4  O   UNL A   1      31.003  27.328  27.334  1.00  0.00    -0.246 OA
BRANCH   3   5
ATOM      5  C   UNL A   1      31.635  25.794  25.643  1.00  0.00     0.064 A 
ATOM      6  C   UNL A   1      32.838  23.665  25.469  1.00  0.00     0.071 A 
ATOM      7  C   UNL A   1      32.681  24.932  26.042  1.00  0.00     0.036 A 
ATOM      8  C   UNL A   1      31.969  23.263  24.437  1.00  0.00    -0.032 A 
ATOM      9  C   UNL A   1      30.916  24.118  24.066  1.00  0.00     0.009 A 
ATOM     10  C   UNL A   1      32.076  21.947  23.710  1.00  0.00     0.046 C 
ATOM     11  C   UNL A   1      30.741  25.390  24.640  1.00  0.00    -0.036 A 
ATOM     12  C   UNL A   1      29.608  26.221  24.105  1.00  0.00     0.045 C 
BRANCH   6  13
ATOM     13  S   UNL A   1      34.121  22.543  26.014  1.00  0.00     0.190 S 
ATOM     14  O   UNL A   1      33.396  21.483  26.696  1.00  0.00    -0.223 OA
ATOM     15  O   UNL A   1      35.081  23.335  26.765  1.00  0.00    -0.223 OA
BRANCH  13  16
ATOM     16  C   UNL A   1      35.019  21.800  24.723  1.00  0.00     0.199 C 
ATOM     17  C   UNL A   1      35.981  22.732  23.981  1.00  0.00     0.036 C 
BRANCH  16  18
ATOM     18  C   UNL A   1      35.596  20.415  24.870  1.00  0.00     0.238 C 
ATOM     19  C   UNL A   1      33.715  18.660  24.576  1.00  0.00     0.142 C 
ATOM     20  N   UNL A   1      34.989  19.218  24.964  1.00  0.00    -0.358 N 
ATOM     21  H   UNL A   1      35.560  18.552  25.413  1.00  0.00     0.163 HD
ATOM     22  O   UNL A   1      36.826  20.337  25.035  1.00  0.00    -0.274 OA
ENDBRANCH  16  18
ENDBRANCH  13  16
ENDBRANCH   6  13
ENDBRANCH   3   5
ENDBRANCH   2   3
ENDBRANCH   1   2
BRANCH   1  23
ATOM     23  C   UNL A   1      31.625  30.410  25.760  1.00  0.00     0.275 C 
BRANCH  23  24
ATOM     24  O   UNL A   1      32.676  30.239  26.726  1.00  0.00    -0.458 OA
BRANCH  24  25
ATOM     25  C   UNL A   1      33.254  31.370  27.175  1.00  0.00     0.338 C 
ATOM     26  O   UNL A   1      32.755  32.478  27.306  1.00  0.00    -0.246 OA
BRANCH  25  27
ATOM     27  C   UNL A   1      34.623  31.061  27.601  1.00  0.00     0.060 A 
ATOM     28  C   UNL A   1      34.971  29.726  27.767  1.00  0.00     0.016 A 
ATOM     29  C   UNL A   1      35.503  32.075  27.981  1.00  0.00     0.016 A 
ATOM     30  C   UNL A   1      36.162  29.408  28.409  1.00  0.00     0.010 A 
ATOM     31  C   UNL A   1      36.733  31.741  28.568  1.00  0.00     0.010 A 
ATOM     32  C   UNL A   1      37.051  30.401  28.853  1.00  0.00    -0.014 A 
BRANCH  32  33
ATOM     33  C   UNL A   1      38.207  30.025  29.731  1.00  0.00     0.031 A 
ATOM     34  C   UNL A   1      39.360  29.227  29.162  1.00  0.00     0.074 A 
ATOM     35  C   UNL A   1      38.321  30.494  30.991  1.00  0.00     0.049 A 
ATOM     36  N   UNL A   1      40.378  28.672  29.779  1.00  0.00    -0.248 NA
ATOM     37  C   UNL A   1      39.362  29.009  27.707  1.00  0.00     0.031 C 
ATOM     38  C   UNL A   1      37.358  31.364  31.666  1.00  0.00     0.029 A 
ATOM     39  N   UNL A   1      39.327  30.341  31.917  1.00  0.00    -0.354 N 
ATOM     40  C   UNL A   1      41.094  27.993  28.800  1.00  0.00     0.074 A 
ATOM     41  C   UNL A   1      40.401  28.203  27.547  1.00  0.00     0.031 C 
ATOM     42  C   UNL A   1      37.861  31.742  32.851  1.00  0.00     0.029 A 
ATOM     43  C   UNL A   1      39.126  31.051  33.076  1.00  0.00     0.049 A 
ATOM     44  H   UNL A   1      40.118  29.774  31.764  1.00  0.00     0.167 HD
ATOM     45  C   UNL A   1      42.223  27.255  28.931  1.00  0.00     0.037 A 
ATOM     46  C   UNL A   1      39.854  31.114  34.209  1.00  0.00     0.037 A 
ATOM     47  C   UNL A   1      42.972  27.117  30.152  1.00  0.00     0.049 A 
ATOM     48  C   UNL A   1      41.090  30.268  34.345  1.00  0.00     0.074 A 
ATOM     49  C   UNL A   1      44.101  26.353  30.394  1.00  0.00     0.029 A 
ATOM     50  N   UNL A   1      42.691  27.797  31.326  1.00  0.00    -0.354 N 
ATOM     51  N   UNL A   1      41.669  29.495  33.460  1.00  0.00    -0.248 NA
ATOM     52  C   UNL A   1      41.753  30.272  35.658  1.00  0.00     0.031 C 
ATOM     53  C   UNL A   1      44.490  26.554  31.724  1.00  0.00     0.029 A 
ATOM     54  C   UNL A   1      43.624  27.470  32.297  1.00  0.00     0.049 A 
ATOM     55  H   UNL A   1      41.939  28.420  31.452  1.00  0.00     0.167 HD
ATOM     56  C   UNL A   1      42.755  28.920  34.104  1.00  0.00     0.074 A 
ATOM     57  C   UNL A   1      42.778  29.458  35.448  1.00  0.00     0.031 C 
ATOM     58  C   UNL A   1      43.641  28.013  33.629  1.00  0.00     0.037 A 
BRANCH  45  59
ATOM     59  C   UNL A   1      42.688  26.484  27.730  1.00  0.00     0.064 A 
ATOM     60  C   UNL A   1      43.642  26.991  26.837  1.00  0.00     0.173 A 
ATOM     61  C   UNL A   1      42.179  25.198  27.490  1.00  0.00     0.173 A 
ATOM     62  F   UNL A   1      44.144  28.222  27.012  1.00  0.00    -0.203 F 
ATOM     63  C   UNL A   1      44.051  26.247  25.732  1.00  0.00     0.198 A 
ATOM     64  C   UNL A   1      42.610  24.447  26.400  1.00  0.00     0.198 A 
ATOM     65  F   UNL A   1      41.268  24.666  28.319  1.00  0.00    -0.203 F 
ATOM     66  F   UNL A   1      44.927  26.768  24.862  1.00  0.00    -0.200 F 
ATOM     67  C   UNL A   1      43.539  24.975  25.518  1.00  0.00     0.200 A 
ATOM     68  F   UNL A   1      42.122  23.215  26.201  1.00  0.00    -0.200 F 
ATOM     69  F   UNL A   1      43.936  24.261  24.456  1.00  0.00    -0.200 F 
ENDBRANCH  45  59
BRANCH  46  70
ATOM     70  C   UNL A   1      39.399  31.971  35.336  1.00  0.00     0.064 A 
ATOM     71  C   UNL A   1      39.818  33.305  35.447  1.00  0.00     0.173 A 
ATOM     72  C   UNL A   1      38.544  31.473  36.331  1.00  0.00     0.173 A 
ATOM     73  F   UNL A   1      40.664  33.819  34.541  1.00  0.00    -0.203 F 
ATOM     74  C   UNL A   1      39.400  34.105  36.509  1.00  0.00     0.198 A 
ATOM     75  C   UNL A   1      38.100  32.283  37.373  1.00  0.00     0.198 A 
ATOM     76  F   UNL A   1      38.124  30.200  36.280  1.00  0.00    -0.203 F 
ATOM     77  F   UNL A   1      39.848  35.363  36.614  1.00  0.00    -0.200 F 
ATOM     78  C   UNL A   1      38.534  33.596  37.465  1.00  0.00     0.200 A 
ATOM     79  F   UNL A   1      37.253  31.790  38.286  1.00  0.00    -0.200 F 
ATOM     80  F   UNL A   1      38.122  34.368  38.479  1.00  0.00    -0.200 F 
ENDBRANCH  46  70
BRANCH  58  81
ATOM     81  C   UNL A   1      44.720  27.551  34.563  1.00  0.00     0.064 A 
ATOM     82  C   UNL A   1      44.553  26.413  35.365  1.00  0.00     0.173 A 
ATOM     83  C   UNL A   1      45.943  28.234  34.633  1.00  0.00     0.173 A 
ATOM     84  F   UNL A   1      43.396  25.735  35.343  1.00  0.00    -0.203 F 
ATOM     85  C   UNL A   1      45.567  25.987  36.220  1.00  0.00     0.198 A 
ATOM     86  C   UNL A   1      46.962  27.792  35.472  1.00  0.00     0.198 A 
ATOM     87  F   UNL A   1      46.153  29.326  33.883  1.00  0.00    -0.203 F 
ATOM     88  F   UNL A   1      45.372  24.919  37.006  1.00  0.00    -0.200 F 
ATOM     89  C   UNL A   1      46.771  26.673  36.269  1.00  0.00     0.200 A 
ATOM     90  F   UNL A   1      48.128  28.451  35.514  1.00  0.00    -0.200 F 
ATOM     91  F   UNL A   1      47.746  26.260  37.090  1.00  0.00    -0.200 F 
ENDBRANCH  58  81
ENDBRANCH  32  33
ENDBRANCH  25  27
ENDBRANCH  24  25
ENDBRANCH  23  24
ENDBRANCH   1  23
TORSDOF 14
ENDMDL
MODEL 3
REMARK VINA RESULT:     -12.2      4.168      9.724
REMARK SMILES CNC(=O)[C@H](C)S(=O)(=O)c1cc(C(=O)OCCOC(=O)c2ccc(-c3c4nc(c(-c5c(F)c(F)c(F)c(F)c5F)c5ccc([nH]5)c(-c5c(F)c(F)c(F)c(F)c5F)c5nc(c(-c6c(F)c(F)c(F)c(F)c6F)c6ccc3[nH]6)C=C5)C=C4)cc2)c(C)cc1C
REMARK SMILES IDX 16 1 15 2 13 3 14 4 12 5 10 6 11 7 87 8 86 9 88 10 84 11
REMARK SMILES IDX 85 12 7 13 8 14 9 15 5 16 6 17 3 18 1 19 2 20 4 22 17 23
REMARK SMILES IDX 18 24 19 25 20 26 21 27 22 28 83 29 23 30 82 31 24 32 25 33
REMARK SMILES IDX 26 34 76 35 27 36 81 37 75 38 77 39 28 40 80 41 74 42 73 43
REMARK SMILES IDX 29 45 61 46 41 47 60 48 42 49 45 50 59 51 78 52 43 53 44 54
REMARK SMILES IDX 58 56 79 57 46 58 30 59 31 60 39 61 32 62 33 63 37 64 40 65
REMARK SMILES IDX 34 66 35 67 38 68 36 69 62 70 63 71 71 72 64 73 65 74 69 75
REMARK SMILES IDX 72 76 66 77 67 78 70 79 68 80 47 81 48 82 56 83 49 84 50 85
REMARK SMILES IDX 54 86 57 87 51 88 52 89 55 90 53 91
REMARK H PARENT 2 21 77 44 45 55
REMARK Flexibility Score: inf
ROOT
ATOM      1  C   UNL A   1      35.170  21.094  24.806  1.00  0.00     0.275 C 
ENDROOT
BRANCH   1   2
ATOM      2  O   UNL A   1      35.117  22.527  24.972  1.00  0.00    -0.458 OA
BRANCH   2   3
ATOM      3  C   UNL A   1      34.916  23.258  23.851  1.00  0.00     0.338 C 
ATOM      4  O   UNL A   1      35.650  23.313  22.880  1.00  0.00    -0.246 OA
BRANCH   3   5
ATOM      5  C   UNL A   1      33.598  23.951  23.880  1.00  0.00     0.064 A 
ATOM      6  C   UNL A   1      32.332  25.817  24.838  1.00  0.00     0.071 A 
ATOM      7  C   UNL A   1      33.526  25.103  24.693  1.00  0.00     0.036 A 
ATOM      8  C   UNL A   1      31.166  25.348  24.203  1.00  0.00    -0.032 A 
ATOM      9  C   UNL A   1      31.256  24.214  23.375  1.00  0.00     0.009 A 
ATOM     10  C   UNL A   1      29.814  26.001  24.332  1.00  0.00     0.046 C 
ATOM     11  C   UNL A   1      32.452  23.492  23.213  1.00  0.00    -0.036 A 
ATOM     12  C   UNL A   1      32.387  22.267  22.346  1.00  0.00     0.045 C 
BRANCH   6  13
ATOM     13  S   UNL A   1      32.247  27.314  25.816  1.00  0.00     0.190 S 
ATOM     14  O   UNL A   1      33.615  27.520  26.264  1.00  0.00    -0.223 OA
ATOM     15  O   UNL A   1      31.204  27.109  26.808  1.00  0.00    -0.223 OA
BRANCH  13  16
ATOM     16  C   UNL A   1      31.783  28.731  24.920  1.00  0.00     0.199 C 
ATOM     17  C   UNL A   1      31.782  30.035  25.722  1.00  0.00     0.036 C 
BRANCH  16  18
ATOM     18  C   UNL A   1      32.260  28.952  23.507  1.00  0.00     0.238 C 
ATOM     19  C   UNL A   1      30.270  29.699  22.030  1.00  0.00     0.142 C 
ATOM     20  N   UNL A   1      31.572  29.177  22.374  1.00  0.00    -0.358 N 
ATOM     21  H   UNL A   1      32.086  28.918  21.575  1.00  0.00     0.163 HD
ATOM     22  O   UNL A   1      33.479  28.812  23.302  1.00  0.00    -0.274 OA
ENDBRANCH  16  18
ENDBRANCH  13  16
ENDBRANCH   6  13
ENDBRANCH   3   5
ENDBRANCH   2   3
ENDBRANCH   1   2
BRANCH   1  23
ATOM     23  C   UNL A   1      36.595  20.582  24.997  1.00  0.00     0.275 C 
BRANCH  23  24
ATOM     24  O   UNL A   1      37.456  21.693  25.298  1.00  0.00    -0.458 OA
BRANCH  24  25
ATOM     25  C   UNL A   1      38.652  21.384  25.836  1.00  0.00     0.338 C 
ATOM     26  O   UNL A   1      39.276  20.336  25.748  1.00  0.00    -0.246 OA
BRANCH  25  27
ATOM     27  C   UNL A   1      39.188  22.572  26.507  1.00  0.00     0.060 A 
ATOM     28  C   UNL A   1      38.612  23.803  26.215  1.00  0.00     0.016 A 
ATOM     29  C   UNL A   1      40.340  22.496  27.291  1.00  0.00     0.016 A 
ATOM     30  C   UNL A   1      39.251  24.967  26.627  1.00  0.00     0.010 A 
ATOM     31  C   UNL A   1      40.939  23.676  27.757  1.00  0.00     0.010 A 
ATOM     32  C   UNL A   1      40.440  24.934  27.374  1.00  0.00    -0.014 A 
BRANCH  32  33
ATOM     33  C   UNL A   1      41.209  26.201  27.604  1.00  0.00     0.031 A 
ATOM     34  C   UNL A   1      40.637  27.279  28.500  1.00  0.00     0.074 A 
ATOM     35  C   UNL A   1      42.467  26.360  27.145  1.00  0.00     0.049 A 
ATOM     36  N   UNL A   1      41.063  28.503  28.711  1.00  0.00    -0.248 NA
ATOM     37  C   UNL A   1      39.414  26.944  29.245  1.00  0.00     0.031 C 
ATOM     38  C   UNL A   1      43.215  25.380  26.357  1.00  0.00     0.029 A 
ATOM     39  N   UNL A   1      43.361  27.392  27.316  1.00  0.00    -0.354 N 
ATOM     40  C   UNL A   1      40.128  29.093  29.554  1.00  0.00     0.074 A 
ATOM     41  C   UNL A   1      39.113  28.098  29.821  1.00  0.00     0.031 C 
ATOM     42  C   UNL A   1      44.475  25.813  26.197  1.00  0.00     0.029 A 
ATOM     43  C   UNL A   1      44.596  27.152  26.765  1.00  0.00     0.049 A 
ATOM     44  H   UNL A   1      43.136  28.226  27.789  1.00  0.00     0.167 HD
ATOM     45  C   UNL A   1      40.112  30.351  30.058  1.00  0.00     0.037 A 
ATOM     46  C   UNL A   1      45.694  27.930  26.690  1.00  0.00     0.037 A 
ATOM     47  C   UNL A   1      41.164  31.317  29.877  1.00  0.00     0.049 A 
ATOM     48  C   UNL A   1      45.648  29.333  27.232  1.00  0.00     0.074 A 
ATOM     49  C   UNL A   1      41.216  32.633  30.308  1.00  0.00     0.029 A 
ATOM     50  N   UNL A   1      42.370  31.056  29.247  1.00  0.00    -0.354 N 
ATOM     51  N   UNL A   1      44.690  29.938  27.886  1.00  0.00    -0.248 NA
ATOM     52  C   UNL A   1      46.829  30.175  26.984  1.00  0.00     0.031 C 
ATOM     53  C   UNL A   1      42.447  33.174  29.918  1.00  0.00     0.029 A 
ATOM     54  C   UNL A   1      43.173  32.185  29.276  1.00  0.00     0.049 A 
ATOM     55  H   UNL A   1      42.619  30.196  28.838  1.00  0.00     0.167 HD
ATOM     56  C   UNL A   1      45.145  31.227  28.125  1.00  0.00     0.074 A 
ATOM     57  C   UNL A   1      46.481  31.311  27.576  1.00  0.00     0.031 C 
ATOM     58  C   UNL A   1      44.502  32.256  28.730  1.00  0.00     0.037 A 
BRANCH  45  59
ATOM     59  C   UNL A   1      38.885  30.780  30.807  1.00  0.00     0.064 A 
ATOM     60  C   UNL A   1      37.741  31.264  30.158  1.00  0.00     0.173 A 
ATOM     61  C   UNL A   1      38.855  30.678  32.207  1.00  0.00     0.173 A 
ATOM     62  F   UNL A   1      37.726  31.398  28.824  1.00  0.00    -0.203 F 
ATOM     63  C   UNL A   1      36.618  31.653  30.887  1.00  0.00     0.198 A 
ATOM     64  C   UNL A   1      37.723  31.043  32.930  1.00  0.00     0.198 A 
ATOM     65  F   UNL A   1      39.923  30.216  32.875  1.00  0.00    -0.203 F 
ATOM     66  F   UNL A   1      35.552  32.158  30.253  1.00  0.00    -0.200 F 
ATOM     67  C   UNL A   1      36.609  31.537  32.270  1.00  0.00     0.200 A 
ATOM     68  F   UNL A   1      37.712  30.920  34.264  1.00  0.00    -0.200 F 
ATOM     69  F   UNL A   1      35.527  31.910  32.968  1.00  0.00    -0.200 F 
ENDBRANCH  45  59
BRANCH  46  70
ATOM     70  C   UNL A   1      46.921  27.421  26.020  1.00  0.00     0.064 A 
ATOM     71  C   UNL A   1      47.927  26.771  26.749  1.00  0.00     0.173 A 
ATOM     72  C   UNL A   1      47.116  27.578  24.640  1.00  0.00     0.173 A 
ATOM     73  F   UNL A   1      47.805  26.626  28.077  1.00  0.00    -0.203 F 
ATOM     74  C   UNL A   1      49.082  26.302  26.123  1.00  0.00     0.198 A 
ATOM     75  C   UNL A   1      48.253  27.080  24.010  1.00  0.00     0.198 A 
ATOM     76  F   UNL A   1      46.191  28.203  23.897  1.00  0.00    -0.203 F 
ATOM     77  F   UNL A   1      50.047  25.723  26.849  1.00  0.00    -0.200 F 
ATOM     78  C   UNL A   1      49.238  26.448  24.753  1.00  0.00     0.200 A 
ATOM     79  F   UNL A   1      48.394  27.212  22.684  1.00  0.00    -0.200 F 
ATOM     80  F   UNL A   1      50.342  25.987  24.150  1.00  0.00    -0.200 F 
ENDBRANCH  46  70
BRANCH  58  81
ATOM     81  C   UNL A   1      45.240  33.557  28.841  1.00  0.00     0.064 A 
ATOM     82  C   UNL A   1      45.126  34.547  27.855  1.00  0.00     0.173 A 
ATOM     83  C   UNL A   1      46.043  33.829  29.959  1.00  0.00     0.173 A 
ATOM     84  F   UNL A   1      44.382  34.327  26.760  1.00  0.00    -0.203 F 
ATOM     85  C   UNL A   1      45.806  35.756  27.974  1.00  0.00     0.198 A 
ATOM     86  C   UNL A   1      46.703  35.048  30.085  1.00  0.00     0.198 A 
ATOM     87  F   UNL A   1      46.180  32.916  30.932  1.00  0.00    -0.203 F 
ATOM     88  F   UNL A   1      45.714  36.674  27.001  1.00  0.00    -0.200 F 
ATOM     89  C   UNL A   1      46.589  36.008  29.091  1.00  0.00     0.200 A 
ATOM     90  F   UNL A   1      47.453  35.294  31.168  1.00  0.00    -0.200 F 
ATOM     91  F   UNL A   1      47.240  37.173  29.205  1.00  0.00    -0.200 F 
ENDBRANCH  58  81
ENDBRANCH  32  33
ENDBRANCH  25  27
ENDBRANCH  24  25
ENDBRANCH  23  24
ENDBRANCH   1  23
TORSDOF 14
ENDMDL
