MODEL 1
REMARK VINA RESULT:     -12.5      0.000      0.000
REMARK SMILES Cn1ccc(C(=O)NCc2ccc(C(=O)OCCOC(=O)c3ccc(-c4c5nc(c(-c6c(F)c(F)c(F)c(F)c6F)c6ccc([nH]6)c(-c6c(F)c(F)c(F)c(F)c6F)c6nc(c(-c7c(F)c(F)c(F)c(F)c7F)c7ccc4[nH]7)C=C6)C=C5)cc3)cc2)cc1=O
REMARK SMILES IDX 17 1 16 2 14 3 15 4 13 5 10 6 11 7 86 8 12 9 85 10 9 11 8 12
REMARK SMILES IDX 6 13 7 14 5 16 1 17 2 18 3 19 88 20 4 21 87 22 89 23 18 24
REMARK SMILES IDX 19 25 20 26 21 27 22 28 23 29 84 30 24 31 83 32 25 33 26 34
REMARK SMILES IDX 27 35 77 36 28 37 82 38 76 39 78 40 29 41 81 42 75 43 74 44
REMARK SMILES IDX 30 46 62 47 42 48 61 49 43 50 46 51 60 52 79 53 44 54 45 55
REMARK SMILES IDX 59 57 80 58 47 59 31 60 32 61 40 62 33 63 34 64 38 65 41 66
REMARK SMILES IDX 35 67 36 68 39 69 37 70 63 71 64 72 72 73 65 74 66 75 70 76
REMARK SMILES IDX 73 77 67 78 68 79 71 80 69 81 48 82 49 83 57 84 50 85 51 86
REMARK SMILES IDX 55 87 58 88 52 89 53 90 56 91 54 92
REMARK H PARENT 8 15 78 45 46 56
REMARK Flexibility Score: inf
ROOT
ATOM      1  C   UNL A   1      42.512  20.477  26.102  1.00  0.00     0.275 C 
ENDROOT
BRANCH   1   2
ATOM      2  O   UNL A   1      41.170  20.865  25.747  1.00  0.00    -0.458 OA
BRANCH   2   3
ATOM      3  C   UNL A   1      40.371  21.258  26.771  1.00  0.00     0.338 C 
ATOM      4  O   UNL A   1      40.600  21.131  27.963  1.00  0.00    -0.246 OA
BRANCH   3   5
ATOM      5  C   UNL A   1      39.192  21.995  26.250  1.00  0.00     0.060 A 
ATOM      6  C   UNL A   1      36.894  23.293  25.258  1.00  0.00    -0.029 A 
ATOM      7  C   UNL A   1      37.164  21.963  24.911  1.00  0.00     0.006 A 
ATOM      8  C   UNL A   1      37.786  23.957  26.121  1.00  0.00     0.006 A 
ATOM      9  C   UNL A   1      38.319  21.332  25.378  1.00  0.00     0.016 A 
ATOM     10  C   UNL A   1      38.925  23.315  26.615  1.00  0.00     0.016 A 
BRANCH   6  11
ATOM     11  C   UNL A   1      35.644  23.971  24.740  1.00  0.00     0.152 C 
BRANCH  11  12
ATOM     12  N   UNL A   1      34.570  23.927  25.710  1.00  0.00    -0.348 N 
ATOM     13  C   UNL A   1      33.470  23.153  25.865  1.00  0.00     0.251 C 
ATOM     14  O   UNL A   1      32.708  23.466  26.785  1.00  0.00    -0.269 OA
ATOM     15  H   UNL A   1      34.660  24.610  26.413  1.00  0.00     0.164 HD
BRANCH  13  16
ATOM     16  C   UNL A   1      33.174  21.925  25.052  1.00  0.00     0.046 A 
ATOM     17  C   UNL A   1      32.527  18.202  23.090  1.00  0.00     0.153 C 
ATOM     18  N   UNL A   1      32.725  19.482  23.752  1.00  0.00    -0.319 N 
ATOM     19  C   UNL A   1      33.312  19.495  25.001  1.00  0.00     0.089 A 
ATOM     20  C   UNL A   1      32.304  20.650  23.126  1.00  0.00     0.251 A 
ATOM     21  C   UNL A   1      33.544  20.645  25.641  1.00  0.00     0.032 A 
ATOM     22  C   UNL A   1      32.526  21.916  23.878  1.00  0.00     0.085 A 
ATOM     23  O   UNL A   1      31.778  20.706  22.018  1.00  0.00    -0.269 OA
ENDBRANCH  13  16
ENDBRANCH  11  12
ENDBRANCH   6  11
ENDBRANCH   3   5
ENDBRANCH   2   3
ENDBRANCH   1   2
BRANCH   1  24
ATOM     24  C   UNL A   1      43.525  21.408  25.439  1.00  0.00     0.275 C 
BRANCH  24  25
ATOM     25  O   UNL A   1      42.852  22.600  24.997  1.00  0.00    -0.458 OA
BRANCH  25  26
ATOM     26  C   UNL A   1      43.587  23.733  24.986  1.00  0.00     0.338 C 
ATOM     27  O   UNL A   1      44.568  23.982  24.297  1.00  0.00    -0.246 OA
BRANCH  26  28
ATOM     28  C   UNL A   1      43.036  24.678  25.970  1.00  0.00     0.060 A 
ATOM     29  C   UNL A   1      43.359  26.031  25.890  1.00  0.00     0.016 A 
ATOM     30  C   UNL A   1      42.269  24.204  27.035  1.00  0.00     0.016 A 
ATOM     31  C   UNL A   1      42.970  26.909  26.902  1.00  0.00     0.010 A 
ATOM     32  C   UNL A   1      41.813  25.100  28.009  1.00  0.00     0.010 A 
ATOM     33  C   UNL A   1      42.183  26.458  27.971  1.00  0.00    -0.014 A 
BRANCH  33  34
ATOM     34  C   UNL A   1      41.790  27.383  29.073  1.00  0.00     0.031 A 
ATOM     35  C   UNL A   1      42.596  27.422  30.346  1.00  0.00     0.074 A 
ATOM     36  C   UNL A   1      40.717  28.189  28.947  1.00  0.00     0.049 A 
ATOM     37  N   UNL A   1      42.318  28.004  31.486  1.00  0.00    -0.248 NA
ATOM     38  C   UNL A   1      43.876  26.698  30.341  1.00  0.00     0.031 C 
ATOM     39  C   UNL A   1      39.864  28.288  27.764  1.00  0.00     0.029 A 
ATOM     40  N   UNL A   1      40.161  29.082  29.833  1.00  0.00    -0.354 N 
ATOM     41  C   UNL A   1      43.351  27.661  32.349  1.00  0.00     0.074 A 
ATOM     42  C   UNL A   1      44.270  26.830  31.601  1.00  0.00     0.031 C 
ATOM     43  C   UNL A   1      38.910  29.206  27.984  1.00  0.00     0.029 A 
ATOM     44  C   UNL A   1      39.035  29.705  29.351  1.00  0.00     0.049 A 
ATOM     45  H   UNL A   1      40.533  29.258  30.726  1.00  0.00     0.167 HD
ATOM     46  C   UNL A   1      43.516  28.006  33.649  1.00  0.00     0.037 A 
ATOM     47  C   UNL A   1      38.174  30.550  29.951  1.00  0.00     0.037 A 
ATOM     48  C   UNL A   1      42.647  28.895  34.374  1.00  0.00     0.049 A 
ATOM     49  C   UNL A   1      38.387  30.928  31.389  1.00  0.00     0.074 A 
ATOM     50  C   UNL A   1      42.759  29.332  35.683  1.00  0.00     0.029 A 
ATOM     51  N   UNL A   1      41.519  29.502  33.846  1.00  0.00    -0.354 N 
ATOM     52  N   UNL A   1      39.339  30.557  32.209  1.00  0.00    -0.248 NA
ATOM     53  C   UNL A   1      37.391  31.825  31.994  1.00  0.00     0.031 C 
ATOM     54  C   UNL A   1      41.683  30.182  35.956  1.00  0.00     0.029 A 
ATOM     55  C   UNL A   1      40.920  30.302  34.806  1.00  0.00     0.049 A 
ATOM     56  H   UNL A   1      41.192  29.382  32.925  1.00  0.00     0.167 HD
ATOM     57  C   UNL A   1      39.062  31.175  33.420  1.00  0.00     0.074 A 
ATOM     58  C   UNL A   1      37.866  31.967  33.224  1.00  0.00     0.031 C 
ATOM     59  C   UNL A   1      39.732  31.085  34.594  1.00  0.00     0.037 A 
BRANCH  46  60
ATOM     60  C   UNL A   1      44.667  27.398  34.393  1.00  0.00     0.064 A 
ATOM     61  C   UNL A   1      44.568  26.149  35.019  1.00  0.00     0.173 A 
ATOM     62  C   UNL A   1      45.909  28.053  34.419  1.00  0.00     0.173 A 
ATOM     63  F   UNL A   1      43.399  25.490  35.033  1.00  0.00    -0.203 F 
ATOM     64  C   UNL A   1      45.669  25.580  35.657  1.00  0.00     0.198 A 
ATOM     65  C   UNL A   1      47.012  27.472  35.036  1.00  0.00     0.198 A 
ATOM     66  F   UNL A   1      46.054  29.249  33.829  1.00  0.00    -0.203 F 
ATOM     67  F   UNL A   1      45.548  24.397  36.273  1.00  0.00    -0.200 F 
ATOM     68  C   UNL A   1      46.891  26.238  35.657  1.00  0.00     0.200 A 
ATOM     69  F   UNL A   1      48.194  28.104  35.026  1.00  0.00    -0.200 F 
ATOM     70  F   UNL A   1      47.953  25.683  36.258  1.00  0.00    -0.200 F 
ENDBRANCH  46  60
BRANCH  47  71
ATOM     71  C   UNL A   1      36.997  31.060  29.200  1.00  0.00     0.064 A 
ATOM     72  C   UNL A   1      36.945  32.387  28.751  1.00  0.00     0.173 A 
ATOM     73  C   UNL A   1      35.898  30.232  28.924  1.00  0.00     0.173 A 
ATOM     74  F   UNL A   1      37.957  33.225  29.020  1.00  0.00    -0.203 F 
ATOM     75  C   UNL A   1      35.833  32.869  28.064  1.00  0.00     0.198 A 
ATOM     76  C   UNL A   1      34.801  30.707  28.210  1.00  0.00     0.198 A 
ATOM     77  F   UNL A   1      35.897  28.957  29.337  1.00  0.00    -0.203 F 
ATOM     78  F   UNL A   1      35.788  34.153  27.683  1.00  0.00    -0.200 F 
ATOM     79  C   UNL A   1      34.766  32.027  27.785  1.00  0.00     0.200 A 
ATOM     80  F   UNL A   1      33.777  29.888  27.936  1.00  0.00    -0.200 F 
ATOM     81  F   UNL A   1      33.700  32.490  27.119  1.00  0.00    -0.200 F 
ENDBRANCH  47  71
BRANCH  59  82
ATOM     82  C   UNL A   1      39.197  31.874  35.751  1.00  0.00     0.064 A 
ATOM     83  C   UNL A   1      38.256  31.324  36.634  1.00  0.00     0.173 A 
ATOM     84  C   UNL A   1      39.655  33.175  35.999  1.00  0.00     0.173 A 
ATOM     85  F   UNL A   1      37.779  30.087  36.428  1.00  0.00    -0.203 F 
ATOM     86  C   UNL A   1      37.778  32.059  37.715  1.00  0.00     0.198 A 
ATOM     87  C   UNL A   1      39.190  33.899  37.092  1.00  0.00     0.198 A 
ATOM     88  F   UNL A   1      40.558  33.741  35.183  1.00  0.00    -0.203 F 
ATOM     89  F   UNL A   1      36.852  31.530  38.525  1.00  0.00    -0.200 F 
ATOM     90  C   UNL A   1      38.249  33.344  37.947  1.00  0.00     0.200 A 
ATOM     91  F   UNL A   1      39.651  35.137  37.320  1.00  0.00    -0.200 F 
ATOM     92  F   UNL A   1      37.790  34.049  38.989  1.00  0.00    -0.200 F 
ENDBRANCH  59  82
ENDBRANCH  33  34
ENDBRANCH  26  28
ENDBRANCH  25  26
ENDBRANCH  24  25
ENDBRANCH   1  24
TORSDOF 14
ENDMDL
MODEL 2
REMARK VINA RESULT:     -12.4      0.501      1.816
REMARK SMILES Cn1ccc(C(=O)NCc2ccc(C(=O)OCCOC(=O)c3ccc(-c4c5nc(c(-c6c(F)c(F)c(F)c(F)c6F)c6ccc([nH]6)c(-c6c(F)c(F)c(F)c(F)c6F)c6nc(c(-c7c(F)c(F)c(F)c(F)c7F)c7ccc4[nH]7)C=C6)C=C5)cc3)cc2)cc1=O
REMARK SMILES IDX 17 1 16 2 14 3 15 4 13 5 10 6 11 7 86 8 12 9 85 10 9 11 8 12
REMARK SMILES IDX 6 13 7 14 5 16 1 17 2 18 3 19 88 20 4 21 87 22 89 23 18 24
REMARK SMILES IDX 19 25 20 26 21 27 22 28 23 29 84 30 24 31 83 32 25 33 26 34
REMARK SMILES IDX 27 35 77 36 28 37 82 38 76 39 78 40 29 41 81 42 75 43 74 44
REMARK SMILES IDX 30 46 62 47 42 48 61 49 43 50 46 51 60 52 79 53 44 54 45 55
REMARK SMILES IDX 59 57 80 58 47 59 31 60 32 61 40 62 33 63 34 64 38 65 41 66
REMARK SMILES IDX 35 67 36 68 39 69 37 70 63 71 64 72 72 73 65 74 66 75 70 76
REMARK SMILES IDX 73 77 67 78 68 79 71 80 69 81 48 82 49 83 57 84 50 85 51 86
REMARK SMILES IDX 55 87 58 88 52 89 53 90 56 91 54 92
REMARK H PARENT 8 15 78 45 46 56
REMARK Flexibility Score: inf
ROOT
ATOM      1  C   UNL A   1      42.449  20.581  26.121  1.00  0.00     0.275 C 
ENDROOT
BRANCH   1   2
ATOM      2  O   UNL A   1      41.090  20.886  25.749  1.00  0.00    -0.458 OA
BRANCH   2   3
ATOM      3  C   UNL A   1      40.276  21.302  26.752  1.00  0.00     0.338 C 
ATOM      4  O   UNL A   1      40.516  21.261  27.948  1.00  0.00    -0.246 OA
BRANCH   3   5
ATOM      5  C   UNL A   1      39.060  21.945  26.195  1.00  0.00     0.060 A 
ATOM      6  C   UNL A   1      36.808  23.272  25.134  1.00  0.00    -0.029 A 
ATOM      7  C   UNL A   1      37.696  23.947  25.982  1.00  0.00     0.006 A 
ATOM      8  C   UNL A   1      37.074  21.927  24.817  1.00  0.00     0.006 A 
ATOM      9  C   UNL A   1      38.794  23.279  26.531  1.00  0.00     0.016 A 
ATOM     10  C   UNL A   1      38.190  21.267  25.339  1.00  0.00     0.016 A 
BRANCH   6  11
ATOM     11  C   UNL A   1      35.617  24.001  24.552  1.00  0.00     0.152 C 
BRANCH  11  12
ATOM     12  N   UNL A   1      34.539  24.118  25.512  1.00  0.00    -0.348 N 
ATOM     13  C   UNL A   1      33.430  23.388  25.778  1.00  0.00     0.251 C 
ATOM     14  O   UNL A   1      32.669  23.847  26.636  1.00  0.00    -0.269 OA
ATOM     15  H   UNL A   1      34.634  24.899  26.102  1.00  0.00     0.164 HD
BRANCH  13  16
ATOM     16  C   UNL A   1      33.123  22.053  25.161  1.00  0.00     0.046 A 
ATOM     17  C   UNL A   1      32.174  18.499  23.018  1.00  0.00     0.153 C 
ATOM     18  N   UNL A   1      32.517  19.701  23.763  1.00  0.00    -0.319 N 
ATOM     19  C   UNL A   1      32.509  20.911  23.101  1.00  0.00     0.089 A 
ATOM     20  C   UNL A   1      32.861  19.600  25.106  1.00  0.00     0.251 A 
ATOM     21  C   UNL A   1      32.787  22.050  23.744  1.00  0.00     0.032 A 
ATOM     22  C   UNL A   1      33.217  20.874  25.791  1.00  0.00     0.085 A 
ATOM     23  O   UNL A   1      32.887  18.556  25.752  1.00  0.00    -0.269 OA
ENDBRANCH  13  16
ENDBRANCH  11  12
ENDBRANCH   6  11
ENDBRANCH   3   5
ENDBRANCH   2   3
ENDBRANCH   1   2
BRANCH   1  24
ATOM     24  C   UNL A   1      43.422  21.443  25.319  1.00  0.00     0.275 C 
BRANCH  24  25
ATOM     25  O   UNL A   1      42.781  22.682  24.971  1.00  0.00    -0.458 OA
BRANCH  25  26
ATOM     26  C   UNL A   1      43.556  23.787  25.004  1.00  0.00     0.338 C 
ATOM     27  O   UNL A   1      44.567  24.012  24.352  1.00  0.00    -0.246 OA
BRANCH  26  28
ATOM     28  C   UNL A   1      43.008  24.735  25.988  1.00  0.00     0.060 A 
ATOM     29  C   UNL A   1      43.366  26.080  25.930  1.00  0.00     0.016 A 
ATOM     30  C   UNL A   1      42.208  24.269  27.031  1.00  0.00     0.016 A 
ATOM     31  C   UNL A   1      42.978  26.957  26.943  1.00  0.00     0.010 A 
ATOM     32  C   UNL A   1      41.753  25.165  28.005  1.00  0.00     0.010 A 
ATOM     33  C   UNL A   1      42.158  26.513  27.990  1.00  0.00    -0.014 A 
BRANCH  33  34
ATOM     34  C   UNL A   1      41.765  27.435  29.094  1.00  0.00     0.031 A 
ATOM     35  C   UNL A   1      42.569  27.471  30.368  1.00  0.00     0.074 A 
ATOM     36  C   UNL A   1      40.692  28.243  28.970  1.00  0.00     0.049 A 
ATOM     37  N   UNL A   1      42.291  28.051  31.510  1.00  0.00    -0.248 NA
ATOM     38  C   UNL A   1      43.849  26.746  30.362  1.00  0.00     0.031 C 
ATOM     39  C   UNL A   1      39.839  28.345  27.787  1.00  0.00     0.029 A 
ATOM     40  N   UNL A   1      40.136  29.134  29.857  1.00  0.00    -0.354 N 
ATOM     41  C   UNL A   1      43.324  27.705  32.372  1.00  0.00     0.074 A 
ATOM     42  C   UNL A   1      44.242  26.875  31.622  1.00  0.00     0.031 C 
ATOM     43  C   UNL A   1      38.885  29.264  28.008  1.00  0.00     0.029 A 
ATOM     44  C   UNL A   1      39.010  29.758  29.376  1.00  0.00     0.049 A 
ATOM     45  H   UNL A   1      40.507  29.308  30.752  1.00  0.00     0.167 HD
ATOM     46  C   UNL A   1      43.487  28.047  33.673  1.00  0.00     0.037 A 
ATOM     47  C   UNL A   1      38.149  30.602  29.978  1.00  0.00     0.037 A 
ATOM     48  C   UNL A   1      42.619  28.934  34.400  1.00  0.00     0.049 A 
ATOM     49  C   UNL A   1      38.362  30.976  31.418  1.00  0.00     0.074 A 
ATOM     50  C   UNL A   1      42.730  29.367  35.711  1.00  0.00     0.029 A 
ATOM     51  N   UNL A   1      41.492  29.543  33.873  1.00  0.00    -0.354 N 
ATOM     52  N   UNL A   1      39.313  30.604  32.237  1.00  0.00    -0.248 NA
ATOM     53  C   UNL A   1      37.366  31.873  32.025  1.00  0.00     0.031 C 
ATOM     54  C   UNL A   1      41.654  30.217  35.984  1.00  0.00     0.029 A 
ATOM     55  C   UNL A   1      40.892  30.341  34.834  1.00  0.00     0.049 A 
ATOM     56  H   UNL A   1      41.165  29.426  32.951  1.00  0.00     0.167 HD
ATOM     57  C   UNL A   1      39.035  31.218  33.450  1.00  0.00     0.074 A 
ATOM     58  C   UNL A   1      37.840  32.011  33.255  1.00  0.00     0.031 C 
ATOM     59  C   UNL A   1      39.705  31.125  34.624  1.00  0.00     0.037 A 
BRANCH  46  60
ATOM     60  C   UNL A   1      44.638  27.436  34.417  1.00  0.00     0.064 A 
ATOM     61  C   UNL A   1      45.878  28.079  34.521  1.00  0.00     0.173 A 
ATOM     62  C   UNL A   1      44.467  26.217  35.092  1.00  0.00     0.173 A 
ATOM     63  F   UNL A   1      46.094  29.238  33.883  1.00  0.00    -0.203 F 
ATOM     64  C   UNL A   1      46.913  27.516  35.266  1.00  0.00     0.198 A 
ATOM     65  C   UNL A   1      45.495  25.670  35.853  1.00  0.00     0.198 A 
ATOM     66  F   UNL A   1      43.295  25.567  35.027  1.00  0.00    -0.203 F 
ATOM     67  F   UNL A   1      48.101  28.132  35.330  1.00  0.00    -0.200 F 
ATOM     68  C   UNL A   1      46.718  26.318  35.937  1.00  0.00     0.200 A 
ATOM     69  F   UNL A   1      45.300  24.518  36.512  1.00  0.00    -0.200 F 
ATOM     70  F   UNL A   1      47.710  25.786  36.665  1.00  0.00    -0.200 F 
ENDBRANCH  46  60
BRANCH  47  71
ATOM     71  C   UNL A   1      36.973  31.115  29.228  1.00  0.00     0.064 A 
ATOM     72  C   UNL A   1      35.870  30.293  28.962  1.00  0.00     0.173 A 
ATOM     73  C   UNL A   1      36.933  32.436  28.757  1.00  0.00     0.173 A 
ATOM     74  F   UNL A   1      35.877  29.013  29.364  1.00  0.00    -0.203 F 
ATOM     75  C   UNL A   1      34.776  30.769  28.243  1.00  0.00     0.198 A 
ATOM     76  C   UNL A   1      35.825  32.920  28.065  1.00  0.00     0.198 A 
ATOM     77  F   UNL A   1      37.966  33.261  28.981  1.00  0.00    -0.203 F 
ATOM     78  F   UNL A   1      33.752  29.951  27.963  1.00  0.00    -0.200 F 
ATOM     79  C   UNL A   1      34.749  32.085  27.803  1.00  0.00     0.200 A 
ATOM     80  F   UNL A   1      35.801  34.194  27.651  1.00  0.00    -0.200 F 
ATOM     81  F   UNL A   1      33.695  32.544  27.117  1.00  0.00    -0.200 F 
ENDBRANCH  47  71
BRANCH  59  82
ATOM     82  C   UNL A   1      39.170  31.911  35.782  1.00  0.00     0.064 A 
ATOM     83  C   UNL A   1      38.272  31.341  36.696  1.00  0.00     0.173 A 
ATOM     84  C   UNL A   1      39.586  33.232  36.000  1.00  0.00     0.173 A 
ATOM     85  F   UNL A   1      37.835  30.084  36.519  1.00  0.00    -0.203 F 
ATOM     86  C   UNL A   1      37.793  32.074  37.778  1.00  0.00     0.198 A 
ATOM     87  C   UNL A   1      39.121  33.955  37.094  1.00  0.00     0.198 A 
ATOM     88  F   UNL A   1      40.447  33.818  35.155  1.00  0.00    -0.203 F 
ATOM     89  F   UNL A   1      36.907  31.524  38.619  1.00  0.00    -0.200 F 
ATOM     90  C   UNL A   1      38.222  33.379  37.980  1.00  0.00     0.200 A 
ATOM     91  F   UNL A   1      39.542  35.212  37.293  1.00  0.00    -0.200 F 
ATOM     92  F   UNL A   1      37.763  34.082  39.023  1.00  0.00    -0.200 F 
ENDBRANCH  59  82
ENDBRANCH  33  34
ENDBRANCH  26  28
ENDBRANCH  25  26
ENDBRANCH  24  25
ENDBRANCH   1  24
TORSDOF 14
ENDMDL
MODEL 3
REMARK VINA RESULT:     -12.4      0.109      1.596
REMARK SMILES Cn1ccc(C(=O)NCc2ccc(C(=O)OCCOC(=O)c3ccc(-c4c5nc(c(-c6c(F)c(F)c(F)c(F)c6F)c6ccc([nH]6)c(-c6c(F)c(F)c(F)c(F)c6F)c6nc(c(-c7c(F)c(F)c(F)c(F)c7F)c7ccc4[nH]7)C=C6)C=C5)cc3)cc2)cc1=O
REMARK SMILES IDX 17 1 16 2 14 3 15 4 13 5 10 6 11 7 86 8 12 9 85 10 9 11 8 12
REMARK SMILES IDX 6 13 7 14 5 16 1 17 2 18 3 19 88 20 4 21 87 22 89 23 18 24
REMARK SMILES IDX 19 25 20 26 21 27 22 28 23 29 84 30 24 31 83 32 25 33 26 34
REMARK SMILES IDX 27 35 77 36 28 37 82 38 76 39 78 40 29 41 81 42 75 43 74 44
REMARK SMILES IDX 30 46 62 47 42 48 61 49 43 50 46 51 60 52 79 53 44 54 45 55
REMARK SMILES IDX 59 57 80 58 47 59 31 60 32 61 40 62 33 63 34 64 38 65 41 66
REMARK SMILES IDX 35 67 36 68 39 69 37 70 63 71 64 72 72 73 65 74 66 75 70 76
REMARK SMILES IDX 73 77 67 78 68 79 71 80 69 81 48 82 49 83 57 84 50 85 51 86
REMARK SMILES IDX 55 87 58 88 52 89 53 90 56 91 54 92
REMARK H PARENT 8 15 78 45 46 56
REMARK Flexibility Score: inf
ROOT
ATOM      1  C   UNL A   1      42.610  20.497  26.088  1.00  0.00     0.275 C 
ENDROOT
BRANCH   1   2
ATOM      2  O   UNL A   1      41.244  20.767  25.712  1.00  0.00    -0.458 OA
BRANCH   2   3
ATOM      3  C   UNL A   1      40.397  21.083  26.724  1.00  0.00     0.338 C 
ATOM      4  O   UNL A   1      40.575  20.876  27.913  1.00  0.00    -0.246 OA
BRANCH   3   5
ATOM      5  C   UNL A   1      39.237  21.849  26.203  1.00  0.00     0.060 A 
ATOM      6  C   UNL A   1      36.969  23.203  25.215  1.00  0.00    -0.029 A 
ATOM      7  C   UNL A   1      37.177  21.851  24.912  1.00  0.00     0.006 A 
ATOM      8  C   UNL A   1      37.907  23.860  26.033  1.00  0.00     0.006 A 
ATOM      9  C   UNL A   1      38.317  21.190  25.376  1.00  0.00     0.016 A 
ATOM     10  C   UNL A   1      39.032  23.191  26.524  1.00  0.00     0.016 A 
BRANCH   6  11
ATOM     11  C   UNL A   1      35.735  23.912  24.701  1.00  0.00     0.152 C 
BRANCH  11  12
ATOM     12  N   UNL A   1      34.663  23.895  25.674  1.00  0.00    -0.348 N 
ATOM     13  C   UNL A   1      33.549  23.141  25.837  1.00  0.00     0.251 C 
ATOM     14  O   UNL A   1      32.796  23.475  26.757  1.00  0.00    -0.269 OA
ATOM     15  H   UNL A   1      34.767  24.581  26.371  1.00  0.00     0.164 HD
BRANCH  13  16
ATOM     16  C   UNL A   1      33.229  21.913  25.034  1.00  0.00     0.046 A 
ATOM     17  C   UNL A   1      32.512  18.187  23.102  1.00  0.00     0.153 C 
ATOM     18  N   UNL A   1      32.734  19.469  23.754  1.00  0.00    -0.319 N 
ATOM     19  C   UNL A   1      33.328  19.481  24.999  1.00  0.00     0.089 A 
ATOM     20  C   UNL A   1      32.328  20.639  23.122  1.00  0.00     0.251 A 
ATOM     21  C   UNL A   1      33.582  20.631  25.630  1.00  0.00     0.032 A 
ATOM     22  C   UNL A   1      32.574  21.906  23.864  1.00  0.00     0.085 A 
ATOM     23  O   UNL A   1      31.797  20.696  22.017  1.00  0.00    -0.269 OA
ENDBRANCH  13  16
ENDBRANCH  11  12
ENDBRANCH   6  11
ENDBRANCH   3   5
ENDBRANCH   2   3
ENDBRANCH   1   2
BRANCH   1  24
ATOM     24  C   UNL A   1      43.561  21.403  25.307  1.00  0.00     0.275 C 
BRANCH  24  25
ATOM     25  O   UNL A   1      42.881  22.625  24.970  1.00  0.00    -0.458 OA
BRANCH  25  26
ATOM     26  C   UNL A   1      43.633  23.746  24.971  1.00  0.00     0.338 C 
ATOM     27  O   UNL A   1      44.622  23.986  24.289  1.00  0.00    -0.246 OA
BRANCH  26  28
ATOM     28  C   UNL A   1      43.089  24.694  25.957  1.00  0.00     0.060 A 
ATOM     29  C   UNL A   1      43.455  26.038  25.904  1.00  0.00     0.016 A 
ATOM     30  C   UNL A   1      42.286  24.229  26.997  1.00  0.00     0.016 A 
ATOM     31  C   UNL A   1      43.071  26.913  26.920  1.00  0.00     0.010 A 
ATOM     32  C   UNL A   1      41.836  25.124  27.975  1.00  0.00     0.010 A 
ATOM     33  C   UNL A   1      42.248  26.470  27.965  1.00  0.00    -0.014 A 
BRANCH  33  34
ATOM     34  C   UNL A   1      41.859  27.391  29.072  1.00  0.00     0.031 A 
ATOM     35  C   UNL A   1      42.672  27.429  30.340  1.00  0.00     0.074 A 
ATOM     36  C   UNL A   1      40.783  28.195  28.955  1.00  0.00     0.049 A 
ATOM     37  N   UNL A   1      42.400  28.007  31.484  1.00  0.00    -0.248 NA
ATOM     38  C   UNL A   1      43.954  26.708  30.326  1.00  0.00     0.031 C 
ATOM     39  C   UNL A   1      39.922  28.295  27.777  1.00  0.00     0.029 A 
ATOM     40  N   UNL A   1      40.230  29.084  29.846  1.00  0.00    -0.354 N 
ATOM     41  C   UNL A   1      43.439  27.665  32.339  1.00  0.00     0.074 A 
ATOM     42  C   UNL A   1      44.355  26.838  31.583  1.00  0.00     0.031 C 
ATOM     43  C   UNL A   1      38.967  29.210  28.005  1.00  0.00     0.029 A 
ATOM     44  C   UNL A   1      39.099  29.705  29.373  1.00  0.00     0.049 A 
ATOM     45  H   UNL A   1      40.607  29.259  30.738  1.00  0.00     0.167 HD
ATOM     46  C   UNL A   1      43.610  28.006  33.639  1.00  0.00     0.037 A 
ATOM     47  C   UNL A   1      38.240  30.546  29.981  1.00  0.00     0.037 A 
ATOM     48  C   UNL A   1      42.744  28.890  34.372  1.00  0.00     0.049 A 
ATOM     49  C   UNL A   1      38.461  30.920  31.419  1.00  0.00     0.074 A 
ATOM     50  C   UNL A   1      42.862  29.323  35.682  1.00  0.00     0.029 A 
ATOM     51  N   UNL A   1      41.611  29.496  33.852  1.00  0.00    -0.354 N 
ATOM     52  N   UNL A   1      39.418  30.550  32.232  1.00  0.00    -0.248 NA
ATOM     53  C   UNL A   1      37.466  31.813  32.032  1.00  0.00     0.031 C 
ATOM     54  C   UNL A   1      41.785  30.170  35.963  1.00  0.00     0.029 A 
ATOM     55  C   UNL A   1      41.016  30.291  34.818  1.00  0.00     0.049 A 
ATOM     56  H   UNL A   1      41.279  29.378  32.933  1.00  0.00     0.167 HD
ATOM     57  C   UNL A   1      39.147  31.164  33.447  1.00  0.00     0.074 A 
ATOM     58  C   UNL A   1      37.948  31.953  33.260  1.00  0.00     0.031 C 
ATOM     59  C   UNL A   1      39.825  31.072  34.616  1.00  0.00     0.037 A 
BRANCH  46  60
ATOM     60  C   UNL A   1      44.767  27.399  34.375  1.00  0.00     0.064 A 
ATOM     61  C   UNL A   1      44.646  26.197  35.084  1.00  0.00     0.173 A 
ATOM     62  C   UNL A   1      46.034  28.002  34.308  1.00  0.00     0.173 A 
ATOM     63  F   UNL A   1      43.455  25.590  35.187  1.00  0.00    -0.203 F 
ATOM     64  C   UNL A   1      45.751  25.624  35.712  1.00  0.00     0.198 A 
ATOM     65  C   UNL A   1      47.139  27.416  34.918  1.00  0.00     0.198 A 
ATOM     66  F   UNL A   1      46.200  29.151  33.637  1.00  0.00    -0.203 F 
ATOM     67  F   UNL A   1      45.610  24.489  36.409  1.00  0.00    -0.200 F 
ATOM     68  C   UNL A   1      46.996  26.230  35.622  1.00  0.00     0.200 A 
ATOM     69  F   UNL A   1      48.344  27.996  34.819  1.00  0.00    -0.200 F 
ATOM     70  F   UNL A   1      48.060  25.670  36.214  1.00  0.00    -0.200 F 
ENDBRANCH  46  60
BRANCH  47  71
ATOM     71  C   UNL A   1      37.057  31.055  29.239  1.00  0.00     0.064 A 
ATOM     72  C   UNL A   1      35.947  30.234  28.994  1.00  0.00     0.173 A 
ATOM     73  C   UNL A   1      37.016  32.371  28.754  1.00  0.00     0.173 A 
ATOM     74  F   UNL A   1      35.954  28.959  29.409  1.00  0.00    -0.203 F 
ATOM     75  C   UNL A   1      34.847  30.707  28.283  1.00  0.00     0.198 A 
ATOM     76  C   UNL A   1      35.902  32.852  28.070  1.00  0.00     0.198 A 
ATOM     77  F   UNL A   1      38.055  33.195  28.957  1.00  0.00    -0.203 F 
ATOM     78  F   UNL A   1      33.817  29.890  28.023  1.00  0.00    -0.200 F 
ATOM     79  C   UNL A   1      34.820  32.018  27.829  1.00  0.00     0.200 A 
ATOM     80  F   UNL A   1      35.879  34.121  27.641  1.00  0.00    -0.200 F 
ATOM     81  F   UNL A   1      33.760  32.474  27.150  1.00  0.00    -0.200 F 
ENDBRANCH  47  71
BRANCH  59  82
ATOM     82  C   UNL A   1      39.294  31.856  35.778  1.00  0.00     0.064 A 
ATOM     83  C   UNL A   1      39.746  33.156  36.047  1.00  0.00     0.173 A 
ATOM     84  C   UNL A   1      38.302  31.316  36.608  1.00  0.00     0.173 A 
ATOM     85  F   UNL A   1      40.705  33.708  35.288  1.00  0.00    -0.203 F 
ATOM     86  C   UNL A   1      39.235  33.881  37.120  1.00  0.00     0.198 A 
ATOM     87  C   UNL A   1      37.779  32.052  37.667  1.00  0.00     0.198 A 
ATOM     88  F   UNL A   1      37.836  30.077  36.387  1.00  0.00    -0.203 F 
ATOM     89  F   UNL A   1      39.707  35.107  37.382  1.00  0.00    -0.200 F 
ATOM     90  C   UNL A   1      38.248  33.331  37.925  1.00  0.00     0.200 A 
ATOM     91  F   UNL A   1      36.820  31.523  38.440  1.00  0.00    -0.200 F 
ATOM     92  F   UNL A   1      37.756  34.032  38.956  1.00  0.00    -0.200 F 
ENDBRANCH  59  82
ENDBRANCH  33  34
ENDBRANCH  26  28
ENDBRANCH  25  26
ENDBRANCH  24  25
ENDBRANCH   1  24
TORSDOF 14
ENDMDL
