MODEL 1
REMARK VINA RESULT:     -11.2      0.000      0.000
REMARK SMILES CCCCCCNC(=O)Oc1cccc(-c2ccc([C@@H](C)C(=O)OCCOC(=O)c3ccc(-c4c5nc(c(-c6c(F)c(F)c(F)c(F)c6F)c6ccc([nH]6)c(-c6c(F)c(F)c(F)c(F)c6F)c6nc(c(-c7c(F)c(F)c(F)c(F)c7F)c7ccc4[nH]7)C=C6)C=C5)cc3)cc2O)c1
REMARK SMILES IDX 20 1 21 2 19 3 16 4 17 5 94 6 18 7 93 8 15 9 11 10 12 11
REMARK SMILES IDX 96 12 13 13 14 14 10 15 8 16 7 17 9 19 6 20 5 21 4 22 3 23
REMARK SMILES IDX 2 24 1 25 95 26 22 28 23 29 24 30 25 31 26 32 27 33 28 34
REMARK SMILES IDX 29 35 30 36 31 37 92 38 32 39 91 40 33 41 34 42 35 43 85 44
REMARK SMILES IDX 36 45 90 46 84 47 86 48 37 49 89 50 83 51 82 52 38 54 70 55
REMARK SMILES IDX 50 56 69 57 51 58 54 59 68 60 87 61 52 62 53 63 67 65 88 66
REMARK SMILES IDX 55 67 39 68 40 69 48 70 41 71 42 72 46 73 49 74 43 75 44 76
REMARK SMILES IDX 47 77 45 78 71 79 72 80 80 81 73 82 74 83 78 84 81 85 75 86
REMARK SMILES IDX 76 87 79 88 77 89 56 90 57 91 65 92 58 93 59 94 63 95 66 96
REMARK SMILES IDX 60 97 61 98 64 99 62 100
REMARK H PARENT 7 18 95 27 86 53 54 64
REMARK Flexibility Score: inf
ROOT
ATOM      1  C   UNL A   1      35.372  31.739  28.385  1.00  0.00     0.126 C 
ATOM      2  C   UNL A   1      36.876  31.645  28.137  1.00  0.00     0.025 C 
ENDROOT
BRANCH   1   3
ATOM      3  C   UNL A   1      34.595  30.679  27.622  1.00  0.00    -0.030 A 
ATOM      4  C   UNL A   1      33.036  28.706  26.270  1.00  0.00     0.024 A 
ATOM      5  C   UNL A   1      34.275  28.391  26.856  1.00  0.00     0.013 A 
ATOM      6  C   UNL A   1      32.607  30.041  26.360  1.00  0.00     0.123 A 
ATOM      7  C   UNL A   1      35.034  29.353  27.532  1.00  0.00     0.005 A 
ATOM      8  C   UNL A   1      33.376  31.012  27.010  1.00  0.00     0.051 A 
BRANCH   4   9
ATOM      9  C   UNL A   1      32.234  27.629  25.657  1.00  0.00    -0.011 A 
ATOM     10  C   UNL A   1      31.625  26.209  23.787  1.00  0.00     0.133 A 
ATOM     11  C   UNL A   1      30.600  25.625  24.528  1.00  0.00     0.047 A 
ATOM     12  C   UNL A   1      32.444  27.199  24.336  1.00  0.00     0.056 A 
ATOM     13  C   UNL A   1      30.397  26.023  25.844  1.00  0.00     0.004 A 
ATOM     14  C   UNL A   1      31.202  27.020  26.398  1.00  0.00     0.009 A 
BRANCH  10  15
ATOM     15  O   UNL A   1      31.687  25.853  22.430  1.00  0.00    -0.410 OA
BRANCH  15  16
ATOM     16  C   UNL A   1      32.916  25.554  21.861  1.00  0.00     0.412 C 
ATOM     17  N   UNL A   1      33.279  24.246  22.039  1.00  0.00    -0.321 N 
ATOM     18  H   UNL A   1      34.136  23.970  21.642  1.00  0.00     0.167 HD
ATOM     19  O   UNL A   1      33.645  26.338  21.268  1.00  0.00    -0.224 OA
BRANCH  17  20
ATOM     20  C   UNL A   1      32.534  23.224  22.749  1.00  0.00     0.119 C 
BRANCH  20  21
ATOM     21  C   UNL A   1      33.359  22.574  23.859  1.00  0.00     0.021 C 
BRANCH  21  22
ATOM     22  C   UNL A   1      34.435  23.477  24.476  1.00  0.00     0.002 C 
BRANCH  22  23
ATOM     23  C   UNL A   1      34.030  24.203  25.764  1.00  0.00    -0.000 C 
BRANCH  23  24
ATOM     24  C   UNL A   1      32.966  23.500  26.611  1.00  0.00    -0.003 C 
ATOM     25  C   UNL A   1      33.548  22.543  27.639  1.00  0.00     0.004 C 
ENDBRANCH  23  24
ENDBRANCH  22  23
ENDBRANCH  21  22
ENDBRANCH  20  21
ENDBRANCH  17  20
ENDBRANCH  15  16
ENDBRANCH  10  15
ENDBRANCH   4   9
BRANCH   6  26
ATOM     26  O   UNL A   1      31.401  30.476  25.875  1.00  0.00    -0.507 OA
ATOM     27  H   UNL A   1      30.747  30.793  26.465  1.00  0.00     0.293 HD
ENDBRANCH   6  26
ENDBRANCH   1   3
BRANCH   1  28
ATOM     28  C   UNL A   1      34.905  33.178  28.205  1.00  0.00     0.313 C 
ATOM     29  O   UNL A   1      35.280  33.869  27.260  1.00  0.00    -0.252 OA
BRANCH  28  30
ATOM     30  O   UNL A   1      34.020  33.589  29.147  1.00  0.00    -0.462 OA
BRANCH  30  31
ATOM     31  C   UNL A   1      33.058  34.583  28.748  1.00  0.00     0.274 C 
BRANCH  31  32
ATOM     32  C   UNL A   1      32.985  35.722  29.767  1.00  0.00     0.275 C 
BRANCH  32  33
ATOM     33  O   UNL A   1      32.198  35.346  30.913  1.00  0.00    -0.458 OA
BRANCH  33  34
ATOM     34  C   UNL A   1      32.578  35.912  32.081  1.00  0.00     0.338 C 
ATOM     35  O   UNL A   1      32.075  36.864  32.647  1.00  0.00    -0.246 OA
BRANCH  34  36
ATOM     36  C   UNL A   1      33.688  35.139  32.653  1.00  0.00     0.060 A 
ATOM     37  C   UNL A   1      34.972  35.694  32.647  1.00  0.00     0.016 A 
ATOM     38  C   UNL A   1      33.473  33.840  33.111  1.00  0.00     0.016 A 
ATOM     39  C   UNL A   1      36.056  34.945  33.096  1.00  0.00     0.010 A 
ATOM     40  C   UNL A   1      34.560  33.091  33.564  1.00  0.00     0.010 A 
ATOM     41  C   UNL A   1      35.858  33.635  33.547  1.00  0.00    -0.014 A 
BRANCH  41  42
ATOM     42  C   UNL A   1      37.005  32.787  33.944  1.00  0.00     0.031 A 
ATOM     43  C   UNL A   1      37.684  33.044  35.257  1.00  0.00     0.074 A 
ATOM     44  C   UNL A   1      37.454  31.826  33.120  1.00  0.00     0.049 A 
ATOM     45  N   UNL A   1      38.828  32.591  35.702  1.00  0.00    -0.248 NA
ATOM     46  C   UNL A   1      36.981  33.937  36.193  1.00  0.00     0.031 C 
ATOM     47  C   UNL A   1      36.836  31.443  31.851  1.00  0.00     0.029 A 
ATOM     48  N   UNL A   1      38.556  31.012  33.217  1.00  0.00    -0.354 N 
ATOM     49  C   UNL A   1      38.993  33.161  36.956  1.00  0.00     0.074 A 
ATOM     50  C   UNL A   1      37.838  33.998  37.202  1.00  0.00     0.031 C 
ATOM     51  C   UNL A   1      37.583  30.488  31.273  1.00  0.00     0.029 A 
ATOM     52  C   UNL A   1      38.758  30.236  32.104  1.00  0.00     0.049 A 
ATOM     53  H   UNL A   1      39.143  30.989  34.007  1.00  0.00     0.167 HD
ATOM     54  C   UNL A   1      40.023  32.998  37.820  1.00  0.00     0.037 A 
ATOM     55  C   UNL A   1      39.801  29.450  31.771  1.00  0.00     0.037 A 
ATOM     56  C   UNL A   1      41.163  32.158  37.567  1.00  0.00     0.049 A 
ATOM     57  C   UNL A   1      40.965  29.337  32.720  1.00  0.00     0.074 A 
ATOM     58  C   UNL A   1      42.281  31.955  38.357  1.00  0.00     0.029 A 
ATOM     59  N   UNL A   1      41.324  31.374  36.435  1.00  0.00    -0.354 N 
ATOM     60  N   UNL A   1      41.144  29.914  33.883  1.00  0.00    -0.248 NA
ATOM     61  C   UNL A   1      42.079  28.471  32.306  1.00  0.00     0.031 C 
ATOM     62  C   UNL A   1      43.130  31.064  37.692  1.00  0.00     0.029 A 
ATOM     63  C   UNL A   1      42.521  30.683  36.507  1.00  0.00     0.049 A 
ATOM     64  H   UNL A   1      40.682  31.317  35.691  1.00  0.00     0.167 HD
ATOM     65  C   UNL A   1      42.366  29.456  34.354  1.00  0.00     0.074 A 
ATOM     66  C   UNL A   1      42.890  28.552  33.352  1.00  0.00     0.031 C 
ATOM     67  C   UNL A   1      43.000  29.758  35.513  1.00  0.00     0.037 A 
BRANCH  54  68
ATOM     68  C   UNL A   1      39.977  33.759  39.110  1.00  0.00     0.064 A 
ATOM     69  C   UNL A   1      39.309  33.256  40.235  1.00  0.00     0.173 A 
ATOM     70  C   UNL A   1      40.655  34.981  39.237  1.00  0.00     0.173 A 
ATOM     71  F   UNL A   1      38.636  32.098  40.158  1.00  0.00    -0.203 F 
ATOM     72  C   UNL A   1      39.311  33.955  41.439  1.00  0.00     0.198 A 
ATOM     73  C   UNL A   1      40.674  35.666  40.449  1.00  0.00     0.198 A 
ATOM     74  F   UNL A   1      41.312  35.503  38.191  1.00  0.00    -0.203 F 
ATOM     75  F   UNL A   1      38.642  33.471  42.494  1.00  0.00    -0.200 F 
ATOM     76  C   UNL A   1      40.000  35.154  41.547  1.00  0.00     0.200 A 
ATOM     77  F   UNL A   1      41.349  36.818  40.555  1.00  0.00    -0.200 F 
ATOM     78  F   UNL A   1      40.011  35.819  42.711  1.00  0.00    -0.200 F 
ENDBRANCH  54  68
BRANCH  55  79
ATOM     79  C   UNL A   1      39.814  28.743  30.465  1.00  0.00     0.064 A 
ATOM     80  C   UNL A   1      39.281  27.454  30.336  1.00  0.00     0.173 A 
ATOM     81  C   UNL A   1      40.383  29.332  29.326  1.00  0.00     0.173 A 
ATOM     82  F   UNL A   1      38.751  26.837  31.403  1.00  0.00    -0.203 F 
ATOM     83  C   UNL A   1      39.335  26.771  29.122  1.00  0.00     0.198 A 
ATOM     84  C   UNL A   1      40.410  28.660  28.105  1.00  0.00     0.198 A 
ATOM     85  F   UNL A   1      40.910  30.562  29.397  1.00  0.00    -0.203 F 
ATOM     86  F   UNL A   1      38.865  25.519  29.038  1.00  0.00    -0.200 F 
ATOM     87  C   UNL A   1      39.895  27.377  28.006  1.00  0.00     0.200 A 
ATOM     88  F   UNL A   1      40.943  29.253  27.029  1.00  0.00    -0.200 F 
ATOM     89  F   UNL A   1      39.948  26.719  26.840  1.00  0.00    -0.200 F 
ENDBRANCH  55  79
BRANCH  67  90
ATOM     90  C   UNL A   1      44.293  29.057  35.796  1.00  0.00     0.064 A 
ATOM     91  C   UNL A   1      44.334  27.833  36.478  1.00  0.00     0.173 A 
ATOM     92  C   UNL A   1      45.501  29.588  35.315  1.00  0.00     0.173 A 
ATOM     93  F   UNL A   1      43.207  27.296  36.967  1.00  0.00    -0.203 F 
ATOM     94  C   UNL A   1      45.542  27.170  36.678  1.00  0.00     0.198 A 
ATOM     95  C   UNL A   1      46.701  28.911  35.498  1.00  0.00     0.198 A 
ATOM     96  F   UNL A   1      45.509  30.754  34.652  1.00  0.00    -0.203 F 
ATOM     97  F   UNL A   1      45.564  26.014  37.356  1.00  0.00    -0.200 F 
ATOM     98  C   UNL A   1      46.722  27.704  36.182  1.00  0.00     0.200 A 
ATOM     99  F   UNL A   1      47.839  29.422  35.009  1.00  0.00    -0.200 F 
ATOM    100  F   UNL A   1      47.880  27.057  36.365  1.00  0.00    -0.200 F 
ENDBRANCH  67  90
ENDBRANCH  41  42
ENDBRANCH  34  36
ENDBRANCH  33  34
ENDBRANCH  32  33
ENDBRANCH  31  32
ENDBRANCH  30  31
ENDBRANCH  28  30
ENDBRANCH   1  28
TORSDOF 21
ENDMDL
MODEL 2
REMARK VINA RESULT:     -11.1      1.411      1.977
REMARK SMILES CCCCCCNC(=O)Oc1cccc(-c2ccc([C@@H](C)C(=O)OCCOC(=O)c3ccc(-c4c5nc(c(-c6c(F)c(F)c(F)c(F)c6F)c6ccc([nH]6)c(-c6c(F)c(F)c(F)c(F)c6F)c6nc(c(-c7c(F)c(F)c(F)c(F)c7F)c7ccc4[nH]7)C=C6)C=C5)cc3)cc2O)c1
REMARK SMILES IDX 20 1 21 2 19 3 16 4 17 5 94 6 18 7 93 8 15 9 11 10 12 11
REMARK SMILES IDX 96 12 13 13 14 14 10 15 8 16 7 17 9 19 6 20 5 21 4 22 3 23
REMARK SMILES IDX 2 24 1 25 95 26 22 28 23 29 24 30 25 31 26 32 27 33 28 34
REMARK SMILES IDX 29 35 30 36 31 37 92 38 32 39 91 40 33 41 34 42 35 43 85 44
REMARK SMILES IDX 36 45 90 46 84 47 86 48 37 49 89 50 83 51 82 52 38 54 70 55
REMARK SMILES IDX 50 56 69 57 51 58 54 59 68 60 87 61 52 62 53 63 67 65 88 66
REMARK SMILES IDX 55 67 39 68 40 69 48 70 41 71 42 72 46 73 49 74 43 75 44 76
REMARK SMILES IDX 47 77 45 78 71 79 72 80 80 81 73 82 74 83 78 84 81 85 75 86
REMARK SMILES IDX 76 87 79 88 77 89 56 90 57 91 65 92 58 93 59 94 63 95 66 96
REMARK SMILES IDX 60 97 61 98 64 99 62 100
REMARK H PARENT 7 18 95 27 86 53 54 64
REMARK Flexibility Score: inf
ROOT
ATOM      1  C   UNL A   1      34.194  32.874  28.928  1.00  0.00     0.126 C 
ATOM      2  C   UNL A   1      35.502  32.920  29.715  1.00  0.00     0.025 C 
ENDROOT
BRANCH   1   3
ATOM      3  C   UNL A   1      34.098  31.643  28.042  1.00  0.00    -0.030 A 
ATOM      4  C   UNL A   1      33.812  29.293  26.447  1.00  0.00     0.024 A 
ATOM      5  C   UNL A   1      34.972  29.532  27.205  1.00  0.00     0.013 A 
ATOM      6  C   UNL A   1      32.807  30.274  26.491  1.00  0.00     0.123 A 
ATOM      7  C   UNL A   1      35.108  30.676  28.000  1.00  0.00     0.005 A 
ATOM      8  C   UNL A   1      32.951  31.432  27.262  1.00  0.00     0.051 A 
BRANCH   4   9
ATOM      9  C   UNL A   1      33.683  28.024  25.705  1.00  0.00    -0.011 A 
ATOM     10  C   UNL A   1      33.466  25.610  25.609  1.00  0.00     0.133 A 
ATOM     11  C   UNL A   1      33.531  25.631  24.218  1.00  0.00     0.047 A 
ATOM     12  C   UNL A   1      33.535  26.787  26.357  1.00  0.00     0.056 A 
ATOM     13  C   UNL A   1      33.652  26.848  23.559  1.00  0.00     0.004 A 
ATOM     14  C   UNL A   1      33.734  28.030  24.297  1.00  0.00     0.009 A 
BRANCH  10  15
ATOM     15  O   UNL A   1      33.475  24.340  26.210  1.00  0.00    -0.410 OA
BRANCH  15  16
ATOM     16  C   UNL A   1      32.272  23.699  26.465  1.00  0.00     0.412 C 
ATOM     17  N   UNL A   1      32.104  22.566  25.715  1.00  0.00    -0.321 N 
ATOM     18  H   UNL A   1      31.274  22.059  25.864  1.00  0.00     0.167 HD
ATOM     19  O   UNL A   1      31.412  24.071  27.251  1.00  0.00    -0.224 OA
BRANCH  17  20
ATOM     20  C   UNL A   1      33.020  22.033  24.724  1.00  0.00     0.119 C 
BRANCH  20  21
ATOM     21  C   UNL A   1      32.420  20.855  23.958  1.00  0.00     0.021 C 
BRANCH  21  22
ATOM     22  C   UNL A   1      32.902  19.474  24.419  1.00  0.00     0.002 C 
BRANCH  22  23
ATOM     23  C   UNL A   1      32.528  18.302  23.504  1.00  0.00    -0.000 C 
BRANCH  23  24
ATOM     24  C   UNL A   1      33.656  17.311  23.206  1.00  0.00    -0.003 C 
ATOM     25  C   UNL A   1      34.741  17.295  24.270  1.00  0.00     0.004 C 
ENDBRANCH  23  24
ENDBRANCH  22  23
ENDBRANCH  21  22
ENDBRANCH  20  21
ENDBRANCH  17  20
ENDBRANCH  15  16
ENDBRANCH  10  15
ENDBRANCH   4   9
BRANCH   6  26
ATOM     26  O   UNL A   1      31.607  30.150  25.840  1.00  0.00    -0.507 OA
ATOM     27  H   UNL A   1      30.828  30.502  26.221  1.00  0.00     0.293 HD
ENDBRANCH   6  26
ENDBRANCH   1   3
BRANCH   1  28
ATOM     28  C   UNL A   1      33.951  34.216  28.247  1.00  0.00     0.313 C 
ATOM     29  O   UNL A   1      34.575  34.558  27.246  1.00  0.00    -0.252 OA
BRANCH  28  30
ATOM     30  O   UNL A   1      32.966  34.951  28.822  1.00  0.00    -0.462 OA
BRANCH  30  31
ATOM     31  C   UNL A   1      33.122  36.382  28.797  1.00  0.00     0.274 C 
BRANCH  31  32
ATOM     32  C   UNL A   1      32.904  36.986  30.185  1.00  0.00     0.275 C 
BRANCH  32  33
ATOM     33  O   UNL A   1      32.284  36.039  31.074  1.00  0.00    -0.458 OA
BRANCH  33  34
ATOM     34  C   UNL A   1      32.658  36.138  32.370  1.00  0.00     0.338 C 
ATOM     35  O   UNL A   1      32.135  36.795  33.250  1.00  0.00    -0.246 OA
BRANCH  34  36
ATOM     36  C   UNL A   1      33.793  35.237  32.614  1.00  0.00     0.060 A 
ATOM     37  C   UNL A   1      33.538  33.930  33.040  1.00  0.00     0.016 A 
ATOM     38  C   UNL A   1      35.099  35.712  32.506  1.00  0.00     0.016 A 
ATOM     39  C   UNL A   1      34.595  33.087  33.369  1.00  0.00     0.010 A 
ATOM     40  C   UNL A   1      36.158  34.865  32.834  1.00  0.00     0.010 A 
ATOM     41  C   UNL A   1      35.912  33.553  33.279  1.00  0.00    -0.014 A 
BRANCH  41  42
ATOM     42  C   UNL A   1      37.048  32.707  33.709  1.00  0.00     0.031 A 
ATOM     43  C   UNL A   1      37.714  32.991  35.023  1.00  0.00     0.074 A 
ATOM     44  C   UNL A   1      37.499  31.722  32.913  1.00  0.00     0.049 A 
ATOM     45  N   UNL A   1      38.850  32.541  35.491  1.00  0.00    -0.248 NA
ATOM     46  C   UNL A   1      37.007  33.911  35.929  1.00  0.00     0.031 C 
ATOM     47  C   UNL A   1      36.892  31.313  31.648  1.00  0.00     0.029 A 
ATOM     48  N   UNL A   1      38.594  30.904  33.043  1.00  0.00    -0.354 N 
ATOM     49  C   UNL A   1      39.006  33.140  36.734  1.00  0.00     0.074 A 
ATOM     50  C   UNL A   1      37.854  33.991  36.946  1.00  0.00     0.031 C 
ATOM     51  C   UNL A   1      37.639  30.340  31.101  1.00  0.00     0.029 A 
ATOM     52  C   UNL A   1      38.803  30.099  31.951  1.00  0.00     0.049 A 
ATOM     53  H   UNL A   1      39.172  30.896  33.840  1.00  0.00     0.167 HD
ATOM     54  C   UNL A   1      40.025  32.991  37.613  1.00  0.00     0.037 A 
ATOM     55  C   UNL A   1      39.844  29.298  31.649  1.00  0.00     0.037 A 
ATOM     56  C   UNL A   1      41.162  32.138  37.392  1.00  0.00     0.049 A 
ATOM     57  C   UNL A   1      40.997  29.201  32.613  1.00  0.00     0.074 A 
ATOM     58  C   UNL A   1      42.269  31.946  38.200  1.00  0.00     0.029 A 
ATOM     59  N   UNL A   1      41.329  31.325  36.282  1.00  0.00    -0.354 N 
ATOM     60  N   UNL A   1      41.166  29.804  33.765  1.00  0.00    -0.248 NA
ATOM     61  C   UNL A   1      42.109  28.318  32.234  1.00  0.00     0.031 C 
ATOM     62  C   UNL A   1      43.119  31.033  37.566  1.00  0.00     0.029 A 
ATOM     63  C   UNL A   1      42.521  30.628  36.384  1.00  0.00     0.049 A 
ATOM     64  H   UNL A   1      40.695  31.254  35.532  1.00  0.00     0.167 HD
ATOM     65  C   UNL A   1      42.380  29.350  34.260  1.00  0.00     0.074 A 
ATOM     66  C   UNL A   1      42.908  28.418  33.286  1.00  0.00     0.031 C 
ATOM     67  C   UNL A   1      43.004  29.676  35.418  1.00  0.00     0.037 A 
BRANCH  54  68
ATOM     68  C   UNL A   1      39.969  33.784  38.883  1.00  0.00     0.064 A 
ATOM     69  C   UNL A   1      39.329  33.291  40.028  1.00  0.00     0.173 A 
ATOM     70  C   UNL A   1      40.612  35.028  38.971  1.00  0.00     0.173 A 
ATOM     71  F   UNL A   1      38.690  32.112  39.989  1.00  0.00    -0.203 F 
ATOM     72  C   UNL A   1      39.324  34.020  41.214  1.00  0.00     0.198 A 
ATOM     73  C   UNL A   1      40.624  35.745  40.164  1.00  0.00     0.198 A 
ATOM     74  F   UNL A   1      41.241  35.543  37.904  1.00  0.00    -0.203 F 
ATOM     75  F   UNL A   1      38.681  33.544  42.289  1.00  0.00    -0.200 F 
ATOM     76  C   UNL A   1      39.977  35.242  41.283  1.00  0.00     0.200 A 
ATOM     77  F   UNL A   1      41.265  36.919  40.233  1.00  0.00    -0.200 F 
ATOM     78  F   UNL A   1      39.981  35.937  42.429  1.00  0.00    -0.200 F 
ENDBRANCH  54  68
BRANCH  55  79
ATOM     79  C   UNL A   1      39.866  28.560  30.361  1.00  0.00     0.064 A 
ATOM     80  C   UNL A   1      39.279  27.293  30.243  1.00  0.00     0.173 A 
ATOM     81  C   UNL A   1      40.499  29.094  29.228  1.00  0.00     0.173 A 
ATOM     82  F   UNL A   1      38.686  26.729  31.307  1.00  0.00    -0.203 F 
ATOM     83  C   UNL A   1      39.340  26.580  29.048  1.00  0.00     0.198 A 
ATOM     84  C   UNL A   1      40.534  28.392  28.025  1.00  0.00     0.198 A 
ATOM     85  F   UNL A   1      41.080  30.301  29.289  1.00  0.00    -0.203 F 
ATOM     86  F   UNL A   1      38.815  25.349  28.978  1.00  0.00    -0.200 F 
ATOM     87  C   UNL A   1      39.963  27.132  27.938  1.00  0.00     0.200 A 
ATOM     88  F   UNL A   1      41.129  28.933  26.954  1.00  0.00    -0.200 F 
ATOM     89  F   UNL A   1      40.023  26.444  26.790  1.00  0.00    -0.200 F 
ENDBRANCH  55  79
BRANCH  67  90
ATOM     90  C   UNL A   1      44.289  28.973  35.732  1.00  0.00     0.064 A 
ATOM     91  C   UNL A   1      44.313  27.766  36.445  1.00  0.00     0.173 A 
ATOM     92  C   UNL A   1      45.505  29.483  35.252  1.00  0.00     0.173 A 
ATOM     93  F   UNL A   1      43.177  27.249  36.934  1.00  0.00    -0.203 F 
ATOM     94  C   UNL A   1      45.514  27.100  36.674  1.00  0.00     0.198 A 
ATOM     95  C   UNL A   1      46.699  28.803  35.465  1.00  0.00     0.198 A 
ATOM     96  F   UNL A   1      45.529  30.632  34.560  1.00  0.00    -0.203 F 
ATOM     97  F   UNL A   1      45.520  25.962  37.381  1.00  0.00    -0.200 F 
ATOM     98  C   UNL A   1      46.703  27.613  36.178  1.00  0.00     0.200 A 
ATOM     99  F   UNL A   1      47.845  29.294  34.975  1.00  0.00    -0.200 F 
ATOM    100  F   UNL A   1      47.855  26.963  36.390  1.00  0.00    -0.200 F 
ENDBRANCH  67  90
ENDBRANCH  41  42
ENDBRANCH  34  36
ENDBRANCH  33  34
ENDBRANCH  32  33
ENDBRANCH  31  32
ENDBRANCH  30  31
ENDBRANCH  28  30
ENDBRANCH   1  28
TORSDOF 21
ENDMDL
MODEL 3
REMARK VINA RESULT:     -11.1      1.124      2.063
REMARK SMILES CCCCCCNC(=O)Oc1cccc(-c2ccc([C@@H](C)C(=O)OCCOC(=O)c3ccc(-c4c5nc(c(-c6c(F)c(F)c(F)c(F)c6F)c6ccc([nH]6)c(-c6c(F)c(F)c(F)c(F)c6F)c6nc(c(-c7c(F)c(F)c(F)c(F)c7F)c7ccc4[nH]7)C=C6)C=C5)cc3)cc2O)c1
REMARK SMILES IDX 20 1 21 2 19 3 16 4 17 5 94 6 18 7 93 8 15 9 11 10 12 11
REMARK SMILES IDX 96 12 13 13 14 14 10 15 8 16 7 17 9 19 6 20 5 21 4 22 3 23
REMARK SMILES IDX 2 24 1 25 95 26 22 28 23 29 24 30 25 31 26 32 27 33 28 34
REMARK SMILES IDX 29 35 30 36 31 37 92 38 32 39 91 40 33 41 34 42 35 43 85 44
REMARK SMILES IDX 36 45 90 46 84 47 86 48 37 49 89 50 83 51 82 52 38 54 70 55
REMARK SMILES IDX 50 56 69 57 51 58 54 59 68 60 87 61 52 62 53 63 67 65 88 66
REMARK SMILES IDX 55 67 39 68 40 69 48 70 41 71 42 72 46 73 49 74 43 75 44 76
REMARK SMILES IDX 47 77 45 78 71 79 72 80 80 81 73 82 74 83 78 84 81 85 75 86
REMARK SMILES IDX 76 87 79 88 77 89 56 90 57 91 65 92 58 93 59 94 63 95 66 96
REMARK SMILES IDX 60 97 61 98 64 99 62 100
REMARK H PARENT 7 18 95 27 86 53 54 64
REMARK Flexibility Score: inf
ROOT
ATOM      1  C   UNL A   1      34.753  32.202  28.380  1.00  0.00     0.126 C 
ATOM      2  C   UNL A   1      36.237  31.960  28.117  1.00  0.00     0.025 C 
ENDROOT
BRANCH   1   3
ATOM      3  C   UNL A   1      33.866  31.240  27.606  1.00  0.00    -0.030 A 
ATOM      4  C   UNL A   1      32.287  29.438  26.055  1.00  0.00     0.024 A 
ATOM      5  C   UNL A   1      31.777  30.672  26.496  1.00  0.00     0.013 A 
ATOM      6  C   UNL A   1      33.603  29.120  26.430  1.00  0.00     0.123 A 
ATOM      7  C   UNL A   1      32.554  31.563  27.244  1.00  0.00     0.005 A 
ATOM      8  C   UNL A   1      34.374  29.995  27.202  1.00  0.00     0.051 A 
BRANCH   4   9
ATOM      9  C   UNL A   1      31.455  28.582  25.187  1.00  0.00    -0.011 A 
ATOM     10  C   UNL A   1      30.424  26.460  24.621  1.00  0.00     0.133 A 
ATOM     11  C   UNL A   1      29.929  26.986  23.429  1.00  0.00     0.047 A 
ATOM     12  C   UNL A   1      31.177  27.241  25.501  1.00  0.00     0.056 A 
ATOM     13  C   UNL A   1      30.175  28.318  23.117  1.00  0.00     0.004 A 
ATOM     14  C   UNL A   1      30.937  29.103  23.985  1.00  0.00     0.009 A 
BRANCH  10  15
ATOM     15  O   UNL A   1      30.248  25.080  24.808  1.00  0.00    -0.410 OA
BRANCH  15  16
ATOM     16  C   UNL A   1      30.031  24.588  26.086  1.00  0.00     0.412 C 
ATOM     17  N   UNL A   1      30.837  23.524  26.390  1.00  0.00    -0.321 N 
ATOM     18  H   UNL A   1      30.739  23.143  27.292  1.00  0.00     0.167 HD
ATOM     19  O   UNL A   1      29.212  25.012  26.890  1.00  0.00    -0.224 OA
BRANCH  17  20
ATOM     20  C   UNL A   1      31.819  22.900  25.525  1.00  0.00     0.119 C 
BRANCH  20  21
ATOM     21  C   UNL A   1      33.251  23.182  25.980  1.00  0.00     0.021 C 
BRANCH  21  22
ATOM     22  C   UNL A   1      33.730  24.621  25.745  1.00  0.00     0.002 C 
BRANCH  22  23
ATOM     23  C   UNL A   1      34.543  24.847  24.465  1.00  0.00    -0.000 C 
BRANCH  23  24
ATOM     24  C   UNL A   1      33.722  25.086  23.195  1.00  0.00    -0.003 C 
ATOM     25  C   UNL A   1      33.632  26.551  22.801  1.00  0.00     0.004 C 
ENDBRANCH  23  24
ENDBRANCH  22  23
ENDBRANCH  21  22
ENDBRANCH  20  21
ENDBRANCH  17  20
ENDBRANCH  15  16
ENDBRANCH  10  15
ENDBRANCH   4   9
BRANCH   6  26
ATOM     26  O   UNL A   1      34.241  27.973  26.032  1.00  0.00    -0.507 OA
ATOM     27  H   UNL A   1      35.170  27.898  26.124  1.00  0.00     0.293 HD
ENDBRANCH   6  26
ENDBRANCH   1   3
BRANCH   1  28
ATOM     28  C   UNL A   1      34.434  33.684  28.225  1.00  0.00     0.313 C 
ATOM     29  O   UNL A   1      34.837  34.339  27.268  1.00  0.00    -0.252 OA
BRANCH  28  30
ATOM     30  O   UNL A   1      33.641  34.179  29.209  1.00  0.00    -0.462 OA
BRANCH  30  31
ATOM     31  C   UNL A   1      32.875  35.358  28.897  1.00  0.00     0.274 C 
BRANCH  31  32
ATOM     32  C   UNL A   1      32.891  36.351  30.061  1.00  0.00     0.275 C 
BRANCH  32  33
ATOM     33  O   UNL A   1      32.112  35.866  31.170  1.00  0.00    -0.458 OA
BRANCH  33  34
ATOM     34  C   UNL A   1      32.637  36.114  32.392  1.00  0.00     0.338 C 
ATOM     35  O   UNL A   1      32.228  36.889  33.236  1.00  0.00    -0.246 OA
BRANCH  34  36
ATOM     36  C   UNL A   1      33.780  35.221  32.616  1.00  0.00     0.060 A 
ATOM     37  C   UNL A   1      33.541  33.912  33.048  1.00  0.00     0.016 A 
ATOM     38  C   UNL A   1      35.082  35.703  32.484  1.00  0.00     0.016 A 
ATOM     39  C   UNL A   1      34.609  33.075  33.359  1.00  0.00     0.010 A 
ATOM     40  C   UNL A   1      36.152  34.862  32.793  1.00  0.00     0.010 A 
ATOM     41  C   UNL A   1      35.921  33.549  33.244  1.00  0.00    -0.014 A 
BRANCH  41  42
ATOM     42  C   UNL A   1      37.070  32.710  33.655  1.00  0.00     0.031 A 
ATOM     43  C   UNL A   1      37.745  32.987  34.965  1.00  0.00     0.074 A 
ATOM     44  C   UNL A   1      37.524  31.739  32.844  1.00  0.00     0.049 A 
ATOM     45  N   UNL A   1      38.890  32.544  35.418  1.00  0.00    -0.248 NA
ATOM     46  C   UNL A   1      37.037  33.889  35.888  1.00  0.00     0.031 C 
ATOM     47  C   UNL A   1      36.909  31.338  31.579  1.00  0.00     0.029 A 
ATOM     48  N   UNL A   1      38.628  30.931  32.954  1.00  0.00    -0.354 N 
ATOM     49  C   UNL A   1      39.051  33.130  36.665  1.00  0.00     0.074 A 
ATOM     50  C   UNL A   1      37.893  33.967  36.898  1.00  0.00     0.031 C 
ATOM     51  C   UNL A   1      37.661  30.378  31.015  1.00  0.00     0.029 A 
ATOM     52  C   UNL A   1      38.835  30.140  31.852  1.00  0.00     0.049 A 
ATOM     53  H   UNL A   1      39.213  30.920  33.745  1.00  0.00     0.167 HD
ATOM     54  C   UNL A   1      40.080  32.982  37.533  1.00  0.00     0.037 A 
ATOM     55  C   UNL A   1      39.881  29.353  31.531  1.00  0.00     0.037 A 
ATOM     56  C   UNL A   1      41.223  32.143  37.293  1.00  0.00     0.049 A 
ATOM     57  C   UNL A   1      41.044  29.257  32.484  1.00  0.00     0.074 A 
ATOM     58  C   UNL A   1      42.340  31.954  38.088  1.00  0.00     0.029 A 
ATOM     59  N   UNL A   1      41.388  31.344  36.172  1.00  0.00    -0.354 N 
ATOM     60  N   UNL A   1      41.218  29.850  33.640  1.00  0.00    -0.248 NA
ATOM     61  C   UNL A   1      42.161  28.390  32.084  1.00  0.00     0.031 C 
ATOM     62  C   UNL A   1      43.193  31.057  37.436  1.00  0.00     0.029 A 
ATOM     63  C   UNL A   1      42.588  30.658  36.255  1.00  0.00     0.049 A 
ATOM     64  H   UNL A   1      40.748  31.275  35.427  1.00  0.00     0.167 HD
ATOM     65  C   UNL A   1      42.441  29.402  34.119  1.00  0.00     0.074 A 
ATOM     66  C   UNL A   1      42.969  28.487  33.130  1.00  0.00     0.031 C 
ATOM     67  C   UNL A   1      43.072  29.723  35.275  1.00  0.00     0.037 A 
BRANCH  54  68
ATOM     68  C   UNL A   1      40.028  33.761  38.812  1.00  0.00     0.064 A 
ATOM     69  C   UNL A   1      39.338  33.283  39.934  1.00  0.00     0.173 A 
ATOM     70  C   UNL A   1      40.724  34.973  38.933  1.00  0.00     0.173 A 
ATOM     71  F   UNL A   1      38.648  32.134  39.864  1.00  0.00    -0.203 F 
ATOM     72  C   UNL A   1      39.336  33.996  41.130  1.00  0.00     0.198 A 
ATOM     73  C   UNL A   1      40.738  35.674  40.137  1.00  0.00     0.198 A 
ATOM     74  F   UNL A   1      41.403  35.472  37.889  1.00  0.00    -0.203 F 
ATOM     75  F   UNL A   1      38.645  33.536  42.182  1.00  0.00    -0.200 F 
ATOM     76  C   UNL A   1      40.041  35.186  41.232  1.00  0.00     0.200 A 
ATOM     77  F   UNL A   1      41.429  36.817  40.238  1.00  0.00    -0.200 F 
ATOM     78  F   UNL A   1      40.048  35.865  42.388  1.00  0.00    -0.200 F 
ENDBRANCH  54  68
BRANCH  55  79
ATOM     79  C   UNL A   1      39.899  28.629  30.235  1.00  0.00     0.064 A 
ATOM     80  C   UNL A   1      39.364  27.339  30.120  1.00  0.00     0.173 A 
ATOM     81  C   UNL A   1      40.475  29.201  29.091  1.00  0.00     0.173 A 
ATOM     82  F   UNL A   1      38.827  26.739  31.193  1.00  0.00    -0.203 F 
ATOM     83  C   UNL A   1      39.422  26.641  28.915  1.00  0.00     0.198 A 
ATOM     84  C   UNL A   1      40.506  28.514  27.880  1.00  0.00     0.198 A 
ATOM     85  F   UNL A   1      41.004  30.432  29.149  1.00  0.00    -0.203 F 
ATOM     86  F   UNL A   1      38.950  25.389  28.846  1.00  0.00    -0.200 F 
ATOM     87  C   UNL A   1      39.989  27.231  27.795  1.00  0.00     0.200 A 
ATOM     88  F   UNL A   1      41.046  29.091  26.798  1.00  0.00    -0.200 F 
ATOM     89  F   UNL A   1      40.046  26.557  26.638  1.00  0.00    -0.200 F 
ENDBRANCH  55  79
BRANCH  67  90
ATOM     90  C   UNL A   1      44.367  29.029  35.569  1.00  0.00     0.064 A 
ATOM     91  C   UNL A   1      45.602  29.605  35.243  1.00  0.00     0.173 A 
ATOM     92  C   UNL A   1      44.367  27.801  36.250  1.00  0.00     0.173 A 
ATOM     93  F   UNL A   1      45.649  30.770  34.580  1.00  0.00    -0.203 F 
ATOM     94  C   UNL A   1      46.794  28.969  35.579  1.00  0.00     0.198 A 
ATOM     95  C   UNL A   1      45.561  27.182  36.603  1.00  0.00     0.198 A 
ATOM     96  F   UNL A   1      43.209  27.216  36.588  1.00  0.00    -0.203 F 
ATOM     97  F   UNL A   1      47.965  29.522  35.233  1.00  0.00    -0.200 F 
ATOM     98  C   UNL A   1      46.774  27.764  36.265  1.00  0.00     0.200 A 
ATOM     99  F   UNL A   1      45.540  26.023  37.276  1.00  0.00    -0.200 F 
ATOM    100  F   UNL A   1      47.923  27.161  36.597  1.00  0.00    -0.200 F 
ENDBRANCH  67  90
ENDBRANCH  41  42
ENDBRANCH  34  36
ENDBRANCH  33  34
ENDBRANCH  32  33
ENDBRANCH  31  32
ENDBRANCH  30  31
ENDBRANCH  28  30
ENDBRANCH   1  28
TORSDOF 21
ENDMDL
