MODEL 1
REMARK VINA RESULT:     -12.7      0.000      0.000
REMARK SMILES Cc1cccc(CS(=O)(=O)c2ccc(C(=O)OCCOC(=O)c3ccc(-c4c5nc(c(-c6c(F)c(F)c(F)c(F)c6F)c6ccc([nH]6)c(-c6c(F)c(F)c(F)c(F)c6F)c6nc(c(-c7c(F)c(F)c(F)c(F)c7F)c7ccc4[nH]7)C=C6)C=C5)cc3)cc2F)n1
REMARK SMILES IDX 18 1 17 2 15 3 16 4 14 5 11 6 12 7 87 8 13 9 86 10 88 11
REMARK SMILES IDX 8 12 9 13 10 14 7 15 6 16 1 17 2 18 3 19 89 20 4 21 5 22
REMARK SMILES IDX 19 23 20 24 21 25 22 26 23 27 24 28 85 29 25 30 84 31 26 32
REMARK SMILES IDX 27 33 28 34 78 35 29 36 83 37 77 38 79 39 30 40 82 41 76 42
REMARK SMILES IDX 75 43 31 45 63 46 43 47 62 48 44 49 47 50 61 51 80 52 45 53
REMARK SMILES IDX 46 54 60 56 81 57 48 58 32 59 33 60 41 61 34 62 35 63 39 64
REMARK SMILES IDX 42 65 36 66 37 67 40 68 38 69 64 70 65 71 73 72 66 73 67 74
REMARK SMILES IDX 71 75 74 76 68 77 69 78 72 79 70 80 49 81 50 82 58 83 51 84
REMARK SMILES IDX 52 85 56 86 59 87 53 88 54 89 57 90 55 91
REMARK H PARENT 79 44 47 55
REMARK Flexibility Score: inf
ROOT
ATOM      1  C   UNL A   1      31.696  28.681  24.643  1.00  0.00     0.275 C 
ENDROOT
BRANCH   1   2
ATOM      2  O   UNL A   1      30.871  27.753  25.381  1.00  0.00    -0.458 OA
BRANCH   2   3
ATOM      3  C   UNL A   1      31.455  27.216  26.480  1.00  0.00     0.338 C 
ATOM      4  O   UNL A   1      31.419  27.665  27.612  1.00  0.00    -0.246 OA
BRANCH   3   5
ATOM      5  C   UNL A   1      32.075  25.901  26.179  1.00  0.00     0.063 A 
ATOM      6  C   UNL A   1      33.104  23.337  25.661  1.00  0.00     0.103 A 
ATOM      7  C   UNL A   1      31.749  23.502  25.953  1.00  0.00     0.024 A 
ATOM      8  C   UNL A   1      33.941  24.452  25.666  1.00  0.00     0.142 A 
ATOM      9  C   UNL A   1      31.241  24.775  26.207  1.00  0.00     0.017 A 
ATOM     10  C   UNL A   1      33.434  25.735  25.915  1.00  0.00     0.056 A 
ATOM     11  F   UNL A   1      35.261  24.346  25.476  1.00  0.00    -0.206 F 
BRANCH   6  12
ATOM     12  S   UNL A   1      33.754  21.690  25.494  1.00  0.00     0.186 S 
ATOM     13  O   UNL A   1      34.482  21.422  26.721  1.00  0.00    -0.223 OA
ATOM     14  O   UNL A   1      34.474  21.636  24.232  1.00  0.00    -0.223 OA
BRANCH  12  15
ATOM     15  C   UNL A   1      32.402  20.553  25.297  1.00  0.00     0.198 C 
BRANCH  15  16
ATOM     16  C   UNL A   1      32.740  19.330  24.495  1.00  0.00     0.056 A 
ATOM     17  C   UNL A   1      34.854  16.347  24.968  1.00  0.00     0.067 C 
ATOM     18  C   UNL A   1      33.947  17.336  24.301  1.00  0.00     0.038 A 
ATOM     19  C   UNL A   1      33.493  17.134  23.005  1.00  0.00     0.023 A 
ATOM     20  N   UNL A   1      33.587  18.422  25.032  1.00  0.00    -0.257 NA
ATOM     21  C   UNL A   1      32.648  18.082  22.443  1.00  0.00     0.004 A 
ATOM     22  C   UNL A   1      32.268  19.194  23.191  1.00  0.00     0.025 A 
ENDBRANCH  15  16
ENDBRANCH  12  15
ENDBRANCH   6  12
ENDBRANCH   3   5
ENDBRANCH   2   3
ENDBRANCH   1   2
BRANCH   1  23
ATOM     23  C   UNL A   1      31.762  30.035  25.350  1.00  0.00     0.275 C 
BRANCH  23  24
ATOM     24  O   UNL A   1      33.091  30.266  25.852  1.00  0.00    -0.458 OA
BRANCH  24  25
ATOM     25  C   UNL A   1      33.209  31.211  26.812  1.00  0.00     0.338 C 
ATOM     26  O   UNL A   1      32.467  32.154  27.032  1.00  0.00    -0.246 OA
BRANCH  25  27
ATOM     27  C   UNL A   1      34.408  30.938  27.621  1.00  0.00     0.060 A 
ATOM     28  C   UNL A   1      35.265  31.986  27.946  1.00  0.00     0.016 A 
ATOM     29  C   UNL A   1      34.739  29.631  27.974  1.00  0.00     0.016 A 
ATOM     30  C   UNL A   1      36.479  31.732  28.579  1.00  0.00     0.010 A 
ATOM     31  C   UNL A   1      35.913  29.388  28.697  1.00  0.00     0.010 A 
ATOM     32  C   UNL A   1      36.804  30.435  29.000  1.00  0.00    -0.014 A 
BRANCH  32  33
ATOM     33  C   UNL A   1      38.052  30.178  29.777  1.00  0.00     0.031 A 
ATOM     34  C   UNL A   1      39.144  29.312  29.213  1.00  0.00     0.074 A 
ATOM     35  C   UNL A   1      38.204  30.717  31.005  1.00  0.00     0.049 A 
ATOM     36  N   UNL A   1      40.205  28.827  29.808  1.00  0.00    -0.248 NA
ATOM     37  C   UNL A   1      39.032  28.937  27.795  1.00  0.00     0.031 C 
ATOM     38  C   UNL A   1      37.250  31.612  31.660  1.00  0.00     0.029 A 
ATOM     39  N   UNL A   1      39.218  30.589  31.925  1.00  0.00    -0.354 N 
ATOM     40  C   UNL A   1      40.857  28.052  28.858  1.00  0.00     0.074 A 
ATOM     41  C   UNL A   1      40.077  28.135  27.640  1.00  0.00     0.031 C 
ATOM     42  C   UNL A   1      37.737  31.983  32.852  1.00  0.00     0.029 A 
ATOM     43  C   UNL A   1      38.985  31.270  33.096  1.00  0.00     0.049 A 
ATOM     44  H   UNL A   1      40.032  30.060  31.761  1.00  0.00     0.167 HD
ATOM     45  C   UNL A   1      41.999  27.336  28.994  1.00  0.00     0.037 A 
ATOM     46  C   UNL A   1      39.661  31.281  34.261  1.00  0.00     0.037 A 
ATOM     47  C   UNL A   1      42.792  27.290  30.195  1.00  0.00     0.049 A 
ATOM     48  C   UNL A   1      40.879  30.417  34.413  1.00  0.00     0.074 A 
ATOM     49  C   UNL A   1      43.987  26.624  30.410  1.00  0.00     0.029 A 
ATOM     50  N   UNL A   1      42.477  27.937  31.379  1.00  0.00    -0.354 N 
ATOM     51  N   UNL A   1      41.463  29.656  33.522  1.00  0.00    -0.248 NA
ATOM     52  C   UNL A   1      41.511  30.383  35.740  1.00  0.00     0.031 C 
ATOM     53  C   UNL A   1      44.370  26.830  31.738  1.00  0.00     0.029 A 
ATOM     54  C   UNL A   1      43.439  27.662  32.338  1.00  0.00     0.049 A 
ATOM     55  H   UNL A   1      41.686  28.507  31.519  1.00  0.00     0.167 HD
ATOM     56  C   UNL A   1      42.525  29.050  34.176  1.00  0.00     0.074 A 
ATOM     57  C   UNL A   1      42.522  29.549  35.535  1.00  0.00     0.031 C 
ATOM     58  C   UNL A   1      43.417  28.154  33.691  1.00  0.00     0.037 A 
BRANCH  45  59
ATOM     59  C   UNL A   1      42.465  26.517  27.826  1.00  0.00     0.064 A 
ATOM     60  C   UNL A   1      43.366  27.064  26.897  1.00  0.00     0.173 A 
ATOM     61  C   UNL A   1      41.958  25.236  27.572  1.00  0.00     0.173 A 
ATOM     62  F   UNL A   1      43.875  28.289  27.091  1.00  0.00    -0.203 F 
ATOM     63  C   UNL A   1      43.726  26.363  25.749  1.00  0.00     0.198 A 
ATOM     64  C   UNL A   1      42.339  24.528  26.435  1.00  0.00     0.198 A 
ATOM     65  F   UNL A   1      41.104  24.666  28.436  1.00  0.00    -0.203 F 
ATOM     66  F   UNL A   1      44.561  26.919  24.861  1.00  0.00    -0.200 F 
ATOM     67  C   UNL A   1      43.214  25.095  25.519  1.00  0.00     0.200 A 
ATOM     68  F   UNL A   1      41.859  23.295  26.224  1.00  0.00    -0.200 F 
ATOM     69  F   UNL A   1      43.564  24.419  24.416  1.00  0.00    -0.200 F 
ENDBRANCH  45  59
BRANCH  46  70
ATOM     70  C   UNL A   1      39.154  32.103  35.391  1.00  0.00     0.064 A 
ATOM     71  C   UNL A   1      39.483  33.462  35.509  1.00  0.00     0.173 A 
ATOM     72  C   UNL A   1      38.370  31.531  36.402  1.00  0.00     0.173 A 
ATOM     73  F   UNL A   1      40.228  34.058  34.566  1.00  0.00    -0.203 F 
ATOM     74  C   UNL A   1      39.083  34.208  36.616  1.00  0.00     0.198 A 
ATOM     75  C   UNL A   1      37.945  32.285  37.494  1.00  0.00     0.198 A 
ATOM     76  F   UNL A   1      38.007  30.243  36.318  1.00  0.00    -0.203 F 
ATOM     77  F   UNL A   1      39.455  35.490  36.728  1.00  0.00    -0.200 F 
ATOM     78  C   UNL A   1      38.313  33.618  37.607  1.00  0.00     0.200 A 
ATOM     79  F   UNL A   1      37.180  31.720  38.438  1.00  0.00    -0.200 F 
ATOM     80  F   UNL A   1      37.925  34.335  38.671  1.00  0.00    -0.200 F 
ENDBRANCH  46  70
BRANCH  58  81
ATOM     81  C   UNL A   1      44.468  27.642  34.630  1.00  0.00     0.064 A 
ATOM     82  C   UNL A   1      45.722  28.265  34.707  1.00  0.00     0.173 A 
ATOM     83  C   UNL A   1      44.259  26.480  35.386  1.00  0.00     0.173 A 
ATOM     84  F   UNL A   1      45.968  29.376  33.996  1.00  0.00    -0.203 F 
ATOM     85  C   UNL A   1      46.738  27.730  35.493  1.00  0.00     0.198 A 
ATOM     86  C   UNL A   1      45.271  25.961  36.190  1.00  0.00     0.198 A 
ATOM     87  F   UNL A   1      43.071  25.859  35.356  1.00  0.00    -0.203 F 
ATOM     88  F   UNL A   1      47.941  28.322  35.525  1.00  0.00    -0.200 F 
ATOM     89  C   UNL A   1      46.512  26.580  36.234  1.00  0.00     0.200 A 
ATOM     90  F   UNL A   1      45.046  24.860  36.919  1.00  0.00    -0.200 F 
ATOM     91  F   UNL A   1      47.492  26.067  36.990  1.00  0.00    -0.200 F 
ENDBRANCH  58  81
ENDBRANCH  32  33
ENDBRANCH  25  27
ENDBRANCH  24  25
ENDBRANCH  23  24
ENDBRANCH   1  23
TORSDOF 14
ENDMDL
MODEL 2
REMARK VINA RESULT:     -12.6      1.844      2.823
REMARK SMILES Cc1cccc(CS(=O)(=O)c2ccc(C(=O)OCCOC(=O)c3ccc(-c4c5nc(c(-c6c(F)c(F)c(F)c(F)c6F)c6ccc([nH]6)c(-c6c(F)c(F)c(F)c(F)c6F)c6nc(c(-c7c(F)c(F)c(F)c(F)c7F)c7ccc4[nH]7)C=C6)C=C5)cc3)cc2F)n1
REMARK SMILES IDX 18 1 17 2 15 3 16 4 14 5 11 6 12 7 87 8 13 9 86 10 88 11
REMARK SMILES IDX 8 12 9 13 10 14 7 15 6 16 1 17 2 18 3 19 89 20 4 21 5 22
REMARK SMILES IDX 19 23 20 24 21 25 22 26 23 27 24 28 85 29 25 30 84 31 26 32
REMARK SMILES IDX 27 33 28 34 78 35 29 36 83 37 77 38 79 39 30 40 82 41 76 42
REMARK SMILES IDX 75 43 31 45 63 46 43 47 62 48 44 49 47 50 61 51 80 52 45 53
REMARK SMILES IDX 46 54 60 56 81 57 48 58 32 59 33 60 41 61 34 62 35 63 39 64
REMARK SMILES IDX 42 65 36 66 37 67 40 68 38 69 64 70 65 71 73 72 66 73 67 74
REMARK SMILES IDX 71 75 74 76 68 77 69 78 72 79 70 80 49 81 50 82 58 83 51 84
REMARK SMILES IDX 52 85 56 86 59 87 53 88 54 89 57 90 55 91
REMARK H PARENT 79 44 47 55
REMARK Flexibility Score: inf
ROOT
ATOM      1  C   UNL A   1      31.581  29.236  24.501  1.00  0.00     0.275 C 
ENDROOT
BRANCH   1   2
ATOM      2  O   UNL A   1      31.815  27.851  24.162  1.00  0.00    -0.458 OA
BRANCH   2   3
ATOM      3  C   UNL A   1      33.042  27.586  23.650  1.00  0.00     0.338 C 
ATOM      4  O   UNL A   1      33.785  28.381  23.101  1.00  0.00    -0.246 OA
BRANCH   3   5
ATOM      5  C   UNL A   1      33.464  26.192  23.941  1.00  0.00     0.063 A 
ATOM      6  C   UNL A   1      34.295  23.603  24.652  1.00  0.00     0.103 A 
ATOM      7  C   UNL A   1      34.114  24.575  25.636  1.00  0.00     0.024 A 
ATOM      8  C   UNL A   1      34.095  23.944  23.314  1.00  0.00     0.142 A 
ATOM      9  C   UNL A   1      33.699  25.858  25.281  1.00  0.00     0.017 A 
ATOM     10  C   UNL A   1      33.671  25.230  22.953  1.00  0.00     0.056 A 
ATOM     11  F   UNL A   1      34.334  23.081  22.320  1.00  0.00    -0.206 F 
BRANCH   6  12
ATOM     12  S   UNL A   1      34.973  22.025  25.114  1.00  0.00     0.186 S 
ATOM     13  O   UNL A   1      34.081  21.027  24.553  1.00  0.00    -0.223 OA
ATOM     14  O   UNL A   1      35.175  22.048  26.554  1.00  0.00    -0.223 OA
BRANCH  12  15
ATOM     15  C   UNL A   1      36.605  21.875  24.427  1.00  0.00     0.198 C 
BRANCH  15  16
ATOM     16  C   UNL A   1      37.692  22.440  25.294  1.00  0.00     0.056 A 
ATOM     17  C   UNL A   1      40.630  21.105  27.077  1.00  0.00     0.067 C 
ATOM     18  C   UNL A   1      39.593  22.081  26.608  1.00  0.00     0.038 A 
ATOM     19  C   UNL A   1      39.630  23.411  27.000  1.00  0.00     0.023 A 
ATOM     20  N   UNL A   1      38.633  21.598  25.779  1.00  0.00    -0.257 NA
ATOM     21  C   UNL A   1      38.646  24.270  26.527  1.00  0.00     0.004 A 
ATOM     22  C   UNL A   1      37.664  23.782  25.668  1.00  0.00     0.025 A 
ENDBRANCH  15  16
ENDBRANCH  12  15
ENDBRANCH   6  12
ENDBRANCH   3   5
ENDBRANCH   2   3
ENDBRANCH   1   2
BRANCH   1  23
ATOM     23  C   UNL A   1      31.970  29.515  25.953  1.00  0.00     0.275 C 
BRANCH  23  24
ATOM     24  O   UNL A   1      33.271  30.131  26.006  1.00  0.00    -0.458 OA
BRANCH  24  25
ATOM     25  C   UNL A   1      33.429  31.108  26.928  1.00  0.00     0.338 C 
ATOM     26  O   UNL A   1      32.665  32.021  27.193  1.00  0.00    -0.246 OA
BRANCH  25  27
ATOM     27  C   UNL A   1      34.709  30.913  27.629  1.00  0.00     0.060 A 
ATOM     28  C   UNL A   1      35.026  29.655  28.132  1.00  0.00     0.016 A 
ATOM     29  C   UNL A   1      35.551  31.996  27.876  1.00  0.00     0.016 A 
ATOM     30  C   UNL A   1      36.156  29.478  28.928  1.00  0.00     0.010 A 
ATOM     31  C   UNL A   1      36.738  31.797  28.591  1.00  0.00     0.010 A 
ATOM     32  C   UNL A   1      37.050  30.537  29.136  1.00  0.00    -0.014 A 
BRANCH  32  33
ATOM     33  C   UNL A   1      38.318  30.324  29.893  1.00  0.00     0.031 A 
ATOM     34  C   UNL A   1      39.447  29.530  29.294  1.00  0.00     0.074 A 
ATOM     35  C   UNL A   1      38.457  30.835  31.133  1.00  0.00     0.049 A 
ATOM     36  N   UNL A   1      40.538  29.084  29.863  1.00  0.00    -0.248 NA
ATOM     37  C   UNL A   1      39.337  29.189  27.866  1.00  0.00     0.031 C 
ATOM     38  C   UNL A   1      37.466  31.662  31.823  1.00  0.00     0.029 A 
ATOM     39  N   UNL A   1      39.487  30.734  32.039  1.00  0.00    -0.354 N 
ATOM     40  C   UNL A   1      41.217  28.370  28.885  1.00  0.00     0.074 A 
ATOM     41  C   UNL A   1      40.420  28.447  27.678  1.00  0.00     0.031 C 
ATOM     42  C   UNL A   1      37.948  32.024  33.021  1.00  0.00     0.029 A 
ATOM     43  C   UNL A   1      39.234  31.370  33.231  1.00  0.00     0.049 A 
ATOM     44  H   UNL A   1      40.325  30.252  31.852  1.00  0.00     0.167 HD
ATOM     45  C   UNL A   1      42.396  27.710  28.989  1.00  0.00     0.037 A 
ATOM     46  C   UNL A   1      39.922  31.383  34.390  1.00  0.00     0.037 A 
ATOM     47  C   UNL A   1      43.204  27.672  30.180  1.00  0.00     0.049 A 
ATOM     48  C   UNL A   1      41.184  30.579  34.505  1.00  0.00     0.074 A 
ATOM     49  C   UNL A   1      44.434  27.062  30.364  1.00  0.00     0.029 A 
ATOM     50  N   UNL A   1      42.870  28.269  31.385  1.00  0.00    -0.354 N 
ATOM     51  N   UNL A   1      41.795  29.874  33.586  1.00  0.00    -0.248 NA
ATOM     52  C   UNL A   1      41.832  30.541  35.824  1.00  0.00     0.031 C 
ATOM     53  C   UNL A   1      44.822  27.251  31.694  1.00  0.00     0.029 A 
ATOM     54  C   UNL A   1      43.856  28.017  32.326  1.00  0.00     0.049 A 
ATOM     55  H   UNL A   1      42.054  28.794  31.549  1.00  0.00     0.167 HD
ATOM     56  C   UNL A   1      42.895  29.306  34.212  1.00  0.00     0.074 A 
ATOM     57  C   UNL A   1      42.883  29.766  35.585  1.00  0.00     0.031 C 
ATOM     58  C   UNL A   1      43.825  28.469  33.693  1.00  0.00     0.037 A 
BRANCH  45  59
ATOM     59  C   UNL A   1      42.889  26.949  27.794  1.00  0.00     0.064 A 
ATOM     60  C   UNL A   1      42.648  25.569  27.689  1.00  0.00     0.173 A 
ATOM     61  C   UNL A   1      43.674  27.555  26.804  1.00  0.00     0.173 A 
ATOM     62  F   UNL A   1      41.909  24.940  28.614  1.00  0.00    -0.203 F 
ATOM     63  C   UNL A   1      43.191  24.823  26.646  1.00  0.00     0.198 A 
ATOM     64  C   UNL A   1      44.195  26.811  25.749  1.00  0.00     0.198 A 
ATOM     65  F   UNL A   1      43.922  28.873  26.853  1.00  0.00    -0.203 F 
ATOM     66  F   UNL A   1      42.975  23.502  26.585  1.00  0.00    -0.200 F 
ATOM     67  C   UNL A   1      43.962  25.444  25.676  1.00  0.00     0.200 A 
ATOM     68  F   UNL A   1      44.924  27.415  24.801  1.00  0.00    -0.200 F 
ATOM     69  F   UNL A   1      44.481  24.727  24.669  1.00  0.00    -0.200 F 
ENDBRANCH  45  59
BRANCH  46  70
ATOM     70  C   UNL A   1      39.387  32.147  35.547  1.00  0.00     0.064 A 
ATOM     71  C   UNL A   1      39.787  33.469  35.797  1.00  0.00     0.173 A 
ATOM     72  C   UNL A   1      38.502  31.550  36.455  1.00  0.00     0.173 A 
ATOM     73  F   UNL A   1      40.631  34.085  34.956  1.00  0.00    -0.203 F 
ATOM     74  C   UNL A   1      39.356  34.151  36.932  1.00  0.00     0.198 A 
ATOM     75  C   UNL A   1      38.047  32.244  37.574  1.00  0.00     0.198 A 
ATOM     76  F   UNL A   1      38.069  30.299  36.243  1.00  0.00    -0.203 F 
ATOM     77  F   UNL A   1      39.796  35.393  37.173  1.00  0.00    -0.200 F 
ATOM     78  C   UNL A   1      38.484  33.537  37.820  1.00  0.00     0.200 A 
ATOM     79  F   UNL A   1      37.185  31.658  38.418  1.00  0.00    -0.200 F 
ATOM     80  F   UNL A   1      38.067  34.194  38.911  1.00  0.00    -0.200 F 
ENDBRANCH  46  70
BRANCH  58  81
ATOM     81  C   UNL A   1      44.912  27.986  34.606  1.00  0.00     0.064 A 
ATOM     82  C   UNL A   1      46.114  28.699  34.725  1.00  0.00     0.173 A 
ATOM     83  C   UNL A   1      44.793  26.770  35.292  1.00  0.00     0.173 A 
ATOM     84  F   UNL A   1      46.274  29.865  34.081  1.00  0.00    -0.203 F 
ATOM     85  C   UNL A   1      47.168  28.199  35.485  1.00  0.00     0.198 A 
ATOM     86  C   UNL A   1      45.841  26.284  36.070  1.00  0.00     0.198 A 
ATOM     87  F   UNL A   1      43.656  26.062  35.220  1.00  0.00    -0.203 F 
ATOM     88  F   UNL A   1      48.321  28.879  35.557  1.00  0.00    -0.200 F 
ATOM     89  C   UNL A   1      47.031  26.993  36.156  1.00  0.00     0.200 A 
ATOM     90  F   UNL A   1      45.702  25.129  36.734  1.00  0.00    -0.200 F 
ATOM     91  F   UNL A   1      48.046  26.515  36.887  1.00  0.00    -0.200 F 
ENDBRANCH  58  81
ENDBRANCH  32  33
ENDBRANCH  25  27
ENDBRANCH  24  25
ENDBRANCH  23  24
ENDBRANCH   1  23
TORSDOF 14
ENDMDL
MODEL 3
REMARK VINA RESULT:     -12.5      4.519     10.046
REMARK SMILES Cc1cccc(CS(=O)(=O)c2ccc(C(=O)OCCOC(=O)c3ccc(-c4c5nc(c(-c6c(F)c(F)c(F)c(F)c6F)c6ccc([nH]6)c(-c6c(F)c(F)c(F)c(F)c6F)c6nc(c(-c7c(F)c(F)c(F)c(F)c7F)c7ccc4[nH]7)C=C6)C=C5)cc3)cc2F)n1
REMARK SMILES IDX 18 1 17 2 15 3 16 4 14 5 11 6 12 7 87 8 13 9 86 10 88 11
REMARK SMILES IDX 8 12 9 13 10 14 7 15 6 16 1 17 2 18 3 19 89 20 4 21 5 22
REMARK SMILES IDX 19 23 20 24 21 25 22 26 23 27 24 28 85 29 25 30 84 31 26 32
REMARK SMILES IDX 27 33 28 34 78 35 29 36 83 37 77 38 79 39 30 40 82 41 76 42
REMARK SMILES IDX 75 43 31 45 63 46 43 47 62 48 44 49 47 50 61 51 80 52 45 53
REMARK SMILES IDX 46 54 60 56 81 57 48 58 32 59 33 60 41 61 34 62 35 63 39 64
REMARK SMILES IDX 42 65 36 66 37 67 40 68 38 69 64 70 65 71 73 72 66 73 67 74
REMARK SMILES IDX 71 75 74 76 68 77 69 78 72 79 70 80 49 81 50 82 58 83 51 84
REMARK SMILES IDX 52 85 56 86 59 87 53 88 54 89 57 90 55 91
REMARK H PARENT 79 44 47 55
REMARK Flexibility Score: inf
ROOT
ATOM      1  C   UNL A   1      34.842  20.772  25.624  1.00  0.00     0.275 C 
ENDROOT
BRANCH   1   2
ATOM      2  O   UNL A   1      33.877  20.340  24.640  1.00  0.00    -0.458 OA
BRANCH   2   3
ATOM      3  C   UNL A   1      32.673  20.961  24.706  1.00  0.00     0.338 C 
ATOM      4  O   UNL A   1      31.708  20.600  25.356  1.00  0.00    -0.246 OA
BRANCH   3   5
ATOM      5  C   UNL A   1      32.684  22.249  23.967  1.00  0.00     0.063 A 
ATOM      6  C   UNL A   1      32.619  24.756  22.699  1.00  0.00     0.103 A 
ATOM      7  C   UNL A   1      32.241  24.638  24.037  1.00  0.00     0.024 A 
ATOM      8  C   UNL A   1      32.992  23.611  21.994  1.00  0.00     0.142 A 
ATOM      9  C   UNL A   1      32.276  23.394  24.664  1.00  0.00     0.017 A 
ATOM     10  C   UNL A   1      33.035  22.360  22.622  1.00  0.00     0.056 A 
ATOM     11  F   UNL A   1      33.284  23.648  20.689  1.00  0.00    -0.206 F 
BRANCH   6  12
ATOM     12  S   UNL A   1      32.417  26.323  21.882  1.00  0.00     0.186 S 
ATOM     13  O   UNL A   1      31.385  26.122  20.882  1.00  0.00    -0.223 OA
ATOM     14  O   UNL A   1      33.735  26.754  21.445  1.00  0.00    -0.223 OA
BRANCH  12  15
ATOM     15  C   UNL A   1      31.913  27.536  23.078  1.00  0.00     0.198 C 
BRANCH  15  16
ATOM     16  C   UNL A   1      30.489  27.989  22.933  1.00  0.00     0.056 A 
ATOM     17  C   UNL A   1      28.753  30.806  21.306  1.00  0.00     0.067 C 
ATOM     18  C   UNL A   1      28.967  29.574  22.133  1.00  0.00     0.038 A 
ATOM     19  C   UNL A   1      27.903  28.932  22.752  1.00  0.00     0.023 A 
ATOM     20  N   UNL A   1      30.242  29.119  22.231  1.00  0.00    -0.257 NA
ATOM     21  C   UNL A   1      28.162  27.790  23.499  1.00  0.00     0.004 A 
ATOM     22  C   UNL A   1      29.467  27.313  23.595  1.00  0.00     0.025 A 
ENDBRANCH  15  16
ENDBRANCH  12  15
ENDBRANCH   6  12
ENDBRANCH   3   5
ENDBRANCH   2   3
ENDBRANCH   1   2
BRANCH   1  23
ATOM     23  C   UNL A   1      36.247  20.827  25.023  1.00  0.00     0.275 C 
BRANCH  23  24
ATOM     24  O   UNL A   1      37.058  21.772  25.746  1.00  0.00    -0.458 OA
BRANCH  24  25
ATOM     25  C   UNL A   1      38.357  21.436  25.914  1.00  0.00     0.338 C 
ATOM     26  O   UNL A   1      38.887  20.358  25.702  1.00  0.00    -0.246 OA
BRANCH  25  27
ATOM     27  C   UNL A   1      39.105  22.608  26.398  1.00  0.00     0.060 A 
ATOM     28  C   UNL A   1      38.676  23.884  26.045  1.00  0.00     0.016 A 
ATOM     29  C   UNL A   1      40.287  22.443  27.118  1.00  0.00     0.016 A 
ATOM     30  C   UNL A   1      39.448  24.999  26.361  1.00  0.00     0.010 A 
ATOM     31  C   UNL A   1      41.010  23.572  27.523  1.00  0.00     0.010 A 
ATOM     32  C   UNL A   1      40.606  24.865  27.140  1.00  0.00    -0.014 A 
BRANCH  32  33
ATOM     33  C   UNL A   1      41.373  26.067  27.576  1.00  0.00     0.031 A 
ATOM     34  C   UNL A   1      40.729  27.118  28.438  1.00  0.00     0.074 A 
ATOM     35  C   UNL A   1      42.655  26.226  27.188  1.00  0.00     0.049 A 
ATOM     36  N   UNL A   1      41.170  28.309  28.759  1.00  0.00    -0.248 NA
ATOM     37  C   UNL A   1      39.416  26.793  29.017  1.00  0.00     0.031 C 
ATOM     38  C   UNL A   1      43.422  25.269  26.390  1.00  0.00     0.029 A 
ATOM     39  N   UNL A   1      43.542  27.254  27.409  1.00  0.00    -0.354 N 
ATOM     40  C   UNL A   1      40.173  28.892  29.529  1.00  0.00     0.074 A 
ATOM     41  C   UNL A   1      39.103  27.923  29.637  1.00  0.00     0.031 C 
ATOM     42  C   UNL A   1      44.669  25.732  26.221  1.00  0.00     0.029 A 
ATOM     43  C   UNL A   1      44.762  27.065  26.805  1.00  0.00     0.049 A 
ATOM     44  H   UNL A   1      43.324  28.049  27.947  1.00  0.00     0.167 HD
ATOM     45  C   UNL A   1      40.155  30.125  30.090  1.00  0.00     0.037 A 
ATOM     46  C   UNL A   1      45.822  27.887  26.677  1.00  0.00     0.037 A 
ATOM     47  C   UNL A   1      41.240  31.070  30.014  1.00  0.00     0.049 A 
ATOM     48  C   UNL A   1      45.747  29.277  27.238  1.00  0.00     0.074 A 
ATOM     49  C   UNL A   1      41.326  32.328  30.587  1.00  0.00     0.029 A 
ATOM     50  N   UNL A   1      42.426  30.862  29.328  1.00  0.00    -0.354 N 
ATOM     51  N   UNL A   1      44.783  29.833  27.929  1.00  0.00    -0.248 NA
ATOM     52  C   UNL A   1      46.888  30.166  26.973  1.00  0.00     0.031 C 
ATOM     53  C   UNL A   1      42.544  32.899  30.210  1.00  0.00     0.029 A 
ATOM     54  C   UNL A   1      43.237  31.981  29.439  1.00  0.00     0.049 A 
ATOM     55  H   UNL A   1      42.658  30.043  28.835  1.00  0.00     0.167 HD
ATOM     56  C   UNL A   1      45.195  31.133  28.178  1.00  0.00     0.074 A 
ATOM     57  C   UNL A   1      46.508  31.280  27.585  1.00  0.00     0.031 C 
ATOM     58  C   UNL A   1      44.536  32.119  28.832  1.00  0.00     0.037 A 
BRANCH  45  59
ATOM     59  C   UNL A   1      38.919  30.551  30.825  1.00  0.00     0.064 A 
ATOM     60  C   UNL A   1      37.881  31.205  30.140  1.00  0.00     0.173 A 
ATOM     61  C   UNL A   1      38.795  30.401  32.213  1.00  0.00     0.173 A 
ATOM     62  F   UNL A   1      37.955  31.380  28.812  1.00  0.00    -0.203 F 
ATOM     63  C   UNL A   1      36.775  31.706  30.821  1.00  0.00     0.198 A 
ATOM     64  C   UNL A   1      37.676  30.881  32.888  1.00  0.00     0.198 A 
ATOM     65  F   UNL A   1      39.754  29.772  32.911  1.00  0.00    -0.203 F 
ATOM     66  F   UNL A   1      35.814  32.355  30.150  1.00  0.00    -0.200 F 
ATOM     67  C   UNL A   1      36.672  31.543  32.194  1.00  0.00     0.200 A 
ATOM     68  F   UNL A   1      37.568  30.706  34.212  1.00  0.00    -0.200 F 
ATOM     69  F   UNL A   1      35.605  32.022  32.849  1.00  0.00    -0.200 F 
ENDBRANCH  45  59
BRANCH  46  70
ATOM     70  C   UNL A   1      47.022  27.421  25.933  1.00  0.00     0.064 A 
ATOM     71  C   UNL A   1      48.092  26.796  26.592  1.00  0.00     0.173 A 
ATOM     72  C   UNL A   1      47.141  27.636  24.554  1.00  0.00     0.173 A 
ATOM     73  F   UNL A   1      48.025  26.565  27.912  1.00  0.00    -0.203 F 
ATOM     74  C   UNL A   1      49.253  26.443  25.908  1.00  0.00     0.198 A 
ATOM     75  C   UNL A   1      48.290  27.255  23.865  1.00  0.00     0.198 A 
ATOM     76  F   UNL A   1      46.132  28.203  23.876  1.00  0.00    -0.203 F 
ATOM     77  F   UNL A   1      50.280  25.897  26.572  1.00  0.00    -0.200 F 
ATOM     78  C   UNL A   1      49.350  26.672  24.543  1.00  0.00     0.200 A 
ATOM     79  F   UNL A   1      48.372  27.454  22.542  1.00  0.00    -0.200 F 
ATOM     80  F   UNL A   1      50.465  26.330  23.884  1.00  0.00    -0.200 F 
ENDBRANCH  46  70
BRANCH  58  81
ATOM     81  C   UNL A   1      45.213  33.452  28.946  1.00  0.00     0.064 A 
ATOM     82  C   UNL A   1      45.011  34.441  27.972  1.00  0.00     0.173 A 
ATOM     83  C   UNL A   1      46.130  33.713  29.973  1.00  0.00     0.173 A 
ATOM     84  F   UNL A   1      44.147  34.232  26.968  1.00  0.00    -0.203 F 
ATOM     85  C   UNL A   1      45.720  35.638  28.012  1.00  0.00     0.198 A 
ATOM     86  C   UNL A   1      46.821  34.921  30.023  1.00  0.00     0.198 A 
ATOM     87  F   UNL A   1      46.345  32.802  30.934  1.00  0.00    -0.203 F 
ATOM     88  F   UNL A   1      45.537  36.556  27.052  1.00  0.00    -0.200 F 
ATOM     89  C   UNL A   1      46.624  35.877  29.037  1.00  0.00     0.200 A 
ATOM     90  F   UNL A   1      47.680  35.159  31.023  1.00  0.00    -0.200 F 
ATOM     91  F   UNL A   1      47.305  37.030  29.074  1.00  0.00    -0.200 F 
ENDBRANCH  58  81
ENDBRANCH  32  33
ENDBRANCH  25  27
ENDBRANCH  24  25
ENDBRANCH  23  24
ENDBRANCH   1  23
TORSDOF 14
ENDMDL
