MODEL 1
REMARK VINA RESULT:     -11.6      0.000      0.000
REMARK SMILES CC(C)C[NH+]1CC[NH+]([C@@H]2CC[C@]([NH3+])(C(=O)OCCOC(=O)c3ccc(-c4c5nc(c(-c6c(F)c(F)c(F)c(F)c6F)c6ccc([nH]6)c(-c6c(F)c(F)c(F)c(F)c6F)c6nc(c(-c7c(F)c(F)c(F)c(F)c7F)c7ccc4[nH]7)C=C6)C=C5)cc3)C2)CC1
REMARK SMILES IDX 17 1 16 2 14 3 15 4 12 5 9 6 10 7 85 8 11 9 8 10 5 11 6 12
REMARK SMILES IDX 87 13 7 15 86 16 4 18 2 19 1 20 3 21 13 22 18 26 19 27 20 28
REMARK SMILES IDX 21 29 22 30 23 31 84 32 24 33 83 34 25 35 26 36 27 37 77 38
REMARK SMILES IDX 28 39 82 40 76 41 78 42 29 43 81 44 75 45 74 46 30 48 62 49
REMARK SMILES IDX 42 50 61 51 43 52 46 53 60 54 79 55 44 56 45 57 59 59 80 60
REMARK SMILES IDX 47 61 31 62 32 63 40 64 33 65 34 66 38 67 41 68 35 69 36 70
REMARK SMILES IDX 39 71 37 72 63 73 64 74 72 75 65 76 66 77 70 78 73 79 67 80
REMARK SMILES IDX 68 81 71 82 69 83 48 84 49 85 57 86 50 87 51 88 55 89 58 90
REMARK SMILES IDX 52 91 53 92 56 93 54 94
REMARK H PARENT 5 14 8 17 13 23 13 24 13 25 78 47 46 58
REMARK Flexibility Score: inf
ROOT
ATOM      1  C   UNL A   1      31.219  29.663  24.426  1.00  0.00     0.274 C 
ENDROOT
BRANCH   1   2
ATOM      2  O   UNL A   1      31.038  28.240  24.555  1.00  0.00    -0.457 OA
BRANCH   2   3
ATOM      3  C   UNL A   1      30.276  27.650  23.581  1.00  0.00     0.368 C 
ATOM      4  O   UNL A   1      29.928  28.195  22.541  1.00  0.00    -0.245 OA
BRANCH   3   5
ATOM      5  C   UNL A   1      29.874  26.217  24.000  1.00  0.00     0.198 C 
ATOM      6  C   UNL A   1      30.876  24.397  25.361  1.00  0.00     0.191 C 
ATOM      7  C   UNL A   1      30.755  23.966  23.892  1.00  0.00     0.072 C 
ATOM      8  C   UNL A   1      30.360  25.852  25.415  1.00  0.00     0.145 C 
ATOM      9  C   UNL A   1      30.607  25.240  23.084  1.00  0.00     0.087 C 
BRANCH   6  10
ATOM     10  N   UNL A   1      32.133  24.171  26.085  1.00  0.00    -0.323 N 
ATOM     11  N   UNL A   1      34.865  23.956  24.775  1.00  0.00    -0.325 N 
ATOM     12  C   UNL A   1      33.892  22.834  24.738  1.00  0.00     0.324 C 
ATOM     13  C   UNL A   1      34.104  25.207  24.891  1.00  0.00     0.324 C 
ATOM     14  H   UNL A   1      35.413  24.021  23.917  1.00  0.00     0.348 HD
ATOM     15  C   UNL A   1      32.771  22.865  25.817  1.00  0.00     0.324 C 
ATOM     16  C   UNL A   1      33.139  25.243  26.086  1.00  0.00     0.324 C 
ATOM     17  H   UNL A   1      31.766  24.173  27.036  1.00  0.00     0.348 HD
BRANCH  11  18
ATOM     18  C   UNL A   1      35.864  23.728  25.835  1.00  0.00     0.265 C 
BRANCH  18  19
ATOM     19  C   UNL A   1      37.342  23.536  25.395  1.00  0.00     0.038 C 
ATOM     20  C   UNL A   1      38.373  24.089  26.386  1.00  0.00     0.013 C 
ATOM     21  C   UNL A   1      37.612  22.035  25.217  1.00  0.00     0.013 C 
ENDBRANCH  18  19
ENDBRANCH  11  18
ENDBRANCH   6  10
BRANCH   5  22
ATOM     22  N   UNL A   1      28.404  26.044  23.949  1.00  0.00    -0.343 N 
ATOM     23  H   UNL A   1      27.996  26.342  24.836  1.00  0.00     0.345 HD
ATOM     24  H   UNL A   1      28.182  25.062  23.786  1.00  0.00     0.345 HD
ATOM     25  H   UNL A   1      28.020  26.609  23.192  1.00  0.00     0.345 HD
ENDBRANCH   5  22
ENDBRANCH   3   5
ENDBRANCH   2   3
ENDBRANCH   1   2
BRANCH   1  26
ATOM     26  C   UNL A   1      31.421  30.272  25.811  1.00  0.00     0.275 C 
BRANCH  26  27
ATOM     27  O   UNL A   1      32.830  30.441  26.042  1.00  0.00    -0.458 OA
BRANCH  27  28
ATOM     28  C   UNL A   1      33.167  31.396  26.939  1.00  0.00     0.338 C 
ATOM     29  O   UNL A   1      32.533  32.399  27.219  1.00  0.00    -0.246 OA
BRANCH  28  30
ATOM     30  C   UNL A   1      34.474  31.065  27.547  1.00  0.00     0.060 A 
ATOM     31  C   UNL A   1      34.808  29.744  27.845  1.00  0.00     0.016 A 
ATOM     32  C   UNL A   1      35.343  32.095  27.907  1.00  0.00     0.016 A 
ATOM     33  C   UNL A   1      35.972  29.449  28.556  1.00  0.00     0.010 A 
ATOM     34  C   UNL A   1      36.546  31.793  28.555  1.00  0.00     0.010 A 
ATOM     35  C   UNL A   1      36.859  30.470  28.921  1.00  0.00    -0.014 A 
BRANCH  35  36
ATOM     36  C   UNL A   1      38.063  30.177  29.747  1.00  0.00     0.031 A 
ATOM     37  C   UNL A   1      39.151  29.292  29.195  1.00  0.00     0.074 A 
ATOM     38  C   UNL A   1      38.201  30.697  30.983  1.00  0.00     0.049 A 
ATOM     39  N   UNL A   1      40.195  28.779  29.800  1.00  0.00    -0.248 NA
ATOM     40  C   UNL A   1      39.041  28.919  27.776  1.00  0.00     0.031 C 
ATOM     41  C   UNL A   1      37.253  31.599  31.637  1.00  0.00     0.029 A 
ATOM     42  N   UNL A   1      39.201  30.536  31.913  1.00  0.00    -0.354 N 
ATOM     43  C   UNL A   1      40.823  27.976  28.857  1.00  0.00     0.074 A 
ATOM     44  C   UNL A   1      40.049  28.070  27.638  1.00  0.00     0.031 C 
ATOM     45  C   UNL A   1      37.728  31.933  32.848  1.00  0.00     0.029 A 
ATOM     46  C   UNL A   1      38.979  31.218  33.084  1.00  0.00     0.049 A 
ATOM     47  H   UNL A   1      40.001  29.984  31.754  1.00  0.00     0.167 HD
ATOM     48  C   UNL A   1      41.943  27.228  28.995  1.00  0.00     0.037 A 
ATOM     49  C   UNL A   1      39.686  31.242  34.230  1.00  0.00     0.037 A 
ATOM     50  C   UNL A   1      42.764  27.192  30.176  1.00  0.00     0.049 A 
ATOM     51  C   UNL A   1      40.936  30.413  34.350  1.00  0.00     0.074 A 
ATOM     52  C   UNL A   1      43.941  26.495  30.390  1.00  0.00     0.029 A 
ATOM     53  N   UNL A   1      42.503  27.900  31.339  1.00  0.00    -0.354 N 
ATOM     54  N   UNL A   1      41.503  29.633  33.463  1.00  0.00    -0.248 NA
ATOM     55  C   UNL A   1      41.639  30.459  35.641  1.00  0.00     0.031 C 
ATOM     56  C   UNL A   1      44.380  26.762  31.691  1.00  0.00     0.029 A 
ATOM     57  C   UNL A   1      43.494  27.651  32.276  1.00  0.00     0.049 A 
ATOM     58  H   UNL A   1      41.729  28.492  31.479  1.00  0.00     0.167 HD
ATOM     59  C   UNL A   1      42.633  29.111  34.080  1.00  0.00     0.074 A 
ATOM     60  C   UNL A   1      42.686  29.679  35.410  1.00  0.00     0.031 C 
ATOM     61  C   UNL A   1      43.540  28.233  33.591  1.00  0.00     0.037 A 
BRANCH  48  62
ATOM     62  C   UNL A   1      42.344  26.357  27.841  1.00  0.00     0.064 A 
ATOM     63  C   UNL A   1      41.797  25.081  27.649  1.00  0.00     0.173 A 
ATOM     64  C   UNL A   1      43.253  26.836  26.885  1.00  0.00     0.173 A 
ATOM     65  F   UNL A   1      40.934  24.575  28.543  1.00  0.00    -0.203 F 
ATOM     66  C   UNL A   1      42.159  24.308  26.549  1.00  0.00     0.198 A 
ATOM     67  C   UNL A   1      43.594  26.070  25.774  1.00  0.00     0.198 A 
ATOM     68  F   UNL A   1      43.799  28.053  27.022  1.00  0.00    -0.203 F 
ATOM     69  F   UNL A   1      41.650  23.077  26.401  1.00  0.00    -0.200 F 
ATOM     70  C   UNL A   1      43.051  24.805  25.609  1.00  0.00     0.200 A 
ATOM     71  F   UNL A   1      44.446  26.557  24.862  1.00  0.00    -0.200 F 
ATOM     72  F   UNL A   1      43.388  24.064  24.545  1.00  0.00    -0.200 F 
ENDBRANCH  48  62
BRANCH  49  73
ATOM     73  C   UNL A   1      39.222  32.065  35.377  1.00  0.00     0.064 A 
ATOM     74  C   UNL A   1      39.598  33.411  35.497  1.00  0.00     0.173 A 
ATOM     75  C   UNL A   1      38.425  31.516  36.392  1.00  0.00     0.173 A 
ATOM     76  F   UNL A   1      40.386  33.970  34.568  1.00  0.00    -0.203 F 
ATOM     77  C   UNL A   1      39.210  34.169  36.599  1.00  0.00     0.198 A 
ATOM     78  C   UNL A   1      38.013  32.285  37.479  1.00  0.00     0.198 A 
ATOM     79  F   UNL A   1      38.043  30.232  36.327  1.00  0.00    -0.203 F 
ATOM     80  F   UNL A   1      39.627  35.437  36.716  1.00  0.00    -0.200 F 
ATOM     81  C   UNL A   1      38.414  33.607  37.586  1.00  0.00     0.200 A 
ATOM     82  F   UNL A   1      37.239  31.740  38.426  1.00  0.00    -0.200 F 
ATOM     83  F   UNL A   1      38.044  34.338  38.648  1.00  0.00    -0.200 F 
ENDBRANCH  49  73
BRANCH  61  84
ATOM     84  C   UNL A   1      44.684  27.862  34.487  1.00  0.00     0.064 A 
ATOM     85  C   UNL A   1      45.873  28.606  34.502  1.00  0.00     0.173 A 
ATOM     86  C   UNL A   1      44.584  26.760  35.349  1.00  0.00     0.173 A 
ATOM     87  F   UNL A   1      46.022  29.658  33.685  1.00  0.00    -0.203 F 
ATOM     88  C   UNL A   1      46.933  28.241  35.328  1.00  0.00     0.198 A 
ATOM     89  C   UNL A   1      45.636  26.413  36.191  1.00  0.00     0.198 A 
ATOM     90  F   UNL A   1      43.465  26.020  35.374  1.00  0.00    -0.203 F 
ATOM     91  F   UNL A   1      48.079  28.935  35.292  1.00  0.00    -0.200 F 
ATOM     92  C   UNL A   1      46.813  27.148  36.174  1.00  0.00     0.200 A 
ATOM     93  F   UNL A   1      45.516  25.362  37.013  1.00  0.00    -0.200 F 
ATOM     94  F   UNL A   1      47.835  26.796  36.966  1.00  0.00    -0.200 F 
ENDBRANCH  61  84
ENDBRANCH  35  36
ENDBRANCH  28  30
ENDBRANCH  27  28
ENDBRANCH  26  27
ENDBRANCH   1  26
TORSDOF 15
ENDMDL
MODEL 2
REMARK VINA RESULT:     -11.6      0.272      1.989
REMARK SMILES CC(C)C[NH+]1CC[NH+]([C@@H]2CC[C@]([NH3+])(C(=O)OCCOC(=O)c3ccc(-c4c5nc(c(-c6c(F)c(F)c(F)c(F)c6F)c6ccc([nH]6)c(-c6c(F)c(F)c(F)c(F)c6F)c6nc(c(-c7c(F)c(F)c(F)c(F)c7F)c7ccc4[nH]7)C=C6)C=C5)cc3)C2)CC1
REMARK SMILES IDX 17 1 16 2 14 3 15 4 12 5 9 6 10 7 85 8 11 9 8 10 5 11 6 12
REMARK SMILES IDX 87 13 7 15 86 16 4 18 2 19 1 20 3 21 13 22 18 26 19 27 20 28
REMARK SMILES IDX 21 29 22 30 23 31 84 32 24 33 83 34 25 35 26 36 27 37 77 38
REMARK SMILES IDX 28 39 82 40 76 41 78 42 29 43 81 44 75 45 74 46 30 48 62 49
REMARK SMILES IDX 42 50 61 51 43 52 46 53 60 54 79 55 44 56 45 57 59 59 80 60
REMARK SMILES IDX 47 61 31 62 32 63 40 64 33 65 34 66 38 67 41 68 35 69 36 70
REMARK SMILES IDX 39 71 37 72 63 73 64 74 72 75 65 76 66 77 70 78 73 79 67 80
REMARK SMILES IDX 68 81 71 82 69 83 48 84 49 85 57 86 50 87 51 88 55 89 58 90
REMARK SMILES IDX 52 91 53 92 56 93 54 94
REMARK H PARENT 5 14 8 17 13 23 13 24 13 25 78 47 46 58
REMARK Flexibility Score: inf
ROOT
ATOM      1  C   UNL A   1      31.263  29.578  24.618  1.00  0.00     0.274 C 
ENDROOT
BRANCH   1   2
ATOM      2  O   UNL A   1      31.150  28.142  24.675  1.00  0.00    -0.457 OA
BRANCH   2   3
ATOM      3  C   UNL A   1      30.405  27.569  23.679  1.00  0.00     0.368 C 
ATOM      4  O   UNL A   1      30.078  28.129  22.641  1.00  0.00    -0.245 OA
BRANCH   3   5
ATOM      5  C   UNL A   1      29.992  26.131  24.071  1.00  0.00     0.198 C 
ATOM      6  C   UNL A   1      30.973  24.283  25.411  1.00  0.00     0.191 C 
ATOM      7  C   UNL A   1      30.863  23.877  23.934  1.00  0.00     0.072 C 
ATOM      8  C   UNL A   1      30.463  25.740  25.484  1.00  0.00     0.145 C 
ATOM      9  C   UNL A   1      30.729  25.166  23.145  1.00  0.00     0.087 C 
BRANCH   6  10
ATOM     10  N   UNL A   1      32.222  24.039  26.142  1.00  0.00    -0.323 N 
ATOM     11  N   UNL A   1      34.947  23.706  24.843  1.00  0.00    -0.325 N 
ATOM     12  C   UNL A   1      33.941  22.614  24.835  1.00  0.00     0.324 C 
ATOM     13  C   UNL A   1      34.224  24.983  24.924  1.00  0.00     0.324 C 
ATOM     14  H   UNL A   1      35.498  23.732  23.984  1.00  0.00     0.348 HD
ATOM     15  C   UNL A   1      32.820  22.708  25.911  1.00  0.00     0.324 C 
ATOM     16  C   UNL A   1      33.259  25.080  26.116  1.00  0.00     0.324 C 
ATOM     17  H   UNL A   1      31.854  24.078  27.093  1.00  0.00     0.348 HD
BRANCH  11  18
ATOM     18  C   UNL A   1      35.938  23.478  25.910  1.00  0.00     0.265 C 
BRANCH  18  19
ATOM     19  C   UNL A   1      37.434  23.421  25.496  1.00  0.00     0.038 C 
ATOM     20  C   UNL A   1      38.376  24.196  26.424  1.00  0.00     0.013 C 
ATOM     21  C   UNL A   1      37.886  21.953  25.480  1.00  0.00     0.013 C 
ENDBRANCH  18  19
ENDBRANCH  11  18
ENDBRANCH   6  10
BRANCH   5  22
ATOM     22  N   UNL A   1      28.522  25.966  24.003  1.00  0.00    -0.343 N 
ATOM     23  H   UNL A   1      28.176  25.630  24.903  1.00  0.00     0.345 HD
ATOM     24  H   UNL A   1      28.288  25.290  23.277  1.00  0.00     0.345 HD
ATOM     25  H   UNL A   1      28.088  26.863  23.786  1.00  0.00     0.345 HD
ENDBRANCH   5  22
ENDBRANCH   3   5
ENDBRANCH   2   3
ENDBRANCH   1   2
BRANCH   1  26
ATOM     26  C   UNL A   1      31.584  30.113  26.012  1.00  0.00     0.275 C 
BRANCH  26  27
ATOM     27  O   UNL A   1      32.979  30.454  26.068  1.00  0.00    -0.458 OA
BRANCH  27  28
ATOM     28  C   UNL A   1      33.319  31.384  26.991  1.00  0.00     0.338 C 
ATOM     29  O   UNL A   1      32.680  32.372  27.309  1.00  0.00    -0.246 OA
BRANCH  28  30
ATOM     30  C   UNL A   1      34.635  31.044  27.574  1.00  0.00     0.060 A 
ATOM     31  C   UNL A   1      34.970  29.720  27.857  1.00  0.00     0.016 A 
ATOM     32  C   UNL A   1      35.513  32.069  27.926  1.00  0.00     0.016 A 
ATOM     33  C   UNL A   1      36.145  29.416  28.545  1.00  0.00     0.010 A 
ATOM     34  C   UNL A   1      36.727  31.759  28.551  1.00  0.00     0.010 A 
ATOM     35  C   UNL A   1      37.041  30.432  28.902  1.00  0.00    -0.014 A 
BRANCH  35  36
ATOM     36  C   UNL A   1      38.259  30.129  29.705  1.00  0.00     0.031 A 
ATOM     37  C   UNL A   1      39.327  29.231  29.134  1.00  0.00     0.074 A 
ATOM     38  C   UNL A   1      38.426  30.651  30.937  1.00  0.00     0.049 A 
ATOM     39  N   UNL A   1      40.377  28.710  29.720  1.00  0.00    -0.248 NA
ATOM     40  C   UNL A   1      39.185  28.856  27.719  1.00  0.00     0.031 C 
ATOM     41  C   UNL A   1      37.500  31.565  31.606  1.00  0.00     0.029 A 
ATOM     42  N   UNL A   1      39.442  30.483  31.847  1.00  0.00    -0.354 N 
ATOM     43  C   UNL A   1      40.979  27.898  28.767  1.00  0.00     0.074 A 
ATOM     44  C   UNL A   1      40.182  27.997  27.563  1.00  0.00     0.031 C 
ATOM     45  C   UNL A   1      38.002  31.896  32.807  1.00  0.00     0.029 A 
ATOM     46  C   UNL A   1      39.251  31.170  33.020  1.00  0.00     0.049 A 
ATOM     47  H   UNL A   1      40.234  29.922  31.674  1.00  0.00     0.167 HD
ATOM     48  C   UNL A   1      42.094  27.139  28.885  1.00  0.00     0.037 A 
ATOM     49  C   UNL A   1      39.980  31.190  34.152  1.00  0.00     0.037 A 
ATOM     50  C   UNL A   1      42.937  27.099  30.050  1.00  0.00     0.049 A 
ATOM     51  C   UNL A   1      41.224  30.349  34.250  1.00  0.00     0.074 A 
ATOM     52  C   UNL A   1      44.112  26.390  30.243  1.00  0.00     0.029 A 
ATOM     53  N   UNL A   1      42.707  27.812  31.216  1.00  0.00    -0.354 N 
ATOM     54  N   UNL A   1      41.766  29.561  33.353  1.00  0.00    -0.248 NA
ATOM     55  C   UNL A   1      41.953  30.391  35.527  1.00  0.00     0.031 C 
ATOM     56  C   UNL A   1      44.579  26.657  31.534  1.00  0.00     0.029 A 
ATOM     57  C   UNL A   1      43.713  27.556  32.133  1.00  0.00     0.049 A 
ATOM     58  H   UNL A   1      41.942  28.413  31.369  1.00  0.00     0.167 HD
ATOM     59  C   UNL A   1      42.902  29.030  33.950  1.00  0.00     0.074 A 
ATOM     60  C   UNL A   1      42.987  29.601  35.277  1.00  0.00     0.031 C 
ATOM     61  C   UNL A   1      43.791  28.141  33.445  1.00  0.00     0.037 A 
BRANCH  48  62
ATOM     62  C   UNL A   1      42.463  26.261  27.726  1.00  0.00     0.064 A 
ATOM     63  C   UNL A   1      43.426  26.642  26.783  1.00  0.00     0.173 A 
ATOM     64  C   UNL A   1      41.877  24.993  27.595  1.00  0.00     0.173 A 
ATOM     65  F   UNL A   1      44.006  27.851  26.859  1.00  0.00    -0.203 F 
ATOM     66  C   UNL A   1      43.777  25.792  25.737  1.00  0.00     0.198 A 
ATOM     67  C   UNL A   1      42.247  24.136  26.562  1.00  0.00     0.198 A 
ATOM     68  F   UNL A   1      40.953  24.581  28.477  1.00  0.00    -0.203 F 
ATOM     69  F   UNL A   1      44.675  26.189  24.826  1.00  0.00    -0.200 F 
ATOM     70  C   UNL A   1      43.192  24.538  25.632  1.00  0.00     0.200 A 
ATOM     71  F   UNL A   1      41.690  22.921  26.469  1.00  0.00    -0.200 F 
ATOM     72  F   UNL A   1      43.540  23.717  24.631  1.00  0.00    -0.200 F 
ENDBRANCH  48  62
BRANCH  49  73
ATOM     73  C   UNL A   1      39.547  32.020  35.306  1.00  0.00     0.064 A 
ATOM     74  C   UNL A   1      38.643  31.519  36.254  1.00  0.00     0.173 A 
ATOM     75  C   UNL A   1      39.998  33.338  35.466  1.00  0.00     0.173 A 
ATOM     76  F   UNL A   1      38.160  30.275  36.124  1.00  0.00    -0.203 F 
ATOM     77  C   UNL A   1      38.192  32.312  37.306  1.00  0.00     0.198 A 
ATOM     78  C   UNL A   1      39.568  34.121  36.536  1.00  0.00     0.198 A 
ATOM     79  F   UNL A   1      40.858  33.866  34.583  1.00  0.00    -0.203 F 
ATOM     80  F   UNL A   1      37.287  31.827  38.167  1.00  0.00    -0.200 F 
ATOM     81  C   UNL A   1      38.658  33.610  37.449  1.00  0.00     0.200 A 
ATOM     82  F   UNL A   1      40.026  35.372  36.674  1.00  0.00    -0.200 F 
ATOM     83  F   UNL A   1      38.221  34.374  38.460  1.00  0.00    -0.200 F 
ENDBRANCH  49  73
BRANCH  61  84
ATOM     84  C   UNL A   1      44.948  27.761  34.320  1.00  0.00     0.064 A 
ATOM     85  C   UNL A   1      44.885  26.655  35.180  1.00  0.00     0.173 A 
ATOM     86  C   UNL A   1      46.138  28.505  34.288  1.00  0.00     0.173 A 
ATOM     87  F   UNL A   1      43.764  25.923  35.257  1.00  0.00    -0.203 F 
ATOM     88  C   UNL A   1      45.962  26.324  35.998  1.00  0.00     0.198 A 
ATOM     89  C   UNL A   1      47.221  28.156  35.090  1.00  0.00     0.198 A 
ATOM     90  F   UNL A   1      46.249  29.569  33.479  1.00  0.00    -0.203 F 
ATOM     91  F   UNL A   1      45.863  25.293  36.848  1.00  0.00    -0.200 F 
ATOM     92  C   UNL A   1      47.130  27.071  35.950  1.00  0.00     0.200 A 
ATOM     93  F   UNL A   1      48.351  28.874  35.036  1.00  0.00    -0.200 F 
ATOM     94  F   UNL A   1      48.164  26.753  36.741  1.00  0.00    -0.200 F 
ENDBRANCH  61  84
ENDBRANCH  35  36
ENDBRANCH  28  30
ENDBRANCH  27  28
ENDBRANCH  26  27
ENDBRANCH   1  26
TORSDOF 15
ENDMDL
MODEL 3
REMARK VINA RESULT:     -11.4      4.411      9.491
REMARK SMILES CC(C)C[NH+]1CC[NH+]([C@@H]2CC[C@]([NH3+])(C(=O)OCCOC(=O)c3ccc(-c4c5nc(c(-c6c(F)c(F)c(F)c(F)c6F)c6ccc([nH]6)c(-c6c(F)c(F)c(F)c(F)c6F)c6nc(c(-c7c(F)c(F)c(F)c(F)c7F)c7ccc4[nH]7)C=C6)C=C5)cc3)C2)CC1
REMARK SMILES IDX 17 1 16 2 14 3 15 4 12 5 9 6 10 7 85 8 11 9 8 10 5 11 6 12
REMARK SMILES IDX 87 13 7 15 86 16 4 18 2 19 1 20 3 21 13 22 18 26 19 27 20 28
REMARK SMILES IDX 21 29 22 30 23 31 84 32 24 33 83 34 25 35 26 36 27 37 77 38
REMARK SMILES IDX 28 39 82 40 76 41 78 42 29 43 81 44 75 45 74 46 30 48 62 49
REMARK SMILES IDX 42 50 61 51 43 52 46 53 60 54 79 55 44 56 45 57 59 59 80 60
REMARK SMILES IDX 47 61 31 62 32 63 40 64 33 65 34 66 38 67 41 68 35 69 36 70
REMARK SMILES IDX 39 71 37 72 63 73 64 74 72 75 65 76 66 77 70 78 73 79 67 80
REMARK SMILES IDX 68 81 71 82 69 83 48 84 49 85 57 86 50 87 51 88 55 89 58 90
REMARK SMILES IDX 52 91 53 92 56 93 54 94
REMARK H PARENT 5 14 8 17 13 23 13 24 13 25 78 47 46 58
REMARK Flexibility Score: inf
ROOT
ATOM      1  C   UNL A   1      35.008  20.667  25.211  1.00  0.00     0.274 C 
ENDROOT
BRANCH   1   2
ATOM      2  O   UNL A   1      34.320  21.497  24.254  1.00  0.00    -0.457 OA
BRANCH   2   3
ATOM      3  C   UNL A   1      32.961  21.337  24.204  1.00  0.00     0.368 C 
ATOM      4  O   UNL A   1      32.330  20.511  24.852  1.00  0.00    -0.245 OA
BRANCH   3   5
ATOM      5  C   UNL A   1      32.337  22.312  23.178  1.00  0.00     0.198 C 
ATOM      6  C   UNL A   1      32.605  24.710  22.588  1.00  0.00     0.191 C 
ATOM      7  C   UNL A   1      31.197  24.445  23.142  1.00  0.00     0.072 C 
ATOM      8  C   UNL A   1      33.345  23.356  22.660  1.00  0.00     0.145 C 
ATOM      9  C   UNL A   1      31.276  23.136  23.903  1.00  0.00     0.087 C 
BRANCH   6  10
ATOM     10  N   UNL A   1      33.380  25.853  23.085  1.00  0.00    -0.323 N 
ATOM     11  N   UNL A   1      32.723  27.422  25.601  1.00  0.00    -0.325 N 
ATOM     12  C   UNL A   1      31.962  27.615  24.341  1.00  0.00     0.324 C 
ATOM     13  C   UNL A   1      33.254  26.053  25.600  1.00  0.00     0.324 C 
ATOM     14  H   UNL A   1      32.132  27.511  26.428  1.00  0.00     0.348 HD
ATOM     15  C   UNL A   1      32.669  27.147  23.035  1.00  0.00     0.324 C 
ATOM     16  C   UNL A   1      34.095  25.708  24.361  1.00  0.00     0.324 C 
ATOM     17  H   UNL A   1      34.121  25.854  22.384  1.00  0.00     0.348 HD
BRANCH  11  18
ATOM     18  C   UNL A   1      33.733  28.486  25.754  1.00  0.00     0.265 C 
BRANCH  18  19
ATOM     19  C   UNL A   1      33.923  29.093  27.171  1.00  0.00     0.038 C 
ATOM     20  C   UNL A   1      35.385  29.320  27.570  1.00  0.00     0.013 C 
ATOM     21  C   UNL A   1      33.200  30.448  27.228  1.00  0.00     0.013 C 
ENDBRANCH  18  19
ENDBRANCH  11  18
ENDBRANCH   6  10
BRANCH   5  22
ATOM     22  N   UNL A   1      31.786  21.576  22.017  1.00  0.00    -0.343 N 
ATOM     23  H   UNL A   1      31.197  22.202  21.467  1.00  0.00     0.345 HD
ATOM     24  H   UNL A   1      31.229  20.789  22.346  1.00  0.00     0.345 HD
ATOM     25  H   UNL A   1      32.551  21.233  21.437  1.00  0.00     0.345 HD
ENDBRANCH   5  22
ENDBRANCH   3   5
ENDBRANCH   2   3
ENDBRANCH   1   2
BRANCH   1  26
ATOM     26  C   UNL A   1      36.499  20.652  24.883  1.00  0.00     0.275 C 
BRANCH  26  27
ATOM     27  O   UNL A   1      37.174  21.581  25.748  1.00  0.00    -0.458 OA
BRANCH  27  28
ATOM     28  C   UNL A   1      38.492  21.345  25.948  1.00  0.00     0.338 C 
ATOM     29  O   UNL A   1      39.092  20.304  25.742  1.00  0.00    -0.246 OA
BRANCH  28  30
ATOM     30  C   UNL A   1      39.134  22.559  26.498  1.00  0.00     0.060 A 
ATOM     31  C   UNL A   1      38.642  23.828  26.190  1.00  0.00     0.016 A 
ATOM     32  C   UNL A   1      40.295  22.434  27.259  1.00  0.00     0.016 A 
ATOM     33  C   UNL A   1      39.337  24.972  26.582  1.00  0.00     0.010 A 
ATOM     34  C   UNL A   1      40.953  23.583  27.715  1.00  0.00     0.010 A 
ATOM     35  C   UNL A   1      40.503  24.866  27.351  1.00  0.00    -0.014 A 
BRANCH  35  36
ATOM     36  C   UNL A   1      41.295  26.076  27.708  1.00  0.00     0.031 A 
ATOM     37  C   UNL A   1      40.664  27.166  28.537  1.00  0.00     0.074 A 
ATOM     38  C   UNL A   1      42.574  26.212  27.306  1.00  0.00     0.049 A 
ATOM     39  N   UNL A   1      41.114  28.364  28.819  1.00  0.00    -0.248 NA
ATOM     40  C   UNL A   1      39.341  26.874  29.111  1.00  0.00     0.031 C 
ATOM     41  C   UNL A   1      43.333  25.228  26.533  1.00  0.00     0.029 A 
ATOM     42  N   UNL A   1      43.465  27.242  27.496  1.00  0.00    -0.354 N 
ATOM     43  C   UNL A   1      40.105  28.987  29.543  1.00  0.00     0.074 A 
ATOM     44  C   UNL A   1      39.021  28.035  29.663  1.00  0.00     0.031 C 
ATOM     45  C   UNL A   1      44.579  25.689  26.337  1.00  0.00     0.029 A 
ATOM     46  C   UNL A   1      44.689  27.027  26.912  1.00  0.00     0.049 A 
ATOM     47  H   UNL A   1      43.246  28.058  28.002  1.00  0.00     0.167 HD
ATOM     48  C   UNL A   1      40.085  30.237  30.062  1.00  0.00     0.037 A 
ATOM     49  C   UNL A   1      45.769  27.826  26.823  1.00  0.00     0.037 A 
ATOM     50  C   UNL A   1      41.189  31.160  30.018  1.00  0.00     0.049 A 
ATOM     51  C   UNL A   1      45.725  29.206  27.422  1.00  0.00     0.074 A 
ATOM     52  C   UNL A   1      41.272  32.434  30.556  1.00  0.00     0.029 A 
ATOM     53  N   UNL A   1      42.411  30.899  29.419  1.00  0.00    -0.354 N 
ATOM     54  N   UNL A   1      44.754  29.795  28.077  1.00  0.00    -0.248 NA
ATOM     55  C   UNL A   1      46.926  30.038  27.256  1.00  0.00     0.031 C 
ATOM     56  C   UNL A   1      42.537  32.953  30.260  1.00  0.00     0.029 A 
ATOM     57  C   UNL A   1      43.252  31.991  29.568  1.00  0.00     0.049 A 
ATOM     58  H   UNL A   1      42.647  30.063  28.957  1.00  0.00     0.167 HD
ATOM     59  C   UNL A   1      45.233  31.055  28.414  1.00  0.00     0.074 A 
ATOM     60  C   UNL A   1      46.588  31.139  27.912  1.00  0.00     0.031 C 
ATOM     61  C   UNL A   1      44.601  32.056  29.073  1.00  0.00     0.037 A 
BRANCH  48  62
ATOM     62  C   UNL A   1      38.813  30.702  30.706  1.00  0.00     0.064 A 
ATOM     63  C   UNL A   1      37.716  31.141  29.954  1.00  0.00     0.173 A 
ATOM     64  C   UNL A   1      38.677  30.653  32.103  1.00  0.00     0.173 A 
ATOM     65  F   UNL A   1      37.802  31.218  28.616  1.00  0.00    -0.203 F 
ATOM     66  C   UNL A   1      36.534  31.532  30.576  1.00  0.00     0.198 A 
ATOM     67  C   UNL A   1      37.486  31.022  32.720  1.00  0.00     0.198 A 
ATOM     68  F   UNL A   1      39.698  30.234  32.866  1.00  0.00    -0.203 F 
ATOM     69  F   UNL A   1      35.508  31.982  29.840  1.00  0.00    -0.200 F 
ATOM     70  C   UNL A   1      36.417  31.466  31.957  1.00  0.00     0.200 A 
ATOM     71  F   UNL A   1      37.371  30.946  34.053  1.00  0.00    -0.200 F 
ATOM     72  F   UNL A   1      35.274  31.832  32.553  1.00  0.00    -0.200 F 
ENDBRANCH  48  62
BRANCH  49  73
ATOM     73  C   UNL A   1      46.990  27.357  26.116  1.00  0.00     0.064 A 
ATOM     74  C   UNL A   1      48.054  26.780  26.824  1.00  0.00     0.173 A 
ATOM     75  C   UNL A   1      47.132  27.507  24.729  1.00  0.00     0.173 A 
ATOM     76  F   UNL A   1      47.977  26.646  28.156  1.00  0.00    -0.203 F 
ATOM     77  C   UNL A   1      49.222  26.390  26.173  1.00  0.00     0.198 A 
ATOM     78  C   UNL A   1      48.289  27.089  24.076  1.00  0.00     0.198 A 
ATOM     79  F   UNL A   1      46.145  28.058  24.009  1.00  0.00    -0.203 F 
ATOM     80  F   UNL A   1      50.246  25.891  26.880  1.00  0.00    -0.200 F 
ATOM     81  C   UNL A   1      49.336  26.540  24.799  1.00  0.00     0.200 A 
ATOM     82  F   UNL A   1      48.393  27.230  22.747  1.00  0.00    -0.200 F 
ATOM     83  F   UNL A   1      50.463  26.168  24.174  1.00  0.00    -0.200 F 
ENDBRANCH  49  73
BRANCH  61  84
ATOM     84  C   UNL A   1      45.384  33.311  29.319  1.00  0.00     0.064 A 
ATOM     85  C   UNL A   1      45.391  34.363  28.390  1.00  0.00     0.173 A 
ATOM     86  C   UNL A   1      46.122  33.470  30.501  1.00  0.00     0.173 A 
ATOM     87  F   UNL A   1      44.714  34.251  27.239  1.00  0.00    -0.203 F 
ATOM     88  C   UNL A   1      46.136  35.516  28.624  1.00  0.00     0.198 A 
ATOM     89  C   UNL A   1      46.844  34.635  30.742  1.00  0.00     0.198 A 
ATOM     90  F   UNL A   1      46.141  32.494  31.422  1.00  0.00    -0.203 F 
ATOM     91  F   UNL A   1      46.170  36.488  27.702  1.00  0.00    -0.200 F 
ATOM     92  C   UNL A   1      46.858  35.653  29.801  1.00  0.00     0.200 A 
ATOM     93  F   UNL A   1      47.535  34.769  31.883  1.00  0.00    -0.200 F 
ATOM     94  F   UNL A   1      47.576  36.763  30.023  1.00  0.00    -0.200 F 
ENDBRANCH  61  84
ENDBRANCH  35  36
ENDBRANCH  28  30
ENDBRANCH  27  28
ENDBRANCH  26  27
ENDBRANCH   1  26
TORSDOF 15
ENDMDL
