MODEL 1
REMARK VINA RESULT:     -12.6      0.000      0.000
REMARK SMILES NS(=O)(=O)c1ccc(N2N=C(C(=O)OCCOC(=O)c3ccc(-c4c5nc(c(-c6c(F)c(F)c(F)c(F)c6F)c6ccc([nH]6)c(-c6c(F)c(F)c(F)c(F)c6F)c6nc(c(-c7c(F)c(F)c(F)c(F)c7F)c7ccc4[nH]7)C=C6)C=C5)cc3)C[C@H]2c2ccco2)cc1
REMARK SMILES IDX 15 1 14 2 12 3 13 4 11 5 9 6 10 7 84 8 83 9 8 10 5 11 6 12
REMARK SMILES IDX 91 13 7 14 90 15 2 16 3 17 4 18 1 19 85 22 86 23 89 24 87 25
REMARK SMILES IDX 88 26 16 27 17 28 18 29 19 30 20 31 21 32 82 33 22 34 81 35
REMARK SMILES IDX 23 36 24 37 25 38 75 39 26 40 80 41 74 42 76 43 27 44 79 45
REMARK SMILES IDX 73 46 72 47 28 49 60 50 40 51 59 52 41 53 44 54 58 55 77 56
REMARK SMILES IDX 42 57 43 58 57 60 78 61 45 62 29 63 30 64 38 65 31 66 32 67
REMARK SMILES IDX 36 68 39 69 33 70 34 71 37 72 35 73 61 74 62 75 70 76 63 77
REMARK SMILES IDX 64 78 68 79 71 80 65 81 66 82 69 83 67 84 46 85 47 86 55 87
REMARK SMILES IDX 48 88 49 89 53 90 56 91 50 92 51 93 54 94 52 95
REMARK H PARENT 1 20 1 21 76 48 44 59
REMARK Flexibility Score: inf
ROOT
ATOM      1  C   UNL A   1      35.420  22.040  24.291  1.00  0.00     0.275 C 
ENDROOT
BRANCH   1   2
ATOM      2  O   UNL A   1      35.001  23.419  24.240  1.00  0.00    -0.458 OA
BRANCH   2   3
ATOM      3  C   UNL A   1      34.080  23.722  23.303  1.00  0.00     0.354 C 
ATOM      4  O   UNL A   1      33.992  23.273  22.175  1.00  0.00    -0.245 OA
BRANCH   3   5
ATOM      5  C   UNL A   1      33.031  24.636  23.892  1.00  0.00     0.148 C 
ATOM      6  N   UNL A   1      31.487  26.074  23.990  1.00  0.00    -0.254 N 
ATOM      7  N   UNL A   1      32.446  25.555  23.183  1.00  0.00    -0.169 NA
ATOM      8  C   UNL A   1      31.725  25.766  25.408  1.00  0.00     0.180 C 
ATOM      9  C   UNL A   1      32.527  24.458  25.289  1.00  0.00     0.101 C 
BRANCH   6  10
ATOM     10  C   UNL A   1      30.715  27.133  23.540  1.00  0.00     0.060 A 
ATOM     11  C   UNL A   1      29.182  29.279  22.581  1.00  0.00     0.082 A 
ATOM     12  C   UNL A   1      30.576  29.364  22.565  1.00  0.00     0.024 A 
ATOM     13  C   UNL A   1      28.547  28.156  23.112  1.00  0.00     0.024 A 
ATOM     14  C   UNL A   1      31.333  28.287  23.036  1.00  0.00     0.029 A 
ATOM     15  C   UNL A   1      29.316  27.096  23.598  1.00  0.00     0.029 A 
BRANCH  11  16
ATOM     16  S   UNL A   1      28.211  30.623  21.970  1.00  0.00     0.238 S 
ATOM     17  O   UNL A   1      27.224  30.993  22.951  1.00  0.00    -0.207 OA
ATOM     18  O   UNL A   1      27.881  30.380  20.581  1.00  0.00    -0.207 OA
BRANCH  16  19
ATOM     19  N   UNL A   1      29.333  31.876  21.956  1.00  0.00    -0.225 NA
ATOM     20  H   UNL A   1      30.221  31.540  22.328  1.00  0.00     0.137 HD
ATOM     21  H   UNL A   1      28.991  32.644  22.534  1.00  0.00     0.137 HD
ENDBRANCH  16  19
ENDBRANCH  11  16
ENDBRANCH   6  10
BRANCH   8  22
ATOM     22  C   UNL A   1      32.460  26.837  26.166  1.00  0.00     0.128 A 
ATOM     23  C   UNL A   1      32.038  27.797  27.068  1.00  0.00     0.048 A 
ATOM     24  O   UNL A   1      33.793  27.003  25.913  1.00  0.00    -0.467 OA
ATOM     25  C   UNL A   1      33.164  28.603  27.356  1.00  0.00     0.042 A 
ATOM     26  C   UNL A   1      34.208  28.074  26.637  1.00  0.00     0.195 A 
ENDBRANCH   8  22
ENDBRANCH   3   5
ENDBRANCH   2   3
ENDBRANCH   1   2
BRANCH   1  27
ATOM     27  C   UNL A   1      36.940  21.939  24.450  1.00  0.00     0.275 C 
BRANCH  27  28
ATOM     28  O   UNL A   1      37.322  21.830  25.836  1.00  0.00    -0.458 OA
BRANCH  28  29
ATOM     29  C   UNL A   1      38.629  21.546  26.045  1.00  0.00     0.338 C 
ATOM     30  O   UNL A   1      39.223  20.527  25.729  1.00  0.00    -0.246 OA
BRANCH  29  31
ATOM     31  C   UNL A   1      39.317  22.724  26.592  1.00  0.00     0.060 A 
ATOM     32  C   UNL A   1      38.885  23.971  26.149  1.00  0.00     0.016 A 
ATOM     33  C   UNL A   1      40.426  22.627  27.432  1.00  0.00     0.016 A 
ATOM     34  C   UNL A   1      39.556  25.131  26.509  1.00  0.00     0.010 A 
ATOM     35  C   UNL A   1      41.097  23.798  27.816  1.00  0.00     0.010 A 
ATOM     36  C   UNL A   1      40.674  25.057  27.344  1.00  0.00    -0.014 A 
BRANCH  36  37
ATOM     37  C   UNL A   1      41.415  26.302  27.664  1.00  0.00     0.031 A 
ATOM     38  C   UNL A   1      40.761  27.375  28.484  1.00  0.00     0.074 A 
ATOM     39  C   UNL A   1      42.695  26.439  27.271  1.00  0.00     0.049 A 
ATOM     40  N   UNL A   1      41.212  28.560  28.813  1.00  0.00    -0.248 NA
ATOM     41  C   UNL A   1      39.417  27.079  29.003  1.00  0.00     0.031 C 
ATOM     42  C   UNL A   1      43.460  25.437  26.528  1.00  0.00     0.029 A 
ATOM     43  N   UNL A   1      43.582  27.470  27.452  1.00  0.00    -0.354 N 
ATOM     44  C   UNL A   1      40.201  29.158  29.554  1.00  0.00     0.074 A 
ATOM     45  C   UNL A   1      39.105  28.215  29.612  1.00  0.00     0.031 C 
ATOM     46  C   UNL A   1      44.705  25.896  26.328  1.00  0.00     0.029 A 
ATOM     47  C   UNL A   1      44.809  27.245  26.878  1.00  0.00     0.049 A 
ATOM     48  H   UNL A   1      43.360  28.292  27.945  1.00  0.00     0.167 HD
ATOM     49  C   UNL A   1      40.194  30.381  30.134  1.00  0.00     0.037 A 
ATOM     50  C   UNL A   1      45.886  28.047  26.780  1.00  0.00     0.037 A 
ATOM     51  C   UNL A   1      41.302  31.303  30.100  1.00  0.00     0.049 A 
ATOM     52  C   UNL A   1      45.830  29.424  27.384  1.00  0.00     0.074 A 
ATOM     53  C   UNL A   1      41.396  32.563  30.664  1.00  0.00     0.029 A 
ATOM     54  N   UNL A   1      42.513  31.056  29.469  1.00  0.00    -0.354 N 
ATOM     55  N   UNL A   1      44.859  29.995  28.056  1.00  0.00    -0.248 NA
ATOM     56  C   UNL A   1      47.017  30.273  27.206  1.00  0.00     0.031 C 
ATOM     57  C   UNL A   1      42.646  33.098  30.337  1.00  0.00     0.029 A 
ATOM     58  C   UNL A   1      43.350  32.153  29.609  1.00  0.00     0.049 A 
ATOM     59  H   UNL A   1      42.744  30.226  28.993  1.00  0.00     0.167 HD
ATOM     60  C   UNL A   1      45.322  31.258  28.397  1.00  0.00     0.074 A 
ATOM     61  C   UNL A   1      46.668  31.365  27.872  1.00  0.00     0.031 C 
ATOM     62  C   UNL A   1      44.687  32.242  29.079  1.00  0.00     0.037 A 
BRANCH  49  63
ATOM     63  C   UNL A   1      38.935  30.813  30.827  1.00  0.00     0.064 A 
ATOM     64  C   UNL A   1      37.867  31.398  30.131  1.00  0.00     0.173 A 
ATOM     65  C   UNL A   1      38.785  30.608  32.207  1.00  0.00     0.173 A 
ATOM     66  F   UNL A   1      37.966  31.631  28.813  1.00  0.00    -0.203 F 
ATOM     67  C   UNL A   1      36.705  31.784  30.795  1.00  0.00     0.198 A 
ATOM     68  C   UNL A   1      37.611  30.969  32.864  1.00  0.00     0.198 A 
ATOM     69  F   UNL A   1      39.774  30.049  32.920  1.00  0.00    -0.203 F 
ATOM     70  F   UNL A   1      35.714  32.382  30.119  1.00  0.00    -0.200 F 
ATOM     71  C   UNL A   1      36.575  31.563  32.159  1.00  0.00     0.200 A 
ATOM     72  F   UNL A   1      37.484  30.745  34.179  1.00  0.00    -0.200 F 
ATOM     73  F   UNL A   1      35.455  31.929  32.795  1.00  0.00    -0.200 F 
ENDBRANCH  49  63
BRANCH  50  74
ATOM     74  C   UNL A   1      47.095  27.577  26.054  1.00  0.00     0.064 A 
ATOM     75  C   UNL A   1      47.183  27.665  24.659  1.00  0.00     0.173 A 
ATOM     76  C   UNL A   1      48.185  27.024  26.744  1.00  0.00     0.173 A 
ATOM     77  F   UNL A   1      46.155  28.158  23.952  1.00  0.00    -0.203 F 
ATOM     78  C   UNL A   1      48.311  27.209  23.980  1.00  0.00     0.198 A 
ATOM     79  C   UNL A   1      49.324  26.596  26.067  1.00  0.00     0.198 A 
ATOM     80  F   UNL A   1      48.148  26.911  28.079  1.00  0.00    -0.203 F 
ATOM     81  F   UNL A   1      48.352  27.262  22.642  1.00  0.00    -0.200 F 
ATOM     82  C   UNL A   1      49.383  26.682  24.684  1.00  0.00     0.200 A 
ATOM     83  F   UNL A   1      50.361  26.097  26.752  1.00  0.00    -0.200 F 
ATOM     84  F   UNL A   1      50.469  26.246  24.030  1.00  0.00    -0.200 F 
ENDBRANCH  50  74
BRANCH  62  85
ATOM     85  C   UNL A   1      45.450  33.511  29.314  1.00  0.00     0.064 A 
ATOM     86  C   UNL A   1      46.270  33.676  30.441  1.00  0.00     0.173 A 
ATOM     87  C   UNL A   1      45.388  34.562  28.387  1.00  0.00     0.173 A 
ATOM     88  F   UNL A   1      46.350  32.705  31.364  1.00  0.00    -0.203 F 
ATOM     89  C   UNL A   1      46.981  34.855  30.643  1.00  0.00     0.198 A 
ATOM     90  C   UNL A   1      46.122  35.729  28.577  1.00  0.00     0.198 A 
ATOM     91  F   UNL A   1      44.623  34.453  27.290  1.00  0.00    -0.203 F 
ATOM     92  F   UNL A   1      47.722  35.009  31.748  1.00  0.00    -0.200 F 
ATOM     93  C   UNL A   1      46.911  35.879  29.708  1.00  0.00     0.200 A 
ATOM     94  F   UNL A   1      46.064  36.712  27.668  1.00  0.00    -0.200 F 
ATOM     95  F   UNL A   1      47.601  37.011  29.900  1.00  0.00    -0.200 F 
ENDBRANCH  62  85
ENDBRANCH  36  37
ENDBRANCH  29  31
ENDBRANCH  28  29
ENDBRANCH  27  28
ENDBRANCH   1  27
TORSDOF 15
ENDMDL
MODEL 2
REMARK VINA RESULT:     -12.4      4.572      9.817
REMARK SMILES NS(=O)(=O)c1ccc(N2N=C(C(=O)OCCOC(=O)c3ccc(-c4c5nc(c(-c6c(F)c(F)c(F)c(F)c6F)c6ccc([nH]6)c(-c6c(F)c(F)c(F)c(F)c6F)c6nc(c(-c7c(F)c(F)c(F)c(F)c7F)c7ccc4[nH]7)C=C6)C=C5)cc3)C[C@H]2c2ccco2)cc1
REMARK SMILES IDX 15 1 14 2 12 3 13 4 11 5 9 6 10 7 84 8 83 9 8 10 5 11 6 12
REMARK SMILES IDX 91 13 7 14 90 15 2 16 3 17 4 18 1 19 85 22 86 23 89 24 87 25
REMARK SMILES IDX 88 26 16 27 17 28 18 29 19 30 20 31 21 32 82 33 22 34 81 35
REMARK SMILES IDX 23 36 24 37 25 38 75 39 26 40 80 41 74 42 76 43 27 44 79 45
REMARK SMILES IDX 73 46 72 47 28 49 60 50 40 51 59 52 41 53 44 54 58 55 77 56
REMARK SMILES IDX 42 57 43 58 57 60 78 61 45 62 29 63 30 64 38 65 31 66 32 67
REMARK SMILES IDX 36 68 39 69 33 70 34 71 37 72 35 73 61 74 62 75 70 76 63 77
REMARK SMILES IDX 64 78 68 79 71 80 65 81 66 82 69 83 67 84 46 85 47 86 55 87
REMARK SMILES IDX 48 88 49 89 53 90 56 91 50 92 51 93 54 94 52 95
REMARK H PARENT 1 20 1 21 76 48 44 59
REMARK Flexibility Score: inf
ROOT
ATOM      1  C   UNL A   1      32.927  29.104  24.382  1.00  0.00     0.275 C 
ENDROOT
BRANCH   1   2
ATOM      2  O   UNL A   1      32.323  27.798  24.302  1.00  0.00    -0.458 OA
BRANCH   2   3
ATOM      3  C   UNL A   1      33.021  26.866  23.621  1.00  0.00     0.354 C 
ATOM      4  O   UNL A   1      33.646  27.013  22.588  1.00  0.00    -0.245 OA
BRANCH   3   5
ATOM      5  C   UNL A   1      33.048  25.573  24.404  1.00  0.00     0.148 C 
ATOM      6  N   UNL A   1      33.217  23.507  24.810  1.00  0.00    -0.254 N 
ATOM      7  N   UNL A   1      33.056  24.415  23.814  1.00  0.00    -0.169 NA
ATOM      8  C   UNL A   1      32.893  24.065  26.130  1.00  0.00     0.180 C 
ATOM      9  C   UNL A   1      33.182  25.557  25.893  1.00  0.00     0.101 C 
BRANCH   6  10
ATOM     10  C   UNL A   1      33.208  22.154  24.509  1.00  0.00     0.060 A 
ATOM     11  C   UNL A   1      33.191  19.404  23.953  1.00  0.00     0.082 A 
ATOM     12  C   UNL A   1      34.126  19.922  24.851  1.00  0.00     0.024 A 
ATOM     13  C   UNL A   1      32.296  20.250  23.296  1.00  0.00     0.024 A 
ATOM     14  C   UNL A   1      34.123  21.292  25.130  1.00  0.00     0.029 A 
ATOM     15  C   UNL A   1      32.318  21.619  23.569  1.00  0.00     0.029 A 
BRANCH  11  16
ATOM     16  S   UNL A   1      33.167  17.671  23.606  1.00  0.00     0.238 S 
ATOM     17  O   UNL A   1      34.376  17.062  24.098  1.00  0.00    -0.207 OA
ATOM     18  O   UNL A   1      32.676  17.460  22.260  1.00  0.00    -0.207 OA
BRANCH  16  19
ATOM     19  N   UNL A   1      31.940  17.137  24.625  1.00  0.00    -0.225 NA
ATOM     20  H   UNL A   1      31.113  16.913  24.072  1.00  0.00     0.137 HD
ATOM     21  H   UNL A   1      31.712  17.872  25.295  1.00  0.00     0.137 HD
ENDBRANCH  16  19
ENDBRANCH  11  16
ENDBRANCH   6  10
BRANCH   8  22
ATOM     22  C   UNL A   1      31.484  23.807  26.590  1.00  0.00     0.128 A 
ATOM     23  C   UNL A   1      30.840  22.663  27.025  1.00  0.00     0.048 A 
ATOM     24  O   UNL A   1      30.588  24.838  26.522  1.00  0.00    -0.467 OA
ATOM     25  C   UNL A   1      29.481  23.009  27.205  1.00  0.00     0.042 A 
ATOM     26  C   UNL A   1      29.381  24.343  26.896  1.00  0.00     0.195 A 
ENDBRANCH   8  22
ENDBRANCH   3   5
ENDBRANCH   2   3
ENDBRANCH   1   2
BRANCH   1  27
ATOM     27  C   UNL A   1      32.115  30.024  25.300  1.00  0.00     0.275 C 
BRANCH  27  28
ATOM     28  O   UNL A   1      32.637  30.023  26.644  1.00  0.00    -0.458 OA
BRANCH  28  29
ATOM     29  C   UNL A   1      33.171  31.201  27.046  1.00  0.00     0.338 C 
ATOM     30  O   UNL A   1      32.634  32.297  27.038  1.00  0.00    -0.246 OA
BRANCH  29  31
ATOM     31  C   UNL A   1      34.488  30.970  27.658  1.00  0.00     0.060 A 
ATOM     32  C   UNL A   1      34.790  29.664  28.035  1.00  0.00     0.016 A 
ATOM     33  C   UNL A   1      35.370  32.006  27.963  1.00  0.00     0.016 A 
ATOM     34  C   UNL A   1      35.951  29.372  28.736  1.00  0.00     0.010 A 
ATOM     35  C   UNL A   1      36.556  31.714  28.654  1.00  0.00     0.010 A 
ATOM     36  C   UNL A   1      36.846  30.396  29.057  1.00  0.00    -0.014 A 
BRANCH  36  37
ATOM     37  C   UNL A   1      38.049  30.071  29.863  1.00  0.00     0.031 A 
ATOM     38  C   UNL A   1      39.125  29.198  29.287  1.00  0.00     0.074 A 
ATOM     39  C   UNL A   1      38.202  30.612  31.086  1.00  0.00     0.049 A 
ATOM     40  N   UNL A   1      40.216  28.743  29.850  1.00  0.00    -0.248 NA
ATOM     41  C   UNL A   1      38.951  28.776  27.888  1.00  0.00     0.031 C 
ATOM     42  C   UNL A   1      37.257  31.528  31.726  1.00  0.00     0.029 A 
ATOM     43  N   UNL A   1      39.213  30.479  32.004  1.00  0.00    -0.354 N 
ATOM     44  C   UNL A   1      40.845  27.965  28.888  1.00  0.00     0.074 A 
ATOM     45  C   UNL A   1      40.006  27.992  27.708  1.00  0.00     0.031 C 
ATOM     46  C   UNL A   1      37.739  31.886  32.926  1.00  0.00     0.029 A 
ATOM     47  C   UNL A   1      38.996  31.182  33.164  1.00  0.00     0.049 A 
ATOM     48  H   UNL A   1      40.015  29.932  31.847  1.00  0.00     0.167 HD
ATOM     49  C   UNL A   1      42.017  27.294  28.982  1.00  0.00     0.037 A 
ATOM     50  C   UNL A   1      39.714  31.230  34.301  1.00  0.00     0.037 A 
ATOM     51  C   UNL A   1      42.863  27.297  30.148  1.00  0.00     0.049 A 
ATOM     52  C   UNL A   1      40.983  30.428  34.400  1.00  0.00     0.074 A 
ATOM     53  C   UNL A   1      44.075  26.655  30.339  1.00  0.00     0.029 A 
ATOM     54  N   UNL A   1      42.587  27.985  31.320  1.00  0.00    -0.354 N 
ATOM     55  N   UNL A   1      41.555  29.668  33.496  1.00  0.00    -0.248 NA
ATOM     56  C   UNL A   1      41.702  30.480  35.681  1.00  0.00     0.031 C 
ATOM     57  C   UNL A   1      44.509  26.918  31.642  1.00  0.00     0.029 A 
ATOM     58  C   UNL A   1      43.593  27.761  32.248  1.00  0.00     0.049 A 
ATOM     59  H   UNL A   1      41.794  28.549  31.472  1.00  0.00     0.167 HD
ATOM     60  C   UNL A   1      42.706  29.169  34.089  1.00  0.00     0.074 A 
ATOM     61  C   UNL A   1      42.761  29.725  35.426  1.00  0.00     0.031 C 
ATOM     62  C   UNL A   1      43.631  28.323  33.575  1.00  0.00     0.037 A 
BRANCH  49  63
ATOM     63  C   UNL A   1      42.439  26.466  27.803  1.00  0.00     0.064 A 
ATOM     64  C   UNL A   1      43.319  26.956  26.827  1.00  0.00     0.173 A 
ATOM     65  C   UNL A   1      41.977  25.147  27.668  1.00  0.00     0.173 A 
ATOM     66  F   UNL A   1      43.776  28.215  26.901  1.00  0.00    -0.203 F 
ATOM     67  C   UNL A   1      43.701  26.165  25.746  1.00  0.00     0.198 A 
ATOM     68  C   UNL A   1      42.384  24.349  26.601  1.00  0.00     0.198 A 
ATOM     69  F   UNL A   1      41.138  24.628  28.576  1.00  0.00    -0.203 F 
ATOM     70  F   UNL A   1      44.507  26.668  24.801  1.00  0.00    -0.200 F 
ATOM     71  C   UNL A   1      43.240  24.861  25.638  1.00  0.00     0.200 A 
ATOM     72  F   UNL A   1      41.945  23.087  26.505  1.00  0.00    -0.200 F 
ATOM     73  F   UNL A   1      43.613  24.100  24.601  1.00  0.00    -0.200 F 
ENDBRANCH  49  63
BRANCH  50  74
ATOM     74  C   UNL A   1      39.231  32.042  35.448  1.00  0.00     0.064 A 
ATOM     75  C   UNL A   1      38.422  31.481  36.445  1.00  0.00     0.173 A 
ATOM     76  C   UNL A   1      39.565  33.400  35.566  1.00  0.00     0.173 A 
ATOM     77  F   UNL A   1      38.050  30.195  36.361  1.00  0.00    -0.203 F 
ATOM     78  C   UNL A   1      37.957  32.250  37.510  1.00  0.00     0.198 A 
ATOM     79  C   UNL A   1      39.125  34.160  36.647  1.00  0.00     0.198 A 
ATOM     80  F   UNL A   1      40.331  33.987  34.635  1.00  0.00    -0.203 F 
ATOM     81  F   UNL A   1      37.146  31.702  38.426  1.00  0.00    -0.200 F 
ATOM     82  C   UNL A   1      38.314  33.586  37.614  1.00  0.00     0.200 A 
ATOM     83  F   UNL A   1      39.480  35.447  36.748  1.00  0.00    -0.200 F 
ATOM     84  F   UNL A   1      37.869  34.324  38.641  1.00  0.00    -0.200 F 
ENDBRANCH  50  74
BRANCH  62  85
ATOM     85  C   UNL A   1      44.792  27.965  34.453  1.00  0.00     0.064 A 
ATOM     86  C   UNL A   1      45.959  28.743  34.481  1.00  0.00     0.173 A 
ATOM     87  C   UNL A   1      44.726  26.849  35.302  1.00  0.00     0.173 A 
ATOM     88  F   UNL A   1      46.076  29.811  33.676  1.00  0.00    -0.203 F 
ATOM     89  C   UNL A   1      47.026  28.406  35.309  1.00  0.00     0.198 A 
ATOM     90  C   UNL A   1      45.783  26.530  36.149  1.00  0.00     0.198 A 
ATOM     91  F   UNL A   1      43.630  26.075  35.318  1.00  0.00    -0.203 F 
ATOM     92  F   UNL A   1      48.148  29.138  35.287  1.00  0.00    -0.200 F 
ATOM     93  C   UNL A   1      46.935  27.303  36.147  1.00  0.00     0.200 A 
ATOM     94  F   UNL A   1      45.690  25.472  36.966  1.00  0.00    -0.200 F 
ATOM     95  F   UNL A   1      47.960  26.982  36.947  1.00  0.00    -0.200 F 
ENDBRANCH  62  85
ENDBRANCH  36  37
ENDBRANCH  29  31
ENDBRANCH  28  29
ENDBRANCH  27  28
ENDBRANCH   1  27
TORSDOF 15
ENDMDL
MODEL 3
REMARK VINA RESULT:     -12.4      4.471      9.885
REMARK SMILES NS(=O)(=O)c1ccc(N2N=C(C(=O)OCCOC(=O)c3ccc(-c4c5nc(c(-c6c(F)c(F)c(F)c(F)c6F)c6ccc([nH]6)c(-c6c(F)c(F)c(F)c(F)c6F)c6nc(c(-c7c(F)c(F)c(F)c(F)c7F)c7ccc4[nH]7)C=C6)C=C5)cc3)C[C@H]2c2ccco2)cc1
REMARK SMILES IDX 15 1 14 2 12 3 13 4 11 5 9 6 10 7 84 8 83 9 8 10 5 11 6 12
REMARK SMILES IDX 91 13 7 14 90 15 2 16 3 17 4 18 1 19 85 22 86 23 89 24 87 25
REMARK SMILES IDX 88 26 16 27 17 28 18 29 19 30 20 31 21 32 82 33 22 34 81 35
REMARK SMILES IDX 23 36 24 37 25 38 75 39 26 40 80 41 74 42 76 43 27 44 79 45
REMARK SMILES IDX 73 46 72 47 28 49 60 50 40 51 59 52 41 53 44 54 58 55 77 56
REMARK SMILES IDX 42 57 43 58 57 60 78 61 45 62 29 63 30 64 38 65 31 66 32 67
REMARK SMILES IDX 36 68 39 69 33 70 34 71 37 72 35 73 61 74 62 75 70 76 63 77
REMARK SMILES IDX 64 78 68 79 71 80 65 81 66 82 69 83 67 84 46 85 47 86 55 87
REMARK SMILES IDX 48 88 49 89 53 90 56 91 50 92 51 93 54 94 52 95
REMARK H PARENT 1 20 1 21 76 48 44 59
REMARK Flexibility Score: inf
ROOT
ATOM      1  C   UNL A   1      31.811  27.983  26.689  1.00  0.00     0.275 C 
ENDROOT
BRANCH   1   2
ATOM      2  O   UNL A   1      31.915  27.009  25.632  1.00  0.00    -0.458 OA
BRANCH   2   3
ATOM      3  C   UNL A   1      31.377  25.799  25.889  1.00  0.00     0.354 C 
ATOM      4  O   UNL A   1      30.399  25.550  26.569  1.00  0.00    -0.245 OA
BRANCH   3   5
ATOM      5  C   UNL A   1      32.089  24.739  25.081  1.00  0.00     0.148 C 
ATOM      6  N   UNL A   1      32.632  22.828  24.362  1.00  0.00    -0.254 N 
ATOM      7  N   UNL A   1      31.980  23.475  25.361  1.00  0.00    -0.169 NA
ATOM      8  C   UNL A   1      33.544  23.715  23.627  1.00  0.00     0.180 C 
ATOM      9  C   UNL A   1      32.864  25.078  23.847  1.00  0.00     0.101 C 
BRANCH   6  10
ATOM     10  C   UNL A   1      32.747  21.448  24.403  1.00  0.00     0.060 A 
ATOM     11  C   UNL A   1      32.960  18.654  24.537  1.00  0.00     0.082 A 
ATOM     12  C   UNL A   1      33.405  19.433  25.608  1.00  0.00     0.024 A 
ATOM     13  C   UNL A   1      32.454  19.256  23.385  1.00  0.00     0.024 A 
ATOM     14  C   UNL A   1      33.287  20.824  25.537  1.00  0.00     0.029 A 
ATOM     15  C   UNL A   1      32.362  20.648  23.320  1.00  0.00     0.029 A 
BRANCH  11  16
ATOM     16  S   UNL A   1      33.081  16.892  24.619  1.00  0.00     0.238 S 
ATOM     17  O   UNL A   1      33.340  16.363  23.305  1.00  0.00    -0.207 OA
ATOM     18  O   UNL A   1      32.032  16.381  25.476  1.00  0.00    -0.207 OA
BRANCH  16  19
ATOM     19  N   UNL A   1      34.511  16.689  25.482  1.00  0.00    -0.225 NA
ATOM     20  H   UNL A   1      35.285  16.564  24.831  1.00  0.00     0.137 HD
ATOM     21  H   UNL A   1      34.432  15.866  26.079  1.00  0.00     0.137 HD
ENDBRANCH  16  19
ENDBRANCH  11  16
ENDBRANCH   6  10
BRANCH   8  22
ATOM     22  C   UNL A   1      34.969  23.688  24.110  1.00  0.00     0.128 A 
ATOM     23  C   UNL A   1      36.146  23.270  23.516  1.00  0.00     0.048 A 
ATOM     24  O   UNL A   1      35.217  24.062  25.401  1.00  0.00    -0.467 OA
ATOM     25  C   UNL A   1      37.154  23.371  24.502  1.00  0.00     0.042 A 
ATOM     26  C   UNL A   1      36.540  23.866  25.627  1.00  0.00     0.195 A 
ENDBRANCH   8  22
ENDBRANCH   3   5
ENDBRANCH   2   3
ENDBRANCH   1   2
BRANCH   1  27
ATOM     27  C   UNL A   1      31.753  29.403  26.117  1.00  0.00     0.275 C 
BRANCH  27  28
ATOM     28  O   UNL A   1      33.068  29.982  26.000  1.00  0.00    -0.458 OA
BRANCH  28  29
ATOM     29  C   UNL A   1      33.319  30.999  26.857  1.00  0.00     0.338 C 
ATOM     30  O   UNL A   1      32.556  31.893  27.186  1.00  0.00    -0.246 OA
BRANCH  29  31
ATOM     31  C   UNL A   1      34.634  30.810  27.489  1.00  0.00     0.060 A 
ATOM     32  C   UNL A   1      34.992  29.507  27.823  1.00  0.00     0.016 A 
ATOM     33  C   UNL A   1      35.456  31.876  27.851  1.00  0.00     0.016 A 
ATOM     34  C   UNL A   1      36.152  29.245  28.537  1.00  0.00     0.010 A 
ATOM     35  C   UNL A   1      36.641  31.615  28.556  1.00  0.00     0.010 A 
ATOM     36  C   UNL A   1      36.989  30.299  28.916  1.00  0.00    -0.014 A 
BRANCH  36  37
ATOM     37  C   UNL A   1      38.191  30.002  29.734  1.00  0.00     0.031 A 
ATOM     38  C   UNL A   1      39.290  29.149  29.173  1.00  0.00     0.074 A 
ATOM     39  C   UNL A   1      38.320  30.552  30.956  1.00  0.00     0.049 A 
ATOM     40  N   UNL A   1      40.385  28.719  29.749  1.00  0.00    -0.248 NA
ATOM     41  C   UNL A   1      39.138  28.717  27.775  1.00  0.00     0.031 C 
ATOM     42  C   UNL A   1      37.351  31.451  31.583  1.00  0.00     0.029 A 
ATOM     43  N   UNL A   1      39.325  30.444  31.884  1.00  0.00    -0.354 N 
ATOM     44  C   UNL A   1      41.038  27.949  28.796  1.00  0.00     0.074 A 
ATOM     45  C   UNL A   1      40.210  27.954  27.609  1.00  0.00     0.031 C 
ATOM     46  C   UNL A   1      37.814  31.825  32.786  1.00  0.00     0.029 A 
ATOM     47  C   UNL A   1      39.083  31.148  33.039  1.00  0.00     0.049 A 
ATOM     48  H   UNL A   1      40.140  29.913  31.738  1.00  0.00     0.167 HD
ATOM     49  C   UNL A   1      42.223  27.303  28.904  1.00  0.00     0.037 A 
ATOM     50  C   UNL A   1      39.789  31.216  34.183  1.00  0.00     0.037 A 
ATOM     51  C   UNL A   1      43.058  27.329  30.079  1.00  0.00     0.049 A 
ATOM     52  C   UNL A   1      41.073  30.440  34.297  1.00  0.00     0.074 A 
ATOM     53  C   UNL A   1      44.280  26.712  30.284  1.00  0.00     0.029 A 
ATOM     54  N   UNL A   1      42.757  28.017  31.245  1.00  0.00    -0.354 N 
ATOM     55  N   UNL A   1      41.669  29.688  33.403  1.00  0.00    -0.248 NA
ATOM     56  C   UNL A   1      41.778  30.514  35.585  1.00  0.00     0.031 C 
ATOM     57  C   UNL A   1      44.697  26.990  31.590  1.00  0.00     0.029 A 
ATOM     58  C   UNL A   1      43.758  27.818  32.183  1.00  0.00     0.049 A 
ATOM     59  H   UNL A   1      41.951  28.565  31.386  1.00  0.00     0.167 HD
ATOM     60  C   UNL A   1      42.824  29.216  34.009  1.00  0.00     0.074 A 
ATOM     61  C   UNL A   1      42.855  29.779  35.344  1.00  0.00     0.031 C 
ATOM     62  C   UNL A   1      43.771  28.386  33.507  1.00  0.00     0.037 A 
BRANCH  49  63
ATOM     63  C   UNL A   1      42.673  26.478  27.734  1.00  0.00     0.064 A 
ATOM     64  C   UNL A   1      42.207  25.172  27.523  1.00  0.00     0.173 A 
ATOM     65  C   UNL A   1      43.561  27.019  26.792  1.00  0.00     0.173 A 
ATOM     66  F   UNL A   1      41.370  24.602  28.402  1.00  0.00    -0.203 F 
ATOM     67  C   UNL A   1      42.634  24.429  26.424  1.00  0.00     0.198 A 
ATOM     68  C   UNL A   1      43.963  26.284  25.679  1.00  0.00     0.198 A 
ATOM     69  F   UNL A   1      44.033  28.265  26.944  1.00  0.00    -0.203 F 
ATOM     70  F   UNL A   1      42.212  23.167  26.265  1.00  0.00    -0.200 F 
ATOM     71  C   UNL A   1      43.505  24.987  25.500  1.00  0.00     0.200 A 
ATOM     72  F   UNL A   1      44.797  26.829  24.783  1.00  0.00    -0.200 F 
ATOM     73  F   UNL A   1      43.910  24.274  24.441  1.00  0.00    -0.200 F 
ENDBRANCH  49  63
BRANCH  50  74
ATOM     74  C   UNL A   1      39.279  32.023  35.321  1.00  0.00     0.064 A 
ATOM     75  C   UNL A   1      38.473  31.450  36.314  1.00  0.00     0.173 A 
ATOM     76  C   UNL A   1      39.582  33.389  35.434  1.00  0.00     0.173 A 
ATOM     77  F   UNL A   1      38.130  30.156  36.234  1.00  0.00    -0.203 F 
ATOM     78  C   UNL A   1      37.982  32.214  37.371  1.00  0.00     0.198 A 
ATOM     79  C   UNL A   1      39.115  34.144  36.507  1.00  0.00     0.198 A 
ATOM     80  F   UNL A   1      40.343  33.988  34.507  1.00  0.00    -0.203 F 
ATOM     81  F   UNL A   1      37.176  31.653  38.282  1.00  0.00    -0.200 F 
ATOM     82  C   UNL A   1      38.309  33.557  37.471  1.00  0.00     0.200 A 
ATOM     83  F   UNL A   1      39.442  35.440  36.604  1.00  0.00    -0.200 F 
ATOM     84  F   UNL A   1      37.839  34.291  38.489  1.00  0.00    -0.200 F 
ENDBRANCH  50  74
BRANCH  62  85
ATOM     85  C   UNL A   1      44.931  28.056  34.399  1.00  0.00     0.064 A 
ATOM     86  C   UNL A   1      44.917  26.930  35.235  1.00  0.00     0.173 A 
ATOM     87  C   UNL A   1      46.084  28.856  34.393  1.00  0.00     0.173 A 
ATOM     88  F   UNL A   1      43.831  26.143  35.287  1.00  0.00    -0.203 F 
ATOM     89  C   UNL A   1      46.004  26.629  36.050  1.00  0.00     0.198 A 
ATOM     90  C   UNL A   1      47.181  28.537  35.188  1.00  0.00     0.198 A 
ATOM     91  F   UNL A   1      46.151  29.941  33.607  1.00  0.00    -0.203 F 
ATOM     92  F   UNL A   1      45.952  25.573  36.873  1.00  0.00    -0.200 F 
ATOM     93  C   UNL A   1      47.138  27.429  36.021  1.00  0.00     0.200 A 
ATOM     94  F   UNL A   1      48.279  29.303  35.152  1.00  0.00    -0.200 F 
ATOM     95  F   UNL A   1      48.186  27.135  36.802  1.00  0.00    -0.200 F 
ENDBRANCH  62  85
ENDBRANCH  36  37
ENDBRANCH  29  31
ENDBRANCH  28  29
ENDBRANCH  27  28
ENDBRANCH   1  27
TORSDOF 15
ENDMDL
