MODEL 1
REMARK VINA RESULT:     -11.1      0.000      0.000
REMARK SMILES CCCC1(CCC)C[NH+]([C@H](C(=O)OCCOC(=O)c2ccc(-c3c4nc(c(-c5c(F)c(F)c(F)c(F)c5F)c5ccc([nH]5)c(-c5c(F)c(F)c(F)c(F)c5F)c5nc(c(-c6c(F)c(F)c(F)c(F)c6F)c6ccc3[nH]6)C=C5)C=C4)cc2)C2CCCCC2)C1
REMARK SMILES IDX 14 1 13 2 11 3 12 4 10 5 9 6 4 7 8 8 88 9 3 11 2 12 1 13
REMARK SMILES IDX 5 14 6 15 7 16 82 17 83 18 87 19 84 20 86 21 85 22 15 23
REMARK SMILES IDX 16 24 17 25 18 26 19 27 20 28 81 29 21 30 80 31 22 32 23 33
REMARK SMILES IDX 24 34 74 35 25 36 79 37 73 38 75 39 26 40 78 41 72 42 71 43
REMARK SMILES IDX 27 45 59 46 39 47 58 48 40 49 43 50 57 51 76 52 41 53 42 54
REMARK SMILES IDX 56 56 77 57 44 58 28 59 29 60 37 61 30 62 31 63 35 64 38 65
REMARK SMILES IDX 32 66 33 67 36 68 34 69 60 70 61 71 69 72 62 73 63 74 67 75
REMARK SMILES IDX 70 76 64 77 65 78 68 79 66 80 45 81 46 82 54 83 47 84 48 85
REMARK SMILES IDX 52 86 55 87 49 88 50 89 53 90 51 91
REMARK H PARENT 9 10 75 44 43 55
REMARK Flexibility Score: inf
ROOT
ATOM      1  C   UNL A   1      32.949  29.377  24.877  1.00  0.00     0.274 C 
ENDROOT
BRANCH   1   2
ATOM      2  O   UNL A   1      32.543  27.991  24.915  1.00  0.00    -0.458 OA
BRANCH   2   3
ATOM      3  C   UNL A   1      32.492  27.327  23.730  1.00  0.00     0.365 C 
ATOM      4  O   UNL A   1      33.485  27.144  23.032  1.00  0.00    -0.245 OA
BRANCH   3   5
ATOM      5  C   UNL A   1      31.028  26.952  23.306  1.00  0.00     0.298 C 
BRANCH   5   6
ATOM      6  N   UNL A   1      30.765  25.614  23.892  1.00  0.00    -0.322 N 
ATOM      7  C   UNL A   1      31.967  23.878  24.304  1.00  0.00     0.068 C 
ATOM      8  C   UNL A   1      31.513  25.194  25.057  1.00  0.00     0.275 C 
ATOM      9  C   UNL A   1      31.111  24.443  23.121  1.00  0.00     0.275 C 
ATOM     10  H   UNL A   1      29.775  25.824  24.023  1.00  0.00     0.348 HD
BRANCH   7  11
ATOM     11  C   UNL A   1      33.510  23.943  24.339  1.00  0.00     0.018 C 
BRANCH  11  12
ATOM     12  C   UNL A   1      34.269  23.386  23.147  1.00  0.00    -0.002 C 
ATOM     13  C   UNL A   1      35.637  22.832  23.476  1.00  0.00     0.004 C 
ENDBRANCH  11  12
ENDBRANCH   7  11
BRANCH   7  14
ATOM     14  C   UNL A   1      31.373  22.557  24.868  1.00  0.00     0.018 C 
BRANCH  14  15
ATOM     15  C   UNL A   1      32.398  21.654  25.594  1.00  0.00    -0.002 C 
ATOM     16  C   UNL A   1      32.617  20.279  24.977  1.00  0.00     0.004 C 
ENDBRANCH  14  15
ENDBRANCH   7  14
ENDBRANCH   5   6
BRANCH   5  17
ATOM     17  C   UNL A   1      29.935  28.098  23.370  1.00  0.00     0.059 C 
ATOM     18  C   UNL A   1      30.129  29.307  22.436  1.00  0.00     0.010 C 
ATOM     19  C   UNL A   1      28.492  27.550  23.196  1.00  0.00     0.010 C 
ATOM     20  C   UNL A   1      29.022  30.358  22.561  1.00  0.00     0.001 C 
ATOM     21  C   UNL A   1      27.415  28.621  23.353  1.00  0.00     0.001 C 
ATOM     22  C   UNL A   1      27.639  29.762  22.370  1.00  0.00     0.000 C 
ENDBRANCH   5  17
ENDBRANCH   3   5
ENDBRANCH   2   3
ENDBRANCH   1   2
BRANCH   1  23
ATOM     23  C   UNL A   1      31.940  30.244  25.629  1.00  0.00     0.275 C 
BRANCH  23  24
ATOM     24  O   UNL A   1      32.404  30.430  26.976  1.00  0.00    -0.458 OA
BRANCH  24  25
ATOM     25  C   UNL A   1      33.077  31.573  27.240  1.00  0.00     0.338 C 
ATOM     26  O   UNL A   1      32.663  32.712  27.109  1.00  0.00    -0.246 OA
BRANCH  25  27
ATOM     27  C   UNL A   1      34.420  31.251  27.783  1.00  0.00     0.060 A 
ATOM     28  C   UNL A   1      34.775  29.938  28.089  1.00  0.00     0.016 A 
ATOM     29  C   UNL A   1      35.312  32.279  28.088  1.00  0.00     0.016 A 
ATOM     30  C   UNL A   1      35.958  29.666  28.776  1.00  0.00     0.010 A 
ATOM     31  C   UNL A   1      36.548  31.987  28.687  1.00  0.00     0.010 A 
ATOM     32  C   UNL A   1      36.876  30.678  29.082  1.00  0.00    -0.014 A 
BRANCH  32  33
ATOM     33  C   UNL A   1      38.127  30.382  29.852  1.00  0.00     0.031 A 
ATOM     34  C   UNL A   1      39.204  29.516  29.242  1.00  0.00     0.074 A 
ATOM     35  C   UNL A   1      38.349  30.899  31.081  1.00  0.00     0.049 A 
ATOM     36  N   UNL A   1      40.225  28.928  29.817  1.00  0.00    -0.248 NA
ATOM     37  C   UNL A   1      39.121  29.276  27.794  1.00  0.00     0.031 C 
ATOM     38  C   UNL A   1      37.474  31.828  31.794  1.00  0.00     0.029 A 
ATOM     39  N   UNL A   1      39.400  30.710  31.954  1.00  0.00    -0.354 N 
ATOM     40  C   UNL A   1      40.861  28.202  28.817  1.00  0.00     0.074 A 
ATOM     41  C   UNL A   1      40.128  28.437  27.593  1.00  0.00     0.031 C 
ATOM     42  C   UNL A   1      38.040  32.167  32.961  1.00  0.00     0.029 A 
ATOM     43  C   UNL A   1      39.248  31.376  33.148  1.00  0.00     0.049 A 
ATOM     44  H   UNL A   1      40.182  30.152  31.743  1.00  0.00     0.167 HD
ATOM     45  C   UNL A   1      41.949  27.402  28.913  1.00  0.00     0.037 A 
ATOM     46  C   UNL A   1      39.946  31.305  34.299  1.00  0.00     0.037 A 
ATOM     47  C   UNL A   1      42.718  27.204  30.112  1.00  0.00     0.049 A 
ATOM     48  C   UNL A   1      41.091  30.338  34.415  1.00  0.00     0.074 A 
ATOM     49  C   UNL A   1      43.821  26.391  30.307  1.00  0.00     0.029 A 
ATOM     50  N   UNL A   1      42.475  27.843  31.317  1.00  0.00    -0.354 N 
ATOM     51  N   UNL A   1      41.610  29.557  33.500  1.00  0.00    -0.248 NA
ATOM     52  C   UNL A   1      41.720  30.211  35.739  1.00  0.00     0.031 C 
ATOM     53  C   UNL A   1      44.228  26.515  31.639  1.00  0.00     0.029 A 
ATOM     54  C   UNL A   1      43.401  27.433  32.263  1.00  0.00     0.049 A 
ATOM     55  H   UNL A   1      41.752  28.493  31.478  1.00  0.00     0.167 HD
ATOM     56  C   UNL A   1      42.624  28.852  34.133  1.00  0.00     0.074 A 
ATOM     57  C   UNL A   1      42.664  29.310  35.505  1.00  0.00     0.031 C 
ATOM     58  C   UNL A   1      43.441  27.900  33.622  1.00  0.00     0.037 A 
BRANCH  45  59
ATOM     59  C   UNL A   1      42.356  26.627  27.696  1.00  0.00     0.064 A 
ATOM     60  C   UNL A   1      43.333  27.097  26.809  1.00  0.00     0.173 A 
ATOM     61  C   UNL A   1      41.801  25.360  27.457  1.00  0.00     0.173 A 
ATOM     62  F   UNL A   1      43.880  28.309  26.986  1.00  0.00    -0.203 F 
ATOM     63  C   UNL A   1      43.737  26.326  25.721  1.00  0.00     0.198 A 
ATOM     64  C   UNL A   1      42.223  24.584  26.382  1.00  0.00     0.198 A 
ATOM     65  F   UNL A   1      40.865  24.867  28.282  1.00  0.00    -0.203 F 
ATOM     66  F   UNL A   1      44.656  26.802  24.869  1.00  0.00    -0.200 F 
ATOM     67  C   UNL A   1      43.189  25.067  25.514  1.00  0.00     0.200 A 
ATOM     68  F   UNL A   1      41.701  23.365  26.191  1.00  0.00    -0.200 F 
ATOM     69  F   UNL A   1      43.591  24.323  24.475  1.00  0.00    -0.200 F 
ENDBRANCH  45  59
BRANCH  46  70
ATOM     70  C   UNL A   1      39.514  32.105  35.476  1.00  0.00     0.064 A 
ATOM     71  C   UNL A   1      38.607  31.588  36.411  1.00  0.00     0.173 A 
ATOM     72  C   UNL A   1      39.994  33.408  35.686  1.00  0.00     0.173 A 
ATOM     73  F   UNL A   1      38.089  30.363  36.234  1.00  0.00    -0.203 F 
ATOM     74  C   UNL A   1      38.198  32.343  37.509  1.00  0.00     0.198 A 
ATOM     75  C   UNL A   1      39.613  34.147  36.802  1.00  0.00     0.198 A 
ATOM     76  F   UNL A   1      40.853  33.956  34.814  1.00  0.00    -0.203 F 
ATOM     77  F   UNL A   1      37.296  31.842  38.365  1.00  0.00    -0.200 F 
ATOM     78  C   UNL A   1      38.709  33.616  37.710  1.00  0.00     0.200 A 
ATOM     79  F   UNL A   1      40.120  35.371  36.997  1.00  0.00    -0.200 F 
ATOM     80  F   UNL A   1      38.324  34.336  38.773  1.00  0.00    -0.200 F 
ENDBRANCH  46  70
BRANCH  58  81
ATOM     81  C   UNL A   1      44.471  27.310  34.535  1.00  0.00     0.064 A 
ATOM     82  C   UNL A   1      44.229  26.121  35.239  1.00  0.00     0.173 A 
ATOM     83  C   UNL A   1      45.730  27.913  34.670  1.00  0.00     0.173 A 
ATOM     84  F   UNL A   1      43.035  25.518  35.153  1.00  0.00    -0.203 F 
ATOM     85  C   UNL A   1      45.209  25.565  36.057  1.00  0.00     0.198 A 
ATOM     86  C   UNL A   1      46.714  27.342  35.471  1.00  0.00     0.198 A 
ATOM     87  F   UNL A   1      46.009  29.049  34.013  1.00  0.00    -0.203 F 
ATOM     88  F   UNL A   1      44.947  24.445  36.747  1.00  0.00    -0.200 F 
ATOM     89  C   UNL A   1      46.452  26.171  36.167  1.00  0.00     0.200 A 
ATOM     90  F   UNL A   1      47.918  27.923  35.569  1.00  0.00    -0.200 F 
ATOM     91  F   UNL A   1      47.396  25.630  36.949  1.00  0.00    -0.200 F 
ENDBRANCH  58  81
ENDBRANCH  32  33
ENDBRANCH  25  27
ENDBRANCH  24  25
ENDBRANCH  23  24
ENDBRANCH   1  23
TORSDOF 17
ENDMDL
MODEL 2
REMARK VINA RESULT:     -11.1      0.833      1.978
REMARK SMILES CCCC1(CCC)C[NH+]([C@H](C(=O)OCCOC(=O)c2ccc(-c3c4nc(c(-c5c(F)c(F)c(F)c(F)c5F)c5ccc([nH]5)c(-c5c(F)c(F)c(F)c(F)c5F)c5nc(c(-c6c(F)c(F)c(F)c(F)c6F)c6ccc3[nH]6)C=C5)C=C4)cc2)C2CCCCC2)C1
REMARK SMILES IDX 14 1 13 2 11 3 12 4 10 5 9 6 4 7 8 8 88 9 3 11 2 12 1 13
REMARK SMILES IDX 5 14 6 15 7 16 82 17 83 18 87 19 84 20 86 21 85 22 15 23
REMARK SMILES IDX 16 24 17 25 18 26 19 27 20 28 81 29 21 30 80 31 22 32 23 33
REMARK SMILES IDX 24 34 74 35 25 36 79 37 73 38 75 39 26 40 78 41 72 42 71 43
REMARK SMILES IDX 27 45 59 46 39 47 58 48 40 49 43 50 57 51 76 52 41 53 42 54
REMARK SMILES IDX 56 56 77 57 44 58 28 59 29 60 37 61 30 62 31 63 35 64 38 65
REMARK SMILES IDX 32 66 33 67 36 68 34 69 60 70 61 71 69 72 62 73 63 74 67 75
REMARK SMILES IDX 70 76 64 77 65 78 68 79 66 80 45 81 46 82 54 83 47 84 48 85
REMARK SMILES IDX 52 86 55 87 49 88 50 89 53 90 51 91
REMARK H PARENT 9 10 75 44 43 55
REMARK Flexibility Score: inf
ROOT
ATOM      1  C   UNL A   1      31.833  28.504  27.198  1.00  0.00     0.274 C 
ENDROOT
BRANCH   1   2
ATOM      2  O   UNL A   1      32.153  27.610  26.109  1.00  0.00    -0.458 OA
BRANCH   2   3
ATOM      3  C   UNL A   1      31.111  27.081  25.414  1.00  0.00     0.365 C 
ATOM      4  O   UNL A   1      30.260  26.371  25.941  1.00  0.00    -0.245 OA
BRANCH   3   5
ATOM      5  C   UNL A   1      31.201  27.366  23.873  1.00  0.00     0.298 C 
BRANCH   5   6
ATOM      6  N   UNL A   1      31.692  26.107  23.256  1.00  0.00    -0.322 N 
ATOM      7  C   UNL A   1      33.342  24.780  23.632  1.00  0.00     0.068 C 
ATOM      8  C   UNL A   1      31.830  24.925  24.078  1.00  0.00     0.275 C 
ATOM      9  C   UNL A   1      33.054  26.060  22.778  1.00  0.00     0.275 C 
ATOM     10  H   UNL A   1      30.943  26.111  22.564  1.00  0.00     0.348 HD
BRANCH   7  11
ATOM     11  C   UNL A   1      34.127  24.808  24.963  1.00  0.00     0.018 C 
BRANCH  11  12
ATOM     12  C   UNL A   1      35.525  24.215  24.973  1.00  0.00    -0.002 C 
ATOM     13  C   UNL A   1      35.765  23.193  26.062  1.00  0.00     0.004 C 
ENDBRANCH  11  12
ENDBRANCH   7  11
BRANCH   7  14
ATOM     14  C   UNL A   1      33.651  23.546  22.738  1.00  0.00     0.018 C 
BRANCH  14  15
ATOM     15  C   UNL A   1      33.201  22.193  23.338  1.00  0.00    -0.002 C 
ATOM     16  C   UNL A   1      32.136  21.445  22.547  1.00  0.00     0.004 C 
ENDBRANCH  14  15
ENDBRANCH   7  14
ENDBRANCH   5   6
BRANCH   5  17
ATOM     17  C   UNL A   1      30.018  28.187  23.214  1.00  0.00     0.059 C 
ATOM     18  C   UNL A   1      28.582  27.727  23.528  1.00  0.00     0.010 C 
ATOM     19  C   UNL A   1      30.131  29.713  23.489  1.00  0.00     0.010 C 
ATOM     20  C   UNL A   1      27.505  28.584  22.856  1.00  0.00     0.001 C 
ATOM     21  C   UNL A   1      29.057  30.536  22.782  1.00  0.00     0.001 C 
ATOM     22  C   UNL A   1      27.665  30.059  23.172  1.00  0.00     0.000 C 
ENDBRANCH   5  17
ENDBRANCH   3   5
ENDBRANCH   2   3
ENDBRANCH   1   2
BRANCH   1  23
ATOM     23  C   UNL A   1      31.673  29.933  26.680  1.00  0.00     0.275 C 
BRANCH  23  24
ATOM     24  O   UNL A   1      32.971  30.453  26.352  1.00  0.00    -0.458 OA
BRANCH  24  25
ATOM     25  C   UNL A   1      33.422  31.489  27.096  1.00  0.00     0.338 C 
ATOM     26  O   UNL A   1      32.838  32.534  27.324  1.00  0.00    -0.246 OA
BRANCH  25  27
ATOM     27  C   UNL A   1      34.752  31.157  27.665  1.00  0.00     0.060 A 
ATOM     28  C   UNL A   1      35.083  29.845  27.998  1.00  0.00     0.016 A 
ATOM     29  C   UNL A   1      35.653  32.178  27.967  1.00  0.00     0.016 A 
ATOM     30  C   UNL A   1      36.251  29.568  28.708  1.00  0.00     0.010 A 
ATOM     31  C   UNL A   1      36.875  31.878  28.590  1.00  0.00     0.010 A 
ATOM     32  C   UNL A   1      37.179  30.571  29.012  1.00  0.00    -0.014 A 
BRANCH  32  33
ATOM     33  C   UNL A   1      38.413  30.271  29.807  1.00  0.00     0.031 A 
ATOM     34  C   UNL A   1      39.503  29.409  29.214  1.00  0.00     0.074 A 
ATOM     35  C   UNL A   1      38.609  30.779  31.044  1.00  0.00     0.049 A 
ATOM     36  N   UNL A   1      40.513  28.818  29.806  1.00  0.00    -0.248 NA
ATOM     37  C   UNL A   1      39.452  29.179  27.762  1.00  0.00     0.031 C 
ATOM     38  C   UNL A   1      37.717  31.703  31.744  1.00  0.00     0.029 A 
ATOM     39  N   UNL A   1      39.640  30.584  31.938  1.00  0.00    -0.354 N 
ATOM     40  C   UNL A   1      41.170  28.099  28.815  1.00  0.00     0.074 A 
ATOM     41  C   UNL A   1      40.463  28.342  27.577  1.00  0.00     0.031 C 
ATOM     42  C   UNL A   1      38.258  32.034  32.925  1.00  0.00     0.029 A 
ATOM     43  C   UNL A   1      39.463  31.241  33.133  1.00  0.00     0.049 A 
ATOM     44  H   UNL A   1      40.427  30.028  31.739  1.00  0.00     0.167 HD
ATOM     45  C   UNL A   1      42.256  27.298  28.929  1.00  0.00     0.037 A 
ATOM     46  C   UNL A   1      40.136  31.163  34.297  1.00  0.00     0.037 A 
ATOM     47  C   UNL A   1      42.999  27.092  30.143  1.00  0.00     0.049 A 
ATOM     48  C   UNL A   1      41.279  30.196  34.432  1.00  0.00     0.074 A 
ATOM     49  C   UNL A   1      44.099  26.279  30.355  1.00  0.00     0.029 A 
ATOM     50  N   UNL A   1      42.730  27.723  31.346  1.00  0.00    -0.354 N 
ATOM     51  N   UNL A   1      41.818  29.421  33.523  1.00  0.00    -0.248 NA
ATOM     52  C   UNL A   1      41.879  30.060  35.768  1.00  0.00     0.031 C 
ATOM     53  C   UNL A   1      44.477  26.393  31.697  1.00  0.00     0.029 A 
ATOM     54  C   UNL A   1      43.636  27.307  32.309  1.00  0.00     0.049 A 
ATOM     55  H   UNL A   1      42.004  28.371  31.496  1.00  0.00     0.167 HD
ATOM     56  C   UNL A   1      42.818  28.712  34.172  1.00  0.00     0.074 A 
ATOM     57  C   UNL A   1      42.829  29.161  35.548  1.00  0.00     0.031 C 
ATOM     58  C   UNL A   1      43.647  27.764  33.672  1.00  0.00     0.037 A 
BRANCH  45  59
ATOM     59  C   UNL A   1      42.689  26.533  27.715  1.00  0.00     0.064 A 
ATOM     60  C   UNL A   1      43.648  27.032  26.825  1.00  0.00     0.173 A 
ATOM     61  C   UNL A   1      42.180  25.245  27.484  1.00  0.00     0.173 A 
ATOM     62  F   UNL A   1      44.151  28.264  26.995  1.00  0.00    -0.203 F 
ATOM     63  C   UNL A   1      44.078  26.271  25.740  1.00  0.00     0.198 A 
ATOM     64  C   UNL A   1      42.629  24.479  26.413  1.00  0.00     0.198 A 
ATOM     65  F   UNL A   1      41.263  24.723  28.312  1.00  0.00    -0.203 F 
ATOM     66  F   UNL A   1      44.979  26.775  24.885  1.00  0.00    -0.200 F 
ATOM     67  C   UNL A   1      43.576  24.992  25.540  1.00  0.00     0.200 A 
ATOM     68  F   UNL A   1      42.150  23.241  26.228  1.00  0.00    -0.200 F 
ATOM     69  F   UNL A   1      44.003  24.257  24.505  1.00  0.00    -0.200 F 
ENDBRANCH  45  59
BRANCH  46  70
ATOM     70  C   UNL A   1      39.678  31.955  35.471  1.00  0.00     0.064 A 
ATOM     71  C   UNL A   1      40.220  33.217  35.750  1.00  0.00     0.173 A 
ATOM     72  C   UNL A   1      38.695  31.461  36.343  1.00  0.00     0.173 A 
ATOM     73  F   UNL A   1      41.190  33.716  34.969  1.00  0.00    -0.203 F 
ATOM     74  C   UNL A   1      39.795  33.953  36.854  1.00  0.00     0.198 A 
ATOM     75  C   UNL A   1      38.246  32.213  37.424  1.00  0.00     0.198 A 
ATOM     76  F   UNL A   1      38.155  30.252  36.130  1.00  0.00    -0.203 F 
ATOM     77  F   UNL A   1      40.358  35.139  37.124  1.00  0.00    -0.200 F 
ATOM     78  C   UNL A   1      38.800  33.457  37.684  1.00  0.00     0.200 A 
ATOM     79  F   UNL A   1      37.276  31.732  38.214  1.00  0.00    -0.200 F 
ATOM     80  F   UNL A   1      38.384  34.171  38.738  1.00  0.00    -0.200 F 
ENDBRANCH  46  70
BRANCH  58  81
ATOM     81  C   UNL A   1      44.657  27.168  34.603  1.00  0.00     0.064 A 
ATOM     82  C   UNL A   1      45.903  27.776  34.818  1.00  0.00     0.173 A 
ATOM     83  C   UNL A   1      44.358  26.003  35.324  1.00  0.00     0.173 A 
ATOM     84  F   UNL A   1      46.239  28.883  34.139  1.00  0.00    -0.203 F 
ATOM     85  C   UNL A   1      46.818  27.230  35.712  1.00  0.00     0.198 A 
ATOM     86  C   UNL A   1      45.267  25.473  36.234  1.00  0.00     0.198 A 
ATOM     87  F   UNL A   1      43.178  25.388  35.155  1.00  0.00    -0.203 F 
ATOM     88  F   UNL A   1      48.016  27.808  35.879  1.00  0.00    -0.200 F 
ATOM     89  C   UNL A   1      46.497  26.083  36.424  1.00  0.00     0.200 A 
ATOM     90  F   UNL A   1      44.952  24.370  36.928  1.00  0.00    -0.200 F 
ATOM     91  F   UNL A   1      47.377  25.563  37.292  1.00  0.00    -0.200 F 
ENDBRANCH  58  81
ENDBRANCH  32  33
ENDBRANCH  25  27
ENDBRANCH  24  25
ENDBRANCH  23  24
ENDBRANCH   1  23
TORSDOF 17
ENDMDL
MODEL 3
REMARK VINA RESULT:     -10.7      1.366      2.895
REMARK SMILES CCCC1(CCC)C[NH+]([C@H](C(=O)OCCOC(=O)c2ccc(-c3c4nc(c(-c5c(F)c(F)c(F)c(F)c5F)c5ccc([nH]5)c(-c5c(F)c(F)c(F)c(F)c5F)c5nc(c(-c6c(F)c(F)c(F)c(F)c6F)c6ccc3[nH]6)C=C5)C=C4)cc2)C2CCCCC2)C1
REMARK SMILES IDX 14 1 13 2 11 3 12 4 10 5 9 6 4 7 8 8 88 9 3 11 2 12 1 13
REMARK SMILES IDX 5 14 6 15 7 16 82 17 83 18 87 19 84 20 86 21 85 22 15 23
REMARK SMILES IDX 16 24 17 25 18 26 19 27 20 28 81 29 21 30 80 31 22 32 23 33
REMARK SMILES IDX 24 34 74 35 25 36 79 37 73 38 75 39 26 40 78 41 72 42 71 43
REMARK SMILES IDX 27 45 59 46 39 47 58 48 40 49 43 50 57 51 76 52 41 53 42 54
REMARK SMILES IDX 56 56 77 57 44 58 28 59 29 60 37 61 30 62 31 63 35 64 38 65
REMARK SMILES IDX 32 66 33 67 36 68 34 69 60 70 61 71 69 72 62 73 63 74 67 75
REMARK SMILES IDX 70 76 64 77 65 78 68 79 66 80 45 81 46 82 54 83 47 84 48 85
REMARK SMILES IDX 52 86 55 87 49 88 50 89 53 90 51 91
REMARK H PARENT 9 10 75 44 43 55
REMARK Flexibility Score: inf
ROOT
ATOM      1  C   UNL A   1      32.812  28.683  23.405  1.00  0.00     0.274 C 
ENDROOT
BRANCH   1   2
ATOM      2  O   UNL A   1      33.261  27.312  23.333  1.00  0.00    -0.458 OA
BRANCH   2   3
ATOM      3  C   UNL A   1      32.404  26.406  22.791  1.00  0.00     0.365 C 
ATOM      4  O   UNL A   1      31.513  26.727  22.010  1.00  0.00    -0.245 OA
BRANCH   3   5
ATOM      5  C   UNL A   1      32.598  24.961  23.372  1.00  0.00     0.298 C 
BRANCH   5   6
ATOM      6  N   UNL A   1      34.028  24.868  23.761  1.00  0.00    -0.322 N 
ATOM      7  C   UNL A   1      35.193  23.489  24.931  1.00  0.00     0.068 C 
ATOM      8  C   UNL A   1      34.778  23.680  23.415  1.00  0.00     0.275 C 
ATOM      9  C   UNL A   1      34.357  24.793  25.165  1.00  0.00     0.275 C 
ATOM     10  H   UNL A   1      34.258  25.727  23.262  1.00  0.00     0.348 HD
BRANCH   7  11
ATOM     11  C   UNL A   1      34.675  22.076  25.283  1.00  0.00     0.018 C 
BRANCH  11  12
ATOM     12  C   UNL A   1      34.765  21.632  26.733  1.00  0.00    -0.002 C 
ATOM     13  C   UNL A   1      33.692  22.203  27.632  1.00  0.00     0.004 C 
ENDBRANCH  11  12
ENDBRANCH   7  11
BRANCH   7  14
ATOM     14  C   UNL A   1      36.701  23.708  25.235  1.00  0.00     0.018 C 
BRANCH  14  15
ATOM     15  C   UNL A   1      37.630  22.594  24.694  1.00  0.00    -0.002 C 
ATOM     16  C   UNL A   1      38.403  21.814  25.748  1.00  0.00     0.004 C 
ENDBRANCH  14  15
ENDBRANCH   7  14
ENDBRANCH   5   6
BRANCH   5  17
ATOM     17  C   UNL A   1      31.459  24.399  24.319  1.00  0.00     0.059 C 
ATOM     18  C   UNL A   1      31.555  22.919  24.732  1.00  0.00     0.010 C 
ATOM     19  C   UNL A   1      31.266  25.268  25.593  1.00  0.00     0.010 C 
ATOM     20  C   UNL A   1      30.418  22.466  25.653  1.00  0.00     0.001 C 
ATOM     21  C   UNL A   1      30.107  24.803  26.472  1.00  0.00     0.001 C 
ATOM     22  C   UNL A   1      30.289  23.348  26.881  1.00  0.00     0.000 C 
ENDBRANCH   5  17
ENDBRANCH   3   5
ENDBRANCH   2   3
ENDBRANCH   1   2
BRANCH   1  23
ATOM     23  C   UNL A   1      32.470  29.053  24.848  1.00  0.00     0.275 C 
BRANCH  23  24
ATOM     24  O   UNL A   1      33.411  30.036  25.308  1.00  0.00    -0.458 OA
BRANCH  24  25
ATOM     25  C   UNL A   1      33.117  30.671  26.465  1.00  0.00     0.338 C 
ATOM     26  O   UNL A   1      32.070  31.228  26.748  1.00  0.00    -0.246 OA
BRANCH  25  27
ATOM     27  C   UNL A   1      34.259  30.556  27.405  1.00  0.00     0.060 A 
ATOM     28  C   UNL A   1      35.116  31.632  27.628  1.00  0.00     0.016 A 
ATOM     29  C   UNL A   1      34.547  29.329  28.003  1.00  0.00     0.016 A 
ATOM     30  C   UNL A   1      36.293  31.460  28.358  1.00  0.00     0.010 A 
ATOM     31  C   UNL A   1      35.679  29.191  28.821  1.00  0.00     0.010 A 
ATOM     32  C   UNL A   1      36.599  30.244  28.979  1.00  0.00    -0.014 A 
BRANCH  32  33
ATOM     33  C   UNL A   1      37.882  30.058  29.729  1.00  0.00     0.031 A 
ATOM     34  C   UNL A   1      38.983  29.204  29.144  1.00  0.00     0.074 A 
ATOM     35  C   UNL A   1      38.113  30.663  30.915  1.00  0.00     0.049 A 
ATOM     36  N   UNL A   1      40.046  28.702  29.724  1.00  0.00    -0.248 NA
ATOM     37  C   UNL A   1      38.873  28.866  27.717  1.00  0.00     0.031 C 
ATOM     38  C   UNL A   1      37.213  31.596  31.593  1.00  0.00     0.029 A 
ATOM     39  N   UNL A   1      39.194  30.580  31.767  1.00  0.00    -0.354 N 
ATOM     40  C   UNL A   1      40.689  27.943  28.754  1.00  0.00     0.074 A 
ATOM     41  C   UNL A   1      39.912  28.062  27.540  1.00  0.00     0.031 C 
ATOM     42  C   UNL A   1      37.794  32.037  32.718  1.00  0.00     0.029 A 
ATOM     43  C   UNL A   1      39.044  31.315  32.919  1.00  0.00     0.049 A 
ATOM     44  H   UNL A   1      39.997  30.046  31.568  1.00  0.00     0.167 HD
ATOM     45  C   UNL A   1      41.816  27.200  28.869  1.00  0.00     0.037 A 
ATOM     46  C   UNL A   1      39.775  31.352  34.050  1.00  0.00     0.037 A 
ATOM     47  C   UNL A   1      42.625  27.117  30.055  1.00  0.00     0.049 A 
ATOM     48  C   UNL A   1      40.967  30.449  34.194  1.00  0.00     0.074 A 
ATOM     49  C   UNL A   1      43.771  26.371  30.268  1.00  0.00     0.029 A 
ATOM     50  N   UNL A   1      42.385  27.823  31.223  1.00  0.00    -0.354 N 
ATOM     51  N   UNL A   1      41.498  29.634  33.316  1.00  0.00    -0.248 NA
ATOM     52  C   UNL A   1      41.637  30.438  35.504  1.00  0.00     0.031 C 
ATOM     53  C   UNL A   1      44.208  26.600  31.577  1.00  0.00     0.029 A 
ATOM     54  C   UNL A   1      43.355  27.518  32.164  1.00  0.00     0.049 A 
ATOM     55  H   UNL A   1      41.637  28.447  31.363  1.00  0.00     0.167 HD
ATOM     56  C   UNL A   1      42.561  29.019  33.963  1.00  0.00     0.074 A 
ATOM     57  C   UNL A   1      42.616  29.568  35.301  1.00  0.00     0.031 C 
ATOM     58  C   UNL A   1      43.409  28.075  33.489  1.00  0.00     0.037 A 
BRANCH  45  59
ATOM     59  C   UNL A   1      42.227  26.368  27.692  1.00  0.00     0.064 A 
ATOM     60  C   UNL A   1      43.213  26.789  26.791  1.00  0.00     0.173 A 
ATOM     61  C   UNL A   1      41.665  25.094  27.509  1.00  0.00     0.173 A 
ATOM     62  F   UNL A   1      43.766  28.005  26.915  1.00  0.00    -0.203 F 
ATOM     63  C   UNL A   1      43.619  25.966  25.743  1.00  0.00     0.198 A 
ATOM     64  C   UNL A   1      42.090  24.266  26.475  1.00  0.00     0.198 A 
ATOM     65  F   UNL A   1      40.720  24.646  28.349  1.00  0.00    -0.203 F 
ATOM     66  F   UNL A   1      44.547  26.396  24.877  1.00  0.00    -0.200 F 
ATOM     67  C   UNL A   1      43.065  24.703  25.591  1.00  0.00     0.200 A 
ATOM     68  F   UNL A   1      41.561  23.043  26.337  1.00  0.00    -0.200 F 
ATOM     69  F   UNL A   1      43.469  23.908  24.591  1.00  0.00    -0.200 F 
ENDBRANCH  45  59
BRANCH  46  70
ATOM     70  C   UNL A   1      39.337  32.207  35.187  1.00  0.00     0.064 A 
ATOM     71  C   UNL A   1      39.705  33.558  35.262  1.00  0.00     0.173 A 
ATOM     72  C   UNL A   1      38.547  31.689  36.225  1.00  0.00     0.173 A 
ATOM     73  F   UNL A   1      40.491  34.091  34.314  1.00  0.00    -0.203 F 
ATOM     74  C   UNL A   1      39.299  34.354  36.331  1.00  0.00     0.198 A 
ATOM     75  C   UNL A   1      38.113  32.494  37.274  1.00  0.00     0.198 A 
ATOM     76  F   UNL A   1      38.180  30.399  36.209  1.00  0.00    -0.203 F 
ATOM     77  F   UNL A   1      39.700  35.631  36.402  1.00  0.00    -0.200 F 
ATOM     78  C   UNL A   1      38.495  33.826  37.330  1.00  0.00     0.200 A 
ATOM     79  F   UNL A   1      37.326  31.980  38.228  1.00  0.00    -0.200 F 
ATOM     80  F   UNL A   1      38.096  34.596  38.351  1.00  0.00    -0.200 F 
ENDBRANCH  46  70
BRANCH  58  81
ATOM     81  C   UNL A   1      44.490  27.593  34.407  1.00  0.00     0.064 A 
ATOM     82  C   UNL A   1      45.716  28.266  34.510  1.00  0.00     0.173 A 
ATOM     83  C   UNL A   1      44.280  26.475  35.228  1.00  0.00     0.173 A 
ATOM     84  F   UNL A   1      45.968  29.330  33.733  1.00  0.00    -0.203 F 
ATOM     85  C   UNL A   1      46.699  27.828  35.393  1.00  0.00     0.198 A 
ATOM     86  C   UNL A   1      45.256  26.054  36.125  1.00  0.00     0.198 A 
ATOM     87  F   UNL A   1      43.121  25.802  35.168  1.00  0.00    -0.203 F 
ATOM     88  F   UNL A   1      47.877  28.466  35.453  1.00  0.00    -0.200 F 
ATOM     89  C   UNL A   1      46.465  26.727  36.204  1.00  0.00     0.200 A 
ATOM     90  F   UNL A   1      45.025  24.996  36.916  1.00  0.00    -0.200 F 
ATOM     91  F   UNL A   1      47.410  26.312  37.060  1.00  0.00    -0.200 F 
ENDBRANCH  58  81
ENDBRANCH  32  33
ENDBRANCH  25  27
ENDBRANCH  24  25
ENDBRANCH  23  24
ENDBRANCH   1  23
TORSDOF 17
ENDMDL
