MODEL 1
REMARK VINA RESULT:     -12.4      0.000      0.000
REMARK SMILES C[C@H]1[C@H](C(=O)OCCOC(=O)c2ccc(-c3c4nc(c(-c5c(F)c(F)c(F)c(F)c5F)c5ccc([nH]5)c(-c5c(F)c(F)c(F)c(F)c5F)c5nc(c(-c6c(F)c(F)c(F)c(F)c6F)c6ccc3[nH]6)C=C5)C=C4)cc2)CCN1S(=O)(=O)/C=C/c1ccc(Cl)cc1
REMARK SMILES IDX 7 1 6 2 4 3 5 4 3 5 1 6 2 7 77 8 75 9 76 10 78 11 79 12
REMARK SMILES IDX 80 13 81 14 82 15 83 16 84 17 89 18 85 19 88 20 86 21 87 22
REMARK SMILES IDX 8 23 9 24 10 25 11 26 12 27 13 28 74 29 14 30 73 31 15 32
REMARK SMILES IDX 16 33 17 34 67 35 18 36 72 37 66 38 68 39 19 40 71 41 65 42
REMARK SMILES IDX 64 43 20 45 52 46 32 47 51 48 33 49 36 50 50 51 69 52 34 53
REMARK SMILES IDX 35 54 49 56 70 57 37 58 21 59 22 60 30 61 23 62 24 63 28 64
REMARK SMILES IDX 31 65 25 66 26 67 29 68 27 69 53 70 54 71 62 72 55 73 56 74
REMARK SMILES IDX 60 75 63 76 57 77 58 78 61 79 59 80 38 81 39 82 47 83 40 84
REMARK SMILES IDX 41 85 45 86 48 87 42 88 43 89 46 90 44 91
REMARK H PARENT 68 44 36 55
REMARK Flexibility Score: inf
ROOT
ATOM      1  C   UNL A   1      31.777  28.319  27.084  1.00  0.00     0.274 C 
ENDROOT
BRANCH   1   2
ATOM      2  O   UNL A   1      32.265  27.261  26.238  1.00  0.00    -0.462 OA
BRANCH   2   3
ATOM      3  C   UNL A   1      31.724  26.032  26.410  1.00  0.00     0.310 C 
ATOM      4  O   UNL A   1      30.543  25.816  26.658  1.00  0.00    -0.252 OA
BRANCH   3   5
ATOM      5  C   UNL A   1      32.726  24.908  26.264  1.00  0.00     0.118 C 
ATOM      6  C   UNL A   1      32.109  22.459  26.098  1.00  0.00     0.027 C 
ATOM      7  C   UNL A   1      32.301  23.767  25.321  1.00  0.00     0.084 C 
ATOM      8  N   UNL A   1      33.451  23.563  24.374  1.00  0.00    -0.195 NA
ATOM      9  C   UNL A   1      34.060  25.413  25.739  1.00  0.00     0.034 C 
ATOM     10  C   UNL A   1      34.631  24.212  25.013  1.00  0.00     0.104 C 
BRANCH   8  11
ATOM     11  S   UNL A   1      33.196  24.084  22.753  1.00  0.00     0.236 S 
ATOM     12  O   UNL A   1      34.374  24.838  22.378  1.00  0.00    -0.207 OA
ATOM     13  O   UNL A   1      32.834  22.900  22.001  1.00  0.00    -0.207 OA
BRANCH  11  14
ATOM     14  C   UNL A   1      31.846  25.166  22.732  1.00  0.00     0.123 C 
ATOM     15  C   UNL A   1      32.027  26.489  22.826  1.00  0.00     0.021 C 
BRANCH  15  16
ATOM     16  C   UNL A   1      30.895  27.411  22.867  1.00  0.00    -0.025 A 
ATOM     17  C   UNL A   1      31.026  28.715  22.376  1.00  0.00     0.009 A 
ATOM     18  C   UNL A   1      29.677  27.000  23.423  1.00  0.00     0.009 A 
ATOM     19  C   UNL A   1      29.949  29.604  22.451  1.00  0.00     0.021 A 
ATOM     20  C   UNL A   1      28.602  27.890  23.501  1.00  0.00     0.021 A 
ATOM     21  C   UNL A   1      28.745  29.189  23.018  1.00  0.00     0.041 A 
ATOM     22  Cl  UNL A   1      27.427  30.289  23.130  1.00  0.00    -0.084 Cl
ENDBRANCH  15  16
ENDBRANCH  11  14
ENDBRANCH   8  11
ENDBRANCH   3   5
ENDBRANCH   2   3
ENDBRANCH   1   2
BRANCH   1  23
ATOM     23  C   UNL A   1      31.778  29.659  26.342  1.00  0.00     0.275 C 
BRANCH  23  24
ATOM     24  O   UNL A   1      33.114  30.175  26.189  1.00  0.00    -0.458 OA
BRANCH  24  25
ATOM     25  C   UNL A   1      33.431  31.204  27.004  1.00  0.00     0.338 C 
ATOM     26  O   UNL A   1      32.740  32.164  27.298  1.00  0.00    -0.246 OA
BRANCH  25  27
ATOM     27  C   UNL A   1      34.737  30.951  27.625  1.00  0.00     0.060 A 
ATOM     28  C   UNL A   1      35.069  29.637  27.966  1.00  0.00     0.016 A 
ATOM     29  C   UNL A   1      35.581  32.008  27.960  1.00  0.00     0.016 A 
ATOM     30  C   UNL A   1      36.239  29.370  28.668  1.00  0.00     0.010 A 
ATOM     31  C   UNL A   1      36.767  31.738  28.646  1.00  0.00     0.010 A 
ATOM     32  C   UNL A   1      37.095  30.420  29.016  1.00  0.00    -0.014 A 
BRANCH  32  33
ATOM     33  C   UNL A   1      38.322  30.158  29.799  1.00  0.00     0.031 A 
ATOM     34  C   UNL A   1      39.376  29.252  29.240  1.00  0.00     0.074 A 
ATOM     35  C   UNL A   1      38.473  30.713  31.015  1.00  0.00     0.049 A 
ATOM     36  N   UNL A   1      40.414  28.723  29.833  1.00  0.00    -0.248 NA
ATOM     37  C   UNL A   1      39.240  28.890  27.820  1.00  0.00     0.031 C 
ATOM     38  C   UNL A   1      37.548  31.665  31.629  1.00  0.00     0.029 A 
ATOM     39  N   UNL A   1      39.451  30.536  31.959  1.00  0.00    -0.354 N 
ATOM     40  C   UNL A   1      41.033  27.936  28.874  1.00  0.00     0.074 A 
ATOM     41  C   UNL A   1      40.260  28.059  27.656  1.00  0.00     0.031 C 
ATOM     42  C   UNL A   1      37.993  31.974  32.858  1.00  0.00     0.029 A 
ATOM     43  C   UNL A   1      39.195  31.195  33.137  1.00  0.00     0.049 A 
ATOM     44  H   UNL A   1      40.257  29.991  31.808  1.00  0.00     0.167 HD
ATOM     45  C   UNL A   1      42.145  27.174  29.007  1.00  0.00     0.037 A 
ATOM     46  C   UNL A   1      39.830  31.132  34.322  1.00  0.00     0.037 A 
ATOM     47  C   UNL A   1      42.915  27.079  30.218  1.00  0.00     0.049 A 
ATOM     48  C   UNL A   1      41.024  30.228  34.465  1.00  0.00     0.074 A 
ATOM     49  C   UNL A   1      44.058  26.337  30.459  1.00  0.00     0.029 A 
ATOM     50  N   UNL A   1      42.619  27.754  31.393  1.00  0.00    -0.354 N 
ATOM     51  N   UNL A   1      41.587  29.455  33.569  1.00  0.00    -0.248 NA
ATOM     52  C   UNL A   1      41.661  30.174  35.789  1.00  0.00     0.031 C 
ATOM     53  C   UNL A   1      44.434  26.537  31.792  1.00  0.00     0.029 A 
ATOM     54  C   UNL A   1      43.549  27.435  32.368  1.00  0.00     0.049 A 
ATOM     55  H   UNL A   1      41.860  28.368  31.516  1.00  0.00     0.167 HD
ATOM     56  C   UNL A   1      42.656  28.844  34.208  1.00  0.00     0.074 A 
ATOM     57  C   UNL A   1      42.666  29.338  35.570  1.00  0.00     0.031 C 
ATOM     58  C   UNL A   1      43.550  27.955  33.711  1.00  0.00     0.037 A 
BRANCH  45  59
ATOM     59  C   UNL A   1      42.570  26.354  27.827  1.00  0.00     0.064 A 
ATOM     60  C   UNL A   1      43.563  26.795  26.940  1.00  0.00     0.173 A 
ATOM     61  C   UNL A   1      41.999  25.093  27.603  1.00  0.00     0.173 A 
ATOM     62  F   UNL A   1      44.126  28.001  27.102  1.00  0.00    -0.203 F 
ATOM     63  C   UNL A   1      43.954  26.009  25.858  1.00  0.00     0.198 A 
ATOM     64  C   UNL A   1      42.410  24.300  26.536  1.00  0.00     0.198 A 
ATOM     65  F   UNL A   1      41.047  24.626  28.424  1.00  0.00    -0.203 F 
ATOM     66  F   UNL A   1      44.877  26.465  25.000  1.00  0.00    -0.200 F 
ATOM     67  C   UNL A   1      43.383  24.760  25.661  1.00  0.00     0.200 A 
ATOM     68  F   UNL A   1      41.861  23.090  26.351  1.00  0.00    -0.200 F 
ATOM     69  F   UNL A   1      43.764  24.003  24.623  1.00  0.00    -0.200 F 
ENDBRANCH  45  59
BRANCH  46  70
ATOM     70  C   UNL A   1      39.321  31.919  35.473  1.00  0.00     0.064 A 
ATOM     71  C   UNL A   1      39.699  33.254  35.657  1.00  0.00     0.173 A 
ATOM     72  C   UNL A   1      38.437  31.354  36.405  1.00  0.00     0.173 A 
ATOM     73  F   UNL A   1      40.561  33.830  34.805  1.00  0.00    -0.203 F 
ATOM     74  C   UNL A   1      39.218  33.995  36.735  1.00  0.00     0.198 A 
ATOM     75  C   UNL A   1      37.938  32.103  37.467  1.00  0.00     0.198 A 
ATOM     76  F   UNL A   1      38.047  30.078  36.274  1.00  0.00    -0.203 F 
ATOM     77  F   UNL A   1      39.623  35.261  36.908  1.00  0.00    -0.200 F 
ATOM     78  C   UNL A   1      38.332  33.422  37.635  1.00  0.00     0.200 A 
ATOM     79  F   UNL A   1      37.073  31.548  38.328  1.00  0.00    -0.200 F 
ATOM     80  F   UNL A   1      37.865  34.137  38.667  1.00  0.00    -0.200 F 
ENDBRANCH  46  70
BRANCH  58  81
ATOM     81  C   UNL A   1      44.644  27.495  34.624  1.00  0.00     0.064 A 
ATOM     82  C   UNL A   1      44.517  26.329  35.393  1.00  0.00     0.173 A 
ATOM     83  C   UNL A   1      45.859  28.192  34.676  1.00  0.00     0.173 A 
ATOM     84  F   UNL A   1      43.366  25.639  35.385  1.00  0.00    -0.203 F 
ATOM     85  C   UNL A   1      45.568  25.882  36.188  1.00  0.00     0.198 A 
ATOM     86  C   UNL A   1      46.916  27.730  35.456  1.00  0.00     0.198 A 
ATOM     87  F   UNL A   1      46.028  29.310  33.955  1.00  0.00    -0.203 F 
ATOM     88  F   UNL A   1      45.419  24.779  36.935  1.00  0.00    -0.200 F 
ATOM     89  C   UNL A   1      46.768  26.577  36.212  1.00  0.00     0.200 A 
ATOM     90  F   UNL A   1      48.078  28.398  35.470  1.00  0.00    -0.200 F 
ATOM     91  F   UNL A   1      47.784  26.137  36.966  1.00  0.00    -0.200 F 
ENDBRANCH  58  81
ENDBRANCH  32  33
ENDBRANCH  25  27
ENDBRANCH  24  25
ENDBRANCH  23  24
ENDBRANCH   1  23
TORSDOF 14
ENDMDL
MODEL 2
REMARK VINA RESULT:     -12.4      2.104      3.748
REMARK SMILES C[C@H]1[C@H](C(=O)OCCOC(=O)c2ccc(-c3c4nc(c(-c5c(F)c(F)c(F)c(F)c5F)c5ccc([nH]5)c(-c5c(F)c(F)c(F)c(F)c5F)c5nc(c(-c6c(F)c(F)c(F)c(F)c6F)c6ccc3[nH]6)C=C5)C=C4)cc2)CCN1S(=O)(=O)/C=C/c1ccc(Cl)cc1
REMARK SMILES IDX 7 1 6 2 4 3 5 4 3 5 1 6 2 7 77 8 75 9 76 10 78 11 79 12
REMARK SMILES IDX 80 13 81 14 82 15 83 16 84 17 89 18 85 19 88 20 86 21 87 22
REMARK SMILES IDX 8 23 9 24 10 25 11 26 12 27 13 28 74 29 14 30 73 31 15 32
REMARK SMILES IDX 16 33 17 34 67 35 18 36 72 37 66 38 68 39 19 40 71 41 65 42
REMARK SMILES IDX 64 43 20 45 52 46 32 47 51 48 33 49 36 50 50 51 69 52 34 53
REMARK SMILES IDX 35 54 49 56 70 57 37 58 21 59 22 60 30 61 23 62 24 63 28 64
REMARK SMILES IDX 31 65 25 66 26 67 29 68 27 69 53 70 54 71 62 72 55 73 56 74
REMARK SMILES IDX 60 75 63 76 57 77 58 78 61 79 59 80 38 81 39 82 47 83 40 84
REMARK SMILES IDX 41 85 45 86 48 87 42 88 43 89 46 90 44 91
REMARK H PARENT 68 44 36 55
REMARK Flexibility Score: inf
ROOT
ATOM      1  C   UNL A   1      31.170  29.722  24.612  1.00  0.00     0.274 C 
ENDROOT
BRANCH   1   2
ATOM      2  O   UNL A   1      31.720  28.665  23.804  1.00  0.00    -0.462 OA
BRANCH   2   3
ATOM      3  C   UNL A   1      30.945  28.186  22.802  1.00  0.00     0.310 C 
ATOM      4  O   UNL A   1      30.295  28.879  22.027  1.00  0.00    -0.252 OA
BRANCH   3   5
ATOM      5  C   UNL A   1      30.947  26.676  22.710  1.00  0.00     0.118 C 
ATOM      6  C   UNL A   1      32.791  25.314  21.639  1.00  0.00     0.027 C 
ATOM      7  C   UNL A   1      32.317  26.006  22.923  1.00  0.00     0.084 C 
ATOM      8  N   UNL A   1      32.099  24.936  23.956  1.00  0.00    -0.195 NA
ATOM      9  C   UNL A   1      30.011  26.053  23.732  1.00  0.00     0.034 C 
ATOM     10  C   UNL A   1      30.629  24.694  23.995  1.00  0.00     0.104 C 
BRANCH   8  11
ATOM     11  S   UNL A   1      32.768  25.243  25.512  1.00  0.00     0.236 S 
ATOM     12  O   UNL A   1      33.288  26.595  25.472  1.00  0.00    -0.207 OA
ATOM     13  O   UNL A   1      31.736  24.901  26.470  1.00  0.00    -0.207 OA
BRANCH  11  14
ATOM     14  C   UNL A   1      34.103  24.170  25.757  1.00  0.00     0.123 C 
ATOM     15  C   UNL A   1      35.313  24.458  25.261  1.00  0.00     0.021 C 
BRANCH  15  16
ATOM     16  C   UNL A   1      36.434  23.534  25.409  1.00  0.00    -0.025 A 
ATOM     17  C   UNL A   1      36.358  22.238  24.884  1.00  0.00     0.009 A 
ATOM     18  C   UNL A   1      37.585  23.934  26.100  1.00  0.00     0.009 A 
ATOM     19  C   UNL A   1      37.420  21.347  25.060  1.00  0.00     0.021 A 
ATOM     20  C   UNL A   1      38.645  23.041  26.278  1.00  0.00     0.021 A 
ATOM     21  C   UNL A   1      38.556  21.751  25.761  1.00  0.00     0.041 A 
ATOM     22  Cl  UNL A   1      39.855  20.647  25.996  1.00  0.00    -0.084 Cl
ENDBRANCH  15  16
ENDBRANCH  11  14
ENDBRANCH   8  11
ENDBRANCH   3   5
ENDBRANCH   2   3
ENDBRANCH   1   2
BRANCH   1  23
ATOM     23  C   UNL A   1      31.756  29.691  26.026  1.00  0.00     0.275 C 
BRANCH  23  24
ATOM     24  O   UNL A   1      33.119  30.157  26.042  1.00  0.00    -0.458 OA
BRANCH  24  25
ATOM     25  C   UNL A   1      33.383  31.135  26.936  1.00  0.00     0.338 C 
ATOM     26  O   UNL A   1      32.650  32.043  27.287  1.00  0.00    -0.246 OA
BRANCH  25  27
ATOM     27  C   UNL A   1      34.690  30.888  27.559  1.00  0.00     0.060 A 
ATOM     28  C   UNL A   1      35.007  29.583  27.946  1.00  0.00     0.016 A 
ATOM     29  C   UNL A   1      35.549  31.946  27.849  1.00  0.00     0.016 A 
ATOM     30  C   UNL A   1      36.177  29.327  28.650  1.00  0.00     0.010 A 
ATOM     31  C   UNL A   1      36.736  31.685  28.539  1.00  0.00     0.010 A 
ATOM     32  C   UNL A   1      37.048  30.378  28.955  1.00  0.00    -0.014 A 
BRANCH  32  33
ATOM     33  C   UNL A   1      38.277  30.129  29.740  1.00  0.00     0.031 A 
ATOM     34  C   UNL A   1      39.338  29.228  29.187  1.00  0.00     0.074 A 
ATOM     35  C   UNL A   1      38.423  30.692  30.953  1.00  0.00     0.049 A 
ATOM     36  N   UNL A   1      40.379  28.709  29.783  1.00  0.00    -0.248 NA
ATOM     37  C   UNL A   1      39.205  28.857  27.769  1.00  0.00     0.031 C 
ATOM     38  C   UNL A   1      37.491  31.641  31.561  1.00  0.00     0.029 A 
ATOM     39  N   UNL A   1      39.402  30.528  31.899  1.00  0.00    -0.354 N 
ATOM     40  C   UNL A   1      41.005  27.921  28.829  1.00  0.00     0.074 A 
ATOM     41  C   UNL A   1      40.231  28.031  27.610  1.00  0.00     0.031 C 
ATOM     42  C   UNL A   1      37.933  31.960  32.789  1.00  0.00     0.029 A 
ATOM     43  C   UNL A   1      39.141  31.191  33.073  1.00  0.00     0.049 A 
ATOM     44  H   UNL A   1      40.212  29.988  31.752  1.00  0.00     0.167 HD
ATOM     45  C   UNL A   1      42.122  27.168  28.967  1.00  0.00     0.037 A 
ATOM     46  C   UNL A   1      39.775  31.139  34.259  1.00  0.00     0.037 A 
ATOM     47  C   UNL A   1      42.892  27.085  30.180  1.00  0.00     0.049 A 
ATOM     48  C   UNL A   1      40.975  30.244  34.408  1.00  0.00     0.074 A 
ATOM     49  C   UNL A   1      44.039  26.352  30.426  1.00  0.00     0.029 A 
ATOM     50  N   UNL A   1      42.590  27.764  31.351  1.00  0.00    -0.354 N 
ATOM     51  N   UNL A   1      41.544  29.470  33.516  1.00  0.00    -0.248 NA
ATOM     52  C   UNL A   1      41.612  30.202  35.732  1.00  0.00     0.031 C 
ATOM     53  C   UNL A   1      44.413  26.562  31.757  1.00  0.00     0.029 A 
ATOM     54  C   UNL A   1      43.522  27.457  32.328  1.00  0.00     0.049 A 
ATOM     55  H   UNL A   1      41.826  28.374  31.470  1.00  0.00     0.167 HD
ATOM     56  C   UNL A   1      42.617  28.870  34.159  1.00  0.00     0.074 A 
ATOM     57  C   UNL A   1      42.623  29.372  35.518  1.00  0.00     0.031 C 
ATOM     58  C   UNL A   1      43.517  27.985  33.668  1.00  0.00     0.037 A 
BRANCH  45  59
ATOM     59  C   UNL A   1      42.554  26.344  27.792  1.00  0.00     0.064 A 
ATOM     60  C   UNL A   1      43.505  26.810  26.873  1.00  0.00     0.173 A 
ATOM     61  C   UNL A   1      42.032  25.056  27.605  1.00  0.00     0.173 A 
ATOM     62  F   UNL A   1      44.020  28.042  27.000  1.00  0.00    -0.203 F 
ATOM     63  C   UNL A   1      43.904  26.021  25.797  1.00  0.00     0.198 A 
ATOM     64  C   UNL A   1      42.451  24.261  26.543  1.00  0.00     0.198 A 
ATOM     65  F   UNL A   1      41.120  24.564  28.458  1.00  0.00    -0.203 F 
ATOM     66  F   UNL A   1      44.785  26.499  24.908  1.00  0.00    -0.200 F 
ATOM     67  C   UNL A   1      43.382  24.745  25.636  1.00  0.00     0.200 A 
ATOM     68  F   UNL A   1      41.950  23.026  26.393  1.00  0.00    -0.200 F 
ATOM     69  F   UNL A   1      43.771  23.986  24.603  1.00  0.00    -0.200 F 
ENDBRANCH  45  59
BRANCH  46  70
ATOM     70  C   UNL A   1      39.260  31.929  35.405  1.00  0.00     0.064 A 
ATOM     71  C   UNL A   1      39.620  33.271  35.576  1.00  0.00     0.173 A 
ATOM     72  C   UNL A   1      38.387  31.360  36.345  1.00  0.00     0.173 A 
ATOM     73  F   UNL A   1      40.471  33.851  34.715  1.00  0.00    -0.203 F 
ATOM     74  C   UNL A   1      39.133  34.014  36.649  1.00  0.00     0.198 A 
ATOM     75  C   UNL A   1      37.881  32.111  37.403  1.00  0.00     0.198 A 
ATOM     76  F   UNL A   1      38.014  30.078  36.226  1.00  0.00    -0.203 F 
ATOM     77  F   UNL A   1      39.521  35.287  36.810  1.00  0.00    -0.200 F 
ATOM     78  C   UNL A   1      38.259  33.437  37.557  1.00  0.00     0.200 A 
ATOM     79  F   UNL A   1      37.028  31.551  38.272  1.00  0.00    -0.200 F 
ATOM     80  F   UNL A   1      37.786  34.154  38.585  1.00  0.00    -0.200 F 
ENDBRANCH  46  70
BRANCH  58  81
ATOM     81  C   UNL A   1      44.614  27.538  34.584  1.00  0.00     0.064 A 
ATOM     82  C   UNL A   1      45.807  28.263  34.711  1.00  0.00     0.173 A 
ATOM     83  C   UNL A   1      44.437  26.408  35.396  1.00  0.00     0.173 A 
ATOM     84  F   UNL A   1      46.024  29.342  33.943  1.00  0.00    -0.203 F 
ATOM     85  C   UNL A   1      46.789  27.867  35.615  1.00  0.00     0.198 A 
ATOM     86  C   UNL A   1      45.412  26.028  36.314  1.00  0.00     0.198 A 
ATOM     87  F   UNL A   1      43.311  25.685  35.313  1.00  0.00    -0.203 F 
ATOM     88  F   UNL A   1      47.933  28.560  35.704  1.00  0.00    -0.200 F 
ATOM     89  C   UNL A   1      46.587  26.757  36.421  1.00  0.00     0.200 A 
ATOM     90  F   UNL A   1      45.211  24.960  37.099  1.00  0.00    -0.200 F 
ATOM     91  F   UNL A   1      47.527  26.386  37.301  1.00  0.00    -0.200 F 
ENDBRANCH  58  81
ENDBRANCH  32  33
ENDBRANCH  25  27
ENDBRANCH  24  25
ENDBRANCH  23  24
ENDBRANCH   1  23
TORSDOF 14
ENDMDL
MODEL 3
REMARK VINA RESULT:     -12.4      0.422      1.647
REMARK SMILES C[C@H]1[C@H](C(=O)OCCOC(=O)c2ccc(-c3c4nc(c(-c5c(F)c(F)c(F)c(F)c5F)c5ccc([nH]5)c(-c5c(F)c(F)c(F)c(F)c5F)c5nc(c(-c6c(F)c(F)c(F)c(F)c6F)c6ccc3[nH]6)C=C5)C=C4)cc2)CCN1S(=O)(=O)/C=C/c1ccc(Cl)cc1
REMARK SMILES IDX 7 1 6 2 4 3 5 4 3 5 1 6 2 7 77 8 75 9 76 10 78 11 79 12
REMARK SMILES IDX 80 13 81 14 82 15 83 16 84 17 89 18 85 19 88 20 86 21 87 22
REMARK SMILES IDX 8 23 9 24 10 25 11 26 12 27 13 28 74 29 14 30 73 31 15 32
REMARK SMILES IDX 16 33 17 34 67 35 18 36 72 37 66 38 68 39 19 40 71 41 65 42
REMARK SMILES IDX 64 43 20 45 52 46 32 47 51 48 33 49 36 50 50 51 69 52 34 53
REMARK SMILES IDX 35 54 49 56 70 57 37 58 21 59 22 60 30 61 23 62 24 63 28 64
REMARK SMILES IDX 31 65 25 66 26 67 29 68 27 69 53 70 54 71 62 72 55 73 56 74
REMARK SMILES IDX 60 75 63 76 57 77 58 78 61 79 59 80 38 81 39 82 47 83 40 84
REMARK SMILES IDX 41 85 45 86 48 87 42 88 43 89 46 90 44 91
REMARK H PARENT 68 44 36 55
REMARK Flexibility Score: inf
ROOT
ATOM      1  C   UNL A   1      31.534  28.850  25.932  1.00  0.00     0.274 C 
ENDROOT
BRANCH   1   2
ATOM      2  O   UNL A   1      32.464  27.770  26.144  1.00  0.00    -0.462 OA
BRANCH   2   3
ATOM      3  C   UNL A   1      31.943  26.536  26.343  1.00  0.00     0.310 C 
ATOM      4  O   UNL A   1      30.764  26.304  26.583  1.00  0.00    -0.252 OA
BRANCH   3   5
ATOM      5  C   UNL A   1      32.968  25.428  26.239  1.00  0.00     0.118 C 
ATOM      6  C   UNL A   1      32.520  23.010  26.835  1.00  0.00     0.027 C 
ATOM      7  C   UNL A   1      32.425  24.076  25.737  1.00  0.00     0.084 C 
ATOM      8  N   UNL A   1      33.338  23.653  24.620  1.00  0.00    -0.195 NA
ATOM      9  C   UNL A   1      34.102  25.801  25.298  1.00  0.00     0.034 C 
ATOM     10  C   UNL A   1      34.581  24.463  24.773  1.00  0.00     0.104 C 
BRANCH   8  11
ATOM     11  S   UNL A   1      32.676  23.736  23.033  1.00  0.00     0.236 S 
ATOM     12  O   UNL A   1      33.742  24.206  22.171  1.00  0.00    -0.207 OA
ATOM     13  O   UNL A   1      32.068  22.445  22.781  1.00  0.00    -0.207 OA
BRANCH  11  14
ATOM     14  C   UNL A   1      31.423  24.929  23.023  1.00  0.00     0.123 C 
ATOM     15  C   UNL A   1      31.698  26.208  22.739  1.00  0.00     0.021 C 
BRANCH  15  16
ATOM     16  C   UNL A   1      30.661  27.236  22.784  1.00  0.00    -0.025 A 
ATOM     17  C   UNL A   1      30.911  28.515  22.271  1.00  0.00     0.009 A 
ATOM     18  C   UNL A   1      29.419  26.954  23.364  1.00  0.00     0.009 A 
ATOM     19  C   UNL A   1      29.928  29.506  22.349  1.00  0.00     0.021 A 
ATOM     20  C   UNL A   1      28.437  27.946  23.444  1.00  0.00     0.021 A 
ATOM     21  C   UNL A   1      28.698  29.218  22.940  1.00  0.00     0.041 A 
ATOM     22  Cl  UNL A   1      27.496  30.443  23.055  1.00  0.00    -0.084 Cl
ENDBRANCH  15  16
ENDBRANCH  11  14
ENDBRANCH   8  11
ENDBRANCH   3   5
ENDBRANCH   2   3
ENDBRANCH   1   2
BRANCH   1  23
ATOM     23  C   UNL A   1      31.891  30.058  26.802  1.00  0.00     0.275 C 
BRANCH  23  24
ATOM     24  O   UNL A   1      33.206  30.560  26.493  1.00  0.00    -0.458 OA
BRANCH  24  25
ATOM     25  C   UNL A   1      33.621  31.594  27.257  1.00  0.00     0.338 C 
ATOM     26  O   UNL A   1      33.014  32.615  27.526  1.00  0.00    -0.246 OA
BRANCH  25  27
ATOM     27  C   UNL A   1      34.921  31.266  27.858  1.00  0.00     0.060 A 
ATOM     28  C   UNL A   1      35.114  29.978  28.365  1.00  0.00     0.016 A 
ATOM     29  C   UNL A   1      35.900  32.246  28.010  1.00  0.00     0.016 A 
ATOM     30  C   UNL A   1      36.281  29.664  29.052  1.00  0.00     0.010 A 
ATOM     31  C   UNL A   1      37.081  31.925  28.682  1.00  0.00     0.010 A 
ATOM     32  C   UNL A   1      37.271  30.637  29.219  1.00  0.00    -0.014 A 
BRANCH  32  33
ATOM     33  C   UNL A   1      38.500  30.333  29.984  1.00  0.00     0.031 A 
ATOM     34  C   UNL A   1      39.523  29.407  29.401  1.00  0.00     0.074 A 
ATOM     35  C   UNL A   1      38.680  30.867  31.205  1.00  0.00     0.049 A 
ATOM     36  N   UNL A   1      40.553  28.842  29.974  1.00  0.00    -0.248 NA
ATOM     37  C   UNL A   1      39.361  29.068  27.978  1.00  0.00     0.031 C 
ATOM     38  C   UNL A   1      37.787  31.834  31.843  1.00  0.00     0.029 A 
ATOM     39  N   UNL A   1      39.664  30.652  32.136  1.00  0.00    -0.354 N 
ATOM     40  C   UNL A   1      41.140  28.052  28.997  1.00  0.00     0.074 A 
ATOM     41  C   UNL A   1      40.356  28.212  27.791  1.00  0.00     0.031 C 
ATOM     42  C   UNL A   1      38.255  32.115  33.070  1.00  0.00     0.029 A 
ATOM     43  C   UNL A   1      39.439  31.300  33.325  1.00  0.00     0.049 A 
ATOM     44  H   UNL A   1      40.453  30.087  31.968  1.00  0.00     0.167 HD
ATOM     45  C   UNL A   1      42.233  27.259  29.107  1.00  0.00     0.037 A 
ATOM     46  C   UNL A   1      40.085  31.205  34.501  1.00  0.00     0.037 A 
ATOM     47  C   UNL A   1      43.014  27.127  30.308  1.00  0.00     0.049 A 
ATOM     48  C   UNL A   1      41.256  30.267  34.619  1.00  0.00     0.074 A 
ATOM     49  C   UNL A   1      44.139  26.352  30.526  1.00  0.00     0.029 A 
ATOM     50  N   UNL A   1      42.749  27.794  31.496  1.00  0.00    -0.354 N 
ATOM     51  N   UNL A   1      41.788  29.492  33.706  1.00  0.00    -0.248 NA
ATOM     52  C   UNL A   1      41.907  30.178  35.934  1.00  0.00     0.031 C 
ATOM     53  C   UNL A   1      44.536  26.524  31.856  1.00  0.00     0.029 A 
ATOM     54  C   UNL A   1      43.682  27.437  32.455  1.00  0.00     0.049 A 
ATOM     55  H   UNL A   1      42.008  28.426  31.635  1.00  0.00     0.167 HD
ATOM     56  C   UNL A   1      42.847  28.844  34.323  1.00  0.00     0.074 A 
ATOM     57  C   UNL A   1      42.886  29.319  35.692  1.00  0.00     0.031 C 
ATOM     58  C   UNL A   1      43.711  27.939  33.804  1.00  0.00     0.037 A 
BRANCH  45  59
ATOM     59  C   UNL A   1      42.623  26.444  27.912  1.00  0.00     0.064 A 
ATOM     60  C   UNL A   1      42.078  25.174  27.673  1.00  0.00     0.173 A 
ATOM     61  C   UNL A   1      43.530  26.959  26.974  1.00  0.00     0.173 A 
ATOM     62  F   UNL A   1      41.220  24.632  28.550  1.00  0.00    -0.203 F 
ATOM     63  C   UNL A   1      42.442  24.441  26.547  1.00  0.00     0.198 A 
ATOM     64  C   UNL A   1      43.873  26.234  25.836  1.00  0.00     0.198 A 
ATOM     65  F   UNL A   1      44.078  28.170  27.156  1.00  0.00    -0.203 F 
ATOM     66  F   UNL A   1      41.939  23.213  26.357  1.00  0.00    -0.200 F 
ATOM     67  C   UNL A   1      43.333  24.973  25.626  1.00  0.00     0.200 A 
ATOM     68  F   UNL A   1      44.729  26.753  24.945  1.00  0.00    -0.200 F 
ATOM     69  F   UNL A   1      43.679  24.268  24.541  1.00  0.00    -0.200 F 
ENDBRANCH  45  59
BRANCH  46  70
ATOM     70  C   UNL A   1      39.610  31.989  35.669  1.00  0.00     0.064 A 
ATOM     71  C   UNL A   1      40.149  33.249  35.958  1.00  0.00     0.173 A 
ATOM     72  C   UNL A   1      38.600  31.500  36.511  1.00  0.00     0.173 A 
ATOM     73  F   UNL A   1      41.133  33.747  35.195  1.00  0.00    -0.203 F 
ATOM     74  C   UNL A   1      39.701  33.988  37.051  1.00  0.00     0.198 A 
ATOM     75  C   UNL A   1      38.136  32.250  37.588  1.00  0.00     0.198 A 
ATOM     76  F   UNL A   1      38.054  30.298  36.277  1.00  0.00    -0.203 F 
ATOM     77  F   UNL A   1      40.258  35.175  37.327  1.00  0.00    -0.200 F 
ATOM     78  C   UNL A   1      38.690  33.492  37.861  1.00  0.00     0.200 A 
ATOM     79  F   UNL A   1      37.151  31.771  38.361  1.00  0.00    -0.200 F 
ATOM     80  F   UNL A   1      38.255  34.206  38.907  1.00  0.00    -0.200 F 
ENDBRANCH  46  70
BRANCH  58  81
ATOM     81  C   UNL A   1      44.803  27.437  34.699  1.00  0.00     0.064 A 
ATOM     82  C   UNL A   1      46.020  28.121  34.826  1.00  0.00     0.173 A 
ATOM     83  C   UNL A   1      44.599  26.297  35.490  1.00  0.00     0.173 A 
ATOM     84  F   UNL A   1      46.264  29.208  34.078  1.00  0.00    -0.203 F 
ATOM     85  C   UNL A   1      46.999  27.675  35.709  1.00  0.00     0.198 A 
ATOM     86  C   UNL A   1      45.571  25.867  36.388  1.00  0.00     0.198 A 
ATOM     87  F   UNL A   1      43.448  25.613  35.405  1.00  0.00    -0.203 F 
ATOM     88  F   UNL A   1      48.166  28.328  35.799  1.00  0.00    -0.200 F 
ATOM     89  C   UNL A   1      46.770  26.555  36.495  1.00  0.00     0.200 A 
ATOM     90  F   UNL A   1      45.344  24.790  37.153  1.00  0.00    -0.200 F 
ATOM     91  F   UNL A   1      47.708  26.136  37.357  1.00  0.00    -0.200 F 
ENDBRANCH  58  81
ENDBRANCH  32  33
ENDBRANCH  25  27
ENDBRANCH  24  25
ENDBRANCH  23  24
ENDBRANCH   1  23
TORSDOF 14
ENDMDL
