MODEL 1
REMARK VINA RESULT:     -10.9      0.000      0.000
REMARK SMILES C[C@]([NH3+])(Cc1ccc(I)cc1)C(=O)OCCOC(=O)c1ccc(-c2c3nc(c(-c4c(F)c(F)c(F)c(F)c4F)c4ccc([nH]4)c(-c4c(F)c(F)c(F)c(F)c4F)c4nc(c(-c5c(F)c(F)c(F)c(F)c5F)c5ccc2[nH]5)C=C4)C=C3)cc1
REMARK SMILES IDX 15 1 14 2 12 3 13 4 2 5 1 6 4 7 5 8 6 9 11 10 7 11 10 12
REMARK SMILES IDX 8 13 9 14 3 15 16 19 17 20 18 21 19 22 20 23 21 24 82 25
REMARK SMILES IDX 22 26 81 27 23 28 24 29 25 30 75 31 26 32 80 33 74 34 76 35
REMARK SMILES IDX 27 36 79 37 73 38 72 39 28 41 60 42 40 43 59 44 41 45 44 46
REMARK SMILES IDX 58 47 77 48 42 49 43 50 57 52 78 53 45 54 29 55 30 56 38 57
REMARK SMILES IDX 31 58 32 59 36 60 39 61 33 62 34 63 37 64 35 65 61 66 62 67
REMARK SMILES IDX 70 68 63 69 64 70 68 71 71 72 65 73 66 74 69 75 67 76 46 77
REMARK SMILES IDX 47 78 55 79 48 80 49 81 53 82 56 83 50 84 51 85 54 86 52 87
REMARK H PARENT 3 16 3 17 3 18 76 40 44 51
REMARK Flexibility Score: inf
ROOT
ATOM      1  C   UNL A   1      31.736  28.617  26.984  1.00  0.00     0.274 C 
ENDROOT
BRANCH   1   2
ATOM      2  O   UNL A   1      32.437  27.479  26.442  1.00  0.00    -0.457 OA
BRANCH   2   3
ATOM      3  C   UNL A   1      31.648  26.409  26.129  1.00  0.00     0.368 C 
ATOM      4  O   UNL A   1      30.634  26.106  26.751  1.00  0.00    -0.245 OA
BRANCH   3   5
ATOM      5  C   UNL A   1      32.230  25.557  24.968  1.00  0.00     0.194 C 
ATOM      6  C   UNL A   1      33.660  26.080  24.759  1.00  0.00     0.092 C 
BRANCH   5   7
ATOM      7  C   UNL A   1      31.450  25.662  23.629  1.00  0.00     0.116 C 
BRANCH   7   8
ATOM      8  C   UNL A   1      30.721  26.955  23.315  1.00  0.00    -0.041 A 
ATOM      9  C   UNL A   1      29.337  27.083  23.500  1.00  0.00     0.005 A 
ATOM     10  C   UNL A   1      31.420  28.033  22.748  1.00  0.00     0.005 A 
ATOM     11  C   UNL A   1      28.675  28.271  23.177  1.00  0.00     0.015 A 
ATOM     12  C   UNL A   1      30.757  29.216  22.404  1.00  0.00     0.015 A 
ATOM     13  C   UNL A   1      29.389  29.335  22.634  1.00  0.00     0.013 A 
ATOM     14  I   UNL A   1      28.404  31.100  22.158  1.00  0.00    -0.044 I 
ENDBRANCH   7   8
ENDBRANCH   5   7
BRANCH   5  15
ATOM     15  N   UNL A   1      32.381  24.142  25.409  1.00  0.00    -0.343 N 
ATOM     16  H   UNL A   1      32.730  23.580  24.632  1.00  0.00     0.345 HD
ATOM     17  H   UNL A   1      31.475  23.781  25.710  1.00  0.00     0.345 HD
ATOM     18  H   UNL A   1      33.040  24.096  26.185  1.00  0.00     0.345 HD
ENDBRANCH   5  15
ENDBRANCH   3   5
ENDBRANCH   2   3
ENDBRANCH   1   2
BRANCH   1  19
ATOM     19  C   UNL A   1      31.787  29.809  26.027  1.00  0.00     0.275 C 
BRANCH  19  20
ATOM     20  O   UNL A   1      33.111  30.361  26.013  1.00  0.00    -0.458 OA
BRANCH  20  21
ATOM     21  C   UNL A   1      33.377  31.271  26.978  1.00  0.00     0.338 C 
ATOM     22  O   UNL A   1      32.709  32.254  27.252  1.00  0.00    -0.246 OA
BRANCH  21  23
ATOM     23  C   UNL A   1      34.642  30.930  27.670  1.00  0.00     0.060 A 
ATOM     24  C   UNL A   1      34.961  29.619  28.038  1.00  0.00     0.016 A 
ATOM     25  C   UNL A   1      35.512  31.968  28.007  1.00  0.00     0.016 A 
ATOM     26  C   UNL A   1      36.106  29.354  28.794  1.00  0.00     0.010 A 
ATOM     27  C   UNL A   1      36.697  31.693  28.690  1.00  0.00     0.010 A 
ATOM     28  C   UNL A   1      36.996  30.387  29.116  1.00  0.00    -0.014 A 
BRANCH  28  29
ATOM     29  C   UNL A   1      38.237  30.135  29.900  1.00  0.00     0.031 A 
ATOM     30  C   UNL A   1      39.308  29.234  29.344  1.00  0.00     0.074 A 
ATOM     31  C   UNL A   1      38.389  30.665  31.129  1.00  0.00     0.049 A 
ATOM     32  N   UNL A   1      40.349  28.712  29.944  1.00  0.00    -0.248 NA
ATOM     33  C   UNL A   1      39.182  28.859  27.927  1.00  0.00     0.031 C 
ATOM     34  C   UNL A   1      37.449  31.577  31.782  1.00  0.00     0.029 A 
ATOM     35  N   UNL A   1      39.390  30.500  32.056  1.00  0.00    -0.354 N 
ATOM     36  C   UNL A   1      40.971  27.910  28.996  1.00  0.00     0.074 A 
ATOM     37  C   UNL A   1      40.192  28.013  27.779  1.00  0.00     0.031 C 
ATOM     38  C   UNL A   1      37.922  31.901  32.995  1.00  0.00     0.029 A 
ATOM     39  C   UNL A   1      39.159  31.165  33.237  1.00  0.00     0.049 A 
ATOM     40  H   UNL A   1      40.194  29.957  31.892  1.00  0.00     0.167 HD
ATOM     41  C   UNL A   1      42.085  27.152  29.131  1.00  0.00     0.037 A 
ATOM     42  C   UNL A   1      39.838  31.150  34.399  1.00  0.00     0.037 A 
ATOM     43  C   UNL A   1      42.881  27.079  30.329  1.00  0.00     0.049 A 
ATOM     44  C   UNL A   1      41.058  30.285  34.533  1.00  0.00     0.074 A 
ATOM     45  C   UNL A   1      44.038  26.353  30.555  1.00  0.00     0.029 A 
ATOM     46  N   UNL A   1      42.605  27.766  31.502  1.00  0.00    -0.354 N 
ATOM     47  N   UNL A   1      41.613  29.498  33.644  1.00  0.00    -0.248 NA
ATOM     48  C   UNL A   1      41.735  30.292  35.837  1.00  0.00     0.031 C 
ATOM     49  C   UNL A   1      44.448  26.579  31.874  1.00  0.00     0.029 A 
ATOM     50  C   UNL A   1      43.567  27.474  32.457  1.00  0.00     0.049 A 
ATOM     51  H   UNL A   1      41.841  28.372  31.635  1.00  0.00     0.167 HD
ATOM     52  C   UNL A   1      42.707  28.923  34.276  1.00  0.00     0.074 A 
ATOM     53  C   UNL A   1      42.749  29.467  35.618  1.00  0.00     0.031 C 
ATOM     54  C   UNL A   1      43.593  28.022  33.788  1.00  0.00     0.037 A 
BRANCH  41  55
ATOM     55  C   UNL A   1      42.504  26.315  27.959  1.00  0.00     0.064 A 
ATOM     56  C   UNL A   1      41.965  25.041  27.730  1.00  0.00     0.173 A 
ATOM     57  C   UNL A   1      43.420  26.819  27.022  1.00  0.00     0.173 A 
ATOM     58  F   UNL A   1      41.095  24.510  28.603  1.00  0.00    -0.203 F 
ATOM     59  C   UNL A   1      42.339  24.296  26.615  1.00  0.00     0.198 A 
ATOM     60  C   UNL A   1      43.775  26.081  25.897  1.00  0.00     0.198 A 
ATOM     61  F   UNL A   1      43.961  28.035  27.193  1.00  0.00    -0.203 F 
ATOM     62  F   UNL A   1      41.836  23.067  26.433  1.00  0.00    -0.200 F 
ATOM     63  C   UNL A   1      43.238  24.818  25.696  1.00  0.00     0.200 A 
ATOM     64  F   UNL A   1      44.634  26.592  25.004  1.00  0.00    -0.200 F 
ATOM     65  F   UNL A   1      43.588  24.103  24.618  1.00  0.00    -0.200 F 
ENDBRANCH  41  55
BRANCH  42  66
ATOM     66  C   UNL A   1      39.352  31.965  35.542  1.00  0.00     0.064 A 
ATOM     67  C   UNL A   1      38.486  31.419  36.497  1.00  0.00     0.173 A 
ATOM     68  C   UNL A   1      39.761  33.297  35.713  1.00  0.00     0.173 A 
ATOM     69  F   UNL A   1      38.045  30.160  36.359  1.00  0.00    -0.203 F 
ATOM     70  C   UNL A   1      38.044  32.174  37.581  1.00  0.00     0.198 A 
ATOM     71  C   UNL A   1      39.340  34.042  36.811  1.00  0.00     0.198 A 
ATOM     72  F   UNL A   1      40.587  33.865  34.823  1.00  0.00    -0.203 F 
ATOM     73  F   UNL A   1      37.190  31.639  38.465  1.00  0.00    -0.200 F 
ATOM     74  C   UNL A   1      38.479  33.482  37.743  1.00  0.00     0.200 A 
ATOM     75  F   UNL A   1      39.771  35.301  36.969  1.00  0.00    -0.200 F 
ATOM     76  F   UNL A   1      38.064  34.203  38.793  1.00  0.00    -0.200 F 
ENDBRANCH  42  66
BRANCH  54  77
ATOM     77  C   UNL A   1      44.696  27.586  34.706  1.00  0.00     0.064 A 
ATOM     78  C   UNL A   1      44.562  26.456  35.524  1.00  0.00     0.173 A 
ATOM     79  C   UNL A   1      45.905  28.296  34.749  1.00  0.00     0.173 A 
ATOM     80  F   UNL A   1      43.417  25.757  35.528  1.00  0.00    -0.203 F 
ATOM     81  C   UNL A   1      45.595  26.063  36.372  1.00  0.00     0.198 A 
ATOM     82  C   UNL A   1      46.943  27.886  35.582  1.00  0.00     0.198 A 
ATOM     83  F   UNL A   1      46.081  29.382  33.983  1.00  0.00    -0.203 F 
ATOM     84  F   UNL A   1      45.431  25.003  37.176  1.00  0.00    -0.200 F 
ATOM     85  C   UNL A   1      46.784  26.776  36.397  1.00  0.00     0.200 A 
ATOM     86  F   UNL A   1      48.094  28.572  35.602  1.00  0.00    -0.200 F 
ATOM     87  F   UNL A   1      47.776  26.396  37.214  1.00  0.00    -0.200 F 
ENDBRANCH  54  77
ENDBRANCH  28  29
ENDBRANCH  21  23
ENDBRANCH  20  21
ENDBRANCH  19  20
ENDBRANCH   1  19
TORSDOF 14
ENDMDL
MODEL 2
REMARK VINA RESULT:     -10.9      1.796      3.054
REMARK SMILES C[C@]([NH3+])(Cc1ccc(I)cc1)C(=O)OCCOC(=O)c1ccc(-c2c3nc(c(-c4c(F)c(F)c(F)c(F)c4F)c4ccc([nH]4)c(-c4c(F)c(F)c(F)c(F)c4F)c4nc(c(-c5c(F)c(F)c(F)c(F)c5F)c5ccc2[nH]5)C=C4)C=C3)cc1
REMARK SMILES IDX 15 1 14 2 12 3 13 4 2 5 1 6 4 7 5 8 6 9 11 10 7 11 10 12
REMARK SMILES IDX 8 13 9 14 3 15 16 19 17 20 18 21 19 22 20 23 21 24 82 25
REMARK SMILES IDX 22 26 81 27 23 28 24 29 25 30 75 31 26 32 80 33 74 34 76 35
REMARK SMILES IDX 27 36 79 37 73 38 72 39 28 41 60 42 40 43 59 44 41 45 44 46
REMARK SMILES IDX 58 47 77 48 42 49 43 50 57 52 78 53 45 54 29 55 30 56 38 57
REMARK SMILES IDX 31 58 32 59 36 60 39 61 33 62 34 63 37 64 35 65 61 66 62 67
REMARK SMILES IDX 70 68 63 69 64 70 68 71 71 72 65 73 66 74 69 75 67 76 46 77
REMARK SMILES IDX 47 78 55 79 48 80 49 81 53 82 56 83 50 84 51 85 54 86 52 87
REMARK H PARENT 3 16 3 17 3 18 76 40 44 51
REMARK Flexibility Score: inf
ROOT
ATOM      1  C   UNL A   1      31.609  28.311  26.669  1.00  0.00     0.274 C 
ENDROOT
BRANCH   1   2
ATOM      2  O   UNL A   1      32.255  27.073  26.305  1.00  0.00    -0.457 OA
BRANCH   2   3
ATOM      3  C   UNL A   1      31.410  26.070  25.926  1.00  0.00     0.368 C 
ATOM      4  O   UNL A   1      30.706  25.439  26.709  1.00  0.00    -0.245 OA
BRANCH   3   5
ATOM      5  C   UNL A   1      31.514  25.742  24.411  1.00  0.00     0.194 C 
ATOM      6  C   UNL A   1      31.071  24.275  24.283  1.00  0.00     0.092 C 
BRANCH   5   7
ATOM      7  C   UNL A   1      32.936  25.897  23.806  1.00  0.00     0.116 C 
BRANCH   7   8
ATOM      8  C   UNL A   1      33.973  24.833  24.114  1.00  0.00    -0.041 A 
ATOM      9  C   UNL A   1      34.642  24.794  25.346  1.00  0.00     0.005 A 
ATOM     10  C   UNL A   1      34.343  23.908  23.125  1.00  0.00     0.005 A 
ATOM     11  C   UNL A   1      35.618  23.825  25.603  1.00  0.00     0.015 A 
ATOM     12  C   UNL A   1      35.332  22.951  23.372  1.00  0.00     0.015 A 
ATOM     13  C   UNL A   1      35.955  22.904  24.616  1.00  0.00     0.013 A 
ATOM     14  I   UNL A   1      37.403  21.466  25.002  1.00  0.00    -0.044 I 
ENDBRANCH   7   8
ENDBRANCH   5   7
BRANCH   5  15
ATOM     15  N   UNL A   1      30.504  26.534  23.654  1.00  0.00    -0.343 N 
ATOM     16  H   UNL A   1      30.582  26.321  22.659  1.00  0.00     0.345 HD
ATOM     17  H   UNL A   1      30.670  27.529  23.803  1.00  0.00     0.345 HD
ATOM     18  H   UNL A   1      29.569  26.293  23.981  1.00  0.00     0.345 HD
ENDBRANCH   5  15
ENDBRANCH   3   5
ENDBRANCH   2   3
ENDBRANCH   1   2
BRANCH   1  19
ATOM     19  C   UNL A   1      31.831  29.387  25.607  1.00  0.00     0.275 C 
BRANCH  19  20
ATOM     20  O   UNL A   1      33.108  30.011  25.809  1.00  0.00    -0.458 OA
BRANCH  20  21
ATOM     21  C   UNL A   1      33.144  30.975  26.756  1.00  0.00     0.338 C 
ATOM     22  O   UNL A   1      32.333  31.872  26.910  1.00  0.00    -0.246 OA
BRANCH  21  23
ATOM     23  C   UNL A   1      34.354  30.822  27.598  1.00  0.00     0.060 A 
ATOM     24  C   UNL A   1      35.190  31.900  27.906  1.00  0.00     0.016 A 
ATOM     25  C   UNL A   1      34.688  29.544  28.049  1.00  0.00     0.016 A 
ATOM     26  C   UNL A   1      36.384  31.694  28.603  1.00  0.00     0.010 A 
ATOM     27  C   UNL A   1      35.839  29.351  28.815  1.00  0.00     0.010 A 
ATOM     28  C   UNL A   1      36.715  30.419  29.079  1.00  0.00    -0.014 A 
BRANCH  28  29
ATOM     29  C   UNL A   1      37.969  30.170  29.844  1.00  0.00     0.031 A 
ATOM     30  C   UNL A   1      39.042  29.289  29.263  1.00  0.00     0.074 A 
ATOM     31  C   UNL A   1      38.129  30.686  31.079  1.00  0.00     0.049 A 
ATOM     32  N   UNL A   1      40.096  28.770  29.844  1.00  0.00    -0.248 NA
ATOM     33  C   UNL A   1      38.904  28.931  27.843  1.00  0.00     0.031 C 
ATOM     34  C   UNL A   1      37.187  31.578  31.754  1.00  0.00     0.029 A 
ATOM     35  N   UNL A   1      39.143  30.519  31.992  1.00  0.00    -0.354 N 
ATOM     36  C   UNL A   1      40.715  27.988  28.878  1.00  0.00     0.074 A 
ATOM     37  C   UNL A   1      39.920  28.099  27.672  1.00  0.00     0.031 C 
ATOM     38  C   UNL A   1      37.671  31.891  32.966  1.00  0.00     0.029 A 
ATOM     39  C   UNL A   1      38.919  31.166  33.183  1.00  0.00     0.049 A 
ATOM     40  H   UNL A   1      39.951  29.987  31.811  1.00  0.00     0.167 HD
ATOM     41  C   UNL A   1      41.840  27.241  28.990  1.00  0.00     0.037 A 
ATOM     42  C   UNL A   1      39.612  31.143  34.337  1.00  0.00     0.037 A 
ATOM     43  C   UNL A   1      42.650  27.161  30.177  1.00  0.00     0.049 A 
ATOM     44  C   UNL A   1      40.843  30.290  34.445  1.00  0.00     0.074 A 
ATOM     45  C   UNL A   1      43.818  26.445  30.379  1.00  0.00     0.029 A 
ATOM     46  N   UNL A   1      42.381  27.829  31.362  1.00  0.00    -0.354 N 
ATOM     47  N   UNL A   1      41.396  29.521  33.539  1.00  0.00    -0.248 NA
ATOM     48  C   UNL A   1      41.536  30.287  35.741  1.00  0.00     0.031 C 
ATOM     49  C   UNL A   1      44.241  26.658  31.696  1.00  0.00     0.029 A 
ATOM     50  C   UNL A   1      43.357  27.535  32.302  1.00  0.00     0.049 A 
ATOM     51  H   UNL A   1      41.612  28.424  31.513  1.00  0.00     0.167 HD
ATOM     52  C   UNL A   1      42.504  28.950  34.150  1.00  0.00     0.074 A 
ATOM     53  C   UNL A   1      42.556  29.476  35.499  1.00  0.00     0.031 C 
ATOM     54  C   UNL A   1      43.394  28.065  33.640  1.00  0.00     0.037 A 
BRANCH  41  55
ATOM     55  C   UNL A   1      42.253  26.425  27.801  1.00  0.00     0.064 A 
ATOM     56  C   UNL A   1      43.252  26.858  26.918  1.00  0.00     0.173 A 
ATOM     57  C   UNL A   1      41.676  25.165  27.574  1.00  0.00     0.173 A 
ATOM     58  F   UNL A   1      43.825  28.060  27.085  1.00  0.00    -0.203 F 
ATOM     59  C   UNL A   1      43.647  26.067  25.842  1.00  0.00     0.198 A 
ATOM     60  C   UNL A   1      42.090  24.368  26.510  1.00  0.00     0.198 A 
ATOM     61  F   UNL A   1      40.719  24.702  28.393  1.00  0.00    -0.203 F 
ATOM     62  F   UNL A   1      44.581  26.516  24.991  1.00  0.00    -0.200 F 
ATOM     63  C   UNL A   1      43.072  24.822  25.642  1.00  0.00     0.200 A 
ATOM     64  F   UNL A   1      41.540  23.159  26.327  1.00  0.00    -0.200 F 
ATOM     65  F   UNL A   1      43.461  24.058  24.612  1.00  0.00    -0.200 F 
ENDBRANCH  41  55
BRANCH  42  66
ATOM     66  C   UNL A   1      39.131  31.938  35.497  1.00  0.00     0.064 A 
ATOM     67  C   UNL A   1      38.323  31.355  36.481  1.00  0.00     0.173 A 
ATOM     68  C   UNL A   1      39.487  33.286  35.654  1.00  0.00     0.173 A 
ATOM     69  F   UNL A   1      37.934  30.078  36.358  1.00  0.00    -0.203 F 
ATOM     70  C   UNL A   1      37.887  32.091  37.581  1.00  0.00     0.198 A 
ATOM     71  C   UNL A   1      39.072  34.013  36.767  1.00  0.00     0.198 A 
ATOM     72  F   UNL A   1      40.256  33.889  34.736  1.00  0.00    -0.203 F 
ATOM     73  F   UNL A   1      37.089  31.520  38.494  1.00  0.00    -0.200 F 
ATOM     74  C   UNL A   1      38.269  33.417  37.727  1.00  0.00     0.200 A 
ATOM     75  F   UNL A   1      39.453  35.290  36.910  1.00  0.00    -0.200 F 
ATOM     76  F   UNL A   1      37.860  34.120  38.792  1.00  0.00    -0.200 F 
ENDBRANCH  42  66
BRANCH  54  77
ATOM     77  C   UNL A   1      44.512  27.630  34.538  1.00  0.00     0.064 A 
ATOM     78  C   UNL A   1      45.711  28.352  34.614  1.00  0.00     0.173 A 
ATOM     79  C   UNL A   1      44.373  26.491  35.345  1.00  0.00     0.173 A 
ATOM     80  F   UNL A   1      45.895  29.439  33.848  1.00  0.00    -0.203 F 
ATOM     81  C   UNL A   1      46.742  27.936  35.453  1.00  0.00     0.198 A 
ATOM     82  C   UNL A   1      45.398  26.091  36.198  1.00  0.00     0.198 A 
ATOM     83  F   UNL A   1      43.243  25.770  35.308  1.00  0.00    -0.203 F 
ATOM     84  F   UNL A   1      47.896  28.618  35.481  1.00  0.00    -0.200 F 
ATOM     85  C   UNL A   1      46.583  26.809  36.246  1.00  0.00     0.200 A 
ATOM     86  F   UNL A   1      45.241  25.006  36.968  1.00  0.00    -0.200 F 
ATOM     87  F   UNL A   1      47.577  26.411  37.052  1.00  0.00    -0.200 F 
ENDBRANCH  54  77
ENDBRANCH  28  29
ENDBRANCH  21  23
ENDBRANCH  20  21
ENDBRANCH  19  20
ENDBRANCH   1  19
TORSDOF 14
ENDMDL
MODEL 3
REMARK VINA RESULT:     -10.9      3.725      9.416
REMARK SMILES C[C@]([NH3+])(Cc1ccc(I)cc1)C(=O)OCCOC(=O)c1ccc(-c2c3nc(c(-c4c(F)c(F)c(F)c(F)c4F)c4ccc([nH]4)c(-c4c(F)c(F)c(F)c(F)c4F)c4nc(c(-c5c(F)c(F)c(F)c(F)c5F)c5ccc2[nH]5)C=C4)C=C3)cc1
REMARK SMILES IDX 15 1 14 2 12 3 13 4 2 5 1 6 4 7 5 8 6 9 11 10 7 11 10 12
REMARK SMILES IDX 8 13 9 14 3 15 16 19 17 20 18 21 19 22 20 23 21 24 82 25
REMARK SMILES IDX 22 26 81 27 23 28 24 29 25 30 75 31 26 32 80 33 74 34 76 35
REMARK SMILES IDX 27 36 79 37 73 38 72 39 28 41 60 42 40 43 59 44 41 45 44 46
REMARK SMILES IDX 58 47 77 48 42 49 43 50 57 52 78 53 45 54 29 55 30 56 38 57
REMARK SMILES IDX 31 58 32 59 36 60 39 61 33 62 34 63 37 64 35 65 61 66 62 67
REMARK SMILES IDX 70 68 63 69 64 70 68 71 71 72 65 73 66 74 69 75 67 76 46 77
REMARK SMILES IDX 47 78 55 79 48 80 49 81 53 82 56 83 50 84 51 85 54 86 52 87
REMARK H PARENT 3 16 3 17 3 18 76 40 44 51
REMARK Flexibility Score: inf
ROOT
ATOM      1  C   UNL A   1      33.408  34.645  28.565  1.00  0.00     0.274 C 
ENDROOT
BRANCH   1   2
ATOM      2  O   UNL A   1      32.773  34.675  29.860  1.00  0.00    -0.457 OA
BRANCH   2   3
ATOM      3  C   UNL A   1      33.121  35.734  30.649  1.00  0.00     0.368 C 
ATOM      4  O   UNL A   1      33.269  36.877  30.228  1.00  0.00    -0.245 OA
BRANCH   3   5
ATOM      5  C   UNL A   1      33.411  35.316  32.116  1.00  0.00     0.194 C 
ATOM      6  C   UNL A   1      34.108  36.530  32.753  1.00  0.00     0.092 C 
BRANCH   5   7
ATOM      7  C   UNL A   1      34.324  34.068  32.271  1.00  0.00     0.116 C 
BRANCH   7   8
ATOM      8  C   UNL A   1      35.755  34.153  31.774  1.00  0.00    -0.041 A 
ATOM      9  C   UNL A   1      36.119  33.693  30.500  1.00  0.00     0.005 A 
ATOM     10  C   UNL A   1      36.766  34.624  32.626  1.00  0.00     0.005 A 
ATOM     11  C   UNL A   1      37.448  33.749  30.068  1.00  0.00     0.015 A 
ATOM     12  C   UNL A   1      38.099  34.663  32.204  1.00  0.00     0.015 A 
ATOM     13  C   UNL A   1      38.432  34.239  30.921  1.00  0.00     0.013 A 
ATOM     14  I   UNL A   1      40.404  34.324  30.275  1.00  0.00    -0.044 I 
ENDBRANCH   7   8
ENDBRANCH   5   7
BRANCH   5  15
ATOM     15  N   UNL A   1      32.129  35.155  32.858  1.00  0.00    -0.343 N 
ATOM     16  H   UNL A   1      31.512  35.940  32.644  1.00  0.00     0.345 HD
ATOM     17  H   UNL A   1      32.316  35.133  33.860  1.00  0.00     0.345 HD
ATOM     18  H   UNL A   1      31.680  34.284  32.577  1.00  0.00     0.345 HD
ENDBRANCH   5  15
ENDBRANCH   3   5
ENDBRANCH   2   3
ENDBRANCH   1   2
BRANCH   1  19
ATOM     19  C   UNL A   1      33.221  33.288  27.886  1.00  0.00     0.275 C 
BRANCH  19  20
ATOM     20  O   UNL A   1      34.488  32.626  27.769  1.00  0.00    -0.458 OA
BRANCH  20  21
ATOM     21  C   UNL A   1      34.437  31.280  27.648  1.00  0.00     0.338 C 
ATOM     22  O   UNL A   1      33.533  30.631  27.148  1.00  0.00    -0.246 OA
BRANCH  21  23
ATOM     23  C   UNL A   1      35.645  30.664  28.246  1.00  0.00     0.060 A 
ATOM     24  C   UNL A   1      35.574  29.775  29.323  1.00  0.00     0.016 A 
ATOM     25  C   UNL A   1      36.893  31.033  27.742  1.00  0.00     0.016 A 
ATOM     26  C   UNL A   1      36.740  29.309  29.935  1.00  0.00     0.010 A 
ATOM     27  C   UNL A   1      38.057  30.503  28.301  1.00  0.00     0.010 A 
ATOM     28  C   UNL A   1      37.997  29.656  29.421  1.00  0.00    -0.014 A 
BRANCH  28  29
ATOM     29  C   UNL A   1      39.259  29.157  30.036  1.00  0.00     0.031 A 
ATOM     30  C   UNL A   1      39.844  29.863  31.229  1.00  0.00     0.074 A 
ATOM     31  C   UNL A   1      39.911  28.107  29.499  1.00  0.00     0.049 A 
ATOM     32  N   UNL A   1      41.028  29.733  31.773  1.00  0.00    -0.248 NA
ATOM     33  C   UNL A   1      38.987  30.859  31.890  1.00  0.00     0.031 C 
ATOM     34  C   UNL A   1      39.448  27.310  28.363  1.00  0.00     0.029 A 
ATOM     35  N   UNL A   1      41.116  27.538  29.835  1.00  0.00    -0.354 N 
ATOM     36  C   UNL A   1      41.077  30.663  32.804  1.00  0.00     0.074 A 
ATOM     37  C   UNL A   1      39.802  31.351  32.812  1.00  0.00     0.031 C 
ATOM     38  C   UNL A   1      40.349  26.350  28.104  1.00  0.00     0.029 A 
ATOM     39  C   UNL A   1      41.486  26.507  29.005  1.00  0.00     0.049 A 
ATOM     40  H   UNL A   1      41.664  27.841  30.595  1.00  0.00     0.167 HD
ATOM     41  C   UNL A   1      42.094  30.921  33.660  1.00  0.00     0.037 A 
ATOM     42  C   UNL A   1      42.628  25.797  28.944  1.00  0.00     0.037 A 
ATOM     43  C   UNL A   1      43.346  30.211  33.677  1.00  0.00     0.049 A 
ATOM     44  C   UNL A   1      43.750  26.117  29.889  1.00  0.00     0.074 A 
ATOM     45  C   UNL A   1      44.430  30.389  34.520  1.00  0.00     0.029 A 
ATOM     46  N   UNL A   1      43.678  29.177  32.814  1.00  0.00    -0.354 N 
ATOM     47  N   UNL A   1      43.802  27.026  30.832  1.00  0.00    -0.248 NA
ATOM     48  C   UNL A   1      44.980  25.324  29.749  1.00  0.00     0.031 C 
ATOM     49  C   UNL A   1      45.429  29.481  34.150  1.00  0.00     0.029 A 
ATOM     50  C   UNL A   1      44.953  28.714  33.100  1.00  0.00     0.049 A 
ATOM     51  H   UNL A   1      43.094  28.824  32.105  1.00  0.00     0.167 HD
ATOM     52  C   UNL A   1      45.062  26.910  31.402  1.00  0.00     0.074 A 
ATOM     53  C   UNL A   1      45.737  25.830  30.713  1.00  0.00     0.031 C 
ATOM     54  C   UNL A   1      45.611  27.639  32.404  1.00  0.00     0.037 A 
BRANCH  41  55
ATOM     55  C   UNL A   1      41.909  32.040  34.642  1.00  0.00     0.064 A 
ATOM     56  C   UNL A   1      42.240  33.365  34.323  1.00  0.00     0.173 A 
ATOM     57  C   UNL A   1      41.343  31.789  35.902  1.00  0.00     0.173 A 
ATOM     58  F   UNL A   1      42.795  33.655  33.137  1.00  0.00    -0.203 F 
ATOM     59  C   UNL A   1      42.025  34.395  35.236  1.00  0.00     0.198 A 
ATOM     60  C   UNL A   1      41.110  32.824  36.802  1.00  0.00     0.198 A 
ATOM     61  F   UNL A   1      41.005  30.539  36.253  1.00  0.00    -0.203 F 
ATOM     62  F   UNL A   1      42.378  35.649  34.922  1.00  0.00    -0.200 F 
ATOM     63  C   UNL A   1      41.454  34.125  36.471  1.00  0.00     0.200 A 
ATOM     64  F   UNL A   1      40.547  32.562  37.991  1.00  0.00    -0.200 F 
ATOM     65  F   UNL A   1      41.239  35.119  37.343  1.00  0.00    -0.200 F 
ENDBRANCH  41  55
BRANCH  42  66
ATOM     66  C   UNL A   1      42.773  24.729  27.922  1.00  0.00     0.064 A 
ATOM     67  C   UNL A   1      43.218  25.028  26.628  1.00  0.00     0.173 A 
ATOM     68  C   UNL A   1      42.490  23.388  28.224  1.00  0.00     0.173 A 
ATOM     69  F   UNL A   1      43.472  26.299  26.285  1.00  0.00    -0.203 F 
ATOM     70  C   UNL A   1      43.374  24.026  25.673  1.00  0.00     0.198 A 
ATOM     71  C   UNL A   1      42.672  22.384  27.276  1.00  0.00     0.198 A 
ATOM     72  F   UNL A   1      42.058  23.052  29.448  1.00  0.00    -0.203 F 
ATOM     73  F   UNL A   1      43.772  24.342  24.432  1.00  0.00    -0.200 F 
ATOM     74  C   UNL A   1      43.110  22.704  26.000  1.00  0.00     0.200 A 
ATOM     75  F   UNL A   1      42.426  21.107  27.601  1.00  0.00    -0.200 F 
ATOM     76  F   UNL A   1      43.273  21.739  25.085  1.00  0.00    -0.200 F 
ENDBRANCH  42  66
BRANCH  54  77
ATOM     77  C   UNL A   1      47.001  27.274  32.828  1.00  0.00     0.064 A 
ATOM     78  C   UNL A   1      47.232  26.349  33.856  1.00  0.00     0.173 A 
ATOM     79  C   UNL A   1      48.112  27.839  32.185  1.00  0.00     0.173 A 
ATOM     80  F   UNL A   1      46.200  25.795  34.511  1.00  0.00    -0.203 F 
ATOM     81  C   UNL A   1      48.530  26.018  34.240  1.00  0.00     0.198 A 
ATOM     82  C   UNL A   1      49.407  27.490  32.558  1.00  0.00     0.198 A 
ATOM     83  F   UNL A   1      47.941  28.727  31.194  1.00  0.00    -0.203 F 
ATOM     84  F   UNL A   1      48.729  25.163  35.252  1.00  0.00    -0.200 F 
ATOM     85  C   UNL A   1      49.615  26.586  33.588  1.00  0.00     0.200 A 
ATOM     86  F   UNL A   1      50.455  28.035  31.924  1.00  0.00    -0.200 F 
ATOM     87  F   UNL A   1      50.862  26.268  33.961  1.00  0.00    -0.200 F 
ENDBRANCH  54  77
ENDBRANCH  28  29
ENDBRANCH  21  23
ENDBRANCH  20  21
ENDBRANCH  19  20
ENDBRANCH   1  19
TORSDOF 14
ENDMDL
