MODEL 1
REMARK VINA RESULT:     -12.2      0.000      0.000
REMARK SMILES Cc1cc(C(=O)N[C@@H](C)C(=O)OCCOC(=O)c2ccc(-c3c4nc(c(-c5c(F)c(F)c(F)c(F)c5F)c5ccc([nH]5)c(-c5c(F)c(F)c(F)c(F)c5F)c5nc(c(-c6c(F)c(F)c(F)c(F)c6F)c6ccc3[nH]6)C=C5)C=C4)cc2)cc(C)c1OC(F)F
REMARK SMILES IDX 13 1 12 2 10 3 11 4 8 5 9 6 7 7 5 8 6 9 4 11 1 12 2 13 3 14
REMARK SMILES IDX 84 15 82 16 81 17 83 18 85 19 86 20 87 21 88 22 14 23 15 24
REMARK SMILES IDX 16 25 17 26 18 27 19 28 80 29 20 30 79 31 21 32 22 33 23 34
REMARK SMILES IDX 73 35 24 36 78 37 72 38 74 39 25 40 77 41 71 42 70 43 26 45
REMARK SMILES IDX 58 46 38 47 57 48 39 49 42 50 56 51 75 52 40 53 41 54 55 56
REMARK SMILES IDX 76 57 43 58 27 59 28 60 36 61 29 62 30 63 34 64 37 65 31 66
REMARK SMILES IDX 32 67 35 68 33 69 59 70 60 71 68 72 61 73 62 74 66 75 69 76
REMARK SMILES IDX 63 77 64 78 67 79 65 80 44 81 45 82 53 83 46 84 47 85 51 86
REMARK SMILES IDX 54 87 48 88 49 89 52 90 50 91
REMARK H PARENT 7 10 74 44 42 55
REMARK Flexibility Score: inf
ROOT
ATOM      1  C   UNL A   1      31.390  28.476  25.281  1.00  0.00     0.274 C 
ENDROOT
BRANCH   1   2
ATOM      2  O   UNL A   1      30.930  29.261  24.161  1.00  0.00    -0.461 OA
BRANCH   2   3
ATOM      3  C   UNL A   1      31.089  28.692  22.937  1.00  0.00     0.328 C 
ATOM      4  O   UNL A   1      30.286  28.777  22.014  1.00  0.00    -0.250 OA
BRANCH   3   5
ATOM      5  C   UNL A   1      32.415  27.930  22.798  1.00  0.00     0.189 C 
ATOM      6  C   UNL A   1      33.563  28.935  22.837  1.00  0.00     0.043 C 
BRANCH   5   7
ATOM      7  N   UNL A   1      32.555  27.092  21.607  1.00  0.00    -0.339 N 
ATOM      8  C   UNL A   1      32.906  25.779  21.408  1.00  0.00     0.251 C 
ATOM      9  O   UNL A   1      33.043  25.407  20.241  1.00  0.00    -0.269 OA
ATOM     10  H   UNL A   1      32.354  27.571  20.770  1.00  0.00     0.164 HD
BRANCH   8  11
ATOM     11  C   UNL A   1      33.056  24.771  22.501  1.00  0.00     0.040 A 
ATOM     12  C   UNL A   1      36.027  22.752  23.715  1.00  0.00     0.048 C 
ATOM     13  C   UNL A   1      34.588  23.182  23.627  1.00  0.00    -0.008 A 
ATOM     14  C   UNL A   1      34.316  24.172  22.650  1.00  0.00     0.021 A 
ATOM     15  C   UNL A   1      33.528  22.694  24.406  1.00  0.00     0.131 A 
ATOM     16  C   UNL A   1      32.257  23.311  24.279  1.00  0.00    -0.008 A 
ATOM     17  C   UNL A   1      32.060  24.386  23.387  1.00  0.00     0.021 A 
ATOM     18  C   UNL A   1      31.061  22.860  25.084  1.00  0.00     0.048 C 
BRANCH  15  19
ATOM     19  O   UNL A   1      33.541  21.713  25.353  1.00  0.00    -0.434 OA
BRANCH  19  20
ATOM     20  C   UNL A   1      33.561  20.325  25.057  1.00  0.00     0.542 C 
ATOM     21  F   UNL A   1      32.822  20.045  23.964  1.00  0.00    -0.167 F 
ATOM     22  F   UNL A   1      34.841  19.949  24.830  1.00  0.00    -0.167 F 
ENDBRANCH  19  20
ENDBRANCH  15  19
ENDBRANCH   8  11
ENDBRANCH   5   7
ENDBRANCH   3   5
ENDBRANCH   2   3
ENDBRANCH   1   2
BRANCH   1  23
ATOM     23  C   UNL A   1      31.800  29.388  26.434  1.00  0.00     0.275 C 
BRANCH  23  24
ATOM     24  O   UNL A   1      32.944  30.183  26.064  1.00  0.00    -0.458 OA
BRANCH  24  25
ATOM     25  C   UNL A   1      33.260  31.165  26.937  1.00  0.00     0.338 C 
ATOM     26  O   UNL A   1      32.569  32.108  27.288  1.00  0.00    -0.246 OA
BRANCH  25  27
ATOM     27  C   UNL A   1      34.590  30.911  27.502  1.00  0.00     0.060 A 
ATOM     28  C   UNL A   1      34.979  29.589  27.707  1.00  0.00     0.016 A 
ATOM     29  C   UNL A   1      35.388  31.962  27.954  1.00  0.00     0.016 A 
ATOM     30  C   UNL A   1      36.152  29.310  28.402  1.00  0.00     0.010 A 
ATOM     31  C   UNL A   1      36.582  31.678  28.630  1.00  0.00     0.010 A 
ATOM     32  C   UNL A   1      36.959  30.348  28.886  1.00  0.00    -0.014 A 
BRANCH  32  33
ATOM     33  C   UNL A   1      38.144  30.024  29.726  1.00  0.00     0.031 A 
ATOM     34  C   UNL A   1      39.217  29.114  29.196  1.00  0.00     0.074 A 
ATOM     35  C   UNL A   1      38.294  30.588  30.940  1.00  0.00     0.049 A 
ATOM     36  N   UNL A   1      40.288  28.659  29.800  1.00  0.00    -0.248 NA
ATOM     37  C   UNL A   1      39.078  28.668  27.800  1.00  0.00     0.031 C 
ATOM     38  C   UNL A   1      37.363  31.532  31.554  1.00  0.00     0.029 A 
ATOM     39  N   UNL A   1      39.292  30.447  31.875  1.00  0.00    -0.354 N 
ATOM     40  C   UNL A   1      40.933  27.855  28.868  1.00  0.00     0.074 A 
ATOM     41  C   UNL A   1      40.134  27.880  27.660  1.00  0.00     0.031 C 
ATOM     42  C   UNL A   1      37.834  31.893  32.759  1.00  0.00     0.029 A 
ATOM     43  C   UNL A   1      39.070  31.162  33.026  1.00  0.00     0.049 A 
ATOM     44  H   UNL A   1      40.089  29.886  31.733  1.00  0.00     0.167 HD
ATOM     45  C   UNL A   1      42.091  27.166  29.003  1.00  0.00     0.037 A 
ATOM     46  C   UNL A   1      39.762  31.198  34.182  1.00  0.00     0.037 A 
ATOM     47  C   UNL A   1      42.911  27.161  30.184  1.00  0.00     0.049 A 
ATOM     48  C   UNL A   1      41.000  30.357  34.333  1.00  0.00     0.074 A 
ATOM     49  C   UNL A   1      44.114  26.508  30.396  1.00  0.00     0.029 A 
ATOM     50  N   UNL A   1      42.614  27.842  31.353  1.00  0.00    -0.354 N 
ATOM     51  N   UNL A   1      41.589  29.588  33.453  1.00  0.00    -0.248 NA
ATOM     52  C   UNL A   1      41.659  30.379  35.648  1.00  0.00     0.031 C 
ATOM     53  C   UNL A   1      44.529  26.769  31.707  1.00  0.00     0.029 A 
ATOM     54  C   UNL A   1      43.601  27.612  32.298  1.00  0.00     0.049 A 
ATOM     55  H   UNL A   1      41.819  28.406  31.492  1.00  0.00     0.167 HD
ATOM     56  C   UNL A   1      42.687  29.039  34.102  1.00  0.00     0.074 A 
ATOM     57  C   UNL A   1      42.699  29.582  35.443  1.00  0.00     0.031 C 
ATOM     58  C   UNL A   1      43.600  28.156  33.629  1.00  0.00     0.037 A 
BRANCH  45  59
ATOM     59  C   UNL A   1      42.534  26.328  27.844  1.00  0.00     0.064 A 
ATOM     60  C   UNL A   1      42.054  25.025  27.653  1.00  0.00     0.173 A 
ATOM     61  C   UNL A   1      43.406  26.860  26.884  1.00  0.00     0.173 A 
ATOM     62  F   UNL A   1      41.225  24.473  28.551  1.00  0.00    -0.203 F 
ATOM     63  C   UNL A   1      42.444  24.279  26.544  1.00  0.00     0.198 A 
ATOM     64  C   UNL A   1      43.780  26.119  25.768  1.00  0.00     0.198 A 
ATOM     65  F   UNL A   1      43.886  28.106  27.024  1.00  0.00    -0.203 F 
ATOM     66  F   UNL A   1      41.993  23.026  26.388  1.00  0.00    -0.200 F 
ATOM     67  C   UNL A   1      43.301  24.827  25.600  1.00  0.00     0.200 A 
ATOM     68  F   UNL A   1      44.600  26.653  24.852  1.00  0.00    -0.200 F 
ATOM     69  F   UNL A   1      43.666  24.112  24.527  1.00  0.00    -0.200 F 
ENDBRANCH  45  59
BRANCH  46  70
ATOM     70  C   UNL A   1      39.273  32.028  35.313  1.00  0.00     0.064 A 
ATOM     71  C   UNL A   1      39.601  33.387  35.405  1.00  0.00     0.173 A 
ATOM     72  C   UNL A   1      38.492  31.472  36.335  1.00  0.00     0.173 A 
ATOM     73  F   UNL A   1      40.371  33.956  34.466  1.00  0.00    -0.203 F 
ATOM     74  C   UNL A   1      39.173  34.156  36.485  1.00  0.00     0.198 A 
ATOM     75  C   UNL A   1      38.042  32.248  37.400  1.00  0.00     0.198 A 
ATOM     76  F   UNL A   1      38.159  30.173  36.295  1.00  0.00    -0.203 F 
ATOM     77  F   UNL A   1      39.534  35.444  36.573  1.00  0.00    -0.200 F 
ATOM     78  C   UNL A   1      38.389  33.587  37.478  1.00  0.00     0.200 A 
ATOM     79  F   UNL A   1      37.278  31.695  38.353  1.00  0.00    -0.200 F 
ATOM     80  F   UNL A   1      37.976  34.328  38.516  1.00  0.00    -0.200 F 
ENDBRANCH  46  70
BRANCH  58  81
ATOM     81  C   UNL A   1      44.695  27.734  34.562  1.00  0.00     0.064 A 
ATOM     82  C   UNL A   1      45.883  28.470  34.671  1.00  0.00     0.173 A 
ATOM     83  C   UNL A   1      44.542  26.603  35.377  1.00  0.00     0.173 A 
ATOM     84  F   UNL A   1      46.082  29.548  33.898  1.00  0.00    -0.203 F 
ATOM     85  C   UNL A   1      46.887  28.080  35.553  1.00  0.00     0.198 A 
ATOM     86  C   UNL A   1      45.539  26.228  36.274  1.00  0.00     0.198 A 
ATOM     87  F   UNL A   1      43.423  25.868  35.310  1.00  0.00    -0.203 F 
ATOM     88  F   UNL A   1      48.030  28.777  35.615  1.00  0.00    -0.200 F 
ATOM     89  C   UNL A   1      46.711  26.964  36.358  1.00  0.00     0.200 A 
ATOM     90  F   UNL A   1      45.366  25.154  37.056  1.00  0.00    -0.200 F 
ATOM     91  F   UNL A   1      47.677  26.592  37.209  1.00  0.00    -0.200 F 
ENDBRANCH  58  81
ENDBRANCH  32  33
ENDBRANCH  25  27
ENDBRANCH  24  25
ENDBRANCH  23  24
ENDBRANCH   1  23
TORSDOF 15
ENDMDL
MODEL 2
REMARK VINA RESULT:     -12.1      0.752      2.229
REMARK SMILES Cc1cc(C(=O)N[C@@H](C)C(=O)OCCOC(=O)c2ccc(-c3c4nc(c(-c5c(F)c(F)c(F)c(F)c5F)c5ccc([nH]5)c(-c5c(F)c(F)c(F)c(F)c5F)c5nc(c(-c6c(F)c(F)c(F)c(F)c6F)c6ccc3[nH]6)C=C5)C=C4)cc2)cc(C)c1OC(F)F
REMARK SMILES IDX 13 1 12 2 10 3 11 4 8 5 9 6 7 7 5 8 6 9 4 11 1 12 2 13 3 14
REMARK SMILES IDX 84 15 82 16 81 17 83 18 85 19 86 20 87 21 88 22 14 23 15 24
REMARK SMILES IDX 16 25 17 26 18 27 19 28 80 29 20 30 79 31 21 32 22 33 23 34
REMARK SMILES IDX 73 35 24 36 78 37 72 38 74 39 25 40 77 41 71 42 70 43 26 45
REMARK SMILES IDX 58 46 38 47 57 48 39 49 42 50 56 51 75 52 40 53 41 54 55 56
REMARK SMILES IDX 76 57 43 58 27 59 28 60 36 61 29 62 30 63 34 64 37 65 31 66
REMARK SMILES IDX 32 67 35 68 33 69 59 70 60 71 68 72 61 73 62 74 66 75 69 76
REMARK SMILES IDX 63 77 64 78 67 79 65 80 44 81 45 82 53 83 46 84 47 85 51 86
REMARK SMILES IDX 54 87 48 88 49 89 52 90 50 91
REMARK H PARENT 7 10 74 44 42 55
REMARK Flexibility Score: inf
ROOT
ATOM      1  C   UNL A   1      31.419  28.623  25.461  1.00  0.00     0.274 C 
ENDROOT
BRANCH   1   2
ATOM      2  O   UNL A   1      31.250  29.237  24.167  1.00  0.00    -0.461 OA
BRANCH   2   3
ATOM      3  C   UNL A   1      31.147  28.381  23.117  1.00  0.00     0.328 C 
ATOM      4  O   UNL A   1      30.146  28.238  22.422  1.00  0.00    -0.250 OA
BRANCH   3   5
ATOM      5  C   UNL A   1      32.442  27.599  22.853  1.00  0.00     0.189 C 
ATOM      6  C   UNL A   1      33.612  28.579  22.845  1.00  0.00     0.043 C 
BRANCH   5   7
ATOM      7  N   UNL A   1      32.477  26.806  21.623  1.00  0.00    -0.339 N 
ATOM      8  C   UNL A   1      32.909  25.537  21.326  1.00  0.00     0.251 C 
ATOM      9  O   UNL A   1      32.903  25.207  20.138  1.00  0.00    -0.269 OA
ATOM     10  H   UNL A   1      32.113  27.285  20.843  1.00  0.00     0.164 HD
BRANCH   8  11
ATOM     11  C   UNL A   1      33.309  24.522  22.347  1.00  0.00     0.040 A 
ATOM     12  C   UNL A   1      32.154  20.969  22.997  1.00  0.00     0.048 C 
ATOM     13  C   UNL A   1      32.891  22.254  23.257  1.00  0.00    -0.008 A 
ATOM     14  C   UNL A   1      32.630  23.294  22.329  1.00  0.00     0.021 A 
ATOM     15  C   UNL A   1      33.782  22.501  24.311  1.00  0.00     0.131 A 
ATOM     16  C   UNL A   1      34.491  23.730  24.324  1.00  0.00    -0.008 A 
ATOM     17  C   UNL A   1      34.300  24.686  23.304  1.00  0.00     0.021 A 
ATOM     18  C   UNL A   1      35.478  24.077  25.413  1.00  0.00     0.048 C 
BRANCH  15  19
ATOM     19  O   UNL A   1      34.136  21.682  25.343  1.00  0.00    -0.434 OA
BRANCH  19  20
ATOM     20  C   UNL A   1      33.345  21.482  26.503  1.00  0.00     0.542 C 
ATOM     21  F   UNL A   1      34.060  21.686  27.628  1.00  0.00    -0.167 F 
ATOM     22  F   UNL A   1      32.309  22.352  26.476  1.00  0.00    -0.167 F 
ENDBRANCH  19  20
ENDBRANCH  15  19
ENDBRANCH   8  11
ENDBRANCH   5   7
ENDBRANCH   3   5
ENDBRANCH   2   3
ENDBRANCH   1   2
BRANCH   1  23
ATOM     23  C   UNL A   1      31.760  29.680  26.509  1.00  0.00     0.275 C 
BRANCH  23  24
ATOM     24  O   UNL A   1      33.030  30.292  26.211  1.00  0.00    -0.458 OA
BRANCH  24  25
ATOM     25  C   UNL A   1      33.400  31.276  27.061  1.00  0.00     0.338 C 
ATOM     26  O   UNL A   1      32.758  32.260  27.393  1.00  0.00    -0.246 OA
BRANCH  25  27
ATOM     27  C   UNL A   1      34.719  30.969  27.625  1.00  0.00     0.060 A 
ATOM     28  C   UNL A   1      35.018  29.640  27.918  1.00  0.00     0.016 A 
ATOM     29  C   UNL A   1      35.597  31.990  27.990  1.00  0.00     0.016 A 
ATOM     30  C   UNL A   1      36.181  29.328  28.615  1.00  0.00     0.010 A 
ATOM     31  C   UNL A   1      36.780  31.670  28.668  1.00  0.00     0.010 A 
ATOM     32  C   UNL A   1      37.067  30.338  29.014  1.00  0.00    -0.014 A 
BRANCH  32  33
ATOM     33  C   UNL A   1      38.241  29.990  29.859  1.00  0.00     0.031 A 
ATOM     34  C   UNL A   1      39.312  29.080  29.324  1.00  0.00     0.074 A 
ATOM     35  C   UNL A   1      38.386  30.534  31.083  1.00  0.00     0.049 A 
ATOM     36  N   UNL A   1      40.373  28.606  29.931  1.00  0.00    -0.248 NA
ATOM     37  C   UNL A   1      39.182  28.657  27.920  1.00  0.00     0.031 C 
ATOM     38  C   UNL A   1      37.457  31.476  31.704  1.00  0.00     0.029 A 
ATOM     39  N   UNL A   1      39.374  30.369  32.025  1.00  0.00    -0.354 N 
ATOM     40  C   UNL A   1      41.020  27.811  28.992  1.00  0.00     0.074 A 
ATOM     41  C   UNL A   1      40.233  27.862  27.777  1.00  0.00     0.031 C 
ATOM     42  C   UNL A   1      37.920  31.813  32.918  1.00  0.00     0.029 A 
ATOM     43  C   UNL A   1      39.148  31.068  33.185  1.00  0.00     0.049 A 
ATOM     44  H   UNL A   1      40.167  29.804  31.881  1.00  0.00     0.167 HD
ATOM     45  C   UNL A   1      42.171  27.111  29.126  1.00  0.00     0.037 A 
ATOM     46  C   UNL A   1      39.829  31.080  34.347  1.00  0.00     0.037 A 
ATOM     47  C   UNL A   1      42.980  27.080  30.314  1.00  0.00     0.049 A 
ATOM     48  C   UNL A   1      41.058  30.226  34.496  1.00  0.00     0.074 A 
ATOM     49  C   UNL A   1      44.176  26.413  30.526  1.00  0.00     0.029 A 
ATOM     50  N   UNL A   1      42.678  27.745  31.491  1.00  0.00    -0.354 N 
ATOM     51  N   UNL A   1      41.650  29.466  33.609  1.00  0.00    -0.248 NA
ATOM     52  C   UNL A   1      41.706  30.221  35.817  1.00  0.00     0.031 C 
ATOM     53  C   UNL A   1      44.581  26.651  31.844  1.00  0.00     0.029 A 
ATOM     54  C   UNL A   1      43.655  27.491  32.440  1.00  0.00     0.049 A 
ATOM     55  H   UNL A   1      41.887  28.314  31.632  1.00  0.00     0.167 HD
ATOM     56  C   UNL A   1      42.737  28.897  34.259  1.00  0.00     0.074 A 
ATOM     57  C   UNL A   1      42.741  29.419  35.609  1.00  0.00     0.031 C 
ATOM     58  C   UNL A   1      43.647  28.015  33.780  1.00  0.00     0.037 A 
BRANCH  45  59
ATOM     59  C   UNL A   1      42.618  26.288  27.957  1.00  0.00     0.064 A 
ATOM     60  C   UNL A   1      43.490  26.800  26.987  1.00  0.00     0.173 A 
ATOM     61  C   UNL A   1      42.211  24.951  27.841  1.00  0.00     0.173 A 
ATOM     62  F   UNL A   1      43.898  28.077  27.054  1.00  0.00    -0.203 F 
ATOM     63  C   UNL A   1      43.929  26.004  25.933  1.00  0.00     0.198 A 
ATOM     64  C   UNL A   1      42.665  24.153  26.797  1.00  0.00     0.198 A 
ATOM     65  F   UNL A   1      41.380  24.417  28.750  1.00  0.00    -0.203 F 
ATOM     66  F   UNL A   1      44.745  26.517  25.002  1.00  0.00    -0.200 F 
ATOM     67  C   UNL A   1      43.522  24.681  25.842  1.00  0.00     0.200 A 
ATOM     68  F   UNL A   1      42.279  22.872  26.715  1.00  0.00    -0.200 F 
ATOM     69  F   UNL A   1      43.955  23.912  24.832  1.00  0.00    -0.200 F 
ENDBRANCH  45  59
BRANCH  46  70
ATOM     70  C   UNL A   1      39.338  31.895  35.487  1.00  0.00     0.064 A 
ATOM     71  C   UNL A   1      38.469  31.351  36.442  1.00  0.00     0.173 A 
ATOM     72  C   UNL A   1      39.707  33.240  35.629  1.00  0.00     0.173 A 
ATOM     73  F   UNL A   1      38.063  30.078  36.331  1.00  0.00    -0.203 F 
ATOM     74  C   UNL A   1      37.979  32.127  37.491  1.00  0.00     0.198 A 
ATOM     75  C   UNL A   1      39.239  34.007  36.692  1.00  0.00     0.198 A 
ATOM     76  F   UNL A   1      40.532  33.807  34.735  1.00  0.00    -0.203 F 
ATOM     77  F   UNL A   1      37.115  31.597  38.368  1.00  0.00    -0.200 F 
ATOM     78  C   UNL A   1      38.370  33.452  37.618  1.00  0.00     0.200 A 
ATOM     79  F   UNL A   1      39.626  35.284  36.816  1.00  0.00    -0.200 F 
ATOM     80  F   UNL A   1      37.899  34.197  38.628  1.00  0.00    -0.200 F 
ENDBRANCH  46  70
BRANCH  58  81
ATOM     81  C   UNL A   1      44.730  27.568  34.715  1.00  0.00     0.064 A 
ATOM     82  C   UNL A   1      44.589  26.409  35.492  1.00  0.00     0.173 A 
ATOM     83  C   UNL A   1      45.931  28.285  34.811  1.00  0.00     0.173 A 
ATOM     84  F   UNL A   1      43.450  25.702  35.448  1.00  0.00    -0.203 F 
ATOM     85  C   UNL A   1      45.608  25.993  36.345  1.00  0.00     0.198 A 
ATOM     86  C   UNL A   1      46.957  27.853  35.648  1.00  0.00     0.198 A 
ATOM     87  F   UNL A   1      46.114  29.398  34.086  1.00  0.00    -0.203 F 
ATOM     88  F   UNL A   1      45.438  24.903  37.106  1.00  0.00    -0.200 F 
ATOM     89  C   UNL A   1      46.793  26.711  36.417  1.00  0.00     0.200 A 
ATOM     90  F   UNL A   1      48.104  28.544  35.712  1.00  0.00    -0.200 F 
ATOM     91  F   UNL A   1      47.774  26.307  37.235  1.00  0.00    -0.200 F 
ENDBRANCH  58  81
ENDBRANCH  32  33
ENDBRANCH  25  27
ENDBRANCH  24  25
ENDBRANCH  23  24
ENDBRANCH   1  23
TORSDOF 15
ENDMDL
MODEL 3
REMARK VINA RESULT:     -12.1      4.532      9.838
REMARK SMILES Cc1cc(C(=O)N[C@@H](C)C(=O)OCCOC(=O)c2ccc(-c3c4nc(c(-c5c(F)c(F)c(F)c(F)c5F)c5ccc([nH]5)c(-c5c(F)c(F)c(F)c(F)c5F)c5nc(c(-c6c(F)c(F)c(F)c(F)c6F)c6ccc3[nH]6)C=C5)C=C4)cc2)cc(C)c1OC(F)F
REMARK SMILES IDX 13 1 12 2 10 3 11 4 8 5 9 6 7 7 5 8 6 9 4 11 1 12 2 13 3 14
REMARK SMILES IDX 84 15 82 16 81 17 83 18 85 19 86 20 87 21 88 22 14 23 15 24
REMARK SMILES IDX 16 25 17 26 18 27 19 28 80 29 20 30 79 31 21 32 22 33 23 34
REMARK SMILES IDX 73 35 24 36 78 37 72 38 74 39 25 40 77 41 71 42 70 43 26 45
REMARK SMILES IDX 58 46 38 47 57 48 39 49 42 50 56 51 75 52 40 53 41 54 55 56
REMARK SMILES IDX 76 57 43 58 27 59 28 60 36 61 29 62 30 63 34 64 37 65 31 66
REMARK SMILES IDX 32 67 35 68 33 69 59 70 60 71 68 72 61 73 62 74 66 75 69 76
REMARK SMILES IDX 63 77 64 78 67 79 65 80 44 81 45 82 53 83 46 84 47 85 51 86
REMARK SMILES IDX 54 87 48 88 49 89 52 90 50 91
REMARK H PARENT 7 10 74 44 42 55
REMARK Flexibility Score: inf
ROOT
ATOM      1  C   UNL A   1      35.643  20.430  24.961  1.00  0.00     0.274 C 
ENDROOT
BRANCH   1   2
ATOM      2  O   UNL A   1      34.747  21.546  24.790  1.00  0.00    -0.461 OA
BRANCH   2   3
ATOM      3  C   UNL A   1      33.505  21.393  25.320  1.00  0.00     0.328 C 
ATOM      4  O   UNL A   1      32.710  20.515  25.004  1.00  0.00    -0.250 OA
BRANCH   3   5
ATOM      5  C   UNL A   1      33.182  22.436  26.401  1.00  0.00     0.189 C 
ATOM      6  C   UNL A   1      34.031  22.141  27.634  1.00  0.00     0.043 C 
BRANCH   5   7
ATOM      7  N   UNL A   1      31.778  22.535  26.801  1.00  0.00    -0.339 N 
ATOM      8  C   UNL A   1      30.872  23.566  26.829  1.00  0.00     0.251 C 
ATOM      9  O   UNL A   1      29.776  23.335  27.344  1.00  0.00    -0.269 OA
ATOM     10  H   UNL A   1      31.405  21.681  27.118  1.00  0.00     0.164 HD
BRANCH   8  11
ATOM     11  C   UNL A   1      31.102  24.909  26.214  1.00  0.00     0.040 A 
ATOM     12  C   UNL A   1      29.106  26.945  23.714  1.00  0.00     0.048 C 
ATOM     13  C   UNL A   1      30.275  26.591  24.592  1.00  0.00    -0.008 A 
ATOM     14  C   UNL A   1      30.163  25.351  25.271  1.00  0.00     0.021 A 
ATOM     15  C   UNL A   1      31.433  27.360  24.783  1.00  0.00     0.131 A 
ATOM     16  C   UNL A   1      32.375  26.934  25.753  1.00  0.00    -0.008 A 
ATOM     17  C   UNL A   1      32.160  25.759  26.504  1.00  0.00     0.021 A 
ATOM     18  C   UNL A   1      33.644  27.704  26.034  1.00  0.00     0.048 C 
BRANCH  15  19
ATOM     19  O   UNL A   1      31.782  28.542  24.198  1.00  0.00    -0.434 OA
BRANCH  19  20
ATOM     20  C   UNL A   1      32.227  28.661  22.857  1.00  0.00     0.542 C 
ATOM     21  F   UNL A   1      31.362  29.380  22.113  1.00  0.00    -0.167 F 
ATOM     22  F   UNL A   1      33.430  29.280  22.854  1.00  0.00    -0.167 F 
ENDBRANCH  19  20
ENDBRANCH  15  19
ENDBRANCH   8  11
ENDBRANCH   5   7
ENDBRANCH   3   5
ENDBRANCH   2   3
ENDBRANCH   1   2
BRANCH   1  23
ATOM     23  C   UNL A   1      37.086  20.866  24.716  1.00  0.00     0.275 C 
BRANCH  23  24
ATOM     24  O   UNL A   1      37.574  21.637  25.832  1.00  0.00    -0.458 OA
BRANCH  24  25
ATOM     25  C   UNL A   1      38.879  21.447  26.125  1.00  0.00     0.338 C 
ATOM     26  O   UNL A   1      39.553  20.447  25.936  1.00  0.00    -0.246 OA
BRANCH  25  27
ATOM     27  C   UNL A   1      39.446  22.686  26.669  1.00  0.00     0.060 A 
ATOM     28  C   UNL A   1      38.998  23.900  26.152  1.00  0.00     0.016 A 
ATOM     29  C   UNL A   1      40.505  22.651  27.577  1.00  0.00     0.016 A 
ATOM     30  C   UNL A   1      39.633  25.085  26.511  1.00  0.00     0.010 A 
ATOM     31  C   UNL A   1      41.126  23.848  27.957  1.00  0.00     0.010 A 
ATOM     32  C   UNL A   1      40.714  25.073  27.403  1.00  0.00    -0.014 A 
BRANCH  32  33
ATOM     33  C   UNL A   1      41.450  26.337  27.678  1.00  0.00     0.031 A 
ATOM     34  C   UNL A   1      40.793  27.435  28.467  1.00  0.00     0.074 A 
ATOM     35  C   UNL A   1      42.728  26.484  27.276  1.00  0.00     0.049 A 
ATOM     36  N   UNL A   1      41.244  28.633  28.751  1.00  0.00    -0.248 NA
ATOM     37  C   UNL A   1      39.462  27.146  29.023  1.00  0.00     0.031 C 
ATOM     38  C   UNL A   1      43.507  25.479  26.554  1.00  0.00     0.029 A 
ATOM     39  N   UNL A   1      43.596  27.540  27.421  1.00  0.00    -0.354 N 
ATOM     40  C   UNL A   1      40.242  29.246  29.493  1.00  0.00     0.074 A 
ATOM     41  C   UNL A   1      39.159  28.293  29.615  1.00  0.00     0.031 C 
ATOM     42  C   UNL A   1      44.739  25.962  26.325  1.00  0.00     0.029 A 
ATOM     43  C   UNL A   1      44.819  27.329  26.833  1.00  0.00     0.049 A 
ATOM     44  H   UNL A   1      43.363  28.368  27.899  1.00  0.00     0.167 HD
ATOM     45  C   UNL A   1      40.230  30.488  30.034  1.00  0.00     0.037 A 
ATOM     46  C   UNL A   1      45.872  28.155  26.683  1.00  0.00     0.037 A 
ATOM     47  C   UNL A   1      41.313  31.431  29.951  1.00  0.00     0.049 A 
ATOM     48  C   UNL A   1      45.798  29.558  27.221  1.00  0.00     0.074 A 
ATOM     49  C   UNL A   1      41.392  32.703  30.492  1.00  0.00     0.029 A 
ATOM     50  N   UNL A   1      42.506  31.204  29.285  1.00  0.00    -0.354 N 
ATOM     51  N   UNL A   1      44.841  30.132  27.905  1.00  0.00    -0.248 NA
ATOM     52  C   UNL A   1      46.950  30.433  26.951  1.00  0.00     0.031 C 
ATOM     53  C   UNL A   1      42.622  33.259  30.126  1.00  0.00     0.029 A 
ATOM     54  C   UNL A   1      43.322  32.320  29.386  1.00  0.00     0.049 A 
ATOM     55  H   UNL A   1      42.740  30.374  28.810  1.00  0.00     0.167 HD
ATOM     56  C   UNL A   1      45.273  31.428  28.151  1.00  0.00     0.074 A 
ATOM     57  C   UNL A   1      46.591  31.552  27.565  1.00  0.00     0.031 C 
ATOM     58  C   UNL A   1      44.629  32.430  28.798  1.00  0.00     0.037 A 
BRANCH  45  59
ATOM     59  C   UNL A   1      38.986  30.917  30.749  1.00  0.00     0.064 A 
ATOM     60  C   UNL A   1      37.905  31.490  30.064  1.00  0.00     0.173 A 
ATOM     61  C   UNL A   1      38.856  30.698  32.128  1.00  0.00     0.173 A 
ATOM     62  F   UNL A   1      37.990  31.725  28.746  1.00  0.00    -0.203 F 
ATOM     63  C   UNL A   1      36.740  31.840  30.740  1.00  0.00     0.198 A 
ATOM     64  C   UNL A   1      37.683  31.033  32.797  1.00  0.00     0.198 A 
ATOM     65  F   UNL A   1      39.863  30.147  32.822  1.00  0.00    -0.203 F 
ATOM     66  F   UNL A   1      35.725  32.408  30.074  1.00  0.00    -0.200 F 
ATOM     67  C   UNL A   1      36.627  31.606  32.104  1.00  0.00     0.200 A 
ATOM     68  F   UNL A   1      37.572  30.798  34.112  1.00  0.00    -0.200 F 
ATOM     69  F   UNL A   1      35.500  31.934  32.751  1.00  0.00    -0.200 F 
ENDBRANCH  45  59
BRANCH  46  70
ATOM     70  C   UNL A   1      47.078  27.694  25.949  1.00  0.00     0.064 A 
ATOM     71  C   UNL A   1      48.202  27.215  26.635  1.00  0.00     0.173 A 
ATOM     72  C   UNL A   1      47.139  27.747  24.549  1.00  0.00     0.173 A 
ATOM     73  F   UNL A   1      48.201  27.174  27.975  1.00  0.00    -0.203 F 
ATOM     74  C   UNL A   1      49.346  26.816  25.947  1.00  0.00     0.198 A 
ATOM     75  C   UNL A   1      48.273  27.323  23.862  1.00  0.00     0.198 A 
ATOM     76  F   UNL A   1      46.091  28.205  23.849  1.00  0.00    -0.203 F 
ATOM     77  F   UNL A   1      50.424  26.402  26.628  1.00  0.00    -0.200 F 
ATOM     78  C   UNL A   1      49.378  26.865  24.561  1.00  0.00     0.200 A 
ATOM     79  F   UNL A   1      48.296  27.364  22.522  1.00  0.00    -0.200 F 
ATOM     80  F   UNL A   1      50.479  26.480  23.901  1.00  0.00    -0.200 F 
ENDBRANCH  46  70
BRANCH  58  81
ATOM     81  C   UNL A   1      45.346  33.742  28.919  1.00  0.00     0.064 A 
ATOM     82  C   UNL A   1      45.172  34.757  27.968  1.00  0.00     0.173 A 
ATOM     83  C   UNL A   1      46.186  33.998  30.013  1.00  0.00     0.173 A 
ATOM     84  F   UNL A   1      44.394  34.550  26.896  1.00  0.00    -0.203 F 
ATOM     85  C   UNL A   1      45.828  35.979  28.099  1.00  0.00     0.198 A 
ATOM     86  C   UNL A   1      46.822  35.229  30.153  1.00  0.00     0.198 A 
ATOM     87  F   UNL A   1      46.381  33.059  30.950  1.00  0.00    -0.203 F 
ATOM     88  F   UNL A   1      45.678  36.922  27.159  1.00  0.00    -0.200 F 
ATOM     89  C   UNL A   1      46.647  36.215  29.194  1.00  0.00     0.200 A 
ATOM     90  F   UNL A   1      47.607  35.459  31.214  1.00  0.00    -0.200 F 
ATOM     91  F   UNL A   1      47.274  37.392  29.320  1.00  0.00    -0.200 F 
ENDBRANCH  58  81
ENDBRANCH  32  33
ENDBRANCH  25  27
ENDBRANCH  24  25
ENDBRANCH  23  24
ENDBRANCH   1  23
TORSDOF 15
ENDMDL
