MODEL 1
REMARK VINA RESULT:     -13.4      0.000      0.000
REMARK SMILES O=C(OCCOC(=O)c1ccc(C[N@H+]2CC[N@@H+]3CCCC[C@@H]3C2)c(F)c1)c1ccc(-c2c3nc(c(-c4c(F)c(F)c(F)c(F)c4F)c4ccc([nH]4)c(-c4c(F)c(F)c(F)c(F)c4F)c4nc(c(-c5c(F)c(F)c(F)c(F)c5F)c5ccc2[nH]5)C=C4)C=C3)cc1
REMARK SMILES IDX 4 1 3 2 2 3 1 4 27 5 28 6 89 7 29 8 88 9 30 10 31 11 32 12
REMARK SMILES IDX 82 13 33 14 87 15 81 16 83 17 34 18 86 19 80 20 79 21 35 23
REMARK SMILES IDX 67 24 47 25 66 26 48 27 51 28 65 29 84 30 49 31 50 32 64 34
REMARK SMILES IDX 85 35 52 36 36 37 37 38 45 39 38 40 39 41 43 42 46 43 40 44
REMARK SMILES IDX 41 45 44 46 42 47 68 48 69 49 77 50 70 51 71 52 75 53 78 54
REMARK SMILES IDX 72 55 73 56 76 57 74 58 53 59 54 60 62 61 55 62 56 63 60 64
REMARK SMILES IDX 63 65 57 66 58 67 61 68 59 69 5 70 6 71 7 72 8 73 9 74 10 75
REMARK SMILES IDX 26 76 11 77 24 78 12 79 25 80 13 81 14 82 15 83 23 84 16 86
REMARK SMILES IDX 22 87 17 88 21 89 18 90 20 92 19 93
REMARK H PARENT 83 22 51 33 14 85 17 91
REMARK Flexibility Score: inf
ROOT
ATOM      1  C   UNL A   1      33.341  35.565  28.904  1.00  0.00     0.275 C 
ENDROOT
BRANCH   1   2
ATOM      2  O   UNL A   1      32.493  36.028  29.954  1.00  0.00    -0.458 OA
BRANCH   2   3
ATOM      3  C   UNL A   1      32.867  36.412  31.195  1.00  0.00     0.338 C 
ATOM      4  O   UNL A   1      32.713  37.596  31.496  1.00  0.00    -0.246 OA
BRANCH   3   5
ATOM      5  C   UNL A   1      33.532  35.498  32.203  1.00  0.00     0.060 A 
ATOM      6  C   UNL A   1      33.146  34.221  32.636  1.00  0.00     0.016 A 
ATOM      7  C   UNL A   1      34.726  35.953  32.747  1.00  0.00     0.016 A 
ATOM      8  C   UNL A   1      34.024  33.331  33.314  1.00  0.00     0.010 A 
ATOM      9  C   UNL A   1      35.578  35.054  33.431  1.00  0.00     0.010 A 
ATOM     10  C   UNL A   1      35.370  33.632  33.451  1.00  0.00    -0.014 A 
BRANCH  10  11
ATOM     11  C   UNL A   1      36.601  32.432  33.471  1.00  0.00     0.031 A 
ATOM     12  C   UNL A   1      37.542  32.788  34.613  1.00  0.00     0.074 A 
ATOM     13  C   UNL A   1      37.056  31.406  32.455  1.00  0.00     0.049 A 
ATOM     14  N   UNL A   1      38.709  32.298  34.935  1.00  0.00    -0.248 NA
ATOM     15  C   UNL A   1      37.119  33.929  35.460  1.00  0.00     0.031 C 
ATOM     16  C   UNL A   1      36.420  30.573  30.673  1.00  0.00     0.029 A 
ATOM     17  N   UNL A   1      38.797  30.794  32.430  1.00  0.00    -0.354 N 
ATOM     18  C   UNL A   1      39.133  33.067  36.008  1.00  0.00     0.074 A 
ATOM     19  C   UNL A   1      38.185  34.130  36.207  1.00  0.00     0.031 C 
ATOM     20  C   UNL A   1      37.568  29.653  29.980  1.00  0.00     0.029 A 
ATOM     21  C   UNL A   1      39.118  29.718  31.025  1.00  0.00     0.049 A 
ATOM     22  H   UNL A   1      39.472  31.029  33.107  1.00  0.00     0.167 HD
ATOM     23  C   UNL A   1      40.191  32.883  36.819  1.00  0.00     0.037 A 
ATOM     24  C   UNL A   1      40.152  28.920  30.704  1.00  0.00     0.037 A 
ATOM     25  C   UNL A   1      41.193  31.884  36.624  1.00  0.00     0.049 A 
ATOM     26  C   UNL A   1      41.193  28.787  31.748  1.00  0.00     0.074 A 
ATOM     27  C   UNL A   1      42.244  31.590  37.466  1.00  0.00     0.029 A 
ATOM     28  N   UNL A   1      41.307  31.058  35.512  1.00  0.00    -0.354 N 
ATOM     29  N   UNL A   1      41.268  29.427  32.887  1.00  0.00    -0.248 NA
ATOM     30  C   UNL A   1      42.240  27.791  31.521  1.00  0.00     0.031 C 
ATOM     31  C   UNL A   1      43.046  30.650  36.828  1.00  0.00     0.029 A 
ATOM     32  C   UNL A   1      42.450  30.283  35.629  1.00  0.00     0.049 A 
ATOM     33  H   UNL A   1      40.675  31.029  34.758  1.00  0.00     0.167 HD
ATOM     34  C   UNL A   1      42.376  28.918  33.524  1.00  0.00     0.074 A 
ATOM     35  C   UNL A   1      42.906  27.871  32.664  1.00  0.00     0.031 C 
ATOM     36  C   UNL A   1      42.925  29.288  34.702  1.00  0.00     0.037 A 
BRANCH  23  37
ATOM     37  C   UNL A   1      40.265  33.760  38.034  1.00  0.00     0.064 A 
ATOM     38  C   UNL A   1      41.073  34.902  38.052  1.00  0.00     0.173 A 
ATOM     39  C   UNL A   1      39.552  33.433  39.201  1.00  0.00     0.173 A 
ATOM     40  F   UNL A   1      41.744  35.273  36.951  1.00  0.00    -0.203 F 
ATOM     41  C   UNL A   1      41.200  35.663  39.210  1.00  0.00     0.198 A 
ATOM     42  C   UNL A   1      39.653  34.217  40.344  1.00  0.00     0.198 A 
ATOM     43  F   UNL A   1      38.725  32.375  39.216  1.00  0.00    -0.203 F 
ATOM     44  F   UNL A   1      42.012  36.729  39.221  1.00  0.00    -0.200 F 
ATOM     45  C   UNL A   1      40.493  35.319  40.355  1.00  0.00     0.200 A 
ATOM     46  F   UNL A   1      38.932  33.909  41.432  1.00  0.00    -0.200 F 
ATOM     47  F   UNL A   1      40.619  36.054  41.467  1.00  0.00    -0.200 F 
ENDBRANCH  23  37
BRANCH  24  48
ATOM     48  C   UNL A   1      40.101  28.123  29.440  1.00  0.00     0.064 A 
ATOM     49  C   UNL A   1      39.454  26.873  29.371  1.00  0.00     0.173 A 
ATOM     50  C   UNL A   1      40.779  28.537  28.283  1.00  0.00     0.173 A 
ATOM     51  F   UNL A   1      38.819  26.379  30.439  1.00  0.00    -0.203 F 
ATOM     52  C   UNL A   1      39.495  26.080  28.222  1.00  0.00     0.198 A 
ATOM     53  C   UNL A   1      40.792  27.759  27.121  1.00  0.00     0.198 A 
ATOM     54  F   UNL A   1      41.441  29.703  28.281  1.00  0.00    -0.203 F 
ATOM     55  F   UNL A   1      38.918  24.870  28.224  1.00  0.00    -0.200 F 
ATOM     56  C   UNL A   1      40.157  26.527  27.093  1.00  0.00     0.200 A 
ATOM     57  F   UNL A   1      41.435  28.199  26.031  1.00  0.00    -0.200 F 
ATOM     58  F   UNL A   1      40.194  25.770  25.988  1.00  0.00    -0.200 F 
ENDBRANCH  24  48
BRANCH  36  59
ATOM     59  C   UNL A   1      44.195  28.598  35.066  1.00  0.00     0.064 A 
ATOM     60  C   UNL A   1      44.173  27.450  35.867  1.00  0.00     0.173 A 
ATOM     61  C   UNL A   1      45.432  29.150  34.708  1.00  0.00     0.173 A 
ATOM     62  F   UNL A   1      43.005  26.901  36.233  1.00  0.00    -0.203 F 
ATOM     63  C   UNL A   1      45.357  26.898  36.333  1.00  0.00     0.198 A 
ATOM     64  C   UNL A   1      46.614  28.567  35.137  1.00  0.00     0.198 A 
ATOM     65  F   UNL A   1      45.486  30.240  33.925  1.00  0.00    -0.203 F 
ATOM     66  F   UNL A   1      45.321  25.841  37.155  1.00  0.00    -0.200 F 
ATOM     67  C   UNL A   1      46.574  27.454  35.965  1.00  0.00     0.200 A 
ATOM     68  F   UNL A   1      47.788  29.084  34.754  1.00  0.00    -0.200 F 
ATOM     69  F   UNL A   1      47.717  26.916  36.412  1.00  0.00    -0.200 F 
ENDBRANCH  36  59
ENDBRANCH  10  11
ENDBRANCH   3   5
ENDBRANCH   2   3
ENDBRANCH   1   2
BRANCH   1  70
ATOM     70  C   UNL A   1      32.966  34.182  28.341  1.00  0.00     0.275 C 
BRANCH  70  71
ATOM     71  O   UNL A   1      33.752  33.066  28.839  1.00  0.00    -0.458 OA
BRANCH  71  72
ATOM     72  C   UNL A   1      34.672  32.489  28.000  1.00  0.00     0.338 C 
ATOM     73  O   UNL A   1      35.704  33.017  27.626  1.00  0.00    -0.246 OA
BRANCH  72  74
ATOM     74  C   UNL A   1      34.228  31.123  27.545  1.00  0.00     0.063 A 
ATOM     75  C   UNL A   1      35.155  30.075  27.395  1.00  0.00     0.016 A 
ATOM     76  C   UNL A   1      32.910  30.892  27.147  1.00  0.00     0.055 A 
ATOM     77  C   UNL A   1      34.792  28.871  26.736  1.00  0.00     0.013 A 
ATOM     78  C   UNL A   1      32.564  29.694  26.480  1.00  0.00     0.132 A 
ATOM     79  C   UNL A   1      33.505  28.682  26.193  1.00  0.00     0.042 A 
ATOM     80  F   UNL A   1      31.298  29.570  26.054  1.00  0.00    -0.206 F 
BRANCH  79  81
ATOM     81  C   UNL A   1      33.202  27.471  25.282  1.00  0.00     0.302 C 
BRANCH  81  82
ATOM     82  N   UNL A   1      33.394  27.439  23.797  1.00  0.00    -0.322 N 
ATOM     83  C   UNL A   1      32.878  26.213  23.236  1.00  0.00     0.324 C 
ATOM     84  C   UNL A   1      32.934  28.561  22.894  1.00  0.00     0.328 C 
ATOM     85  H   UNL A   1      34.408  27.551  23.789  1.00  0.00     0.348 HD
ATOM     86  C   UNL A   1      31.408  26.392  22.859  1.00  0.00     0.324 C 
ATOM     87  C   UNL A   1      31.234  28.891  22.902  1.00  0.00     0.239 C 
ATOM     88  N   UNL A   1      30.583  27.409  23.624  1.00  0.00    -0.323 N 
ATOM     89  C   UNL A   1      29.811  30.179  21.693  1.00  0.00     0.071 C 
ATOM     90  C   UNL A   1      28.892  27.503  23.831  1.00  0.00     0.262 C 
ATOM     91  H   UNL A   1      30.682  27.134  24.602  1.00  0.00     0.348 HD
ATOM     92  C   UNL A   1      27.992  29.982  22.093  1.00  0.00     0.012 C 
ATOM     93  C   UNL A   1      27.614  28.511  22.874  1.00  0.00     0.062 C 
ENDBRANCH  81  82
ENDBRANCH  79  81
ENDBRANCH  72  74
ENDBRANCH  71  72
ENDBRANCH  70  71
ENDBRANCH   1  70
TORSDOF 13
ENDMDL
MODEL 2
REMARK VINA RESULT:     -13.4      3.675      6.622
REMARK SMILES O=C(OCCOC(=O)c1ccc(C[N@H+]2CC[N@@H+]3CCCC[C@@H]3C2)c(F)c1)c1ccc(-c2c3nc(c(-c4c(F)c(F)c(F)c(F)c4F)c4ccc([nH]4)c(-c4c(F)c(F)c(F)c(F)c4F)c4nc(c(-c5c(F)c(F)c(F)c(F)c5F)c5ccc2[nH]5)C=C4)C=C3)cc1
REMARK SMILES IDX 4 1 3 2 2 3 1 4 27 5 28 6 89 7 29 8 88 9 30 10 31 11 32 12
REMARK SMILES IDX 82 13 33 14 87 15 81 16 83 17 34 18 86 19 80 20 79 21 35 23
REMARK SMILES IDX 67 24 47 25 66 26 48 27 51 28 65 29 84 30 49 31 50 32 64 34
REMARK SMILES IDX 85 35 52 36 36 37 37 38 45 39 38 40 39 41 43 42 46 43 40 44
REMARK SMILES IDX 41 45 44 46 42 47 68 48 69 49 77 50 70 51 71 52 75 53 78 54
REMARK SMILES IDX 72 55 73 56 76 57 74 58 53 59 54 60 62 61 55 62 56 63 60 64
REMARK SMILES IDX 63 65 57 66 58 67 61 68 59 69 5 70 6 71 7 72 8 73 9 74 10 75
REMARK SMILES IDX 26 76 11 77 24 78 12 79 25 80 13 81 14 82 15 83 23 84 16 86
REMARK SMILES IDX 22 87 17 88 21 89 18 90 20 92 19 93
REMARK H PARENT 83 22 51 33 14 85 17 91
REMARK Flexibility Score: inf
ROOT
ATOM      1  C   UNL A   1      33.487  35.927  29.242  1.00  0.00     0.275 C 
ENDROOT
BRANCH   1   2
ATOM      2  O   UNL A   1      32.576  36.347  30.257  1.00  0.00    -0.458 OA
BRANCH   2   3
ATOM      3  C   UNL A   1      32.849  36.552  31.565  1.00  0.00     0.338 C 
ATOM      4  O   UNL A   1      32.685  37.688  32.011  1.00  0.00    -0.246 OA
BRANCH   3   5
ATOM      5  C   UNL A   1      33.416  35.495  32.490  1.00  0.00     0.060 A 
ATOM      6  C   UNL A   1      33.037  34.154  32.646  1.00  0.00     0.016 A 
ATOM      7  C   UNL A   1      34.504  35.879  33.263  1.00  0.00     0.016 A 
ATOM      8  C   UNL A   1      33.857  33.182  33.283  1.00  0.00     0.010 A 
ATOM      9  C   UNL A   1      35.299  34.897  33.901  1.00  0.00     0.010 A 
ATOM     10  C   UNL A   1      35.157  33.488  33.655  1.00  0.00    -0.014 A 
BRANCH  10  11
ATOM     11  C   UNL A   1      36.430  32.332  33.647  1.00  0.00     0.031 A 
ATOM     12  C   UNL A   1      37.386  32.724  34.765  1.00  0.00     0.074 A 
ATOM     13  C   UNL A   1      36.896  31.320  32.622  1.00  0.00     0.049 A 
ATOM     14  N   UNL A   1      38.577  32.277  35.059  1.00  0.00    -0.248 NA
ATOM     15  C   UNL A   1      36.944  33.853  35.619  1.00  0.00     0.031 C 
ATOM     16  C   UNL A   1      36.245  30.459  30.858  1.00  0.00     0.029 A 
ATOM     17  N   UNL A   1      38.656  30.769  32.555  1.00  0.00    -0.354 N 
ATOM     18  C   UNL A   1      39.000  33.063  36.119  1.00  0.00     0.074 A 
ATOM     19  C   UNL A   1      38.020  34.093  36.339  1.00  0.00     0.031 C 
ATOM     20  C   UNL A   1      37.408  29.579  30.140  1.00  0.00     0.029 A 
ATOM     21  C   UNL A   1      38.980  29.701  31.145  1.00  0.00     0.049 A 
ATOM     22  H   UNL A   1      39.339  31.030  33.215  1.00  0.00     0.167 HD
ATOM     23  C   UNL A   1      40.084  32.919  36.904  1.00  0.00     0.037 A 
ATOM     24  C   UNL A   1      40.034  28.939  30.800  1.00  0.00     0.037 A 
ATOM     25  C   UNL A   1      41.115  31.956  36.687  1.00  0.00     0.049 A 
ATOM     26  C   UNL A   1      41.103  28.846  31.818  1.00  0.00     0.074 A 
ATOM     27  C   UNL A   1      42.196  31.701  37.503  1.00  0.00     0.029 A 
ATOM     28  N   UNL A   1      41.231  31.131  35.574  1.00  0.00    -0.354 N 
ATOM     29  N   UNL A   1      41.184  29.491  32.954  1.00  0.00    -0.248 NA
ATOM     30  C   UNL A   1      42.179  27.887  31.568  1.00  0.00     0.031 C 
ATOM     31  C   UNL A   1      43.015  30.788  36.847  1.00  0.00     0.029 A 
ATOM     32  C   UNL A   1      42.403  30.397  35.664  1.00  0.00     0.049 A 
ATOM     33  H   UNL A   1      40.582  31.077  34.836  1.00  0.00     0.167 HD
ATOM     34  C   UNL A   1      42.325  29.024  33.565  1.00  0.00     0.074 A 
ATOM     35  C   UNL A   1      42.870  27.994  32.694  1.00  0.00     0.031 C 
ATOM     36  C   UNL A   1      42.889  29.417  34.727  1.00  0.00     0.037 A 
BRANCH  23  37
ATOM     37  C   UNL A   1      40.157  33.802  38.115  1.00  0.00     0.064 A 
ATOM     38  C   UNL A   1      40.925  34.971  38.111  1.00  0.00     0.173 A 
ATOM     39  C   UNL A   1      39.484  33.454  39.300  1.00  0.00     0.173 A 
ATOM     40  F   UNL A   1      41.556  35.362  36.993  1.00  0.00    -0.203 F 
ATOM     41  C   UNL A   1      41.053  35.740  39.264  1.00  0.00     0.198 A 
ATOM     42  C   UNL A   1      39.585  34.245  40.438  1.00  0.00     0.198 A 
ATOM     43  F   UNL A   1      38.694  32.369  39.337  1.00  0.00    -0.203 F 
ATOM     44  F   UNL A   1      41.829  36.832  39.252  1.00  0.00    -0.200 F 
ATOM     45  C   UNL A   1      40.387  35.375  40.426  1.00  0.00     0.200 A 
ATOM     46  F   UNL A   1      38.902  33.915  41.544  1.00  0.00    -0.200 F 
ATOM     47  F   UNL A   1      40.514  36.117  41.533  1.00  0.00    -0.200 F 
ENDBRANCH  23  37
BRANCH  24  48
ATOM     48  C   UNL A   1      39.979  28.137  29.540  1.00  0.00     0.064 A 
ATOM     49  C   UNL A   1      39.383  26.861  29.492  1.00  0.00     0.173 A 
ATOM     50  C   UNL A   1      40.605  28.575  28.363  1.00  0.00     0.173 A 
ATOM     51  F   UNL A   1      38.801  26.343  30.579  1.00  0.00    -0.203 F 
ATOM     52  C   UNL A   1      39.424  26.067  28.343  1.00  0.00     0.198 A 
ATOM     53  C   UNL A   1      40.618  27.795  27.203  1.00  0.00     0.198 A 
ATOM     54  F   UNL A   1      41.218  29.768  28.340  1.00  0.00    -0.203 F 
ATOM     55  F   UNL A   1      38.898  24.834  28.364  1.00  0.00    -0.200 F 
ATOM     56  C   UNL A   1      40.034  26.538  27.195  1.00  0.00     0.200 A 
ATOM     57  F   UNL A   1      41.210  28.259  26.093  1.00  0.00    -0.200 F 
ATOM     58  F   UNL A   1      40.071  25.780  26.091  1.00  0.00    -0.200 F 
ENDBRANCH  24  48
BRANCH  36  59
ATOM     59  C   UNL A   1      44.191  28.772  35.062  1.00  0.00     0.064 A 
ATOM     60  C   UNL A   1      44.226  27.591  35.811  1.00  0.00     0.173 A 
ATOM     61  C   UNL A   1      45.400  29.398  34.728  1.00  0.00     0.173 A 
ATOM     62  F   UNL A   1      43.086  26.971  36.153  1.00  0.00    -0.203 F 
ATOM     63  C   UNL A   1      45.436  27.077  36.253  1.00  0.00     0.198 A 
ATOM     64  C   UNL A   1      46.609  28.854  35.132  1.00  0.00     0.198 A 
ATOM     65  F   UNL A   1      45.401  30.522  33.993  1.00  0.00    -0.203 F 
ATOM     66  F   UNL A   1      45.451  25.984  37.028  1.00  0.00    -0.200 F 
ATOM     67  C   UNL A   1      46.624  27.705  35.910  1.00  0.00     0.200 A 
ATOM     68  F   UNL A   1      47.757  29.442  34.772  1.00  0.00    -0.200 F 
ATOM     69  F   UNL A   1      47.792  27.203  36.334  1.00  0.00    -0.200 F 
ENDBRANCH  36  59
ENDBRANCH  10  11
ENDBRANCH   3   5
ENDBRANCH   2   3
ENDBRANCH   1   2
BRANCH   1  70
ATOM     70  C   UNL A   1      33.445  34.422  28.926  1.00  0.00     0.275 C 
BRANCH  70  71
ATOM     71  O   UNL A   1      34.524  33.629  29.489  1.00  0.00    -0.458 OA
BRANCH  71  72
ATOM     72  C   UNL A   1      35.616  33.360  28.703  1.00  0.00     0.338 C 
ATOM     73  O   UNL A   1      35.571  32.896  27.578  1.00  0.00    -0.246 OA
BRANCH  72  74
ATOM     74  C   UNL A   1      36.905  33.662  29.423  1.00  0.00     0.063 A 
ATOM     75  C   UNL A   1      38.118  33.083  29.006  1.00  0.00     0.016 A 
ATOM     76  C   UNL A   1      36.913  34.428  30.590  1.00  0.00     0.055 A 
ATOM     77  C   UNL A   1      39.279  33.163  29.819  1.00  0.00     0.013 A 
ATOM     78  C   UNL A   1      38.073  34.488  31.398  1.00  0.00     0.132 A 
ATOM     79  C   UNL A   1      39.264  33.804  31.074  1.00  0.00     0.042 A 
ATOM     80  F   UNL A   1      37.988  35.177  32.546  1.00  0.00    -0.206 F 
BRANCH  79  81
ATOM     81  C   UNL A   1      40.464  33.679  32.040  1.00  0.00     0.302 C 
BRANCH  81  82
ATOM     82  N   UNL A   1      41.837  33.223  31.656  1.00  0.00    -0.322 N 
ATOM     83  C   UNL A   1      42.527  34.242  30.901  1.00  0.00     0.324 C 
ATOM     84  C   UNL A   1      42.825  32.680  32.663  1.00  0.00     0.328 C 
ATOM     85  H   UNL A   1      41.562  32.385  31.142  1.00  0.00     0.348 HD
ATOM     86  C   UNL A   1      43.295  35.160  31.851  1.00  0.00     0.324 C 
ATOM     87  C   UNL A   1      43.286  33.765  33.931  1.00  0.00     0.239 C 
ATOM     88  N   UNL A   1      42.783  35.330  33.267  1.00  0.00    -0.323 N 
ATOM     89  C   UNL A   1      44.835  33.781  35.589  1.00  0.00     0.071 C 
ATOM     90  C   UNL A   1      43.053  36.598  34.377  1.00  0.00     0.262 C 
ATOM     91  H   UNL A   1      41.818  35.641  33.154  1.00  0.00     0.348 HD
ATOM     92  C   UNL A   1      44.956  35.368  36.577  1.00  0.00     0.012 C 
ATOM     93  C   UNL A   1      44.320  36.732  35.770  1.00  0.00     0.062 C 
ENDBRANCH  81  82
ENDBRANCH  79  81
ENDBRANCH  72  74
ENDBRANCH  71  72
ENDBRANCH  70  71
ENDBRANCH   1  70
TORSDOF 13
ENDMDL
MODEL 3
REMARK VINA RESULT:     -13.3      3.717      6.003
REMARK SMILES O=C(OCCOC(=O)c1ccc(C[N@H+]2CC[N@@H+]3CCCC[C@@H]3C2)c(F)c1)c1ccc(-c2c3nc(c(-c4c(F)c(F)c(F)c(F)c4F)c4ccc([nH]4)c(-c4c(F)c(F)c(F)c(F)c4F)c4nc(c(-c5c(F)c(F)c(F)c(F)c5F)c5ccc2[nH]5)C=C4)C=C3)cc1
REMARK SMILES IDX 4 1 3 2 2 3 1 4 27 5 28 6 89 7 29 8 88 9 30 10 31 11 32 12
REMARK SMILES IDX 82 13 33 14 87 15 81 16 83 17 34 18 86 19 80 20 79 21 35 23
REMARK SMILES IDX 67 24 47 25 66 26 48 27 51 28 65 29 84 30 49 31 50 32 64 34
REMARK SMILES IDX 85 35 52 36 36 37 37 38 45 39 38 40 39 41 43 42 46 43 40 44
REMARK SMILES IDX 41 45 44 46 42 47 68 48 69 49 77 50 70 51 71 52 75 53 78 54
REMARK SMILES IDX 72 55 73 56 76 57 74 58 53 59 54 60 62 61 55 62 56 63 60 64
REMARK SMILES IDX 63 65 57 66 58 67 61 68 59 69 5 70 6 71 7 72 8 73 9 74 10 75
REMARK SMILES IDX 26 76 11 77 24 78 12 79 25 80 13 81 14 82 15 83 23 84 16 86
REMARK SMILES IDX 22 87 17 88 21 89 18 90 20 92 19 93
REMARK H PARENT 83 22 51 33 14 85 17 91
REMARK Flexibility Score: inf
ROOT
ATOM      1  C   UNL A   1      33.341  35.970  29.193  1.00  0.00     0.275 C 
ENDROOT
BRANCH   1   2
ATOM      2  O   UNL A   1      32.517  36.342  30.296  1.00  0.00    -0.458 OA
BRANCH   2   3
ATOM      3  C   UNL A   1      32.913  36.585  31.566  1.00  0.00     0.338 C 
ATOM      4  O   UNL A   1      32.862  37.749  31.967  1.00  0.00    -0.246 OA
BRANCH   3   5
ATOM      5  C   UNL A   1      33.487  35.534  32.492  1.00  0.00     0.060 A 
ATOM      6  C   UNL A   1      33.094  34.201  32.677  1.00  0.00     0.016 A 
ATOM      7  C   UNL A   1      34.598  35.914  33.235  1.00  0.00     0.016 A 
ATOM      8  C   UNL A   1      33.916  33.227  33.308  1.00  0.00     0.010 A 
ATOM      9  C   UNL A   1      35.394  34.931  33.869  1.00  0.00     0.010 A 
ATOM     10  C   UNL A   1      35.228  33.520  33.646  1.00  0.00    -0.014 A 
BRANCH  10  11
ATOM     11  C   UNL A   1      36.485  32.347  33.626  1.00  0.00     0.031 A 
ATOM     12  C   UNL A   1      37.463  32.733  34.727  1.00  0.00     0.074 A 
ATOM     13  C   UNL A   1      36.921  31.323  32.600  1.00  0.00     0.049 A 
ATOM     14  N   UNL A   1      38.653  32.271  35.005  1.00  0.00    -0.248 NA
ATOM     15  C   UNL A   1      37.050  33.872  35.581  1.00  0.00     0.031 C 
ATOM     16  C   UNL A   1      36.233  30.461  30.851  1.00  0.00     0.029 A 
ATOM     17  N   UNL A   1      38.673  30.748  32.510  1.00  0.00    -0.354 N 
ATOM     18  C   UNL A   1      39.102  33.058  36.054  1.00  0.00     0.074 A 
ATOM     19  C   UNL A   1      38.140  34.102  36.283  1.00  0.00     0.031 C 
ATOM     20  C   UNL A   1      37.372  29.561  30.120  1.00  0.00     0.029 A 
ATOM     21  C   UNL A   1      38.961  29.668  31.101  1.00  0.00     0.049 A 
ATOM     22  H   UNL A   1      39.370  31.004  33.158  1.00  0.00     0.167 HD
ATOM     23  C   UNL A   1      40.196  32.904  36.824  1.00  0.00     0.037 A 
ATOM     24  C   UNL A   1      39.999  28.889  30.745  1.00  0.00     0.037 A 
ATOM     25  C   UNL A   1      41.211  31.925  36.596  1.00  0.00     0.049 A 
ATOM     26  C   UNL A   1      41.083  28.788  31.747  1.00  0.00     0.074 A 
ATOM     27  C   UNL A   1      42.301  31.661  37.397  1.00  0.00     0.029 A 
ATOM     28  N   UNL A   1      41.298  31.092  35.487  1.00  0.00    -0.354 N 
ATOM     29  N   UNL A   1      41.189  29.438  32.878  1.00  0.00    -0.248 NA
ATOM     30  C   UNL A   1      42.141  27.813  31.486  1.00  0.00     0.031 C 
ATOM     31  C   UNL A   1      43.097  30.733  36.735  1.00  0.00     0.029 A 
ATOM     32  C   UNL A   1      42.461  30.343  35.563  1.00  0.00     0.049 A 
ATOM     33  H   UNL A   1      40.637  31.043  34.759  1.00  0.00     0.167 HD
ATOM     34  C   UNL A   1      42.333  28.959  33.474  1.00  0.00     0.074 A 
ATOM     35  C   UNL A   1      42.851  27.917  32.600  1.00  0.00     0.031 C 
ATOM     36  C   UNL A   1      42.920  29.351  34.625  1.00  0.00     0.037 A 
BRANCH  23  37
ATOM     37  C   UNL A   1      40.299  33.792  38.028  1.00  0.00     0.064 A 
ATOM     38  C   UNL A   1      39.588  33.506  39.199  1.00  0.00     0.173 A 
ATOM     39  C   UNL A   1      41.084  34.958  37.996  1.00  0.00     0.173 A 
ATOM     40  F   UNL A   1      38.854  32.387  39.289  1.00  0.00    -0.203 F 
ATOM     41  C   UNL A   1      39.625  34.379  40.282  1.00  0.00     0.198 A 
ATOM     42  C   UNL A   1      41.146  35.809  39.093  1.00  0.00     0.198 A 
ATOM     43  F   UNL A   1      41.822  35.248  36.912  1.00  0.00    -0.203 F 
ATOM     44  F   UNL A   1      38.904  34.110  41.378  1.00  0.00    -0.200 F 
ATOM     45  C   UNL A   1      40.400  35.530  40.227  1.00  0.00     0.200 A 
ATOM     46  F   UNL A   1      41.933  36.894  39.054  1.00  0.00    -0.200 F 
ATOM     47  F   UNL A   1      40.431  36.368  41.271  1.00  0.00    -0.200 F 
ENDBRANCH  23  37
BRANCH  24  48
ATOM     48  C   UNL A   1      39.914  28.081  29.490  1.00  0.00     0.064 A 
ATOM     49  C   UNL A   1      39.355  26.787  29.471  1.00  0.00     0.173 A 
ATOM     50  C   UNL A   1      40.475  28.533  28.286  1.00  0.00     0.173 A 
ATOM     51  F   UNL A   1      38.836  26.257  30.584  1.00  0.00    -0.203 F 
ATOM     52  C   UNL A   1      39.371  25.990  28.324  1.00  0.00     0.198 A 
ATOM     53  C   UNL A   1      40.462  27.749  27.128  1.00  0.00     0.198 A 
ATOM     54  F   UNL A   1      41.050  29.743  28.233  1.00  0.00    -0.203 F 
ATOM     55  F   UNL A   1      38.884  24.742  28.371  1.00  0.00    -0.200 F 
ATOM     56  C   UNL A   1      39.916  26.475  27.149  1.00  0.00     0.200 A 
ATOM     57  F   UNL A   1      40.991  28.226  25.993  1.00  0.00    -0.200 F 
ATOM     58  F   UNL A   1      39.928  25.713  26.047  1.00  0.00    -0.200 F 
ENDBRANCH  24  48
BRANCH  36  59
ATOM     59  C   UNL A   1      44.219  28.691  34.943  1.00  0.00     0.064 A 
ATOM     60  C   UNL A   1      44.253  27.539  35.738  1.00  0.00     0.173 A 
ATOM     61  C   UNL A   1      45.429  29.276  34.546  1.00  0.00     0.173 A 
ATOM     62  F   UNL A   1      43.112  26.960  36.141  1.00  0.00    -0.203 F 
ATOM     63  C   UNL A   1      45.465  27.016  36.162  1.00  0.00     0.198 A 
ATOM     64  C   UNL A   1      46.639  28.721  34.933  1.00  0.00     0.198 A 
ATOM     65  F   UNL A   1      45.429  30.370  33.767  1.00  0.00    -0.203 F 
ATOM     66  F   UNL A   1      45.483  25.955  36.979  1.00  0.00    -0.200 F 
ATOM     67  C   UNL A   1      46.655  27.604  35.756  1.00  0.00     0.200 A 
ATOM     68  F   UNL A   1      47.786  29.268  34.514  1.00  0.00    -0.200 F 
ATOM     69  F   UNL A   1      47.825  27.093  36.162  1.00  0.00    -0.200 F 
ENDBRANCH  36  59
ENDBRANCH  10  11
ENDBRANCH   3   5
ENDBRANCH   2   3
ENDBRANCH   1   2
BRANCH   1  70
ATOM     70  C   UNL A   1      33.598  34.458  29.067  1.00  0.00     0.275 C 
BRANCH  70  71
ATOM     71  O   UNL A   1      34.810  33.969  29.702  1.00  0.00    -0.458 OA
BRANCH  71  72
ATOM     72  C   UNL A   1      35.885  33.659  28.907  1.00  0.00     0.338 C 
ATOM     73  O   UNL A   1      35.813  33.260  27.758  1.00  0.00    -0.246 OA
BRANCH  72  74
ATOM     74  C   UNL A   1      37.187  33.823  29.646  1.00  0.00     0.063 A 
ATOM     75  C   UNL A   1      38.338  33.118  29.247  1.00  0.00     0.016 A 
ATOM     76  C   UNL A   1      37.259  34.583  30.815  1.00  0.00     0.055 A 
ATOM     77  C   UNL A   1      39.489  33.075  30.077  1.00  0.00     0.013 A 
ATOM     78  C   UNL A   1      38.406  34.520  31.640  1.00  0.00     0.132 A 
ATOM     79  C   UNL A   1      39.523  33.714  31.332  1.00  0.00     0.042 A 
ATOM     80  F   UNL A   1      38.377  35.214  32.788  1.00  0.00    -0.206 F 
BRANCH  79  81
ATOM     81  C   UNL A   1      40.688  33.462  32.317  1.00  0.00     0.302 C 
BRANCH  81  82
ATOM     82  N   UNL A   1      41.954  34.259  32.377  1.00  0.00    -0.322 N 
ATOM     83  C   UNL A   1      43.002  33.514  33.033  1.00  0.00     0.324 C 
ATOM     84  C   UNL A   1      42.571  34.897  31.154  1.00  0.00     0.328 C 
ATOM     85  H   UNL A   1      41.583  35.064  32.883  1.00  0.00     0.348 HD
ATOM     86  C   UNL A   1      43.780  32.696  32.003  1.00  0.00     0.324 C 
ATOM     87  C   UNL A   1      43.038  33.813  29.887  1.00  0.00     0.239 C 
ATOM     88  N   UNL A   1      43.069  32.258  30.739  1.00  0.00    -0.323 N 
ATOM     89  C   UNL A   1      44.204  33.967  27.947  1.00  0.00     0.071 C 
ATOM     90  C   UNL A   1      43.428  30.970  29.678  1.00  0.00     0.262 C 
ATOM     91  H   UNL A   1      42.249  31.749  31.070  1.00  0.00     0.348 HD
ATOM     92  C   UNL A   1      44.523  32.349  27.057  1.00  0.00     0.012 C 
ATOM     93  C   UNL A   1      44.405  30.974  28.063  1.00  0.00     0.062 C 
ENDBRANCH  81  82
ENDBRANCH  79  81
ENDBRANCH  72  74
ENDBRANCH  71  72
ENDBRANCH  70  71
ENDBRANCH   1  70
TORSDOF 13
ENDMDL
