MODEL 1
REMARK VINA RESULT:     -14.7      0.000      0.000
REMARK SMILES O=C(OCCOC(=O)[C@@H]1[C@H](C(=O)Nc2cccc(Cl)c2F)[C@@H]2C=C[C@H]1C2)c1ccc(-c2c3nc(c(-c4c(F)c(F)c(F)c(F)c4F)c4ccc([nH]4)c(-c4c(F)c(F)c(F)c(F)c4F)c4nc(c(-c5c(F)c(F)c(F)c(F)c5F)c5ccc2[nH]5)C=C4)C=C3)cc1
REMARK SMILES IDX 4 1 3 2 2 3 1 4 27 5 28 6 89 7 29 8 88 9 30 10 31 11 32 12
REMARK SMILES IDX 82 13 33 14 87 15 81 16 83 17 34 18 86 19 80 20 79 21 35 23
REMARK SMILES IDX 67 24 47 25 66 26 48 27 51 28 65 29 84 30 49 31 50 32 64 34
REMARK SMILES IDX 85 35 52 36 36 37 37 38 45 39 38 40 39 41 43 42 46 43 40 44
REMARK SMILES IDX 41 45 44 46 42 47 68 48 69 49 77 50 70 51 71 52 75 53 78 54
REMARK SMILES IDX 72 55 73 56 76 57 74 58 53 59 54 60 62 61 55 62 56 63 60 64
REMARK SMILES IDX 63 65 57 66 58 67 61 68 59 69 5 70 6 71 7 72 8 73 9 74 10 75
REMARK SMILES IDX 25 76 22 77 24 78 26 79 23 80 11 81 12 82 13 83 14 85 15 86
REMARK SMILES IDX 20 87 16 88 18 89 21 90 17 91 19 92
REMARK H PARENT 83 22 51 33 13 84
REMARK Flexibility Score: inf
ROOT
ATOM      1  C   UNL A   1      47.034  20.849  36.467  1.00  0.00     0.275 C 
ENDROOT
BRANCH   1   2
ATOM      2  O   UNL A   1      46.321  22.085  35.995  1.00  0.00    -0.458 OA
BRANCH   2   3
ATOM      3  C   UNL A   1      45.632  23.138  36.612  1.00  0.00     0.338 C 
ATOM      4  O   UNL A   1      45.602  23.228  37.835  1.00  0.00    -0.246 OA
BRANCH   3   5
ATOM      5  C   UNL A   1      44.629  23.963  35.828  1.00  0.00     0.060 A 
ATOM      6  C   UNL A   1      43.829  24.749  36.792  1.00  0.00     0.016 A 
ATOM      7  C   UNL A   1      44.653  24.352  34.155  1.00  0.00     0.016 A 
ATOM      8  C   UNL A   1      43.113  26.217  36.374  1.00  0.00     0.010 A 
ATOM      9  C   UNL A   1      43.915  25.734  33.382  1.00  0.00     0.010 A 
ATOM     10  C   UNL A   1      43.050  26.855  34.408  1.00  0.00    -0.014 A 
BRANCH  10  11
ATOM     11  C   UNL A   1      41.771  27.874  33.583  1.00  0.00     0.031 A 
ATOM     12  C   UNL A   1      41.117  29.086  34.361  1.00  0.00     0.074 A 
ATOM     13  C   UNL A   1      41.742  28.496  32.323  1.00  0.00     0.049 A 
ATOM     14  N   UNL A   1      40.297  29.985  33.836  1.00  0.00    -0.248 NA
ATOM     15  C   UNL A   1      41.526  29.455  35.724  1.00  0.00     0.031 C 
ATOM     16  C   UNL A   1      42.805  28.989  31.389  1.00  0.00     0.029 A 
ATOM     17  N   UNL A   1      40.707  28.304  31.415  1.00  0.00    -0.354 N 
ATOM     18  C   UNL A   1      40.146  31.006  34.754  1.00  0.00     0.074 A 
ATOM     19  C   UNL A   1      40.973  30.657  35.883  1.00  0.00     0.031 C 
ATOM     20  C   UNL A   1      42.548  28.565  30.136  1.00  0.00     0.029 A 
ATOM     21  C   UNL A   1      41.159  28.172  30.111  1.00  0.00     0.049 A 
ATOM     22  H   UNL A   1      39.757  28.266  31.671  1.00  0.00     0.167 HD
ATOM     23  C   UNL A   1      39.356  32.104  34.641  1.00  0.00     0.037 A 
ATOM     24  C   UNL A   1      40.507  28.173  28.939  1.00  0.00     0.037 A 
ATOM     25  C   UNL A   1      38.549  32.394  33.473  1.00  0.00     0.049 A 
ATOM     26  C   UNL A   1      39.362  29.109  28.937  1.00  0.00     0.074 A 
ATOM     27  C   UNL A   1      37.553  33.346  33.332  1.00  0.00     0.029 A 
ATOM     28  N   UNL A   1      38.626  31.721  32.253  1.00  0.00    -0.354 N 
ATOM     29  N   UNL A   1      39.061  29.948  29.895  1.00  0.00    -0.248 NA
ATOM     30  C   UNL A   1      38.546  29.220  27.732  1.00  0.00     0.031 C 
ATOM     31  C   UNL A   1      36.938  33.156  32.091  1.00  0.00     0.029 A 
ATOM     32  C   UNL A   1      37.616  32.162  31.404  1.00  0.00     0.049 A 
ATOM     33  H   UNL A   1      39.297  31.037  32.027  1.00  0.00     0.167 HD
ATOM     34  C   UNL A   1      38.024  30.705  29.419  1.00  0.00     0.074 A 
ATOM     35  C   UNL A   1      37.780  30.255  28.057  1.00  0.00     0.031 C 
ATOM     36  C   UNL A   1      37.343  31.672  30.073  1.00  0.00     0.037 A 
BRANCH  23  37
ATOM     37  C   UNL A   1      39.118  32.925  35.880  1.00  0.00     0.064 A 
ATOM     38  C   UNL A   1      38.322  32.526  36.961  1.00  0.00     0.173 A 
ATOM     39  C   UNL A   1      39.789  34.158  35.986  1.00  0.00     0.173 A 
ATOM     40  F   UNL A   1      37.645  31.368  36.916  1.00  0.00    -0.203 F 
ATOM     41  C   UNL A   1      38.207  33.333  38.099  1.00  0.00     0.198 A 
ATOM     42  C   UNL A   1      39.691  34.945  37.128  1.00  0.00     0.198 A 
ATOM     43  F   UNL A   1      40.564  34.588  34.980  1.00  0.00    -0.203 F 
ATOM     44  F   UNL A   1      37.420  32.949  39.116  1.00  0.00    -0.200 F 
ATOM     45  C   UNL A   1      38.897  34.534  38.184  1.00  0.00     0.200 A 
ATOM     46  F   UNL A   1      40.371  36.098  37.204  1.00  0.00    -0.200 F 
ATOM     47  F   UNL A   1      38.793  35.300  39.279  1.00  0.00    -0.200 F 
ENDBRANCH  23  37
BRANCH  24  48
ATOM     48  C   UNL A   1      40.978  27.373  27.783  1.00  0.00     0.064 A 
ATOM     49  C   UNL A   1      40.936  25.976  27.715  1.00  0.00     0.173 A 
ATOM     50  C   UNL A   1      41.649  28.045  26.744  1.00  0.00     0.173 A 
ATOM     51  F   UNL A   1      40.289  25.276  28.657  1.00  0.00    -0.203 F 
ATOM     52  C   UNL A   1      41.606  25.282  26.703  1.00  0.00     0.198 A 
ATOM     53  C   UNL A   1      42.307  27.354  25.729  1.00  0.00     0.198 A 
ATOM     54  F   UNL A   1      41.713  29.385  26.740  1.00  0.00    -0.203 F 
ATOM     55  F   UNL A   1      41.612  23.941  26.705  1.00  0.00    -0.200 F 
ATOM     56  C   UNL A   1      42.306  25.970  25.722  1.00  0.00     0.200 A 
ATOM     57  F   UNL A   1      42.979  28.030  24.786  1.00  0.00    -0.200 F 
ATOM     58  F   UNL A   1      42.997  25.302  24.788  1.00  0.00    -0.200 F 
ENDBRANCH  24  48
BRANCH  36  59
ATOM     59  C   UNL A   1      36.189  32.247  29.326  1.00  0.00     0.064 A 
ATOM     60  C   UNL A   1      35.093  31.442  28.979  1.00  0.00     0.173 A 
ATOM     61  C   UNL A   1      36.166  33.600  28.968  1.00  0.00     0.173 A 
ATOM     62  F   UNL A   1      35.089  30.134  29.285  1.00  0.00    -0.203 F 
ATOM     63  C   UNL A   1      34.026  31.967  28.266  1.00  0.00     0.198 A 
ATOM     64  C   UNL A   1      35.073  34.132  28.296  1.00  0.00     0.198 A 
ATOM     65  F   UNL A   1      37.195  34.402  29.278  1.00  0.00    -0.203 F 
ATOM     66  F   UNL A   1      33.023  31.166  27.882  1.00  0.00    -0.200 F 
ATOM     67  C   UNL A   1      34.011  33.314  27.937  1.00  0.00     0.200 A 
ATOM     68  F   UNL A   1      35.049  35.437  27.994  1.00  0.00    -0.200 F 
ATOM     69  F   UNL A   1      32.972  33.824  27.261  1.00  0.00    -0.200 F 
ENDBRANCH  36  59
ENDBRANCH  10  11
ENDBRANCH   3   5
ENDBRANCH   2   3
ENDBRANCH   1   2
BRANCH   1  70
ATOM     70  C   UNL A   1      46.230  19.506  36.715  1.00  0.00     0.274 C 
BRANCH  70  71
ATOM     71  O   UNL A   1      45.743  19.263  38.037  1.00  0.00    -0.462 OA
BRANCH  71  72
ATOM     72  C   UNL A   1      45.279  18.020  38.295  1.00  0.00     0.310 C 
ATOM     73  O   UNL A   1      44.518  17.386  37.582  1.00  0.00    -0.252 OA
BRANCH  72  74
ATOM     74  C   UNL A   1      45.917  17.487  39.562  1.00  0.00     0.119 C 
ATOM     75  C   UNL A   1      44.814  16.315  40.471  1.00  0.00     0.100 C 
ATOM     76  C   UNL A   1      46.702  18.684  40.918  1.00  0.00     0.027 C 
ATOM     77  C   UNL A   1      45.354  16.528  42.063  1.00  0.00     0.025 C 
ATOM     78  C   UNL A   1      45.355  19.556  42.480  1.00  0.00    -0.027 C 
ATOM     79  C   UNL A   1      47.086  16.872  41.397  1.00  0.00     0.017 C 
ATOM     80  C   UNL A   1      44.603  18.123  43.130  1.00  0.00    -0.027 C 
BRANCH  75  81
ATOM     81  C   UNL A   1      43.123  16.241  40.503  1.00  0.00     0.229 C 
ATOM     82  O   UNL A   1      42.566  17.102  39.794  1.00  0.00    -0.274 OA
ATOM     83  N   UNL A   1      42.204  15.270  40.999  1.00  0.00    -0.323 N 
ATOM     84  H   UNL A   1      41.334  15.397  40.556  1.00  0.00     0.170 HD
BRANCH  83  85
ATOM     85  C   UNL A   1      42.105  14.148  41.940  1.00  0.00     0.078 A 
ATOM     86  C   UNL A   1      41.548  12.922  41.533  1.00  0.00     0.029 A 
ATOM     87  C   UNL A   1      42.499  14.172  43.286  1.00  0.00     0.165 A 
ATOM     88  C   UNL A   1      41.697  11.738  42.313  1.00  0.00     0.004 A 
ATOM     89  C   UNL A   1      42.705  13.000  44.052  1.00  0.00     0.078 A 
ATOM     90  F   UNL A   1      42.636  15.355  43.889  1.00  0.00    -0.203 F 
ATOM     91  C   UNL A   1      42.353  11.763  43.541  1.00  0.00     0.024 A 
ATOM     92  Cl  UNL A   1      43.472  13.061  45.601  1.00  0.00    -0.081 Cl
ENDBRANCH  83  85
ENDBRANCH  75  81
ENDBRANCH  72  74
ENDBRANCH  71  72
ENDBRANCH  70  71
ENDBRANCH   1  70
TORSDOF 13
ENDMDL
MODEL 2
REMARK VINA RESULT:     -14.6      7.442     15.117
REMARK SMILES O=C(OCCOC(=O)[C@@H]1[C@H](C(=O)Nc2cccc(Cl)c2F)[C@@H]2C=C[C@H]1C2)c1ccc(-c2c3nc(c(-c4c(F)c(F)c(F)c(F)c4F)c4ccc([nH]4)c(-c4c(F)c(F)c(F)c(F)c4F)c4nc(c(-c5c(F)c(F)c(F)c(F)c5F)c5ccc2[nH]5)C=C4)C=C3)cc1
REMARK SMILES IDX 4 1 3 2 2 3 1 4 27 5 28 6 89 7 29 8 88 9 30 10 31 11 32 12
REMARK SMILES IDX 82 13 33 14 87 15 81 16 83 17 34 18 86 19 80 20 79 21 35 23
REMARK SMILES IDX 67 24 47 25 66 26 48 27 51 28 65 29 84 30 49 31 50 32 64 34
REMARK SMILES IDX 85 35 52 36 36 37 37 38 45 39 38 40 39 41 43 42 46 43 40 44
REMARK SMILES IDX 41 45 44 46 42 47 68 48 69 49 77 50 70 51 71 52 75 53 78 54
REMARK SMILES IDX 72 55 73 56 76 57 74 58 53 59 54 60 62 61 55 62 56 63 60 64
REMARK SMILES IDX 63 65 57 66 58 67 61 68 59 69 5 70 6 71 7 72 8 73 9 74 10 75
REMARK SMILES IDX 25 76 22 77 24 78 26 79 23 80 11 81 12 82 13 83 14 85 15 86
REMARK SMILES IDX 20 87 16 88 18 89 21 90 17 91 19 92
REMARK H PARENT 83 22 51 33 13 84
REMARK Flexibility Score: inf
ROOT
ATOM      1  C   UNL A   1      31.224  30.051  25.275  1.00  0.00     0.275 C 
ENDROOT
BRANCH   1   2
ATOM      2  O   UNL A   1      32.378  30.859  25.799  1.00  0.00    -0.458 OA
BRANCH   2   3
ATOM      3  C   UNL A   1      32.677  31.507  27.005  1.00  0.00     0.338 C 
ATOM      4  O   UNL A   1      32.226  32.624  27.240  1.00  0.00    -0.246 OA
BRANCH   3   5
ATOM      5  C   UNL A   1      33.823  31.024  27.873  1.00  0.00     0.060 A 
ATOM      6  C   UNL A   1      34.356  29.779  27.280  1.00  0.00     0.016 A 
ATOM      7  C   UNL A   1      34.716  31.913  29.041  1.00  0.00     0.016 A 
ATOM      8  C   UNL A   1      35.956  29.297  27.497  1.00  0.00     0.010 A 
ATOM      9  C   UNL A   1      36.351  31.608  29.577  1.00  0.00     0.010 A 
ATOM     10  C   UNL A   1      37.186  30.252  28.858  1.00  0.00    -0.014 A 
BRANCH  10  11
ATOM     11  C   UNL A   1      38.562  29.545  29.839  1.00  0.00     0.031 A 
ATOM     12  C   UNL A   1      39.582  28.552  29.151  1.00  0.00     0.074 A 
ATOM     13  C   UNL A   1      39.512  30.145  30.683  1.00  0.00     0.049 A 
ATOM     14  N   UNL A   1      40.697  28.090  29.699  1.00  0.00    -0.248 NA
ATOM     15  C   UNL A   1      39.492  28.197  27.726  1.00  0.00     0.031 C 
ATOM     16  C   UNL A   1      40.098  31.522  30.764  1.00  0.00     0.029 A 
ATOM     17  N   UNL A   1      39.728  29.724  31.990  1.00  0.00    -0.354 N 
ATOM     18  C   UNL A   1      41.428  27.464  28.710  1.00  0.00     0.074 A 
ATOM     19  C   UNL A   1      40.665  27.608  27.494  1.00  0.00     0.031 C 
ATOM     20  C   UNL A   1      40.084  31.953  32.041  1.00  0.00     0.029 A 
ATOM     21  C   UNL A   1      39.909  30.782  32.868  1.00  0.00     0.049 A 
ATOM     22  H   UNL A   1      39.750  28.779  32.262  1.00  0.00     0.167 HD
ATOM     23  C   UNL A   1      42.610  26.812  28.847  1.00  0.00     0.037 A 
ATOM     24  C   UNL A   1      40.329  30.820  34.141  1.00  0.00     0.037 A 
ATOM     25  C   UNL A   1      43.326  26.707  30.103  1.00  0.00     0.049 A 
ATOM     26  C   UNL A   1      41.375  29.811  34.414  1.00  0.00     0.074 A 
ATOM     27  C   UNL A   1      44.406  25.895  30.410  1.00  0.00     0.029 A 
ATOM     28  N   UNL A   1      43.021  27.414  31.266  1.00  0.00    -0.354 N 
ATOM     29  N   UNL A   1      41.943  29.040  33.521  1.00  0.00    -0.248 NA
ATOM     30  C   UNL A   1      41.933  29.721  35.759  1.00  0.00     0.031 C 
ATOM     31  C   UNL A   1      44.660  26.006  31.780  1.00  0.00     0.029 A 
ATOM     32  C   UNL A   1      43.818  26.967  32.315  1.00  0.00     0.049 A 
ATOM     33  H   UNL A   1      42.343  28.125  31.333  1.00  0.00     0.167 HD
ATOM     34  C   UNL A   1      42.938  28.371  34.183  1.00  0.00     0.074 A 
ATOM     35  C   UNL A   1      42.929  28.868  35.549  1.00  0.00     0.031 C 
ATOM     36  C   UNL A   1      43.765  27.425  33.684  1.00  0.00     0.037 A 
BRANCH  23  37
ATOM     37  C   UNL A   1      43.073  25.952  27.701  1.00  0.00     0.064 A 
ATOM     38  C   UNL A   1      42.624  24.649  27.449  1.00  0.00     0.173 A 
ATOM     39  C   UNL A   1      43.978  26.518  26.784  1.00  0.00     0.173 A 
ATOM     40  F   UNL A   1      41.772  24.049  28.293  1.00  0.00    -0.203 F 
ATOM     41  C   UNL A   1      43.068  23.948  26.323  1.00  0.00     0.198 A 
ATOM     42  C   UNL A   1      44.398  25.826  25.653  1.00  0.00     0.198 A 
ATOM     43  F   UNL A   1      44.439  27.763  26.977  1.00  0.00    -0.203 F 
ATOM     44  F   UNL A   1      42.649  22.691  26.108  1.00  0.00    -0.200 F 
ATOM     45  C   UNL A   1      43.945  24.538  25.423  1.00  0.00     0.200 A 
ATOM     46  F   UNL A   1      45.235  26.411  24.785  1.00  0.00    -0.200 F 
ATOM     47  F   UNL A   1      44.360  23.867  24.340  1.00  0.00    -0.200 F 
ENDBRANCH  23  37
BRANCH  24  48
ATOM     48  C   UNL A   1      39.831  31.837  35.098  1.00  0.00     0.064 A 
ATOM     49  C   UNL A   1      40.459  33.061  35.353  1.00  0.00     0.173 A 
ATOM     50  C   UNL A   1      38.737  31.495  35.915  1.00  0.00     0.173 A 
ATOM     51  F   UNL A   1      41.488  33.460  34.593  1.00  0.00    -0.203 F 
ATOM     52  C   UNL A   1      40.066  33.863  36.429  1.00  0.00     0.198 A 
ATOM     53  C   UNL A   1      38.338  32.300  36.981  1.00  0.00     0.198 A 
ATOM     54  F   UNL A   1      38.080  30.342  35.713  1.00  0.00    -0.203 F 
ATOM     55  F   UNL A   1      40.734  34.994  36.696  1.00  0.00    -0.200 F 
ATOM     56  C   UNL A   1      39.020  33.474  37.252  1.00  0.00     0.200 A 
ATOM     57  F   UNL A   1      37.325  31.913  37.768  1.00  0.00    -0.200 F 
ATOM     58  F   UNL A   1      38.684  34.214  38.318  1.00  0.00    -0.200 F 
ENDBRANCH  24  48
BRANCH  36  59
ATOM     59  C   UNL A   1      44.680  26.798  34.679  1.00  0.00     0.064 A 
ATOM     60  C   UNL A   1      44.297  25.635  35.365  1.00  0.00     0.173 A 
ATOM     61  C   UNL A   1      45.942  27.344  34.940  1.00  0.00     0.173 A 
ATOM     62  F   UNL A   1      43.084  25.096  35.159  1.00  0.00    -0.203 F 
ATOM     63  C   UNL A   1      45.136  25.060  36.308  1.00  0.00     0.198 A 
ATOM     64  C   UNL A   1      46.798  26.736  35.850  1.00  0.00     0.198 A 
ATOM     65  F   UNL A   1      46.344  28.456  34.308  1.00  0.00    -0.203 F 
ATOM     66  F   UNL A   1      44.722  23.992  37.004  1.00  0.00    -0.200 F 
ATOM     67  C   UNL A   1      46.390  25.603  36.539  1.00  0.00     0.200 A 
ATOM     68  F   UNL A   1      48.018  27.249  36.060  1.00  0.00    -0.200 F 
ATOM     69  F   UNL A   1      47.206  25.037  37.438  1.00  0.00    -0.200 F 
ENDBRANCH  36  59
ENDBRANCH  10  11
ENDBRANCH   3   5
ENDBRANCH   2   3
ENDBRANCH   1   2
BRANCH   1  70
ATOM     70  C   UNL A   1      31.391  28.498  25.007  1.00  0.00     0.274 C 
BRANCH  70  71
ATOM     71  O   UNL A   1      32.222  27.759  25.906  1.00  0.00    -0.462 OA
BRANCH  71  72
ATOM     72  C   UNL A   1      32.884  26.700  25.390  1.00  0.00     0.310 C 
ATOM     73  O   UNL A   1      34.056  26.428  25.598  1.00  0.00    -0.252 OA
BRANCH  72  74
ATOM     74  C   UNL A   1      31.930  25.841  24.583  1.00  0.00     0.119 C 
ATOM     75  C   UNL A   1      31.397  24.325  25.495  1.00  0.00     0.100 C 
ATOM     76  C   UNL A   1      32.344  25.272  22.742  1.00  0.00     0.027 C 
ATOM     77  C   UNL A   1      31.078  23.267  24.210  1.00  0.00     0.025 C 
ATOM     78  C   UNL A   1      33.571  23.421  22.447  1.00  0.00    -0.027 C 
ATOM     79  C   UNL A   1      30.554  24.747  23.163  1.00  0.00     0.017 C 
ATOM     80  C   UNL A   1      32.669  22.254  23.379  1.00  0.00    -0.027 C 
BRANCH  75  81
ATOM     81  C   UNL A   1      32.214  23.452  26.694  1.00  0.00     0.229 C 
ATOM     82  O   UNL A   1      31.528  23.228  27.711  1.00  0.00    -0.274 OA
ATOM     83  N   UNL A   1      33.446  22.735  26.701  1.00  0.00    -0.323 N 
ATOM     84  H   UNL A   1      33.437  22.091  27.446  1.00  0.00     0.170 HD
BRANCH  83  85
ATOM     85  C   UNL A   1      34.722  22.623  25.985  1.00  0.00     0.078 A 
ATOM     86  C   UNL A   1      35.459  23.775  25.657  1.00  0.00     0.029 A 
ATOM     87  C   UNL A   1      35.306  21.429  25.538  1.00  0.00     0.165 A 
ATOM     88  C   UNL A   1      36.817  23.695  25.229  1.00  0.00     0.004 A 
ATOM     89  C   UNL A   1      36.668  21.327  25.166  1.00  0.00     0.078 A 
ATOM     90  F   UNL A   1      34.532  20.349  25.408  1.00  0.00    -0.203 F 
ATOM     91  C   UNL A   1      37.449  22.465  25.064  1.00  0.00     0.024 A 
ATOM     92  Cl  UNL A   1      37.419  19.790  24.912  1.00  0.00    -0.081 Cl
ENDBRANCH  83  85
ENDBRANCH  75  81
ENDBRANCH  72  74
ENDBRANCH  71  72
ENDBRANCH  70  71
ENDBRANCH   1  70
TORSDOF 13
ENDMDL
MODEL 3
REMARK VINA RESULT:     -14.6      7.947     16.347
REMARK SMILES O=C(OCCOC(=O)[C@@H]1[C@H](C(=O)Nc2cccc(Cl)c2F)[C@@H]2C=C[C@H]1C2)c1ccc(-c2c3nc(c(-c4c(F)c(F)c(F)c(F)c4F)c4ccc([nH]4)c(-c4c(F)c(F)c(F)c(F)c4F)c4nc(c(-c5c(F)c(F)c(F)c(F)c5F)c5ccc2[nH]5)C=C4)C=C3)cc1
REMARK SMILES IDX 4 1 3 2 2 3 1 4 27 5 28 6 89 7 29 8 88 9 30 10 31 11 32 12
REMARK SMILES IDX 82 13 33 14 87 15 81 16 83 17 34 18 86 19 80 20 79 21 35 23
REMARK SMILES IDX 67 24 47 25 66 26 48 27 51 28 65 29 84 30 49 31 50 32 64 34
REMARK SMILES IDX 85 35 52 36 36 37 37 38 45 39 38 40 39 41 43 42 46 43 40 44
REMARK SMILES IDX 41 45 44 46 42 47 68 48 69 49 77 50 70 51 71 52 75 53 78 54
REMARK SMILES IDX 72 55 73 56 76 57 74 58 53 59 54 60 62 61 55 62 56 63 60 64
REMARK SMILES IDX 63 65 57 66 58 67 61 68 59 69 5 70 6 71 7 72 8 73 9 74 10 75
REMARK SMILES IDX 25 76 22 77 24 78 26 79 23 80 11 81 12 82 13 83 14 85 15 86
REMARK SMILES IDX 20 87 16 88 18 89 21 90 17 91 19 92
REMARK H PARENT 83 22 51 33 13 84
REMARK Flexibility Score: inf
ROOT
ATOM      1  C   UNL A   1      31.457  30.718  26.519  1.00  0.00     0.275 C 
ENDROOT
BRANCH   1   2
ATOM      2  O   UNL A   1      32.245  31.995  26.612  1.00  0.00    -0.458 OA
BRANCH   2   3
ATOM      3  C   UNL A   1      32.903  32.689  27.636  1.00  0.00     0.338 C 
ATOM      4  O   UNL A   1      32.814  33.910  27.716  1.00  0.00    -0.246 OA
BRANCH   3   5
ATOM      5  C   UNL A   1      34.007  32.018  28.433  1.00  0.00     0.060 A 
ATOM      6  C   UNL A   1      34.543  30.902  27.625  1.00  0.00     0.016 A 
ATOM      7  C   UNL A   1      34.866  32.640  29.784  1.00  0.00     0.016 A 
ATOM      8  C   UNL A   1      36.125  30.349  27.800  1.00  0.00     0.010 A 
ATOM      9  C   UNL A   1      36.473  32.198  30.308  1.00  0.00     0.010 A 
ATOM     10  C   UNL A   1      37.315  30.990  29.366  1.00  0.00    -0.014 A 
BRANCH  10  11
ATOM     11  C   UNL A   1      38.639  30.072  30.237  1.00  0.00     0.031 A 
ATOM     12  C   UNL A   1      39.599  29.120  29.417  1.00  0.00     0.074 A 
ATOM     13  C   UNL A   1      39.621  30.492  31.151  1.00  0.00     0.049 A 
ATOM     14  N   UNL A   1      40.680  28.520  29.894  1.00  0.00    -0.248 NA
ATOM     15  C   UNL A   1      39.495  28.968  27.959  1.00  0.00     0.031 C 
ATOM     16  C   UNL A   1      40.291  31.807  31.416  1.00  0.00     0.029 A 
ATOM     17  N   UNL A   1      39.804  29.886  32.388  1.00  0.00    -0.354 N 
ATOM     18  C   UNL A   1      41.376  27.988  28.826  1.00  0.00     0.074 A 
ATOM     19  C   UNL A   1      40.629  28.343  27.644  1.00  0.00     0.031 C 
ATOM     20  C   UNL A   1      40.298  32.060  32.740  1.00  0.00     0.029 A 
ATOM     21  C   UNL A   1      40.046  30.802  33.402  1.00  0.00     0.049 A 
ATOM     22  H   UNL A   1      39.766  28.913  32.530  1.00  0.00     0.167 HD
ATOM     23  C   UNL A   1      42.514  27.252  28.870  1.00  0.00     0.037 A 
ATOM     24  C   UNL A   1      40.461  30.641  34.666  1.00  0.00     0.037 A 
ATOM     25  C   UNL A   1      43.216  26.933  30.098  1.00  0.00     0.049 A 
ATOM     26  C   UNL A   1      41.442  29.541  34.796  1.00  0.00     0.074 A 
ATOM     27  C   UNL A   1      44.242  26.022  30.288  1.00  0.00     0.029 A 
ATOM     28  N   UNL A   1      42.950  27.494  31.346  1.00  0.00    -0.354 N 
ATOM     29  N   UNL A   1      41.964  28.864  33.805  1.00  0.00    -0.248 NA
ATOM     30  C   UNL A   1      41.986  29.235  36.115  1.00  0.00     0.031 C 
ATOM     31  C   UNL A   1      44.496  25.930  31.660  1.00  0.00     0.029 A 
ATOM     32  C   UNL A   1      43.712  26.860  32.323  1.00  0.00     0.049 A 
ATOM     33  H   UNL A   1      42.318  28.230  31.512  1.00  0.00     0.167 HD
ATOM     34  C   UNL A   1      42.913  28.051  34.366  1.00  0.00     0.074 A 
ATOM     35  C   UNL A   1      42.928  28.358  35.787  1.00  0.00     0.031 C 
ATOM     36  C   UNL A   1      43.681  27.131  33.742  1.00  0.00     0.037 A 
BRANCH  23  37
ATOM     37  C   UNL A   1      42.929  26.528  27.617  1.00  0.00     0.064 A 
ATOM     38  C   UNL A   1      43.901  26.983  26.717  1.00  0.00     0.173 A 
ATOM     39  C   UNL A   1      42.339  25.276  27.360  1.00  0.00     0.173 A 
ATOM     40  F   UNL A   1      44.490  28.175  26.897  1.00  0.00    -0.203 F 
ATOM     41  C   UNL A   1      44.263  26.211  25.607  1.00  0.00     0.198 A 
ATOM     42  C   UNL A   1      42.720  24.501  26.270  1.00  0.00     0.198 A 
ATOM     43  F   UNL A   1      41.403  24.793  28.190  1.00  0.00    -0.203 F 
ATOM     44  F   UNL A   1      45.178  26.671  24.739  1.00  0.00    -0.200 F 
ATOM     45  C   UNL A   1      43.680  24.970  25.390  1.00  0.00     0.200 A 
ATOM     46  F   UNL A   1      42.158  23.300  26.077  1.00  0.00    -0.200 F 
ATOM     47  F   UNL A   1      44.036  24.228  24.332  1.00  0.00    -0.200 F 
ENDBRANCH  23  37
BRANCH  24  48
ATOM     48  C   UNL A   1      40.023  31.548  35.753  1.00  0.00     0.064 A 
ATOM     49  C   UNL A   1      38.755  31.523  36.345  1.00  0.00     0.173 A 
ATOM     50  C   UNL A   1      40.881  32.602  36.120  1.00  0.00     0.173 A 
ATOM     51  F   UNL A   1      37.900  30.530  36.062  1.00  0.00    -0.203 F 
ATOM     52  C   UNL A   1      38.335  32.551  37.195  1.00  0.00     0.198 A 
ATOM     53  C   UNL A   1      40.466  33.621  36.976  1.00  0.00     0.198 A 
ATOM     54  F   UNL A   1      42.116  32.677  35.601  1.00  0.00    -0.203 F 
ATOM     55  F   UNL A   1      37.088  32.540  37.688  1.00  0.00    -0.200 F 
ATOM     56  C   UNL A   1      39.182  33.607  37.494  1.00  0.00     0.200 A 
ATOM     57  F   UNL A   1      41.294  34.636  37.258  1.00  0.00    -0.200 F 
ATOM     58  F   UNL A   1      38.757  34.621  38.261  1.00  0.00    -0.200 F 
ENDBRANCH  24  48
BRANCH  36  59
ATOM     59  C   UNL A   1      44.551  26.320  34.640  1.00  0.00     0.064 A 
ATOM     60  C   UNL A   1      44.152  25.038  35.049  1.00  0.00     0.173 A 
ATOM     61  C   UNL A   1      45.786  26.809  35.080  1.00  0.00     0.173 A 
ATOM     62  F   UNL A   1      42.964  24.544  34.665  1.00  0.00    -0.203 F 
ATOM     63  C   UNL A   1      44.947  24.287  35.901  1.00  0.00     0.198 A 
ATOM     64  C   UNL A   1      46.601  26.033  35.895  1.00  0.00     0.198 A 
ATOM     65  F   UNL A   1      46.202  28.030  34.714  1.00  0.00    -0.203 F 
ATOM     66  F   UNL A   1      44.515  23.096  36.338  1.00  0.00    -0.200 F 
ATOM     67  C   UNL A   1      46.176  24.780  36.312  1.00  0.00     0.200 A 
ATOM     68  F   UNL A   1      47.797  26.500  36.277  1.00  0.00    -0.200 F 
ATOM     69  F   UNL A   1      46.951  24.047  37.123  1.00  0.00    -0.200 F 
ENDBRANCH  36  59
ENDBRANCH  10  11
ENDBRANCH   3   5
ENDBRANCH   2   3
ENDBRANCH   1   2
BRANCH   1  70
ATOM     70  C   UNL A   1      31.808  29.639  25.413  1.00  0.00     0.274 C 
BRANCH  70  71
ATOM     71  O   UNL A   1      32.663  28.559  25.792  1.00  0.00    -0.462 OA
BRANCH  71  72
ATOM     72  C   UNL A   1      32.072  27.363  26.009  1.00  0.00     0.310 C 
ATOM     73  O   UNL A   1      30.912  27.198  26.351  1.00  0.00    -0.252 OA
BRANCH  72  74
ATOM     74  C   UNL A   1      33.039  26.244  25.677  1.00  0.00     0.119 C 
ATOM     75  C   UNL A   1      33.885  26.499  24.053  1.00  0.00     0.100 C 
ATOM     76  C   UNL A   1      32.503  24.349  25.739  1.00  0.00     0.027 C 
ATOM     77  C   UNL A   1      34.202  24.898  23.597  1.00  0.00     0.025 C 
ATOM     78  C   UNL A   1      31.527  23.456  23.931  1.00  0.00    -0.027 C 
ATOM     79  C   UNL A   1      34.386  24.447  25.420  1.00  0.00     0.017 C 
ATOM     80  C   UNL A   1      32.687  23.838  22.686  1.00  0.00    -0.027 C 
BRANCH  75  81
ATOM     81  C   UNL A   1      33.345  27.331  22.681  1.00  0.00     0.229 C 
ATOM     82  O   UNL A   1      34.252  27.624  21.878  1.00  0.00    -0.274 OA
ATOM     83  N   UNL A   1      32.046  27.578  22.147  1.00  0.00    -0.323 N 
ATOM     84  H   UNL A   1      32.130  27.795  21.190  1.00  0.00     0.170 HD
BRANCH  83  85
ATOM     85  C   UNL A   1      30.629  27.622  22.527  1.00  0.00     0.078 A 
ATOM     86  C   UNL A   1      30.000  26.485  23.066  1.00  0.00     0.029 A 
ATOM     87  C   UNL A   1      29.776  28.724  22.374  1.00  0.00     0.165 A 
ATOM     88  C   UNL A   1      28.729  26.570  23.707  1.00  0.00     0.004 A 
ATOM     89  C   UNL A   1      28.538  28.843  23.051  1.00  0.00     0.078 A 
ATOM     90  F   UNL A   1      30.121  29.684  21.513  1.00  0.00    -0.203 F 
ATOM     91  C   UNL A   1      28.034  27.775  23.772  1.00  0.00     0.024 A 
ATOM     92  Cl  UNL A   1      27.664  30.335  23.073  1.00  0.00    -0.081 Cl
ENDBRANCH  83  85
ENDBRANCH  75  81
ENDBRANCH  72  74
ENDBRANCH  71  72
ENDBRANCH  70  71
ENDBRANCH   1  70
TORSDOF 13
ENDMDL
