MODEL 1
REMARK VINA RESULT:     -12.6      0.000      0.000
REMARK SMILES CC[C@]1(C(=O)OCCOC(=O)c2ccc(-c3c4nc(c(-c5c(F)c(F)c(F)c(F)c5F)c5ccc([nH]5)c(-c5c(F)c(F)c(F)c(F)c5F)c5nc(c(-c6c(F)c(F)c(F)c(F)c6F)c6ccc3[nH]6)C=C5)C=C4)cc2)CCC[N@@H+]([C@@H]2CCC[C@H](S(C)(=O)=O)C2)C1
REMARK SMILES IDX 7 1 6 2 4 3 5 4 3 5 75 6 89 7 76 8 78 9 77 10 2 12 1 13
REMARK SMILES IDX 79 14 80 15 88 16 81 17 83 18 82 19 84 20 85 21 86 22 87 23
REMARK SMILES IDX 8 24 9 25 10 26 11 27 12 28 13 29 74 30 14 31 73 32 15 33
REMARK SMILES IDX 16 34 17 35 67 36 18 37 72 38 66 39 68 40 19 41 71 42 65 43
REMARK SMILES IDX 64 44 20 46 52 47 32 48 51 49 33 50 36 51 50 52 69 53 34 54
REMARK SMILES IDX 35 55 49 57 70 58 37 59 21 60 22 61 30 62 23 63 24 64 28 65
REMARK SMILES IDX 31 66 25 67 26 68 29 69 27 70 53 71 54 72 62 73 55 74 56 75
REMARK SMILES IDX 60 76 63 77 57 78 58 79 61 80 59 81 38 82 39 83 47 84 40 85
REMARK SMILES IDX 41 86 45 87 48 88 42 89 43 90 46 91 44 92
REMARK H PARENT 78 11 68 45 36 56
REMARK Flexibility Score: inf
ROOT
ATOM      1  C   UNL A   1      31.142  28.962  25.013  1.00  0.00     0.274 C 
ENDROOT
BRANCH   1   2
ATOM      2  O   UNL A   1      32.146  27.927  25.004  1.00  0.00    -0.461 OA
BRANCH   2   3
ATOM      3  C   UNL A   1      31.774  26.698  25.448  1.00  0.00     0.317 C 
ATOM      4  O   UNL A   1      31.485  26.455  26.616  1.00  0.00    -0.251 OA
BRANCH   3   5
ATOM      5  C   UNL A   1      31.815  25.615  24.350  1.00  0.00     0.117 C 
ATOM      6  C   UNL A   1      32.444  26.149  23.038  1.00  0.00     0.030 C 
ATOM      7  C   UNL A   1      32.724  24.526  24.947  1.00  0.00     0.281 C 
ATOM      8  C   UNL A   1      32.910  25.045  22.097  1.00  0.00     0.063 C 
ATOM      9  N   UNL A   1      33.042  23.461  23.985  1.00  0.00    -0.332 N 
ATOM     10  C   UNL A   1      33.756  23.996  22.822  1.00  0.00     0.262 C 
ATOM     11  H   UNL A   1      32.176  23.087  23.596  1.00  0.00     0.348 HD
BRANCH   5  12
ATOM     12  C   UNL A   1      30.345  25.130  24.115  1.00  0.00     0.021 C 
ATOM     13  C   UNL A   1      29.232  26.148  23.897  1.00  0.00     0.005 C 
ENDBRANCH   5  12
BRANCH   9  14
ATOM     14  C   UNL A   1      33.646  22.287  24.640  1.00  0.00     0.185 C 
ATOM     15  C   UNL A   1      35.179  22.216  24.552  1.00  0.00     0.065 C 
ATOM     16  C   UNL A   1      32.997  20.984  24.145  1.00  0.00     0.084 C 
ATOM     17  C   UNL A   1      35.712  20.996  25.298  1.00  0.00     0.007 C 
ATOM     18  C   UNL A   1      33.558  19.745  24.855  1.00  0.00     0.114 C 
ATOM     19  C   UNL A   1      35.086  19.706  24.779  1.00  0.00     0.020 C 
BRANCH  18  20
ATOM     20  S   UNL A   1      32.810  18.269  24.132  1.00  0.00     0.150 S 
ATOM     21  C   UNL A   1      34.158  17.136  23.907  1.00  0.00     0.158 C 
ATOM     22  O   UNL A   1      31.934  17.688  25.132  1.00  0.00    -0.229 OA
ATOM     23  O   UNL A   1      32.305  18.607  22.814  1.00  0.00    -0.229 OA
ENDBRANCH  18  20
ENDBRANCH   9  14
ENDBRANCH   3   5
ENDBRANCH   2   3
ENDBRANCH   1   2
BRANCH   1  24
ATOM     24  C   UNL A   1      31.774  30.299  25.384  1.00  0.00     0.275 C 
BRANCH  24  25
ATOM     25  O   UNL A   1      32.815  30.077  26.350  1.00  0.00    -0.458 OA
BRANCH  25  26
ATOM     26  C   UNL A   1      33.201  31.158  27.059  1.00  0.00     0.338 C 
ATOM     27  O   UNL A   1      32.571  32.189  27.257  1.00  0.00    -0.246 OA
BRANCH  26  28
ATOM     28  C   UNL A   1      34.544  30.928  27.609  1.00  0.00     0.060 A 
ATOM     29  C   UNL A   1      34.934  29.640  27.972  1.00  0.00     0.016 A 
ATOM     30  C   UNL A   1      35.375  32.011  27.874  1.00  0.00     0.016 A 
ATOM     31  C   UNL A   1      36.108  29.439  28.695  1.00  0.00     0.010 A 
ATOM     32  C   UNL A   1      36.607  31.793  28.495  1.00  0.00     0.010 A 
ATOM     33  C   UNL A   1      36.974  30.509  28.944  1.00  0.00    -0.014 A 
BRANCH  33  34
ATOM     34  C   UNL A   1      38.251  30.331  29.689  1.00  0.00     0.031 A 
ATOM     35  C   UNL A   1      39.329  29.459  29.107  1.00  0.00     0.074 A 
ATOM     36  C   UNL A   1      38.439  30.891  30.900  1.00  0.00     0.049 A 
ATOM     37  N   UNL A   1      40.327  28.860  29.703  1.00  0.00    -0.248 NA
ATOM     38  C   UNL A   1      39.256  29.210  27.658  1.00  0.00     0.031 C 
ATOM     39  C   UNL A   1      37.529  31.826  31.562  1.00  0.00     0.029 A 
ATOM     40  N   UNL A   1      39.462  30.731  31.805  1.00  0.00    -0.354 N 
ATOM     41  C   UNL A   1      40.948  28.096  28.722  1.00  0.00     0.074 A 
ATOM     42  C   UNL A   1      40.230  28.328  27.487  1.00  0.00     0.031 C 
ATOM     43  C   UNL A   1      38.036  32.166  32.756  1.00  0.00     0.029 A 
ATOM     44  C   UNL A   1      39.247  31.389  32.992  1.00  0.00     0.049 A 
ATOM     45  H   UNL A   1      40.269  30.197  31.621  1.00  0.00     0.167 HD
ATOM     46  C   UNL A   1      42.007  27.263  28.856  1.00  0.00     0.037 A 
ATOM     47  C   UNL A   1      39.907  31.322  34.164  1.00  0.00     0.037 A 
ATOM     48  C   UNL A   1      42.753  27.098  30.076  1.00  0.00     0.049 A 
ATOM     49  C   UNL A   1      41.069  30.379  34.301  1.00  0.00     0.074 A 
ATOM     50  C   UNL A   1      43.838  26.275  30.324  1.00  0.00     0.029 A 
ATOM     51  N   UNL A   1      42.504  27.796  31.248  1.00  0.00    -0.354 N 
ATOM     52  N   UNL A   1      41.582  29.569  33.408  1.00  0.00    -0.248 NA
ATOM     53  C   UNL A   1      41.722  30.319  35.614  1.00  0.00     0.031 C 
ATOM     54  C   UNL A   1      44.234  26.463  31.653  1.00  0.00     0.029 A 
ATOM     55  C   UNL A   1      43.417  27.428  32.221  1.00  0.00     0.049 A 
ATOM     56  H   UNL A   1      41.784  28.457  31.370  1.00  0.00     0.167 HD
ATOM     57  C   UNL A   1      42.628  28.916  34.044  1.00  0.00     0.074 A 
ATOM     58  C   UNL A   1      42.682  29.430  35.397  1.00  0.00     0.031 C 
ATOM     59  C   UNL A   1      43.466  27.972  33.552  1.00  0.00     0.037 A 
BRANCH  46  60
ATOM     60  C   UNL A   1      42.392  26.428  27.671  1.00  0.00     0.064 A 
ATOM     61  C   UNL A   1      43.414  26.809  26.791  1.00  0.00     0.173 A 
ATOM     62  C   UNL A   1      41.746  25.204  27.438  1.00  0.00     0.173 A 
ATOM     63  F   UNL A   1      44.050  27.977  26.961  1.00  0.00    -0.203 F 
ATOM     64  C   UNL A   1      43.761  26.004  25.708  1.00  0.00     0.198 A 
ATOM     65  C   UNL A   1      42.113  24.390  26.371  1.00  0.00     0.198 A 
ATOM     66  F   UNL A   1      40.764  24.792  28.255  1.00  0.00    -0.203 F 
ATOM     67  F   UNL A   1      44.714  26.405  24.855  1.00  0.00    -0.200 F 
ATOM     68  C   UNL A   1      43.115  24.793  25.503  1.00  0.00     0.200 A 
ATOM     69  F   UNL A   1      41.495  23.216  26.182  1.00  0.00    -0.200 F 
ATOM     70  F   UNL A   1      43.456  24.017  24.465  1.00  0.00    -0.200 F 
ENDBRANCH  46  60
BRANCH  47  71
ATOM     71  C   UNL A   1      39.436  32.129  35.319  1.00  0.00     0.064 A 
ATOM     72  C   UNL A   1      38.574  31.578  36.276  1.00  0.00     0.173 A 
ATOM     73  C   UNL A   1      39.853  33.456  35.501  1.00  0.00     0.173 A 
ATOM     74  F   UNL A   1      38.126  30.323  36.130  1.00  0.00    -0.203 F 
ATOM     75  C   UNL A   1      38.145  32.326  37.371  1.00  0.00     0.198 A 
ATOM     76  C   UNL A   1      39.448  34.193  36.611  1.00  0.00     0.198 A 
ATOM     77  F   UNL A   1      40.678  34.029  34.612  1.00  0.00    -0.203 F 
ATOM     78  F   UNL A   1      37.295  31.788  38.256  1.00  0.00    -0.200 F 
ATOM     79  C   UNL A   1      38.590  33.629  37.543  1.00  0.00     0.200 A 
ATOM     80  F   UNL A   1      39.892  35.446  36.780  1.00  0.00    -0.200 F 
ATOM     81  F   UNL A   1      38.189  34.342  38.604  1.00  0.00    -0.200 F 
ENDBRANCH  47  71
BRANCH  59  82
ATOM     82  C   UNL A   1      44.546  27.473  34.462  1.00  0.00     0.064 A 
ATOM     83  C   UNL A   1      45.791  28.111  34.541  1.00  0.00     0.173 A 
ATOM     84  C   UNL A   1      44.309  26.377  35.304  1.00  0.00     0.173 A 
ATOM     85  F   UNL A   1      46.068  29.154  33.744  1.00  0.00    -0.203 F 
ATOM     86  C   UNL A   1      46.767  27.660  35.425  1.00  0.00     0.198 A 
ATOM     87  C   UNL A   1      45.279  25.941  36.199  1.00  0.00     0.198 A 
ATOM     88  F   UNL A   1      43.130  25.738  35.264  1.00  0.00    -0.203 F 
ATOM     89  F   UNL A   1      47.963  28.265  35.467  1.00  0.00    -0.200 F 
ATOM     90  C   UNL A   1      46.508  26.581  36.258  1.00  0.00     0.200 A 
ATOM     91  F   UNL A   1      45.025  24.904  37.009  1.00  0.00    -0.200 F 
ATOM     92  F   UNL A   1      47.446  26.154  37.115  1.00  0.00    -0.200 F 
ENDBRANCH  59  82
ENDBRANCH  33  34
ENDBRANCH  26  28
ENDBRANCH  25  26
ENDBRANCH  24  25
ENDBRANCH   1  24
TORSDOF 14
ENDMDL
MODEL 2
REMARK VINA RESULT:     -12.5      0.491      1.672
REMARK SMILES CC[C@]1(C(=O)OCCOC(=O)c2ccc(-c3c4nc(c(-c5c(F)c(F)c(F)c(F)c5F)c5ccc([nH]5)c(-c5c(F)c(F)c(F)c(F)c5F)c5nc(c(-c6c(F)c(F)c(F)c(F)c6F)c6ccc3[nH]6)C=C5)C=C4)cc2)CCC[N@@H+]([C@@H]2CCC[C@H](S(C)(=O)=O)C2)C1
REMARK SMILES IDX 7 1 6 2 4 3 5 4 3 5 75 6 89 7 76 8 78 9 77 10 2 12 1 13
REMARK SMILES IDX 79 14 80 15 88 16 81 17 83 18 82 19 84 20 85 21 86 22 87 23
REMARK SMILES IDX 8 24 9 25 10 26 11 27 12 28 13 29 74 30 14 31 73 32 15 33
REMARK SMILES IDX 16 34 17 35 67 36 18 37 72 38 66 39 68 40 19 41 71 42 65 43
REMARK SMILES IDX 64 44 20 46 52 47 32 48 51 49 33 50 36 51 50 52 69 53 34 54
REMARK SMILES IDX 35 55 49 57 70 58 37 59 21 60 22 61 30 62 23 63 24 64 28 65
REMARK SMILES IDX 31 66 25 67 26 68 29 69 27 70 53 71 54 72 62 73 55 74 56 75
REMARK SMILES IDX 60 76 63 77 57 78 58 79 61 80 59 81 38 82 39 83 47 84 40 85
REMARK SMILES IDX 41 86 45 87 48 88 42 89 43 90 46 91 44 92
REMARK H PARENT 78 11 68 45 36 56
REMARK Flexibility Score: inf
ROOT
ATOM      1  C   UNL A   1      31.781  28.522  27.162  1.00  0.00     0.274 C 
ENDROOT
BRANCH   1   2
ATOM      2  O   UNL A   1      31.566  27.445  26.227  1.00  0.00    -0.461 OA
BRANCH   2   3
ATOM      3  C   UNL A   1      32.664  26.768  25.798  1.00  0.00     0.317 C 
ATOM      4  O   UNL A   1      33.808  27.032  26.154  1.00  0.00    -0.251 OA
BRANCH   3   5
ATOM      5  C   UNL A   1      32.337  25.670  24.764  1.00  0.00     0.117 C 
ATOM      6  C   UNL A   1      32.715  26.104  23.325  1.00  0.00     0.030 C 
ATOM      7  C   UNL A   1      33.228  24.490  25.193  1.00  0.00     0.281 C 
ATOM      8  C   UNL A   1      32.833  24.938  22.352  1.00  0.00     0.063 C 
ATOM      9  N   UNL A   1      33.203  23.380  24.230  1.00  0.00    -0.332 N 
ATOM     10  C   UNL A   1      33.696  23.808  22.918  1.00  0.00     0.262 C 
ATOM     11  H   UNL A   1      32.235  23.105  24.056  1.00  0.00     0.348 HD
BRANCH   5  12
ATOM     12  C   UNL A   1      30.807  25.360  24.877  1.00  0.00     0.021 C 
ATOM     13  C   UNL A   1      29.823  26.018  23.918  1.00  0.00     0.005 C 
ENDBRANCH   5  12
BRANCH   9  14
ATOM     14  C   UNL A   1      33.800  22.153  24.786  1.00  0.00     0.185 C 
ATOM     15  C   UNL A   1      35.325  22.046  24.621  1.00  0.00     0.065 C 
ATOM     16  C   UNL A   1      33.092  20.900  24.247  1.00  0.00     0.084 C 
ATOM     17  C   UNL A   1      35.855  20.770  25.269  1.00  0.00     0.007 C 
ATOM     18  C   UNL A   1      33.648  19.606  24.855  1.00  0.00     0.114 C 
ATOM     19  C   UNL A   1      35.169  19.531  24.705  1.00  0.00     0.020 C 
BRANCH  18  20
ATOM     20  S   UNL A   1      32.824  18.197  24.083  1.00  0.00     0.150 S 
ATOM     21  C   UNL A   1      34.131  17.063  23.687  1.00  0.00     0.158 C 
ATOM     22  O   UNL A   1      32.006  17.559  25.098  1.00  0.00    -0.229 OA
ATOM     23  O   UNL A   1      32.239  18.635  22.830  1.00  0.00    -0.229 OA
ENDBRANCH  18  20
ENDBRANCH   9  14
ENDBRANCH   3   5
ENDBRANCH   2   3
ENDBRANCH   1   2
BRANCH   1  24
ATOM     24  C   UNL A   1      31.780  29.858  26.427  1.00  0.00     0.275 C 
BRANCH  24  25
ATOM     25  O   UNL A   1      33.132  30.329  26.303  1.00  0.00    -0.458 OA
BRANCH  25  26
ATOM     26  C   UNL A   1      33.480  31.342  27.124  1.00  0.00     0.338 C 
ATOM     27  O   UNL A   1      32.833  32.345  27.395  1.00  0.00    -0.246 OA
BRANCH  26  28
ATOM     28  C   UNL A   1      34.807  31.073  27.696  1.00  0.00     0.060 A 
ATOM     29  C   UNL A   1      35.152  29.774  28.068  1.00  0.00     0.016 A 
ATOM     30  C   UNL A   1      35.666  32.131  27.973  1.00  0.00     0.016 A 
ATOM     31  C   UNL A   1      36.307  29.540  28.811  1.00  0.00     0.010 A 
ATOM     32  C   UNL A   1      36.880  31.877  28.616  1.00  0.00     0.010 A 
ATOM     33  C   UNL A   1      37.201  30.584  29.073  1.00  0.00    -0.014 A 
BRANCH  33  34
ATOM     34  C   UNL A   1      38.459  30.369  29.840  1.00  0.00     0.031 A 
ATOM     35  C   UNL A   1      39.531  29.484  29.265  1.00  0.00     0.074 A 
ATOM     36  C   UNL A   1      38.634  30.907  31.063  1.00  0.00     0.049 A 
ATOM     37  N   UNL A   1      40.505  28.857  29.871  1.00  0.00    -0.248 NA
ATOM     38  C   UNL A   1      39.481  29.259  27.812  1.00  0.00     0.031 C 
ATOM     39  C   UNL A   1      37.730  31.851  31.721  1.00  0.00     0.029 A 
ATOM     40  N   UNL A   1      39.636  30.713  31.985  1.00  0.00    -0.354 N 
ATOM     41  C   UNL A   1      41.129  28.096  28.891  1.00  0.00     0.074 A 
ATOM     42  C   UNL A   1      40.441  28.360  27.645  1.00  0.00     0.031 C 
ATOM     43  C   UNL A   1      38.220  32.162  32.930  1.00  0.00     0.029 A 
ATOM     44  C   UNL A   1      39.411  31.357  33.177  1.00  0.00     0.049 A 
ATOM     45  H   UNL A   1      40.435  30.166  31.808  1.00  0.00     0.167 HD
ATOM     46  C   UNL A   1      42.169  27.239  29.032  1.00  0.00     0.037 A 
ATOM     47  C   UNL A   1      40.046  31.259  34.361  1.00  0.00     0.037 A 
ATOM     48  C   UNL A   1      42.888  27.042  30.264  1.00  0.00     0.049 A 
ATOM     49  C   UNL A   1      41.186  30.292  34.505  1.00  0.00     0.074 A 
ATOM     50  C   UNL A   1      43.951  26.194  30.520  1.00  0.00     0.029 A 
ATOM     51  N   UNL A   1      42.629  27.727  31.442  1.00  0.00    -0.354 N 
ATOM     52  N   UNL A   1      41.701  29.485  33.610  1.00  0.00    -0.248 NA
ATOM     53  C   UNL A   1      41.812  30.199  35.830  1.00  0.00     0.031 C 
ATOM     54  C   UNL A   1      44.324  26.353  31.859  1.00  0.00     0.029 A 
ATOM     55  C   UNL A   1      43.516  27.326  32.426  1.00  0.00     0.049 A 
ATOM     56  H   UNL A   1      41.920  28.400  31.560  1.00  0.00     0.167 HD
ATOM     57  C   UNL A   1      42.721  28.802  34.256  1.00  0.00     0.074 A 
ATOM     58  C   UNL A   1      42.758  29.294  35.618  1.00  0.00     0.031 C 
ATOM     59  C   UNL A   1      43.550  27.848  33.766  1.00  0.00     0.037 A 
BRANCH  46  60
ATOM     60  C   UNL A   1      42.561  26.416  27.842  1.00  0.00     0.064 A 
ATOM     61  C   UNL A   1      41.982  25.169  27.573  1.00  0.00     0.173 A 
ATOM     62  C   UNL A   1      43.512  26.908  26.935  1.00  0.00     0.173 A 
ATOM     63  F   UNL A   1      41.081  24.647  28.419  1.00  0.00    -0.203 F 
ATOM     64  C   UNL A   1      42.355  24.434  26.450  1.00  0.00     0.198 A 
ATOM     65  C   UNL A   1      43.864  26.185  25.799  1.00  0.00     0.198 A 
ATOM     66  F   UNL A   1      44.093  28.100  27.144  1.00  0.00    -0.203 F 
ATOM     67  F   UNL A   1      41.818  23.226  26.232  1.00  0.00    -0.200 F 
ATOM     68  C   UNL A   1      43.290  24.945  25.561  1.00  0.00     0.200 A 
ATOM     69  F   UNL A   1      44.759  26.686  24.937  1.00  0.00    -0.200 F 
ATOM     70  F   UNL A   1      43.643  24.241  24.477  1.00  0.00    -0.200 F 
ENDBRANCH  46  60
BRANCH  47  71
ATOM     71  C   UNL A   1      39.568  32.058  35.518  1.00  0.00     0.064 A 
ATOM     72  C   UNL A   1      38.626  31.535  36.413  1.00  0.00     0.173 A 
ATOM     73  C   UNL A   1      40.058  33.350  35.767  1.00  0.00     0.173 A 
ATOM     74  F   UNL A   1      38.108  30.316  36.202  1.00  0.00    -0.203 F 
ATOM     75  C   UNL A   1      38.190  32.274  37.511  1.00  0.00     0.198 A 
ATOM     76  C   UNL A   1      39.644  34.075  36.880  1.00  0.00     0.198 A 
ATOM     77  F   UNL A   1      40.961  33.896  34.939  1.00  0.00    -0.203 F 
ATOM     78  F   UNL A   1      37.264  31.763  38.334  1.00  0.00    -0.200 F 
ATOM     79  C   UNL A   1      38.706  33.538  37.750  1.00  0.00     0.200 A 
ATOM     80  F   UNL A   1      40.157  35.291  37.114  1.00  0.00    -0.200 F 
ATOM     81  F   UNL A   1      38.297  34.243  38.813  1.00  0.00    -0.200 F 
ENDBRANCH  47  71
BRANCH  59  82
ATOM     82  C   UNL A   1      44.602  27.315  34.689  1.00  0.00     0.064 A 
ATOM     83  C   UNL A   1      44.386  26.166  35.462  1.00  0.00     0.173 A 
ATOM     84  C   UNL A   1      45.859  27.932  34.756  1.00  0.00     0.173 A 
ATOM     85  F   UNL A   1      43.193  25.552  35.441  1.00  0.00    -0.203 F 
ATOM     86  C   UNL A   1      45.392  25.660  36.280  1.00  0.00     0.198 A 
ATOM     87  C   UNL A   1      46.867  27.413  35.560  1.00  0.00     0.198 A 
ATOM     88  F   UNL A   1      46.110  29.032  34.031  1.00  0.00    -0.203 F 
ATOM     89  F   UNL A   1      45.158  24.577  37.034  1.00  0.00    -0.200 F 
ATOM     90  C   UNL A   1      46.633  26.279  36.323  1.00  0.00     0.200 A 
ATOM     91  F   UNL A   1      48.069  28.006  35.594  1.00  0.00    -0.200 F 
ATOM     92  F   UNL A   1      47.602  25.784  37.105  1.00  0.00    -0.200 F 
ENDBRANCH  59  82
ENDBRANCH  33  34
ENDBRANCH  26  28
ENDBRANCH  25  26
ENDBRANCH  24  25
ENDBRANCH   1  24
TORSDOF 14
ENDMDL
MODEL 3
REMARK VINA RESULT:     -12.3      4.475      9.948
REMARK SMILES CC[C@]1(C(=O)OCCOC(=O)c2ccc(-c3c4nc(c(-c5c(F)c(F)c(F)c(F)c5F)c5ccc([nH]5)c(-c5c(F)c(F)c(F)c(F)c5F)c5nc(c(-c6c(F)c(F)c(F)c(F)c6F)c6ccc3[nH]6)C=C5)C=C4)cc2)CCC[N@@H+]([C@@H]2CCC[C@H](S(C)(=O)=O)C2)C1
REMARK SMILES IDX 7 1 6 2 4 3 5 4 3 5 75 6 89 7 76 8 78 9 77 10 2 12 1 13
REMARK SMILES IDX 79 14 80 15 88 16 81 17 83 18 82 19 84 20 85 21 86 22 87 23
REMARK SMILES IDX 8 24 9 25 10 26 11 27 12 28 13 29 74 30 14 31 73 32 15 33
REMARK SMILES IDX 16 34 17 35 67 36 18 37 72 38 66 39 68 40 19 41 71 42 65 43
REMARK SMILES IDX 64 44 20 46 52 47 32 48 51 49 33 50 36 51 50 52 69 53 34 54
REMARK SMILES IDX 35 55 49 57 70 58 37 59 21 60 22 61 30 62 23 63 24 64 28 65
REMARK SMILES IDX 31 66 25 67 26 68 29 69 27 70 53 71 54 72 62 73 55 74 56 75
REMARK SMILES IDX 60 76 63 77 57 78 58 79 61 80 59 81 38 82 39 83 47 84 40 85
REMARK SMILES IDX 41 86 45 87 48 88 42 89 43 90 46 91 44 92
REMARK H PARENT 78 11 68 45 36 56
REMARK Flexibility Score: inf
ROOT
ATOM      1  C   UNL A   1      35.124  21.113  24.833  1.00  0.00     0.274 C 
ENDROOT
BRANCH   1   2
ATOM      2  O   UNL A   1      34.564  22.390  25.202  1.00  0.00    -0.461 OA
BRANCH   2   3
ATOM      3  C   UNL A   1      34.076  23.166  24.198  1.00  0.00     0.317 C 
ATOM      4  O   UNL A   1      34.738  23.518  23.227  1.00  0.00    -0.251 OA
BRANCH   3   5
ATOM      5  C   UNL A   1      32.619  23.620  24.432  1.00  0.00     0.117 C 
ATOM      6  C   UNL A   1      32.098  23.188  25.826  1.00  0.00     0.030 C 
ATOM      7  C   UNL A   1      32.703  25.156  24.370  1.00  0.00     0.281 C 
ATOM      8  C   UNL A   1      30.870  23.965  26.280  1.00  0.00     0.063 C 
ATOM      9  N   UNL A   1      31.439  25.809  24.741  1.00  0.00    -0.332 N 
ATOM     10  C   UNL A   1      31.057  25.475  26.116  1.00  0.00     0.262 C 
ATOM     11  H   UNL A   1      30.682  25.428  24.172  1.00  0.00     0.348 HD
BRANCH   5  12
ATOM     12  C   UNL A   1      31.748  23.003  23.287  1.00  0.00     0.021 C 
ATOM     13  C   UNL A   1      32.073  21.618  22.743  1.00  0.00     0.005 C 
ENDBRANCH   5  12
BRANCH   9  14
ATOM     14  C   UNL A   1      31.432  27.239  24.388  1.00  0.00     0.185 C 
ATOM     15  C   UNL A   1      31.790  28.190  25.541  1.00  0.00     0.065 C 
ATOM     16  C   UNL A   1      30.103  27.638  23.727  1.00  0.00     0.084 C 
ATOM     17  C   UNL A   1      31.804  29.641  25.068  1.00  0.00     0.007 C 
ATOM     18  C   UNL A   1      30.087  29.109  23.288  1.00  0.00     0.114 C 
ATOM     19  C   UNL A   1      30.471  30.037  24.442  1.00  0.00     0.020 C 
BRANCH  18  20
ATOM     20  S   UNL A   1      28.454  29.501  22.623  1.00  0.00     0.150 S 
ATOM     21  C   UNL A   1      27.980  31.009  23.432  1.00  0.00     0.158 C 
ATOM     22  O   UNL A   1      28.619  29.812  21.215  1.00  0.00    -0.229 OA
ATOM     23  O   UNL A   1      27.524  28.472  23.048  1.00  0.00    -0.229 OA
ENDBRANCH  18  20
ENDBRANCH   9  14
ENDBRANCH   3   5
ENDBRANCH   2   3
ENDBRANCH   1   2
BRANCH   1  24
ATOM     24  C   UNL A   1      36.624  21.250  24.596  1.00  0.00     0.275 C 
BRANCH  24  25
ATOM     25  O   UNL A   1      37.239  21.806  25.770  1.00  0.00    -0.458 OA
BRANCH  25  26
ATOM     26  C   UNL A   1      38.550  21.534  25.933  1.00  0.00     0.338 C 
ATOM     27  O   UNL A   1      39.147  20.508  25.633  1.00  0.00    -0.246 OA
BRANCH  26  28
ATOM     28  C   UNL A   1      39.218  22.694  26.538  1.00  0.00     0.060 A 
ATOM     29  C   UNL A   1      38.833  23.984  26.176  1.00  0.00     0.016 A 
ATOM     30  C   UNL A   1      40.309  22.500  27.379  1.00  0.00     0.016 A 
ATOM     31  C   UNL A   1      39.598  25.081  26.567  1.00  0.00     0.010 A 
ATOM     32  C   UNL A   1      41.004  23.610  27.865  1.00  0.00     0.010 A 
ATOM     33  C   UNL A   1      40.679  24.913  27.439  1.00  0.00    -0.014 A 
BRANCH  33  34
ATOM     34  C   UNL A   1      41.504  26.062  27.901  1.00  0.00     0.031 A 
ATOM     35  C   UNL A   1      40.875  27.122  28.763  1.00  0.00     0.074 A 
ATOM     36  C   UNL A   1      42.789  26.201  27.518  1.00  0.00     0.049 A 
ATOM     37  N   UNL A   1      41.249  28.358  28.968  1.00  0.00    -0.248 NA
ATOM     38  C   UNL A   1      39.642  26.741  29.470  1.00  0.00     0.031 C 
ATOM     39  C   UNL A   1      43.566  25.223  26.757  1.00  0.00     0.029 A 
ATOM     40  N   UNL A   1      43.664  27.246  27.704  1.00  0.00    -0.354 N 
ATOM     41  C   UNL A   1      40.256  28.927  29.755  1.00  0.00     0.074 A 
ATOM     42  C   UNL A   1      39.275  27.894  30.012  1.00  0.00     0.031 C 
ATOM     43  C   UNL A   1      44.800  25.705  26.550  1.00  0.00     0.029 A 
ATOM     44  C   UNL A   1      44.868  27.067  27.066  1.00  0.00     0.049 A 
ATOM     45  H   UNL A   1      43.450  28.043  28.241  1.00  0.00     0.167 HD
ATOM     46  C   UNL A   1      40.167  30.203  30.198  1.00  0.00     0.037 A 
ATOM     47  C   UNL A   1      45.885  27.924  26.855  1.00  0.00     0.037 A 
ATOM     48  C   UNL A   1      41.186  31.200  29.993  1.00  0.00     0.049 A 
ATOM     49  C   UNL A   1      45.763  29.341  27.339  1.00  0.00     0.074 A 
ATOM     50  C   UNL A   1      41.195  32.524  30.393  1.00  0.00     0.029 A 
ATOM     51  N   UNL A   1      42.393  30.966  29.351  1.00  0.00    -0.354 N 
ATOM     52  N   UNL A   1      44.772  29.912  27.980  1.00  0.00    -0.248 NA
ATOM     53  C   UNL A   1      46.886  30.241  27.044  1.00  0.00     0.031 C 
ATOM     54  C   UNL A   1      42.402  33.098  29.976  1.00  0.00     0.029 A 
ATOM     55  C   UNL A   1      43.157  32.120  29.348  1.00  0.00     0.049 A 
ATOM     56  H   UNL A   1      42.666  30.107  28.956  1.00  0.00     0.167 HD
ATOM     57  C   UNL A   1      45.158  31.230  28.180  1.00  0.00     0.074 A 
ATOM     58  C   UNL A   1      46.477  31.374  27.599  1.00  0.00     0.031 C 
ATOM     59  C   UNL A   1      44.477  32.232  28.786  1.00  0.00     0.037 A 
BRANCH  46  60
ATOM     60  C   UNL A   1      38.909  30.611  30.906  1.00  0.00     0.064 A 
ATOM     61  C   UNL A   1      38.781  30.544  32.299  1.00  0.00     0.173 A 
ATOM     62  C   UNL A   1      37.825  31.114  30.170  1.00  0.00     0.173 A 
ATOM     63  F   UNL A   1      39.783  30.055  33.046  1.00  0.00    -0.203 F 
ATOM     64  C   UNL A   1      37.606  30.946  32.929  1.00  0.00     0.198 A 
ATOM     65  C   UNL A   1      36.662  31.539  30.804  1.00  0.00     0.198 A 
ATOM     66  F   UNL A   1      37.898  31.203  28.832  1.00  0.00    -0.203 F 
ATOM     67  F   UNL A   1      37.489  30.837  34.260  1.00  0.00    -0.200 F 
ATOM     68  C   UNL A   1      36.550  31.449  32.183  1.00  0.00     0.200 A 
ATOM     69  F   UNL A   1      35.648  32.035  30.081  1.00  0.00    -0.200 F 
ATOM     70  F   UNL A   1      35.423  31.842  32.791  1.00  0.00    -0.200 F 
ENDBRANCH  46  60
BRANCH  47  71
ATOM     71  C   UNL A   1      47.078  27.475  26.093  1.00  0.00     0.064 A 
ATOM     72  C   UNL A   1      47.130  27.603  24.699  1.00  0.00     0.173 A 
ATOM     73  C   UNL A   1      48.196  26.930  26.742  1.00  0.00     0.173 A 
ATOM     74  F   UNL A   1      46.075  28.093  24.033  1.00  0.00    -0.203 F 
ATOM     75  C   UNL A   1      48.255  27.201  23.982  1.00  0.00     0.198 A 
ATOM     76  C   UNL A   1      49.332  26.556  26.028  1.00  0.00     0.198 A 
ATOM     77  F   UNL A   1      48.196  26.785  28.075  1.00  0.00    -0.203 F 
ATOM     78  F   UNL A   1      48.268  27.304  22.647  1.00  0.00    -0.200 F 
ATOM     79  C   UNL A   1      49.359  26.687  24.647  1.00  0.00     0.200 A 
ATOM     80  F   UNL A   1      50.401  26.073  26.677  1.00  0.00    -0.200 F 
ATOM     81  F   UNL A   1      50.445  26.313  23.959  1.00  0.00    -0.200 F 
ENDBRANCH  47  71
BRANCH  59  82
ATOM     82  C   UNL A   1      45.167  33.556  28.903  1.00  0.00     0.064 A 
ATOM     83  C   UNL A   1      46.028  33.844  29.971  1.00  0.00     0.173 A 
ATOM     84  C   UNL A   1      45.006  34.525  27.902  1.00  0.00     0.173 A 
ATOM     85  F   UNL A   1      46.201  32.952  30.958  1.00  0.00    -0.203 F 
ATOM     86  C   UNL A   1      46.695  35.063  30.038  1.00  0.00     0.198 A 
ATOM     87  C   UNL A   1      45.688  35.735  27.963  1.00  0.00     0.198 A 
ATOM     88  F   UNL A   1      44.194  34.291  26.860  1.00  0.00    -0.203 F 
ATOM     89  F   UNL A   1      47.492  35.333  31.082  1.00  0.00    -0.200 F 
ATOM     90  C   UNL A   1      46.531  36.005  29.032  1.00  0.00     0.200 A 
ATOM     91  F   UNL A   1      45.535  36.640  26.987  1.00  0.00    -0.200 F 
ATOM     92  F   UNL A   1      47.181  37.174  29.095  1.00  0.00    -0.200 F 
ENDBRANCH  59  82
ENDBRANCH  33  34
ENDBRANCH  26  28
ENDBRANCH  25  26
ENDBRANCH  24  25
ENDBRANCH   1  24
TORSDOF 14
ENDMDL
