MODEL 1
REMARK VINA RESULT:     -13.4      0.000      0.000
REMARK SMILES O=C(OCCOC(=O)c1nccnc1C(=O)N1CCC(Cc2ccccc2)CC1)c1ccc(-c2c3nc(c(-c4c(F)c(F)c(F)c(F)c4F)c4ccc([nH]4)c(-c4c(F)c(F)c(F)c(F)c4F)c4nc(c(-c5c(F)c(F)c(F)c(F)c5F)c5ccc2[nH]5)C=C4)C=C3)cc1
REMARK SMILES IDX 5 1 4 2 3 3 2 4 1 5 30 6 31 7 92 8 32 9 91 10 33 11 34 12
REMARK SMILES IDX 35 13 85 14 36 15 90 16 84 17 86 18 37 19 89 20 83 21 82 22
REMARK SMILES IDX 38 24 70 25 50 26 69 27 51 28 54 29 68 30 87 31 52 32 53 33
REMARK SMILES IDX 67 35 88 36 55 37 39 38 40 39 48 40 41 41 42 42 46 43 49 44
REMARK SMILES IDX 43 45 44 46 47 47 45 48 71 49 72 50 80 51 73 52 74 53 78 54
REMARK SMILES IDX 81 55 75 56 76 57 79 58 77 59 56 60 57 61 65 62 58 63 59 64
REMARK SMILES IDX 63 65 66 66 60 67 61 68 64 69 62 70 6 71 7 72 8 73 9 74
REMARK SMILES IDX 10 75 14 76 11 77 13 78 12 79 15 80 16 81 17 82 18 83 29 84
REMARK SMILES IDX 19 85 28 86 20 87 21 88 22 89 23 90 27 91 24 92 26 93 25 94
REMARK H PARENT 86 23 54 34
REMARK Flexibility Score: inf
ROOT
ATOM      1  C   UNL A   1      31.578  30.370  25.688  1.00  0.00     0.275 C 
ENDROOT
BRANCH   1   2
ATOM      2  C   UNL A   1      31.881  31.396  26.794  1.00  0.00     0.275 C 
BRANCH   2   3
ATOM      3  O   UNL A   1      33.068  31.039  27.509  1.00  0.00    -0.458 OA
BRANCH   3   4
ATOM      4  C   UNL A   1      33.816  32.121  27.839  1.00  0.00     0.338 C 
ATOM      5  O   UNL A   1      33.516  33.281  27.635  1.00  0.00    -0.246 OA
BRANCH   4   6
ATOM      6  C   UNL A   1      35.190  31.687  28.153  1.00  0.00     0.060 A 
ATOM      7  C   UNL A   1      36.233  32.605  28.210  1.00  0.00     0.016 A 
ATOM      8  C   UNL A   1      35.377  30.368  28.587  1.00  0.00     0.016 A 
ATOM      9  C   UNL A   1      37.439  32.216  28.764  1.00  0.00     0.010 A 
ATOM     10  C   UNL A   1      36.569  29.981  29.177  1.00  0.00     0.010 A 
ATOM     11  C   UNL A   1      37.594  30.918  29.272  1.00  0.00    -0.014 A 
BRANCH  11  12
ATOM     12  C   UNL A   1      38.884  30.582  29.877  1.00  0.00     0.031 A 
ATOM     13  C   UNL A   1      39.148  31.066  31.258  1.00  0.00     0.074 A 
ATOM     14  C   UNL A   1      39.684  29.724  29.226  1.00  0.00     0.049 A 
ATOM     15  N   UNL A   1      39.975  30.589  32.143  1.00  0.00    -0.248 NA
ATOM     16  C   UNL A   1      38.348  32.213  31.720  1.00  0.00     0.031 C 
ATOM     17  C   UNL A   1      39.469  29.243  27.859  1.00  0.00     0.029 A 
ATOM     18  N   UNL A   1      40.807  29.067  29.640  1.00  0.00    -0.354 N 
ATOM     19  C   UNL A   1      39.727  31.315  33.297  1.00  0.00     0.074 A 
ATOM     20  C   UNL A   1      38.752  32.332  32.975  1.00  0.00     0.031 C 
ATOM     21  C   UNL A   1      40.428  28.356  27.550  1.00  0.00     0.029 A 
ATOM     22  C   UNL A   1      41.294  28.182  28.711  1.00  0.00     0.049 A 
ATOM     23  H   UNL A   1      41.227  29.214  30.519  1.00  0.00     0.167 HD
ATOM     24  C   UNL A   1      40.241  31.096  34.527  1.00  0.00     0.037 A 
ATOM     25  C   UNL A   1      42.298  27.296  28.823  1.00  0.00     0.037 A 
ATOM     26  C   UNL A   1      41.259  30.114  34.775  1.00  0.00     0.049 A 
ATOM     27  C   UNL A   1      42.915  27.126  30.186  1.00  0.00     0.074 A 
ATOM     28  C   UNL A   1      41.920  29.817  35.949  1.00  0.00     0.029 A 
ATOM     29  N   UNL A   1      41.779  29.274  33.792  1.00  0.00    -0.354 N 
ATOM     30  N   UNL A   1      42.619  27.745  31.308  1.00  0.00    -0.248 NA
ATOM     31  C   UNL A   1      43.966  26.114  30.317  1.00  0.00     0.031 C 
ATOM     32  C   UNL A   1      42.868  28.824  35.667  1.00  0.00     0.029 A 
ATOM     33  C   UNL A   1      42.767  28.472  34.328  1.00  0.00     0.049 A 
ATOM     34  H   UNL A   1      41.484  29.256  32.854  1.00  0.00     0.167 HD
ATOM     35  C   UNL A   1      43.423  27.180  32.283  1.00  0.00     0.074 A 
ATOM     36  C   UNL A   1      44.207  26.153  31.620  1.00  0.00     0.031 C 
ATOM     37  C   UNL A   1      43.515  27.471  33.606  1.00  0.00     0.037 A 
BRANCH  24  38
ATOM     38  C   UNL A   1      39.700  31.933  35.645  1.00  0.00     0.064 A 
ATOM     39  C   UNL A   1      40.295  33.162  35.981  1.00  0.00     0.173 A 
ATOM     40  C   UNL A   1      38.615  31.499  36.416  1.00  0.00     0.173 A 
ATOM     41  F   UNL A   1      41.355  33.609  35.291  1.00  0.00    -0.203 F 
ATOM     42  C   UNL A   1      39.840  33.908  37.065  1.00  0.00     0.198 A 
ATOM     43  C   UNL A   1      38.149  32.259  37.488  1.00  0.00     0.198 A 
ATOM     44  F   UNL A   1      38.020  30.327  36.147  1.00  0.00    -0.203 F 
ATOM     45  F   UNL A   1      40.460  35.048  37.401  1.00  0.00    -0.200 F 
ATOM     46  C   UNL A   1      38.766  33.457  37.816  1.00  0.00     0.200 A 
ATOM     47  F   UNL A   1      37.111  31.821  38.215  1.00  0.00    -0.200 F 
ATOM     48  F   UNL A   1      38.335  34.169  38.866  1.00  0.00    -0.200 F 
ENDBRANCH  24  38
BRANCH  25  49
ATOM     49  C   UNL A   1      42.716  26.488  27.648  1.00  0.00     0.064 A 
ATOM     50  C   UNL A   1      43.727  26.910  26.776  1.00  0.00     0.173 A 
ATOM     51  C   UNL A   1      42.111  25.247  27.386  1.00  0.00     0.173 A 
ATOM     52  F   UNL A   1      44.338  28.087  26.979  1.00  0.00    -0.203 F 
ATOM     53  C   UNL A   1      44.101  26.138  25.675  1.00  0.00     0.198 A 
ATOM     54  C   UNL A   1      42.501  24.465  26.300  1.00  0.00     0.198 A 
ATOM     55  F   UNL A   1      41.151  24.784  28.199  1.00  0.00    -0.203 F 
ATOM     56  F   UNL A   1      45.046  26.585  24.837  1.00  0.00    -0.200 F 
ATOM     57  C   UNL A   1      43.491  24.915  25.440  1.00  0.00     0.200 A 
ATOM     58  F   UNL A   1      41.922  23.276  26.091  1.00  0.00    -0.200 F 
ATOM     59  F   UNL A   1      43.852  24.173  24.385  1.00  0.00    -0.200 F 
ENDBRANCH  25  49
BRANCH  37  60
ATOM     60  C   UNL A   1      44.492  26.657  34.396  1.00  0.00     0.064 A 
ATOM     61  C   UNL A   1      45.809  27.094  34.595  1.00  0.00     0.173 A 
ATOM     62  C   UNL A   1      44.093  25.451  34.990  1.00  0.00     0.173 A 
ATOM     63  F   UNL A   1      46.235  28.235  34.031  1.00  0.00    -0.203 F 
ATOM     64  C   UNL A   1      46.705  26.333  35.338  1.00  0.00     0.198 A 
ATOM     65  C   UNL A   1      44.984  24.709  35.756  1.00  0.00     0.198 A 
ATOM     66  F   UNL A   1      42.840  25.001  34.831  1.00  0.00    -0.203 F 
ATOM     67  F   UNL A   1      47.974  26.741  35.474  1.00  0.00    -0.200 F 
ATOM     68  C   UNL A   1      46.290  25.146  35.924  1.00  0.00     0.200 A 
ATOM     69  F   UNL A   1      44.580  23.568  36.333  1.00  0.00    -0.200 F 
ATOM     70  F   UNL A   1      47.154  24.418  36.644  1.00  0.00    -0.200 F 
ENDBRANCH  37  60
ENDBRANCH  11  12
ENDBRANCH   4   6
ENDBRANCH   3   4
ENDBRANCH   2   3
ENDBRANCH   1   2
BRANCH   1  71
ATOM     71  O   UNL A   1      32.537  29.292  25.625  1.00  0.00    -0.457 OA
BRANCH  71  72
ATOM     72  C   UNL A   1      32.622  28.513  24.513  1.00  0.00     0.359 C 
ATOM     73  O   UNL A   1      33.581  28.423  23.766  1.00  0.00    -0.244 OA
BRANCH  72  74
ATOM     74  C   UNL A   1      31.290  27.880  24.312  1.00  0.00     0.179 A 
ATOM     75  N   UNL A   1      30.577  28.433  23.262  1.00  0.00    -0.245 NA
ATOM     76  C   UNL A   1      30.784  26.810  25.041  1.00  0.00     0.161 A 
ATOM     77  C   UNL A   1      29.387  27.869  22.965  1.00  0.00     0.132 A 
ATOM     78  N   UNL A   1      29.537  26.298  24.749  1.00  0.00    -0.247 NA
ATOM     79  C   UNL A   1      28.871  26.828  23.701  1.00  0.00     0.132 A 
BRANCH  76  80
ATOM     80  C   UNL A   1      31.472  26.019  26.111  1.00  0.00     0.274 C 
ATOM     81  O   UNL A   1      31.537  26.504  27.243  1.00  0.00    -0.267 OA
ATOM     82  N   UNL A   1      32.109  24.803  25.821  1.00  0.00    -0.337 N 
ATOM     83  C   UNL A   1      31.686  23.708  26.696  1.00  0.00     0.120 C 
ATOM     84  C   UNL A   1      33.558  24.850  25.608  1.00  0.00     0.120 C 
ATOM     85  C   UNL A   1      32.734  22.616  26.901  1.00  0.00     0.025 C 
ATOM     86  C   UNL A   1      34.150  23.537  25.062  1.00  0.00     0.025 C 
ATOM     87  C   UNL A   1      33.412  22.276  25.571  1.00  0.00    -0.003 C 
BRANCH  87  88
ATOM     88  C   UNL A   1      34.357  21.057  25.614  1.00  0.00     0.039 C 
BRANCH  88  89
ATOM     89  C   UNL A   1      33.925  19.915  24.722  1.00  0.00    -0.048 A 
ATOM     90  C   UNL A   1      34.693  18.742  24.683  1.00  0.00     0.004 A 
ATOM     91  C   UNL A   1      32.725  19.968  24.002  1.00  0.00     0.004 A 
ATOM     92  C   UNL A   1      34.260  17.634  23.957  1.00  0.00     0.000 A 
ATOM     93  C   UNL A   1      32.295  18.857  23.271  1.00  0.00     0.000 A 
ATOM     94  C   UNL A   1      33.059  17.690  23.254  1.00  0.00     0.000 A 
ENDBRANCH  88  89
ENDBRANCH  87  88
ENDBRANCH  76  80
ENDBRANCH  72  74
ENDBRANCH  71  72
ENDBRANCH   1  71
TORSDOF 14
ENDMDL
MODEL 2
REMARK VINA RESULT:     -13.4      1.383      2.158
REMARK SMILES O=C(OCCOC(=O)c1nccnc1C(=O)N1CCC(Cc2ccccc2)CC1)c1ccc(-c2c3nc(c(-c4c(F)c(F)c(F)c(F)c4F)c4ccc([nH]4)c(-c4c(F)c(F)c(F)c(F)c4F)c4nc(c(-c5c(F)c(F)c(F)c(F)c5F)c5ccc2[nH]5)C=C4)C=C3)cc1
REMARK SMILES IDX 5 1 4 2 3 3 2 4 1 5 30 6 31 7 92 8 32 9 91 10 33 11 34 12
REMARK SMILES IDX 35 13 85 14 36 15 90 16 84 17 86 18 37 19 89 20 83 21 82 22
REMARK SMILES IDX 38 24 70 25 50 26 69 27 51 28 54 29 68 30 87 31 52 32 53 33
REMARK SMILES IDX 67 35 88 36 55 37 39 38 40 39 48 40 41 41 42 42 46 43 49 44
REMARK SMILES IDX 43 45 44 46 47 47 45 48 71 49 72 50 80 51 73 52 74 53 78 54
REMARK SMILES IDX 81 55 75 56 76 57 79 58 77 59 56 60 57 61 65 62 58 63 59 64
REMARK SMILES IDX 63 65 66 66 60 67 61 68 64 69 62 70 6 71 7 72 8 73 9 74
REMARK SMILES IDX 10 75 14 76 11 77 13 78 12 79 15 80 16 81 17 82 18 83 29 84
REMARK SMILES IDX 19 85 28 86 20 87 21 88 22 89 23 90 27 91 24 92 26 93 25 94
REMARK H PARENT 86 23 54 34
REMARK Flexibility Score: inf
ROOT
ATOM      1  C   UNL A   1      32.907  29.143  24.946  1.00  0.00     0.275 C 
ENDROOT
BRANCH   1   2
ATOM      2  C   UNL A   1      32.185  30.125  25.885  1.00  0.00     0.275 C 
BRANCH   2   3
ATOM      3  O   UNL A   1      32.776  30.112  27.188  1.00  0.00    -0.458 OA
BRANCH   3   4
ATOM      4  C   UNL A   1      33.399  31.279  27.485  1.00  0.00     0.338 C 
ATOM      5  O   UNL A   1      32.967  32.392  27.254  1.00  0.00    -0.246 OA
BRANCH   4   6
ATOM      6  C   UNL A   1      34.814  31.013  27.797  1.00  0.00     0.060 A 
ATOM      7  C   UNL A   1      35.720  32.057  27.952  1.00  0.00     0.016 A 
ATOM      8  C   UNL A   1      35.176  29.701  28.131  1.00  0.00     0.016 A 
ATOM      9  C   UNL A   1      36.960  31.793  28.503  1.00  0.00     0.010 A 
ATOM     10  C   UNL A   1      36.402  29.434  28.718  1.00  0.00     0.010 A 
ATOM     11  C   UNL A   1      37.286  30.491  28.911  1.00  0.00    -0.014 A 
BRANCH  11  12
ATOM     12  C   UNL A   1      38.602  30.286  29.520  1.00  0.00     0.031 A 
ATOM     13  C   UNL A   1      38.838  30.864  30.869  1.00  0.00     0.074 A 
ATOM     14  C   UNL A   1      39.459  29.455  28.908  1.00  0.00     0.049 A 
ATOM     15  N   UNL A   1      39.704  30.499  31.771  1.00  0.00    -0.248 NA
ATOM     16  C   UNL A   1      37.956  31.971  31.277  1.00  0.00     0.031 C 
ATOM     17  C   UNL A   1      39.272  28.885  27.572  1.00  0.00     0.029 A 
ATOM     18  N   UNL A   1      40.632  28.908  29.345  1.00  0.00    -0.354 N 
ATOM     19  C   UNL A   1      39.409  31.267  32.886  1.00  0.00     0.074 A 
ATOM     20  C   UNL A   1      38.359  32.189  32.520  1.00  0.00     0.031 C 
ATOM     21  C   UNL A   1      40.293  28.057  27.301  1.00  0.00     0.029 A 
ATOM     22  C   UNL A   1      41.177  28.012  28.460  1.00  0.00     0.049 A 
ATOM     23  H   UNL A   1      41.045  29.134  30.210  1.00  0.00     0.167 HD
ATOM     24  C   UNL A   1      39.946  31.155  34.121  1.00  0.00     0.037 A 
ATOM     25  C   UNL A   1      42.247  27.212  28.609  1.00  0.00     0.037 A 
ATOM     26  C   UNL A   1      41.037  30.266  34.410  1.00  0.00     0.049 A 
ATOM     27  C   UNL A   1      42.884  27.164  29.973  1.00  0.00     0.074 A 
ATOM     28  C   UNL A   1      41.727  30.085  35.592  1.00  0.00     0.029 A 
ATOM     29  N   UNL A   1      41.612  29.415  33.469  1.00  0.00    -0.354 N 
ATOM     30  N   UNL A   1      42.549  27.819  31.063  1.00  0.00    -0.248 NA
ATOM     31  C   UNL A   1      44.008  26.241  30.147  1.00  0.00     0.031 C 
ATOM     32  C   UNL A   1      42.745  29.152  35.354  1.00  0.00     0.029 A 
ATOM     33  C   UNL A   1      42.662  28.719  34.037  1.00  0.00     0.049 A 
ATOM     34  H   UNL A   1      41.314  29.323  32.536  1.00  0.00     0.167 HD
ATOM     35  C   UNL A   1      43.400  27.370  32.059  1.00  0.00     0.074 A 
ATOM     36  C   UNL A   1      44.254  26.369  31.444  1.00  0.00     0.031 C 
ATOM     37  C   UNL A   1      43.478  27.739  33.363  1.00  0.00     0.037 A 
BRANCH  24  38
ATOM     38  C   UNL A   1      39.352  32.009  35.197  1.00  0.00     0.064 A 
ATOM     39  C   UNL A   1      39.693  33.369  35.313  1.00  0.00     0.173 A 
ATOM     40  C   UNL A   1      38.473  31.473  36.146  1.00  0.00     0.173 A 
ATOM     41  F   UNL A   1      40.553  33.924  34.445  1.00  0.00    -0.203 F 
ATOM     42  C   UNL A   1      39.198  34.147  36.355  1.00  0.00     0.198 A 
ATOM     43  C   UNL A   1      37.963  32.261  37.175  1.00  0.00     0.198 A 
ATOM     44  F   UNL A   1      38.126  30.178  36.089  1.00  0.00    -0.203 F 
ATOM     45  F   UNL A   1      39.583  35.426  36.477  1.00  0.00    -0.200 F 
ATOM     46  C   UNL A   1      38.331  33.594  37.284  1.00  0.00     0.200 A 
ATOM     47  F   UNL A   1      37.126  31.725  38.075  1.00  0.00    -0.200 F 
ATOM     48  F   UNL A   1      37.864  34.341  38.294  1.00  0.00    -0.200 F 
ENDBRANCH  24  38
BRANCH  25  49
ATOM     49  C   UNL A   1      42.716  26.373  27.475  1.00  0.00     0.064 A 
ATOM     50  C   UNL A   1      43.720  26.804  26.598  1.00  0.00     0.173 A 
ATOM     51  C   UNL A   1      42.171  25.096  27.261  1.00  0.00     0.173 A 
ATOM     52  F   UNL A   1      44.274  28.014  26.757  1.00  0.00    -0.203 F 
ATOM     53  C   UNL A   1      44.142  26.002  25.536  1.00  0.00     0.198 A 
ATOM     54  C   UNL A   1      42.611  24.288  26.214  1.00  0.00     0.198 A 
ATOM     55  F   UNL A   1      41.221  24.626  28.082  1.00  0.00    -0.203 F 
ATOM     56  F   UNL A   1      45.078  26.455  24.690  1.00  0.00    -0.200 F 
ATOM     57  C   UNL A   1      43.591  24.744  25.347  1.00  0.00     0.200 A 
ATOM     58  F   UNL A   1      42.088  23.065  26.050  1.00  0.00    -0.200 F 
ATOM     59  F   UNL A   1      44.000  23.975  24.330  1.00  0.00    -0.200 F 
ENDBRANCH  25  49
BRANCH  37  60
ATOM     60  C   UNL A   1      44.519  27.046  34.185  1.00  0.00     0.064 A 
ATOM     61  C   UNL A   1      44.244  25.835  34.836  1.00  0.00     0.173 A 
ATOM     62  C   UNL A   1      45.811  27.580  34.290  1.00  0.00     0.173 A 
ATOM     63  F   UNL A   1      43.016  25.299  34.773  1.00  0.00    -0.203 F 
ATOM     64  C   UNL A   1      45.222  25.196  35.590  1.00  0.00     0.198 A 
ATOM     65  C   UNL A   1      46.794  26.923  35.021  1.00  0.00     0.198 A 
ATOM     66  F   UNL A   1      46.119  28.732  33.677  1.00  0.00    -0.203 F 
ATOM     67  F   UNL A   1      44.926  24.067  36.247  1.00  0.00    -0.200 F 
ATOM     68  C   UNL A   1      46.497  25.737  35.676  1.00  0.00     0.200 A 
ATOM     69  F   UNL A   1      48.029  27.438  35.094  1.00  0.00    -0.200 F 
ATOM     70  F   UNL A   1      47.438  25.116  36.399  1.00  0.00    -0.200 F 
ENDBRANCH  37  60
ENDBRANCH  11  12
ENDBRANCH   4   6
ENDBRANCH   3   4
ENDBRANCH   2   3
ENDBRANCH   1   2
BRANCH   1  71
ATOM     71  O   UNL A   1      32.565  29.320  23.554  1.00  0.00    -0.457 OA
BRANCH  71  72
ATOM     72  C   UNL A   1      31.909  28.339  22.877  1.00  0.00     0.359 C 
ATOM     73  O   UNL A   1      32.404  27.326  22.415  1.00  0.00    -0.244 OA
BRANCH  72  74
ATOM     74  C   UNL A   1      30.499  28.785  22.705  1.00  0.00     0.179 A 
ATOM     75  N   UNL A   1      30.383  29.953  21.971  1.00  0.00    -0.245 NA
ATOM     76  C   UNL A   1      29.375  28.112  23.170  1.00  0.00     0.161 A 
ATOM     77  C   UNL A   1      29.133  30.388  21.706  1.00  0.00     0.132 A 
ATOM     78  N   UNL A   1      28.114  28.620  22.933  1.00  0.00    -0.247 NA
ATOM     79  C   UNL A   1      28.020  29.741  22.188  1.00  0.00     0.132 A 
BRANCH  76  80
ATOM     80  C   UNL A   1      29.318  26.785  23.861  1.00  0.00     0.274 C 
ATOM     81  O   UNL A   1      28.215  26.255  24.016  1.00  0.00    -0.267 OA
ATOM     82  N   UNL A   1      30.471  26.196  24.402  1.00  0.00    -0.337 N 
ATOM     83  C   UNL A   1      30.678  24.818  23.956  1.00  0.00     0.120 C 
ATOM     84  C   UNL A   1      30.697  26.383  25.838  1.00  0.00     0.120 C 
ATOM     85  C   UNL A   1      31.446  23.937  24.940  1.00  0.00     0.025 C 
ATOM     86  C   UNL A   1      32.087  25.923  26.314  1.00  0.00     0.025 C 
ATOM     87  C   UNL A   1      32.633  24.709  25.524  1.00  0.00    -0.003 C 
BRANCH  87  88
ATOM     88  C   UNL A   1      33.595  23.868  26.390  1.00  0.00     0.039 C 
BRANCH  88  89
ATOM     89  C   UNL A   1      34.751  23.272  25.619  1.00  0.00    -0.048 A 
ATOM     90  C   UNL A   1      35.211  21.989  25.949  1.00  0.00     0.004 A 
ATOM     91  C   UNL A   1      35.314  23.937  24.522  1.00  0.00     0.004 A 
ATOM     92  C   UNL A   1      36.200  21.372  25.185  1.00  0.00     0.000 A 
ATOM     93  C   UNL A   1      36.308  23.318  23.760  1.00  0.00     0.000 A 
ATOM     94  C   UNL A   1      36.746  22.034  24.088  1.00  0.00     0.000 A 
ENDBRANCH  88  89
ENDBRANCH  87  88
ENDBRANCH  76  80
ENDBRANCH  72  74
ENDBRANCH  71  72
ENDBRANCH   1  71
TORSDOF 14
ENDMDL
MODEL 3
REMARK VINA RESULT:     -13.2      4.309     10.248
REMARK SMILES O=C(OCCOC(=O)c1nccnc1C(=O)N1CCC(Cc2ccccc2)CC1)c1ccc(-c2c3nc(c(-c4c(F)c(F)c(F)c(F)c4F)c4ccc([nH]4)c(-c4c(F)c(F)c(F)c(F)c4F)c4nc(c(-c5c(F)c(F)c(F)c(F)c5F)c5ccc2[nH]5)C=C4)C=C3)cc1
REMARK SMILES IDX 5 1 4 2 3 3 2 4 1 5 30 6 31 7 92 8 32 9 91 10 33 11 34 12
REMARK SMILES IDX 35 13 85 14 36 15 90 16 84 17 86 18 37 19 89 20 83 21 82 22
REMARK SMILES IDX 38 24 70 25 50 26 69 27 51 28 54 29 68 30 87 31 52 32 53 33
REMARK SMILES IDX 67 35 88 36 55 37 39 38 40 39 48 40 41 41 42 42 46 43 49 44
REMARK SMILES IDX 43 45 44 46 47 47 45 48 71 49 72 50 80 51 73 52 74 53 78 54
REMARK SMILES IDX 81 55 75 56 76 57 79 58 77 59 56 60 57 61 65 62 58 63 59 64
REMARK SMILES IDX 63 65 66 66 60 67 61 68 64 69 62 70 6 71 7 72 8 73 9 74
REMARK SMILES IDX 10 75 14 76 11 77 13 78 12 79 15 80 16 81 17 82 18 83 29 84
REMARK SMILES IDX 19 85 28 86 20 87 21 88 22 89 23 90 27 91 24 92 26 93 25 94
REMARK H PARENT 86 23 54 34
REMARK Flexibility Score: inf
ROOT
ATOM      1  C   UNL A   1      36.321  20.820  25.363  1.00  0.00     0.275 C 
ENDROOT
BRANCH   1   2
ATOM      2  C   UNL A   1      37.805  20.721  24.968  1.00  0.00     0.275 C 
BRANCH   2   3
ATOM      3  O   UNL A   1      38.518  21.897  25.365  1.00  0.00    -0.458 OA
BRANCH   3   4
ATOM      4  C   UNL A   1      39.609  21.610  26.117  1.00  0.00     0.338 C 
ATOM      5  O   UNL A   1      40.013  20.495  26.385  1.00  0.00    -0.246 OA
BRANCH   4   6
ATOM      6  C   UNL A   1      40.024  22.817  26.855  1.00  0.00     0.060 A 
ATOM      7  C   UNL A   1      40.983  22.744  27.860  1.00  0.00     0.016 A 
ATOM      8  C   UNL A   1      39.580  24.059  26.383  1.00  0.00     0.016 A 
ATOM      9  C   UNL A   1      41.541  23.915  28.340  1.00  0.00     0.010 A 
ATOM     10  C   UNL A   1      40.160  25.234  26.832  1.00  0.00     0.010 A 
ATOM     11  C   UNL A   1      41.151  25.151  27.805  1.00  0.00    -0.014 A 
BRANCH  11  12
ATOM     12  C   UNL A   1      41.806  26.349  28.334  1.00  0.00     0.031 A 
ATOM     13  C   UNL A   1      43.210  26.611  27.918  1.00  0.00     0.074 A 
ATOM     14  C   UNL A   1      41.061  27.227  29.022  1.00  0.00     0.049 A 
ATOM     15  N   UNL A   1      43.853  27.742  27.890  1.00  0.00    -0.248 NA
ATOM     16  C   UNL A   1      43.980  25.454  27.430  1.00  0.00     0.031 C 
ATOM     17  C   UNL A   1      39.684  26.996  29.467  1.00  0.00     0.029 A 
ATOM     18  N   UNL A   1      41.335  28.503  29.425  1.00  0.00    -0.354 N 
ATOM     19  C   UNL A   1      45.070  27.452  27.294  1.00  0.00     0.074 A 
ATOM     20  C   UNL A   1      45.120  26.025  27.072  1.00  0.00     0.031 C 
ATOM     21  C   UNL A   1      39.228  28.103  30.075  1.00  0.00     0.029 A 
ATOM     22  C   UNL A   1      40.267  29.125  30.023  1.00  0.00     0.049 A 
ATOM     23  H   UNL A   1      42.211  28.934  29.298  1.00  0.00     0.167 HD
ATOM     24  C   UNL A   1      46.028  28.328  26.921  1.00  0.00     0.037 A 
ATOM     25  C   UNL A   1      40.144  30.400  30.430  1.00  0.00     0.037 A 
ATOM     26  C   UNL A   1      45.954  29.729  27.230  1.00  0.00     0.049 A 
ATOM     27  C   UNL A   1      41.263  31.345  30.076  1.00  0.00     0.074 A 
ATOM     28  C   UNL A   1      46.870  30.730  26.974  1.00  0.00     0.029 A 
ATOM     29  N   UNL A   1      44.884  30.319  27.899  1.00  0.00    -0.354 N 
ATOM     30  N   UNL A   1      42.378  31.095  29.426  1.00  0.00    -0.248 NA
ATOM     31  C   UNL A   1      41.093  32.747  30.465  1.00  0.00     0.031 C 
ATOM     32  C   UNL A   1      46.370  31.918  27.524  1.00  0.00     0.029 A 
ATOM     33  C   UNL A   1      45.124  31.667  28.083  1.00  0.00     0.049 A 
ATOM     34  H   UNL A   1      44.075  29.844  28.196  1.00  0.00     0.167 HD
ATOM     35  C   UNL A   1      43.031  32.310  29.302  1.00  0.00     0.074 A 
ATOM     36  C   UNL A   1      42.173  33.300  29.929  1.00  0.00     0.031 C 
ATOM     37  C   UNL A   1      44.226  32.597  28.725  1.00  0.00     0.037 A 
BRANCH  24  38
ATOM     38  C   UNL A   1      47.192  27.774  26.160  1.00  0.00     0.064 A 
ATOM     39  C   UNL A   1      48.345  27.325  26.828  1.00  0.00     0.173 A 
ATOM     40  C   UNL A   1      47.187  27.727  24.761  1.00  0.00     0.173 A 
ATOM     41  F   UNL A   1      48.411  27.377  28.167  1.00  0.00    -0.203 F 
ATOM     42  C   UNL A   1      49.457  26.878  26.120  1.00  0.00     0.198 A 
ATOM     43  C   UNL A   1      48.294  27.257  24.056  1.00  0.00     0.198 A 
ATOM     44  F   UNL A   1      46.117  28.156  24.074  1.00  0.00    -0.203 F 
ATOM     45  F   UNL A   1      50.565  26.508  26.778  1.00  0.00    -0.200 F 
ATOM     46  C   UNL A   1      49.429  26.841  24.735  1.00  0.00     0.200 A 
ATOM     47  F   UNL A   1      48.268  27.225  22.716  1.00  0.00    -0.200 F 
ATOM     48  F   UNL A   1      50.504  26.420  24.053  1.00  0.00    -0.200 F 
ENDBRANCH  24  38
BRANCH  25  49
ATOM     49  C   UNL A   1      38.915  30.842  31.139  1.00  0.00     0.064 A 
ATOM     50  C   UNL A   1      37.794  31.326  30.453  1.00  0.00     0.173 A 
ATOM     51  C   UNL A   1      38.835  30.766  32.539  1.00  0.00     0.173 A 
ATOM     52  F   UNL A   1      37.816  31.420  29.115  1.00  0.00    -0.203 F 
ATOM     53  C   UNL A   1      36.651  31.741  31.139  1.00  0.00     0.198 A 
ATOM     54  C   UNL A   1      37.685  31.158  33.221  1.00  0.00     0.198 A 
ATOM     55  F   UNL A   1      39.871  30.292  33.246  1.00  0.00    -0.203 F 
ATOM     56  F   UNL A   1      35.608  32.235  30.458  1.00  0.00    -0.200 F 
ATOM     57  C   UNL A   1      36.596  31.653  32.521  1.00  0.00     0.200 A 
ATOM     58  F   UNL A   1      37.631  31.051  34.556  1.00  0.00    -0.200 F 
ATOM     59  F   UNL A   1      35.497  32.048  33.178  1.00  0.00    -0.200 F 
ENDBRANCH  25  49
BRANCH  37  60
ATOM     60  C   UNL A   1      44.648  34.032  28.754  1.00  0.00     0.064 A 
ATOM     61  C   UNL A   1      44.259  34.925  27.745  1.00  0.00     0.173 A 
ATOM     62  C   UNL A   1      45.414  34.524  29.820  1.00  0.00     0.173 A 
ATOM     63  F   UNL A   1      43.539  34.490  26.700  1.00  0.00    -0.203 F 
ATOM     64  C   UNL A   1      44.651  36.258  27.788  1.00  0.00     0.198 A 
ATOM     65  C   UNL A   1      45.779  35.865  29.873  1.00  0.00     0.198 A 
ATOM     66  F   UNL A   1      45.801  33.706  30.809  1.00  0.00    -0.203 F 
ATOM     67  F   UNL A   1      44.313  37.085  26.788  1.00  0.00    -0.200 F 
ATOM     68  C   UNL A   1      45.403  36.728  28.855  1.00  0.00     0.200 A 
ATOM     69  F   UNL A   1      46.495  36.321  30.910  1.00  0.00    -0.200 F 
ATOM     70  F   UNL A   1      45.775  38.015  28.895  1.00  0.00    -0.200 F 
ENDBRANCH  37  60
ENDBRANCH  11  12
ENDBRANCH   4   6
ENDBRANCH   3   4
ENDBRANCH   2   3
ENDBRANCH   1   2
BRANCH   1  71
ATOM     71  O   UNL A   1      35.923  22.145  25.776  1.00  0.00    -0.457 OA
BRANCH  71  72
ATOM     72  C   UNL A   1      34.626  22.404  26.095  1.00  0.00     0.359 C 
ATOM     73  O   UNL A   1      34.221  22.884  27.139  1.00  0.00    -0.244 OA
BRANCH  72  74
ATOM     74  C   UNL A   1      33.784  21.888  24.980  1.00  0.00     0.179 A 
ATOM     75  N   UNL A   1      33.134  20.706  25.292  1.00  0.00    -0.245 NA
ATOM     76  C   UNL A   1      33.596  22.511  23.753  1.00  0.00     0.161 A 
ATOM     77  C   UNL A   1      32.292  20.206  24.363  1.00  0.00     0.132 A 
ATOM     78  N   UNL A   1      32.775  21.939  22.802  1.00  0.00    -0.247 NA
ATOM     79  C   UNL A   1      32.124  20.805  23.137  1.00  0.00     0.132 A 
BRANCH  76  80
ATOM     80  C   UNL A   1      34.114  23.843  23.309  1.00  0.00     0.274 C 
ATOM     81  O   UNL A   1      35.271  23.907  22.885  1.00  0.00    -0.267 OA
ATOM     82  N   UNL A   1      33.347  25.009  23.454  1.00  0.00    -0.337 N 
ATOM     83  C   UNL A   1      33.224  25.777  22.214  1.00  0.00     0.120 C 
ATOM     84  C   UNL A   1      33.624  25.840  24.628  1.00  0.00     0.120 C 
ATOM     85  C   UNL A   1      33.017  27.278  22.412  1.00  0.00     0.025 C 
ATOM     86  C   UNL A   1      32.594  26.963  24.853  1.00  0.00     0.025 C 
ATOM     87  C   UNL A   1      32.009  27.528  23.537  1.00  0.00    -0.003 C 
BRANCH  87  88
ATOM     88  C   UNL A   1      31.574  28.999  23.707  1.00  0.00     0.039 C 
BRANCH  88  89
ATOM     89  C   UNL A   1      30.088  29.222  23.546  1.00  0.00    -0.048 A 
ATOM     90  C   UNL A   1      29.577  30.527  23.597  1.00  0.00     0.004 A 
ATOM     91  C   UNL A   1      29.220  28.161  23.258  1.00  0.00     0.004 A 
ATOM     92  C   UNL A   1      28.229  30.772  23.341  1.00  0.00     0.000 A 
ATOM     93  C   UNL A   1      27.867  28.408  23.007  1.00  0.00     0.000 A 
ATOM     94  C   UNL A   1      27.374  29.713  23.043  1.00  0.00     0.000 A 
ENDBRANCH  88  89
ENDBRANCH  87  88
ENDBRANCH  76  80
ENDBRANCH  72  74
ENDBRANCH  71  72
ENDBRANCH   1  71
TORSDOF 14
ENDMDL
