MODEL 1
REMARK VINA RESULT:     -11.3      0.000      0.000
REMARK SMILES C[C@H](CO)CSc1cc(Cl)ccc1C(=O)OCCOC(=O)c1ccc(-c2c3nc(c(-c4c(F)c(F)c(F)c(F)c4F)c4ccc([nH]4)c(-c4c(F)c(F)c(F)c(F)c4F)c4nc(c(-c5c(F)c(F)c(F)c(F)c5F)c5ccc2[nH]5)C=C4)C=C3)cc1
REMARK SMILES IDX 16 1 14 2 15 3 13 4 7 5 8 6 9 7 12 8 10 9 11 10 6 11 5 12
REMARK SMILES IDX 2 13 1 14 3 15 4 16 17 18 18 19 19 20 20 21 21 22 22 23
REMARK SMILES IDX 23 24 84 25 24 26 83 27 25 28 26 29 27 30 77 31 28 32 82 33
REMARK SMILES IDX 76 34 78 35 29 36 81 37 75 38 74 39 30 41 62 42 42 43 61 44
REMARK SMILES IDX 43 45 46 46 60 47 79 48 44 49 45 50 59 52 80 53 47 54 31 55
REMARK SMILES IDX 32 56 40 57 33 58 34 59 38 60 41 61 35 62 36 63 39 64 37 65
REMARK SMILES IDX 63 66 64 67 72 68 65 69 66 70 70 71 73 72 67 73 68 74 71 75
REMARK SMILES IDX 69 76 48 77 49 78 57 79 50 80 51 81 55 82 58 83 52 84 53 85
REMARK SMILES IDX 56 86 54 87
REMARK H PARENT 4 17 78 40 46 51
REMARK Flexibility Score: inf
ROOT
ATOM      1  O   UNL A   1      35.568  23.345  25.345  1.00  0.00    -0.458 OA
ENDROOT
BRANCH   1   2
ATOM      2  C   UNL A   1      34.573  23.713  24.519  1.00  0.00     0.339 C 
ATOM      3  O   UNL A   1      34.702  24.070  23.357  1.00  0.00    -0.246 OA
BRANCH   2   4
ATOM      4  C   UNL A   1      33.247  23.401  25.120  1.00  0.00     0.073 A 
ATOM      5  C   UNL A   1      32.355  22.382  24.732  1.00  0.00     0.023 A 
ATOM      6  C   UNL A   1      31.156  22.237  25.473  1.00  0.00     0.036 A 
ATOM      7  C   UNL A   1      30.836  23.085  26.534  1.00  0.00     0.042 A 
ATOM      8  C   UNL A   1      32.917  24.225  26.223  1.00  0.00     0.018 A 
ATOM      9  Cl  UNL A   1      29.369  22.861  27.404  1.00  0.00    -0.084 Cl
ATOM     10  C   UNL A   1      31.714  24.085  26.913  1.00  0.00     0.021 A 
BRANCH   5  11
ATOM     11  S   UNL A   1      32.604  21.030  23.581  1.00  0.00    -0.125 SA
BRANCH  11  12
ATOM     12  C   UNL A   1      33.092  19.559  24.547  1.00  0.00     0.080 C 
BRANCH  12  13
ATOM     13  C   UNL A   1      32.475  18.166  24.315  1.00  0.00     0.022 C 
ATOM     14  C   UNL A   1      32.823  17.297  25.541  1.00  0.00     0.011 C 
BRANCH  13  15
ATOM     15  C   UNL A   1      32.830  17.421  23.025  1.00  0.00     0.160 C 
BRANCH  15  16
ATOM     16  O   UNL A   1      31.970  17.751  21.953  1.00  0.00    -0.396 OA
ATOM     17  H   UNL A   1      31.096  17.358  22.107  1.00  0.00     0.210 HD
ENDBRANCH  15  16
ENDBRANCH  13  15
ENDBRANCH  12  13
ENDBRANCH  11  12
ENDBRANCH   5  11
ENDBRANCH   2   4
ENDBRANCH   1   2
BRANCH   1  18
ATOM     18  C   UNL A   1      35.526  22.042  25.964  1.00  0.00     0.275 C 
BRANCH  18  19
ATOM     19  C   UNL A   1      36.584  21.151  25.315  1.00  0.00     0.275 C 
BRANCH  19  20
ATOM     20  O   UNL A   1      37.788  21.919  25.187  1.00  0.00    -0.458 OA
BRANCH  20  21
ATOM     21  C   UNL A   1      38.866  21.501  25.887  1.00  0.00     0.338 C 
ATOM     22  O   UNL A   1      39.318  20.377  25.993  1.00  0.00    -0.246 OA
BRANCH  21  23
ATOM     23  C   UNL A   1      39.448  22.698  26.516  1.00  0.00     0.060 A 
ATOM     24  C   UNL A   1      40.471  22.537  27.454  1.00  0.00     0.016 A 
ATOM     25  C   UNL A   1      39.004  23.969  26.163  1.00  0.00     0.016 A 
ATOM     26  C   UNL A   1      41.080  23.644  28.029  1.00  0.00     0.010 A 
ATOM     27  C   UNL A   1      39.662  25.082  26.686  1.00  0.00     0.010 A 
ATOM     28  C   UNL A   1      40.719  24.928  27.604  1.00  0.00    -0.014 A 
BRANCH  28  29
ATOM     29  C   UNL A   1      41.484  26.121  28.043  1.00  0.00     0.031 A 
ATOM     30  C   UNL A   1      40.791  27.211  28.802  1.00  0.00     0.074 A 
ATOM     31  C   UNL A   1      42.771  26.254  27.669  1.00  0.00     0.049 A 
ATOM     32  N   UNL A   1      41.174  28.440  29.025  1.00  0.00    -0.248 NA
ATOM     33  C   UNL A   1      39.475  26.875  29.367  1.00  0.00     0.031 C 
ATOM     34  C   UNL A   1      43.555  25.240  26.959  1.00  0.00     0.029 A 
ATOM     35  N   UNL A   1      43.642  27.307  27.805  1.00  0.00    -0.354 N 
ATOM     36  C   UNL A   1      40.127  29.041  29.712  1.00  0.00     0.074 A 
ATOM     37  C   UNL A   1      39.092  28.042  29.865  1.00  0.00     0.031 C 
ATOM     38  C   UNL A   1      44.786  25.718  26.722  1.00  0.00     0.029 A 
ATOM     39  C   UNL A   1      44.849  27.098  27.183  1.00  0.00     0.049 A 
ATOM     40  H   UNL A   1      43.422  28.129  28.299  1.00  0.00     0.167 HD
ATOM     41  C   UNL A   1      40.048  30.316  30.162  1.00  0.00     0.037 A 
ATOM     42  C   UNL A   1      45.870  27.946  26.954  1.00  0.00     0.037 A 
ATOM     43  C   UNL A   1      41.106  31.283  30.009  1.00  0.00     0.049 A 
ATOM     44  C   UNL A   1      45.736  29.370  27.414  1.00  0.00     0.074 A 
ATOM     45  C   UNL A   1      41.147  32.597  30.440  1.00  0.00     0.029 A 
ATOM     46  N   UNL A   1      42.315  31.032  29.374  1.00  0.00    -0.354 N 
ATOM     47  N   UNL A   1      44.737  29.944  28.041  1.00  0.00    -0.248 NA
ATOM     48  C   UNL A   1      46.859  30.269  27.120  1.00  0.00     0.031 C 
ATOM     49  C   UNL A   1      42.364  33.153  30.027  1.00  0.00     0.029 A 
ATOM     50  C   UNL A   1      43.103  32.171  29.382  1.00  0.00     0.049 A 
ATOM     51  H   UNL A   1      42.575  30.170  28.976  1.00  0.00     0.167 HD
ATOM     52  C   UNL A   1      45.114  31.264  28.231  1.00  0.00     0.074 A 
ATOM     53  C   UNL A   1      46.442  31.403  27.666  1.00  0.00     0.031 C 
ATOM     54  C   UNL A   1      44.424  32.275  28.815  1.00  0.00     0.037 A 
BRANCH  41  55
ATOM     55  C   UNL A   1      38.767  30.745  30.818  1.00  0.00     0.064 A 
ATOM     56  C   UNL A   1      38.606  30.736  32.212  1.00  0.00     0.173 A 
ATOM     57  C   UNL A   1      37.683  31.184  30.039  1.00  0.00     0.173 A 
ATOM     58  F   UNL A   1      39.604  30.314  33.003  1.00  0.00    -0.203 F 
ATOM     59  C   UNL A   1      37.401  31.117  32.799  1.00  0.00     0.198 A 
ATOM     60  C   UNL A   1      36.491  31.593  30.631  1.00  0.00     0.198 A 
ATOM     61  F   UNL A   1      37.782  31.218  28.702  1.00  0.00    -0.203 F 
ATOM     62  F   UNL A   1      37.253  31.045  34.129  1.00  0.00    -0.200 F 
ATOM     63  C   UNL A   1      36.346  31.549  32.009  1.00  0.00     0.200 A 
ATOM     64  F   UNL A   1      35.477  32.021  29.866  1.00  0.00    -0.200 F 
ATOM     65  F   UNL A   1      35.187  31.913  32.576  1.00  0.00    -0.200 F 
ENDBRANCH  41  55
BRANCH  42  66
ATOM     66  C   UNL A   1      47.078  27.473  26.226  1.00  0.00     0.064 A 
ATOM     67  C   UNL A   1      47.181  27.618  24.837  1.00  0.00     0.173 A 
ATOM     68  C   UNL A   1      48.164  26.894  26.902  1.00  0.00     0.173 A 
ATOM     69  F   UNL A   1      46.161  28.144  24.142  1.00  0.00    -0.203 F 
ATOM     70  C   UNL A   1      48.319  27.200  24.150  1.00  0.00     0.198 A 
ATOM     71  C   UNL A   1      49.314  26.504  26.218  1.00  0.00     0.198 A 
ATOM     72  F   UNL A   1      48.119  26.731  28.232  1.00  0.00    -0.203 F 
ATOM     73  F   UNL A   1      48.376  27.320  22.816  1.00  0.00    -0.200 F 
ATOM     74  C   UNL A   1      49.389  26.652  24.842  1.00  0.00     0.200 A 
ATOM     75  F   UNL A   1      50.351  25.990  26.894  1.00  0.00    -0.200 F 
ATOM     76  F   UNL A   1      50.488  26.263  24.182  1.00  0.00    -0.200 F 
ENDBRANCH  42  66
BRANCH  54  77
ATOM     77  C   UNL A   1      45.109  33.605  28.898  1.00  0.00     0.064 A 
ATOM     78  C   UNL A   1      44.930  34.585  27.911  1.00  0.00     0.173 A 
ATOM     79  C   UNL A   1      45.916  33.917  30.001  1.00  0.00     0.173 A 
ATOM     80  F   UNL A   1      44.183  34.324  26.828  1.00  0.00    -0.203 F 
ATOM     81  C   UNL A   1      45.550  35.826  28.018  1.00  0.00     0.198 A 
ATOM     82  C   UNL A   1      46.512  35.170  30.120  1.00  0.00     0.198 A 
ATOM     83  F   UNL A   1      46.113  33.013  30.972  1.00  0.00    -0.203 F 
ATOM     84  F   UNL A   1      45.401  36.735  27.044  1.00  0.00    -0.200 F 
ATOM     85  C   UNL A   1      46.333  36.121  29.126  1.00  0.00     0.200 A 
ATOM     86  F   UNL A   1      47.257  35.456  31.196  1.00  0.00    -0.200 F 
ATOM     87  F   UNL A   1      46.920  37.321  29.233  1.00  0.00    -0.200 F 
ENDBRANCH  54  77
ENDBRANCH  28  29
ENDBRANCH  21  23
ENDBRANCH  20  21
ENDBRANCH  19  20
ENDBRANCH  18  19
ENDBRANCH   1  18
TORSDOF 16
ENDMDL
MODEL 2
REMARK VINA RESULT:     -11.3      1.071      2.162
REMARK SMILES C[C@H](CO)CSc1cc(Cl)ccc1C(=O)OCCOC(=O)c1ccc(-c2c3nc(c(-c4c(F)c(F)c(F)c(F)c4F)c4ccc([nH]4)c(-c4c(F)c(F)c(F)c(F)c4F)c4nc(c(-c5c(F)c(F)c(F)c(F)c5F)c5ccc2[nH]5)C=C4)C=C3)cc1
REMARK SMILES IDX 16 1 14 2 15 3 13 4 7 5 8 6 9 7 12 8 10 9 11 10 6 11 5 12
REMARK SMILES IDX 2 13 1 14 3 15 4 16 17 18 18 19 19 20 20 21 21 22 22 23
REMARK SMILES IDX 23 24 84 25 24 26 83 27 25 28 26 29 27 30 77 31 28 32 82 33
REMARK SMILES IDX 76 34 78 35 29 36 81 37 75 38 74 39 30 41 62 42 42 43 61 44
REMARK SMILES IDX 43 45 46 46 60 47 79 48 44 49 45 50 59 52 80 53 47 54 31 55
REMARK SMILES IDX 32 56 40 57 33 58 34 59 38 60 41 61 35 62 36 63 39 64 37 65
REMARK SMILES IDX 63 66 64 67 72 68 65 69 66 70 70 71 73 72 67 73 68 74 71 75
REMARK SMILES IDX 69 76 48 77 49 78 57 79 50 80 51 81 55 82 58 83 52 84 53 85
REMARK SMILES IDX 56 86 54 87
REMARK H PARENT 4 17 78 40 46 51
REMARK Flexibility Score: inf
ROOT
ATOM      1  O   UNL A   1      35.697  23.169  25.715  1.00  0.00    -0.458 OA
ENDROOT
BRANCH   1   2
ATOM      2  C   UNL A   1      34.961  23.746  24.749  1.00  0.00     0.339 C 
ATOM      3  O   UNL A   1      34.941  23.417  23.572  1.00  0.00    -0.246 OA
BRANCH   2   4
ATOM      4  C   UNL A   1      33.975  24.696  25.333  1.00  0.00     0.073 A 
ATOM      5  C   UNL A   1      32.783  24.376  26.011  1.00  0.00     0.023 A 
ATOM      6  C   UNL A   1      32.007  25.444  26.524  1.00  0.00     0.036 A 
ATOM      7  C   UNL A   1      32.378  26.778  26.348  1.00  0.00     0.042 A 
ATOM      8  C   UNL A   1      34.349  26.055  25.199  1.00  0.00     0.018 A 
ATOM      9  Cl  UNL A   1      31.403  28.036  26.997  1.00  0.00    -0.084 Cl
ATOM     10  C   UNL A   1      33.550  27.090  25.681  1.00  0.00     0.021 A 
BRANCH   5  11
ATOM     11  S   UNL A   1      32.188  22.780  26.573  1.00  0.00    -0.125 SA
BRANCH  11  12
ATOM     12  C   UNL A   1      31.573  21.869  25.115  1.00  0.00     0.080 C 
BRANCH  12  13
ATOM     13  C   UNL A   1      32.494  21.042  24.197  1.00  0.00     0.022 C 
ATOM     14  C   UNL A   1      32.152  21.417  22.741  1.00  0.00     0.011 C 
BRANCH  13  15
ATOM     15  C   UNL A   1      32.501  19.519  24.360  1.00  0.00     0.160 C 
BRANCH  15  16
ATOM     16  O   UNL A   1      32.157  19.112  25.669  1.00  0.00    -0.396 OA
ATOM     17  H   UNL A   1      32.255  19.861  26.277  1.00  0.00     0.210 HD
ENDBRANCH  15  16
ENDBRANCH  13  15
ENDBRANCH  12  13
ENDBRANCH  11  12
ENDBRANCH   5  11
ENDBRANCH   2   4
ENDBRANCH   1   2
BRANCH   1  18
ATOM     18  C   UNL A   1      35.540  21.759  25.975  1.00  0.00     0.275 C 
BRANCH  18  19
ATOM     19  C   UNL A   1      36.655  20.996  25.260  1.00  0.00     0.275 C 
BRANCH  19  20
ATOM     20  O   UNL A   1      37.814  21.839  25.229  1.00  0.00    -0.458 OA
BRANCH  20  21
ATOM     21  C   UNL A   1      38.892  21.435  25.939  1.00  0.00     0.338 C 
ATOM     22  O   UNL A   1      39.345  20.314  26.067  1.00  0.00    -0.246 OA
BRANCH  21  23
ATOM     23  C   UNL A   1      39.471  22.645  26.546  1.00  0.00     0.060 A 
ATOM     24  C   UNL A   1      40.535  22.506  27.441  1.00  0.00     0.016 A 
ATOM     25  C   UNL A   1      38.983  23.905  26.213  1.00  0.00     0.016 A 
ATOM     26  C   UNL A   1      41.141  23.627  27.993  1.00  0.00     0.010 A 
ATOM     27  C   UNL A   1      39.637  25.033  26.712  1.00  0.00     0.010 A 
ATOM     28  C   UNL A   1      40.733  24.902  27.585  1.00  0.00    -0.014 A 
BRANCH  28  29
ATOM     29  C   UNL A   1      41.488  26.113  27.995  1.00  0.00     0.031 A 
ATOM     30  C   UNL A   1      40.792  27.201  28.754  1.00  0.00     0.074 A 
ATOM     31  C   UNL A   1      42.765  26.261  27.594  1.00  0.00     0.049 A 
ATOM     32  N   UNL A   1      41.160  28.439  28.954  1.00  0.00    -0.248 NA
ATOM     33  C   UNL A   1      39.493  26.852  29.348  1.00  0.00     0.031 C 
ATOM     34  C   UNL A   1      43.551  25.251  26.881  1.00  0.00     0.029 A 
ATOM     35  N   UNL A   1      43.622  27.329  27.700  1.00  0.00    -0.354 N 
ATOM     36  C   UNL A   1      40.118  29.032  29.654  1.00  0.00     0.074 A 
ATOM     37  C   UNL A   1      39.101  28.019  29.840  1.00  0.00     0.031 C 
ATOM     38  C   UNL A   1      44.769  25.745  26.614  1.00  0.00     0.029 A 
ATOM     39  C   UNL A   1      44.820  27.132  27.057  1.00  0.00     0.049 A 
ATOM     40  H   UNL A   1      43.399  28.154  28.189  1.00  0.00     0.167 HD
ATOM     41  C   UNL A   1      40.027  30.312  30.090  1.00  0.00     0.037 A 
ATOM     42  C   UNL A   1      45.823  27.992  26.798  1.00  0.00     0.037 A 
ATOM     43  C   UNL A   1      41.067  31.292  29.905  1.00  0.00     0.049 A 
ATOM     44  C   UNL A   1      45.675  29.419  27.243  1.00  0.00     0.074 A 
ATOM     45  C   UNL A   1      41.096  32.612  30.319  1.00  0.00     0.029 A 
ATOM     46  N   UNL A   1      42.267  31.052  29.249  1.00  0.00    -0.354 N 
ATOM     47  N   UNL A   1      44.680  29.986  27.883  1.00  0.00    -0.248 NA
ATOM     48  C   UNL A   1      46.778  30.332  26.916  1.00  0.00     0.031 C 
ATOM     49  C   UNL A   1      42.295  33.181  29.876  1.00  0.00     0.029 A 
ATOM     50  C   UNL A   1      43.037  32.204  29.229  1.00  0.00     0.049 A 
ATOM     51  H   UNL A   1      42.533  30.189  28.857  1.00  0.00     0.167 HD
ATOM     52  C   UNL A   1      45.039  31.314  28.049  1.00  0.00     0.074 A 
ATOM     53  C   UNL A   1      46.354  31.466  27.457  1.00  0.00     0.031 C 
ATOM     54  C   UNL A   1      44.345  32.320  28.634  1.00  0.00     0.037 A 
BRANCH  41  55
ATOM     55  C   UNL A   1      38.753  30.728  30.766  1.00  0.00     0.064 A 
ATOM     56  C   UNL A   1      37.626  31.141  30.039  1.00  0.00     0.173 A 
ATOM     57  C   UNL A   1      38.652  30.704  32.167  1.00  0.00     0.173 A 
ATOM     58  F   UNL A   1      37.671  31.195  28.700  1.00  0.00    -0.203 F 
ATOM     59  C   UNL A   1      36.460  31.545  30.687  1.00  0.00     0.198 A 
ATOM     60  C   UNL A   1      37.475  31.080  32.810  1.00  0.00     0.198 A 
ATOM     61  F   UNL A   1      39.696  30.315  32.913  1.00  0.00    -0.203 F 
ATOM     62  F   UNL A   1      35.417  31.988  29.972  1.00  0.00    -0.200 F 
ATOM     63  C   UNL A   1      36.384  31.509  32.071  1.00  0.00     0.200 A 
ATOM     64  F   UNL A   1      37.399  31.034  34.148  1.00  0.00    -0.200 F 
ATOM     65  F   UNL A   1      35.262  31.900  32.693  1.00  0.00    -0.200 F 
ENDBRANCH  41  55
BRANCH  42  66
ATOM     66  C   UNL A   1      47.023  27.529  26.053  1.00  0.00     0.064 A 
ATOM     67  C   UNL A   1      47.098  27.660  24.660  1.00  0.00     0.173 A 
ATOM     68  C   UNL A   1      48.131  26.973  26.713  1.00  0.00     0.173 A 
ATOM     69  F   UNL A   1      46.057  28.163  23.979  1.00  0.00    -0.203 F 
ATOM     70  C   UNL A   1      48.229  27.250  23.956  1.00  0.00     0.198 A 
ATOM     71  C   UNL A   1      49.273  26.593  26.012  1.00  0.00     0.198 A 
ATOM     72  F   UNL A   1      48.114  26.825  28.046  1.00  0.00    -0.203 F 
ATOM     73  F   UNL A   1      48.259  27.356  22.620  1.00  0.00    -0.200 F 
ATOM     74  C   UNL A   1      49.320  26.727  24.634  1.00  0.00     0.200 A 
ATOM     75  F   UNL A   1      50.331  26.102  26.673  1.00  0.00    -0.200 F 
ATOM     76  F   UNL A   1      50.412  26.346  23.957  1.00  0.00    -0.200 F 
ENDBRANCH  42  66
BRANCH  54  77
ATOM     77  C   UNL A   1      45.010  33.662  28.688  1.00  0.00     0.064 A 
ATOM     78  C   UNL A   1      45.852  34.022  29.750  1.00  0.00     0.173 A 
ATOM     79  C   UNL A   1      44.839  34.579  27.641  1.00  0.00     0.173 A 
ATOM     80  F   UNL A   1      46.030  33.184  30.783  1.00  0.00    -0.203 F 
ATOM     81  C   UNL A   1      46.486  35.260  29.770  1.00  0.00     0.198 A 
ATOM     82  C   UNL A   1      45.497  35.805  27.650  1.00  0.00     0.198 A 
ATOM     83  F   UNL A   1      44.046  34.278  26.601  1.00  0.00    -0.203 F 
ATOM     84  F   UNL A   1      47.254  35.601  30.814  1.00  0.00    -0.200 F 
ATOM     85  C   UNL A   1      46.315  36.147  28.716  1.00  0.00     0.200 A 
ATOM     86  F   UNL A   1      45.340  36.656  26.626  1.00  0.00    -0.200 F 
ATOM     87  F   UNL A   1      46.936  37.335  28.732  1.00  0.00    -0.200 F 
ENDBRANCH  54  77
ENDBRANCH  28  29
ENDBRANCH  21  23
ENDBRANCH  20  21
ENDBRANCH  19  20
ENDBRANCH  18  19
ENDBRANCH   1  18
TORSDOF 16
ENDMDL
MODEL 3
REMARK VINA RESULT:     -11.1      5.090     10.167
REMARK SMILES C[C@H](CO)CSc1cc(Cl)ccc1C(=O)OCCOC(=O)c1ccc(-c2c3nc(c(-c4c(F)c(F)c(F)c(F)c4F)c4ccc([nH]4)c(-c4c(F)c(F)c(F)c(F)c4F)c4nc(c(-c5c(F)c(F)c(F)c(F)c5F)c5ccc2[nH]5)C=C4)C=C3)cc1
REMARK SMILES IDX 16 1 14 2 15 3 13 4 7 5 8 6 9 7 12 8 10 9 11 10 6 11 5 12
REMARK SMILES IDX 2 13 1 14 3 15 4 16 17 18 18 19 19 20 20 21 21 22 22 23
REMARK SMILES IDX 23 24 84 25 24 26 83 27 25 28 26 29 27 30 77 31 28 32 82 33
REMARK SMILES IDX 76 34 78 35 29 36 81 37 75 38 74 39 30 41 62 42 42 43 61 44
REMARK SMILES IDX 43 45 46 46 60 47 79 48 44 49 45 50 59 52 80 53 47 54 31 55
REMARK SMILES IDX 32 56 40 57 33 58 34 59 38 60 41 61 35 62 36 63 39 64 37 65
REMARK SMILES IDX 63 66 64 67 72 68 65 69 66 70 70 71 73 72 67 73 68 74 71 75
REMARK SMILES IDX 69 76 48 77 49 78 57 79 50 80 51 81 55 82 58 83 52 84 53 85
REMARK SMILES IDX 56 86 54 87
REMARK H PARENT 4 17 78 40 46 51
REMARK Flexibility Score: inf
ROOT
ATOM      1  O   UNL A   1      33.169  29.512  25.064  1.00  0.00    -0.458 OA
ENDROOT
BRANCH   1   2
ATOM      2  C   UNL A   1      33.380  28.560  24.140  1.00  0.00     0.339 C 
ATOM      3  O   UNL A   1      34.183  28.620  23.221  1.00  0.00    -0.246 OA
BRANCH   2   4
ATOM      4  C   UNL A   1      32.681  27.299  24.513  1.00  0.00     0.073 A 
ATOM      5  C   UNL A   1      31.533  26.751  23.909  1.00  0.00     0.023 A 
ATOM      6  C   UNL A   1      31.055  25.512  24.400  1.00  0.00     0.036 A 
ATOM      7  C   UNL A   1      31.668  24.855  25.468  1.00  0.00     0.042 A 
ATOM      8  C   UNL A   1      33.307  26.595  25.570  1.00  0.00     0.018 A 
ATOM      9  Cl  UNL A   1      31.051  23.348  26.022  1.00  0.00    -0.084 Cl
ATOM     10  C   UNL A   1      32.796  25.395  26.061  1.00  0.00     0.021 A 
BRANCH   5  11
ATOM     11  S   UNL A   1      30.692  27.249  22.405  1.00  0.00    -0.125 SA
BRANCH  11  12
ATOM     12  C   UNL A   1      30.062  28.944  22.654  1.00  0.00     0.080 C 
BRANCH  12  13
ATOM     13  C   UNL A   1      28.668  29.395  22.176  1.00  0.00     0.022 C 
ATOM     14  C   UNL A   1      28.829  30.785  21.528  1.00  0.00     0.011 C 
BRANCH  13  15
ATOM     15  C   UNL A   1      27.525  29.421  23.195  1.00  0.00     0.160 C 
BRANCH  15  16
ATOM     16  O   UNL A   1      26.418  28.641  22.789  1.00  0.00    -0.396 OA
ATOM     17  H   UNL A   1      26.285  28.743  21.834  1.00  0.00     0.210 HD
ENDBRANCH  15  16
ENDBRANCH  13  15
ENDBRANCH  12  13
ENDBRANCH  11  12
ENDBRANCH   5  11
ENDBRANCH   2   4
ENDBRANCH   1   2
BRANCH   1  18
ATOM     18  C   UNL A   1      31.815  29.864  25.419  1.00  0.00     0.275 C 
BRANCH  18  19
ATOM     19  C   UNL A   1      31.850  30.942  26.502  1.00  0.00     0.275 C 
BRANCH  19  20
ATOM     20  O   UNL A   1      33.069  30.783  27.240  1.00  0.00    -0.458 OA
BRANCH  20  21
ATOM     21  C   UNL A   1      33.717  31.909  27.614  1.00  0.00     0.338 C 
ATOM     22  O   UNL A   1      33.324  33.060  27.586  1.00  0.00    -0.246 OA
BRANCH  21  23
ATOM     23  C   UNL A   1      35.038  31.490  28.109  1.00  0.00     0.060 A 
ATOM     24  C   UNL A   1      36.052  32.445  28.218  1.00  0.00     0.016 A 
ATOM     25  C   UNL A   1      35.264  30.169  28.486  1.00  0.00     0.016 A 
ATOM     26  C   UNL A   1      37.295  32.097  28.729  1.00  0.00     0.010 A 
ATOM     27  C   UNL A   1      36.488  29.835  29.066  1.00  0.00     0.010 A 
ATOM     28  C   UNL A   1      37.502  30.800  29.213  1.00  0.00    -0.014 A 
BRANCH  28  29
ATOM     29  C   UNL A   1      38.742  30.449  29.949  1.00  0.00     0.031 A 
ATOM     30  C   UNL A   1      39.713  29.479  29.350  1.00  0.00     0.074 A 
ATOM     31  C   UNL A   1      38.932  30.934  31.192  1.00  0.00     0.049 A 
ATOM     32  N   UNL A   1      40.687  28.819  29.921  1.00  0.00    -0.248 NA
ATOM     33  C   UNL A   1      39.550  29.196  27.916  1.00  0.00     0.031 C 
ATOM     34  C   UNL A   1      38.069  31.913  31.859  1.00  0.00     0.029 A 
ATOM     35  N   UNL A   1      39.893  30.650  32.130  1.00  0.00    -0.354 N 
ATOM     36  C   UNL A   1      41.220  28.005  28.931  1.00  0.00     0.074 A 
ATOM     37  C   UNL A   1      40.460  28.251  27.724  1.00  0.00     0.031 C 
ATOM     38  C   UNL A   1      38.537  32.147  33.094  1.00  0.00     0.029 A 
ATOM     39  C   UNL A   1      39.677  31.272  33.336  1.00  0.00     0.049 A 
ATOM     40  H   UNL A   1      40.661  30.059  31.955  1.00  0.00     0.167 HD
ATOM     41  C   UNL A   1      42.249  27.129  29.035  1.00  0.00     0.037 A 
ATOM     42  C   UNL A   1      40.290  31.110  34.524  1.00  0.00     0.037 A 
ATOM     43  C   UNL A   1      42.998  26.921  30.247  1.00  0.00     0.049 A 
ATOM     44  C   UNL A   1      41.392  30.093  34.628  1.00  0.00     0.074 A 
ATOM     45  C   UNL A   1      44.072  26.075  30.468  1.00  0.00     0.029 A 
ATOM     46  N   UNL A   1      42.749  27.572  31.448  1.00  0.00    -0.354 N 
ATOM     47  N   UNL A   1      41.879  29.306  33.698  1.00  0.00    -0.248 NA
ATOM     48  C   UNL A   1      42.015  29.925  35.947  1.00  0.00     0.031 C 
ATOM     49  C   UNL A   1      44.442  26.184  31.813  1.00  0.00     0.029 A 
ATOM     50  C   UNL A   1      43.634  27.134  32.420  1.00  0.00     0.049 A 
ATOM     51  H   UNL A   1      42.047  28.247  31.589  1.00  0.00     0.167 HD
ATOM     52  C   UNL A   1      42.875  28.563  34.311  1.00  0.00     0.074 A 
ATOM     53  C   UNL A   1      42.934  29.004  35.691  1.00  0.00     0.031 C 
ATOM     54  C   UNL A   1      43.668  27.597  33.784  1.00  0.00     0.037 A 
BRANCH  41  55
ATOM     55  C   UNL A   1      42.590  26.309  27.824  1.00  0.00     0.064 A 
ATOM     56  C   UNL A   1      43.579  26.706  26.911  1.00  0.00     0.173 A 
ATOM     57  C   UNL A   1      41.924  25.097  27.578  1.00  0.00     0.173 A 
ATOM     58  F   UNL A   1      44.237  27.861  27.090  1.00  0.00    -0.203 F 
ATOM     59  C   UNL A   1      43.864  25.940  25.782  1.00  0.00     0.198 A 
ATOM     60  C   UNL A   1      42.233  24.319  26.465  1.00  0.00     0.198 A 
ATOM     61  F   UNL A   1      40.973  24.665  28.419  1.00  0.00    -0.203 F 
ATOM     62  F   UNL A   1      44.772  26.369  24.895  1.00  0.00    -0.200 F 
ATOM     63  C   UNL A   1      43.194  24.746  25.562  1.00  0.00     0.200 A 
ATOM     64  F   UNL A   1      41.593  23.159  26.260  1.00  0.00    -0.200 F 
ATOM     65  F   UNL A   1      43.469  24.011  24.475  1.00  0.00    -0.200 F 
ENDBRANCH  41  55
BRANCH  42  66
ATOM     66  C   UNL A   1      39.847  31.900  35.702  1.00  0.00     0.064 A 
ATOM     67  C   UNL A   1      40.501  33.087  36.058  1.00  0.00     0.173 A 
ATOM     68  C   UNL A   1      38.747  31.506  36.481  1.00  0.00     0.173 A 
ATOM     69  F   UNL A   1      41.572  33.495  35.360  1.00  0.00    -0.203 F 
ATOM     70  C   UNL A   1      40.078  33.846  37.147  1.00  0.00     0.198 A 
ATOM     71  C   UNL A   1      38.305  32.281  37.551  1.00  0.00     0.198 A 
ATOM     72  F   UNL A   1      38.084  30.379  36.186  1.00  0.00    -0.203 F 
ATOM     73  F   UNL A   1      40.743  34.959  37.485  1.00  0.00    -0.200 F 
ATOM     74  C   UNL A   1      38.974  33.448  37.887  1.00  0.00     0.200 A 
ATOM     75  F   UNL A   1      37.229  31.901  38.253  1.00  0.00    -0.200 F 
ATOM     76  F   UNL A   1      38.559  34.186  38.925  1.00  0.00    -0.200 F 
ENDBRANCH  42  66
BRANCH  54  77
ATOM     77  C   UNL A   1      44.684  26.981  34.697  1.00  0.00     0.064 A 
ATOM     78  C   UNL A   1      44.409  25.809  35.417  1.00  0.00     0.173 A 
ATOM     79  C   UNL A   1      45.963  27.545  34.817  1.00  0.00     0.173 A 
ATOM     80  F   UNL A   1      43.194  25.246  35.349  1.00  0.00    -0.203 F 
ATOM     81  C   UNL A   1      45.373  25.233  36.238  1.00  0.00     0.198 A 
ATOM     82  C   UNL A   1      46.934  26.951  35.617  1.00  0.00     0.198 A 
ATOM     83  F   UNL A   1      46.274  28.664  34.145  1.00  0.00    -0.203 F 
ATOM     84  F   UNL A   1      45.078  24.137  36.949  1.00  0.00    -0.200 F 
ATOM     85  C   UNL A   1      46.638  25.799  36.330  1.00  0.00     0.200 A 
ATOM     86  F   UNL A   1      48.158  27.492  35.695  1.00  0.00    -0.200 F 
ATOM     87  F   UNL A   1      47.569  25.236  37.112  1.00  0.00    -0.200 F 
ENDBRANCH  54  77
ENDBRANCH  28  29
ENDBRANCH  21  23
ENDBRANCH  20  21
ENDBRANCH  19  20
ENDBRANCH  18  19
ENDBRANCH   1  18
TORSDOF 16
ENDMDL
