MODEL 1
REMARK VINA RESULT:     -10.5      0.000      0.000
REMARK SMILES C[C@@H](CNC(=O)Cc1ccc(F)cc1F)C(=O)OCCOC(=O)c1ccc(-c2c3nc(c(-c4c(F)c(F)c(F)c(F)c4F)c4ccc([nH]4)c(-c4c(F)c(F)c(F)c(F)c4F)c4nc(c(-c5c(F)c(F)c(F)c(F)c5F)c5ccc2[nH]5)C=C4)C=C3)cc1
REMARK SMILES IDX 19 1 18 2 16 3 17 4 2 5 1 6 3 7 4 8 5 9 6 11 7 12 8 13 9 14
REMARK SMILES IDX 14 15 10 16 13 17 15 18 11 19 12 20 20 21 21 22 22 23 23 24
REMARK SMILES IDX 24 25 25 26 86 27 26 28 85 29 27 30 28 31 29 32 79 33 30 34
REMARK SMILES IDX 84 35 78 36 80 37 31 38 83 39 77 40 76 41 32 43 64 44 44 45
REMARK SMILES IDX 63 46 45 47 48 48 62 49 81 50 46 51 47 52 61 54 82 55 49 56
REMARK SMILES IDX 33 57 34 58 42 59 35 60 36 61 40 62 43 63 37 64 38 65 41 66
REMARK SMILES IDX 39 67 65 68 66 69 74 70 67 71 68 72 72 73 75 74 69 75 70 76
REMARK SMILES IDX 73 77 71 78 50 79 51 80 59 81 52 82 53 83 57 84 60 85 54 86
REMARK SMILES IDX 55 87 58 88 56 89
REMARK H PARENT 4 10 80 42 48 53
REMARK Flexibility Score: inf
ROOT
ATOM      1  C   UNL A   1      33.721  34.545  28.629  1.00  0.00     0.274 C 
ENDROOT
BRANCH   1   2
ATOM      2  O   UNL A   1      33.286  34.518  30.002  1.00  0.00    -0.462 OA
BRANCH   2   3
ATOM      3  C   UNL A   1      33.237  35.717  30.635  1.00  0.00     0.310 C 
ATOM      4  O   UNL A   1      32.644  36.703  30.218  1.00  0.00    -0.252 OA
BRANCH   3   5
ATOM      5  C   UNL A   1      34.050  35.754  31.907  1.00  0.00     0.115 C 
ATOM      6  C   UNL A   1      34.013  37.107  32.610  1.00  0.00     0.022 C 
BRANCH   5   7
ATOM      7  C   UNL A   1      33.661  34.583  32.812  1.00  0.00     0.130 C 
BRANCH   7   8
ATOM      8  N   UNL A   1      34.480  34.480  34.006  1.00  0.00    -0.355 N 
ATOM      9  C   UNL A   1      35.446  33.564  34.321  1.00  0.00     0.224 C 
ATOM     10  H   UNL A   1      34.316  35.170  34.689  1.00  0.00     0.163 HD
ATOM     11  O   UNL A   1      35.902  33.587  35.466  1.00  0.00    -0.275 OA
BRANCH   9  12
ATOM     12  C   UNL A   1      35.970  32.598  33.269  1.00  0.00     0.138 C 
BRANCH  12  13
ATOM     13  C   UNL A   1      36.781  33.231  32.164  1.00  0.00    -0.003 A 
ATOM     14  C   UNL A   1      36.414  33.070  30.817  1.00  0.00     0.010 A 
ATOM     15  C   UNL A   1      37.910  34.008  32.455  1.00  0.00     0.129 A 
ATOM     16  C   UNL A   1      37.193  33.631  29.800  1.00  0.00     0.040 A 
ATOM     17  C   UNL A   1      38.683  34.579  31.449  1.00  0.00     0.078 A 
ATOM     18  F   UNL A   1      38.265  34.220  33.728  1.00  0.00    -0.207 F 
ATOM     19  C   UNL A   1      38.325  34.371  30.126  1.00  0.00     0.126 A 
ATOM     20  F   UNL A   1      39.074  34.893  29.146  1.00  0.00    -0.207 F 
ENDBRANCH  12  13
ENDBRANCH   9  12
ENDBRANCH   7   8
ENDBRANCH   5   7
ENDBRANCH   3   5
ENDBRANCH   2   3
ENDBRANCH   1   2
BRANCH   1  21
ATOM     21  C   UNL A   1      33.483  33.214  27.910  1.00  0.00     0.275 C 
BRANCH  21  22
ATOM     22  O   UNL A   1      34.675  32.407  27.842  1.00  0.00    -0.458 OA
BRANCH  22  23
ATOM     23  C   UNL A   1      34.480  31.072  27.918  1.00  0.00     0.338 C 
ATOM     24  O   UNL A   1      33.460  30.453  27.642  1.00  0.00    -0.246 OA
BRANCH  23  25
ATOM     25  C   UNL A   1      35.742  30.401  28.267  1.00  0.00     0.060 A 
ATOM     26  C   UNL A   1      35.843  29.778  29.519  1.00  0.00     0.016 A 
ATOM     27  C   UNL A   1      36.840  30.451  27.410  1.00  0.00     0.016 A 
ATOM     28  C   UNL A   1      37.045  29.203  29.922  1.00  0.00     0.010 A 
ATOM     29  C   UNL A   1      38.052  29.896  27.823  1.00  0.00     0.010 A 
ATOM     30  C   UNL A   1      38.162  29.284  29.085  1.00  0.00    -0.014 A 
BRANCH  30  31
ATOM     31  C   UNL A   1      39.486  28.830  29.561  1.00  0.00     0.031 A 
ATOM     32  C   UNL A   1      40.255  29.705  30.505  1.00  0.00     0.074 A 
ATOM     33  C   UNL A   1      39.998  27.661  29.139  1.00  0.00     0.049 A 
ATOM     34  N   UNL A   1      41.502  29.615  30.889  1.00  0.00    -0.248 NA
ATOM     35  C   UNL A   1      39.520  30.834  31.098  1.00  0.00     0.031 C 
ATOM     36  C   UNL A   1      39.306  26.692  28.289  1.00  0.00     0.029 A 
ATOM     37  N   UNL A   1      41.232  27.102  29.356  1.00  0.00    -0.354 N 
ATOM     38  C   UNL A   1      41.705  30.681  31.754  1.00  0.00     0.074 A 
ATOM     39  C   UNL A   1      40.457  31.409  31.838  1.00  0.00     0.031 C 
ATOM     40  C   UNL A   1      40.136  25.667  28.036  1.00  0.00     0.029 A 
ATOM     41  C   UNL A   1      41.431  25.935  28.659  1.00  0.00     0.049 A 
ATOM     42  H   UNL A   1      41.908  27.499  29.951  1.00  0.00     0.167 HD
ATOM     43  C   UNL A   1      42.838  31.019  32.411  1.00  0.00     0.037 A 
ATOM     44  C   UNL A   1      42.550  25.201  28.506  1.00  0.00     0.037 A 
ATOM     45  C   UNL A   1      44.075  30.292  32.315  1.00  0.00     0.049 A 
ATOM     46  C   UNL A   1      43.825  25.658  29.169  1.00  0.00     0.074 A 
ATOM     47  C   UNL A   1      45.291  30.574  32.910  1.00  0.00     0.029 A 
ATOM     48  N   UNL A   1      44.249  29.130  31.577  1.00  0.00    -0.354 N 
ATOM     49  N   UNL A   1      44.031  26.695  29.944  1.00  0.00    -0.248 NA
ATOM     50  C   UNL A   1      45.027  24.848  28.921  1.00  0.00     0.031 C 
ATOM     51  C   UNL A   1      46.211  29.601  32.506  1.00  0.00     0.029 A 
ATOM     52  C   UNL A   1      45.555  28.688  31.696  1.00  0.00     0.049 A 
ATOM     53  H   UNL A   1      43.547  28.687  31.048  1.00  0.00     0.167 HD
ATOM     54  C   UNL A   1      45.373  26.647  30.296  1.00  0.00     0.074 A 
ATOM     55  C   UNL A   1      45.930  25.472  29.663  1.00  0.00     0.031 C 
ATOM     56  C   UNL A   1      46.083  27.504  31.072  1.00  0.00     0.037 A 
BRANCH  43  57
ATOM     57  C   UNL A   1      42.807  32.242  33.277  1.00  0.00     0.064 A 
ATOM     58  C   UNL A   1      42.484  32.139  34.639  1.00  0.00     0.173 A 
ATOM     59  C   UNL A   1      43.017  33.520  32.743  1.00  0.00     0.173 A 
ATOM     60  F   UNL A   1      42.273  30.937  35.194  1.00  0.00    -0.203 F 
ATOM     61  C   UNL A   1      42.352  33.276  35.429  1.00  0.00     0.198 A 
ATOM     62  C   UNL A   1      42.907  34.655  33.543  1.00  0.00     0.198 A 
ATOM     63  F   UNL A   1      43.345  33.667  31.450  1.00  0.00    -0.203 F 
ATOM     64  F   UNL A   1      42.011  33.157  36.721  1.00  0.00    -0.200 F 
ATOM     65  C   UNL A   1      42.564  34.533  34.882  1.00  0.00     0.200 A 
ATOM     66  F   UNL A   1      43.131  35.868  33.019  1.00  0.00    -0.200 F 
ATOM     67  F   UNL A   1      42.437  35.626  35.645  1.00  0.00    -0.200 F 
ENDBRANCH  43  57
BRANCH  44  68
ATOM     68  C   UNL A   1      42.533  23.978  27.662  1.00  0.00     0.064 A 
ATOM     69  C   UNL A   1      42.876  24.023  26.303  1.00  0.00     0.173 A 
ATOM     70  C   UNL A   1      42.205  22.731  28.211  1.00  0.00     0.173 A 
ATOM     71  F   UNL A   1      43.207  25.190  25.730  1.00  0.00    -0.203 F 
ATOM     72  C   UNL A   1      42.881  22.868  25.522  1.00  0.00     0.198 A 
ATOM     73  C   UNL A   1      42.239  21.573  27.437  1.00  0.00     0.198 A 
ATOM     74  F   UNL A   1      41.898  22.632  29.513  1.00  0.00    -0.203 F 
ATOM     75  F   UNL A   1      43.196  22.942  24.221  1.00  0.00    -0.200 F 
ATOM     76  C   UNL A   1      42.571  21.644  26.092  1.00  0.00     0.200 A 
ATOM     77  F   UNL A   1      41.970  20.386  27.998  1.00  0.00    -0.200 F 
ATOM     78  F   UNL A   1      42.605  20.529  25.349  1.00  0.00    -0.200 F 
ENDBRANCH  44  68
BRANCH  56  79
ATOM     79  C   UNL A   1      47.527  27.178  31.316  1.00  0.00     0.064 A 
ATOM     80  C   UNL A   1      47.899  26.391  32.417  1.00  0.00     0.173 A 
ATOM     81  C   UNL A   1      48.545  27.691  30.499  1.00  0.00     0.173 A 
ATOM     82  F   UNL A   1      46.963  25.886  33.233  1.00  0.00    -0.203 F 
ATOM     83  C   UNL A   1      49.238  26.135  32.693  1.00  0.00     0.198 A 
ATOM     84  C   UNL A   1      49.882  27.409  30.763  1.00  0.00     0.198 A 
ATOM     85  F   UNL A   1      48.238  28.438  29.429  1.00  0.00    -0.203 F 
ATOM     86  F   UNL A   1      49.571  25.402  33.765  1.00  0.00    -0.200 F 
ATOM     87  C   UNL A   1      50.228  26.638  31.863  1.00  0.00     0.200 A 
ATOM     88  F   UNL A   1      50.837  27.875  29.946  1.00  0.00    -0.200 F 
ATOM     89  F   UNL A   1      51.517  26.377  32.122  1.00  0.00    -0.200 F 
ENDBRANCH  56  79
ENDBRANCH  30  31
ENDBRANCH  23  25
ENDBRANCH  22  23
ENDBRANCH  21  22
ENDBRANCH   1  21
TORSDOF 15
ENDMDL
MODEL 2
REMARK VINA RESULT:     -10.5      0.525      2.117
REMARK SMILES C[C@@H](CNC(=O)Cc1ccc(F)cc1F)C(=O)OCCOC(=O)c1ccc(-c2c3nc(c(-c4c(F)c(F)c(F)c(F)c4F)c4ccc([nH]4)c(-c4c(F)c(F)c(F)c(F)c4F)c4nc(c(-c5c(F)c(F)c(F)c(F)c5F)c5ccc2[nH]5)C=C4)C=C3)cc1
REMARK SMILES IDX 19 1 18 2 16 3 17 4 2 5 1 6 3 7 4 8 5 9 6 11 7 12 8 13 9 14
REMARK SMILES IDX 14 15 10 16 13 17 15 18 11 19 12 20 20 21 21 22 22 23 23 24
REMARK SMILES IDX 24 25 25 26 86 27 26 28 85 29 27 30 28 31 29 32 79 33 30 34
REMARK SMILES IDX 84 35 78 36 80 37 31 38 83 39 77 40 76 41 32 43 64 44 44 45
REMARK SMILES IDX 63 46 45 47 48 48 62 49 81 50 46 51 47 52 61 54 82 55 49 56
REMARK SMILES IDX 33 57 34 58 42 59 35 60 36 61 40 62 43 63 37 64 38 65 41 66
REMARK SMILES IDX 39 67 65 68 66 69 74 70 67 71 68 72 72 73 75 74 69 75 70 76
REMARK SMILES IDX 73 77 71 78 50 79 51 80 59 81 52 82 53 83 57 84 60 85 54 86
REMARK SMILES IDX 55 87 58 88 56 89
REMARK H PARENT 4 10 80 42 48 53
REMARK Flexibility Score: inf
ROOT
ATOM      1  C   UNL A   1      33.773  34.441  28.684  1.00  0.00     0.274 C 
ENDROOT
BRANCH   1   2
ATOM      2  O   UNL A   1      33.314  34.464  30.049  1.00  0.00    -0.462 OA
BRANCH   2   3
ATOM      3  C   UNL A   1      33.223  35.689  30.626  1.00  0.00     0.310 C 
ATOM      4  O   UNL A   1      32.601  36.635  30.162  1.00  0.00    -0.252 OA
BRANCH   3   5
ATOM      5  C   UNL A   1      34.028  35.810  31.898  1.00  0.00     0.115 C 
ATOM      6  C   UNL A   1      33.976  37.203  32.517  1.00  0.00     0.022 C 
BRANCH   5   7
ATOM      7  C   UNL A   1      33.642  34.694  32.871  1.00  0.00     0.130 C 
BRANCH   7   8
ATOM      8  N   UNL A   1      34.474  34.651  34.059  1.00  0.00    -0.355 N 
ATOM      9  C   UNL A   1      35.433  33.744  34.417  1.00  0.00     0.224 C 
ATOM     10  H   UNL A   1      34.326  35.382  34.702  1.00  0.00     0.163 HD
ATOM     11  O   UNL A   1      35.903  33.828  35.553  1.00  0.00    -0.275 OA
BRANCH   9  12
ATOM     12  C   UNL A   1      35.933  32.711  33.418  1.00  0.00     0.138 C 
BRANCH  12  13
ATOM     13  C   UNL A   1      36.761  33.264  32.283  1.00  0.00    -0.003 A 
ATOM     14  C   UNL A   1      37.906  34.040  32.537  1.00  0.00     0.010 A 
ATOM     15  C   UNL A   1      36.419  33.003  30.949  1.00  0.00     0.129 A 
ATOM     16  C   UNL A   1      38.644  34.578  31.478  1.00  0.00     0.040 A 
ATOM     17  C   UNL A   1      37.157  33.525  29.891  1.00  0.00     0.078 A 
ATOM     18  F   UNL A   1      35.362  32.231  30.670  1.00  0.00    -0.207 F 
ATOM     19  C   UNL A   1      38.257  34.323  30.166  1.00  0.00     0.126 A 
ATOM     20  F   UNL A   1      38.960  34.852  29.157  1.00  0.00    -0.207 F 
ENDBRANCH  12  13
ENDBRANCH   9  12
ENDBRANCH   7   8
ENDBRANCH   5   7
ENDBRANCH   3   5
ENDBRANCH   2   3
ENDBRANCH   1   2
BRANCH   1  21
ATOM     21  C   UNL A   1      33.490  33.105  27.991  1.00  0.00     0.275 C 
BRANCH  21  22
ATOM     22  O   UNL A   1      34.694  32.358  27.728  1.00  0.00    -0.458 OA
BRANCH  22  23
ATOM     23  C   UNL A   1      34.545  31.016  27.664  1.00  0.00     0.338 C 
ATOM     24  O   UNL A   1      33.575  30.395  27.249  1.00  0.00    -0.246 OA
BRANCH  23  25
ATOM     25  C   UNL A   1      35.800  30.354  28.053  1.00  0.00     0.060 A 
ATOM     26  C   UNL A   1      35.852  29.694  29.288  1.00  0.00     0.016 A 
ATOM     27  C   UNL A   1      36.937  30.448  27.251  1.00  0.00     0.016 A 
ATOM     28  C   UNL A   1      37.043  29.126  29.731  1.00  0.00     0.010 A 
ATOM     29  C   UNL A   1      38.137  29.898  27.705  1.00  0.00     0.010 A 
ATOM     30  C   UNL A   1      38.197  29.249  28.952  1.00  0.00    -0.014 A 
BRANCH  30  31
ATOM     31  C   UNL A   1      39.505  28.801  29.476  1.00  0.00     0.031 A 
ATOM     32  C   UNL A   1      40.239  29.684  30.440  1.00  0.00     0.074 A 
ATOM     33  C   UNL A   1      40.032  27.630  29.081  1.00  0.00     0.049 A 
ATOM     34  N   UNL A   1      41.472  29.600  30.868  1.00  0.00    -0.248 NA
ATOM     35  C   UNL A   1      39.482  30.816  30.998  1.00  0.00     0.031 C 
ATOM     36  C   UNL A   1      39.372  26.654  28.216  1.00  0.00     0.029 A 
ATOM     37  N   UNL A   1      41.258  27.074  29.345  1.00  0.00    -0.354 N 
ATOM     38  C   UNL A   1      41.644  30.672  31.731  1.00  0.00     0.074 A 
ATOM     39  C   UNL A   1      40.393  31.399  31.766  1.00  0.00     0.031 C 
ATOM     40  C   UNL A   1      40.211  25.627  27.999  1.00  0.00     0.029 A 
ATOM     41  C   UNL A   1      41.483  25.903  28.664  1.00  0.00     0.049 A 
ATOM     42  H   UNL A   1      41.913  27.476  29.960  1.00  0.00     0.167 HD
ATOM     43  C   UNL A   1      42.753  31.017  32.424  1.00  0.00     0.037 A 
ATOM     44  C   UNL A   1      42.608  25.169  28.556  1.00  0.00     0.037 A 
ATOM     45  C   UNL A   1      43.993  30.291  32.377  1.00  0.00     0.049 A 
ATOM     46  C   UNL A   1      43.858  25.633  29.259  1.00  0.00     0.074 A 
ATOM     47  C   UNL A   1      45.188  30.579  33.011  1.00  0.00     0.029 A 
ATOM     48  N   UNL A   1      44.194  29.124  31.654  1.00  0.00    -0.354 N 
ATOM     49  N   UNL A   1      44.036  26.676  30.033  1.00  0.00    -0.248 NA
ATOM     50  C   UNL A   1      45.069  24.823  29.059  1.00  0.00     0.031 C 
ATOM     51  C   UNL A   1      46.122  29.605  32.646  1.00  0.00     0.029 A 
ATOM     52  C   UNL A   1      45.496  28.685  31.821  1.00  0.00     0.049 A 
ATOM     53  H   UNL A   1      43.512  28.676  31.104  1.00  0.00     0.167 HD
ATOM     54  C   UNL A   1      45.365  26.633  30.432  1.00  0.00     0.074 A 
ATOM     55  C   UNL A   1      45.946  25.454  29.827  1.00  0.00     0.031 C 
ATOM     56  C   UNL A   1      46.047  27.497  31.225  1.00  0.00     0.037 A 
BRANCH  43  57
ATOM     57  C   UNL A   1      42.690  32.246  33.279  1.00  0.00     0.064 A 
ATOM     58  C   UNL A   1      43.002  33.503  32.739  1.00  0.00     0.173 A 
ATOM     59  C   UNL A   1      42.400  32.170  34.648  1.00  0.00     0.173 A 
ATOM     60  F   UNL A   1      43.287  33.626  31.434  1.00  0.00    -0.203 F 
ATOM     61  C   UNL A   1      43.046  34.636  33.545  1.00  0.00     0.198 A 
ATOM     62  C   UNL A   1      42.423  33.310  35.447  1.00  0.00     0.198 A 
ATOM     63  F   UNL A   1      42.079  30.992  35.206  1.00  0.00    -0.203 F 
ATOM     64  F   UNL A   1      43.379  35.822  33.014  1.00  0.00    -0.200 F 
ATOM     65  C   UNL A   1      42.757  34.539  34.898  1.00  0.00     0.200 A 
ATOM     66  F   UNL A   1      42.123  33.219  36.751  1.00  0.00    -0.200 F 
ATOM     67  F   UNL A   1      42.800  35.632  35.672  1.00  0.00    -0.200 F 
ENDBRANCH  43  57
BRANCH  44  68
ATOM     68  C   UNL A   1      42.622  23.940  27.721  1.00  0.00     0.064 A 
ATOM     69  C   UNL A   1      42.277  22.689  28.255  1.00  0.00     0.173 A 
ATOM     70  C   UNL A   1      42.951  23.999  26.360  1.00  0.00     0.173 A 
ATOM     71  F   UNL A   1      41.946  22.579  29.549  1.00  0.00    -0.203 F 
ATOM     72  C   UNL A   1      42.270  21.544  27.461  1.00  0.00     0.198 A 
ATOM     73  C   UNL A   1      42.915  22.859  25.560  1.00  0.00     0.198 A 
ATOM     74  F   UNL A   1      43.260  25.177  25.797  1.00  0.00    -0.203 F 
ATOM     75  F   UNL A   1      41.953  20.359  28.000  1.00  0.00    -0.200 F 
ATOM     76  C   UNL A   1      42.580  21.632  26.113  1.00  0.00     0.200 A 
ATOM     77  F   UNL A   1      43.184  22.953  24.251  1.00  0.00    -0.200 F 
ATOM     78  F   UNL A   1      42.544  20.535  25.342  1.00  0.00    -0.200 F 
ENDBRANCH  44  68
BRANCH  56  79
ATOM     79  C   UNL A   1      47.482  27.176  31.521  1.00  0.00     0.064 A 
ATOM     80  C   UNL A   1      48.504  27.687  30.706  1.00  0.00     0.173 A 
ATOM     81  C   UNL A   1      47.843  26.318  32.570  1.00  0.00     0.173 A 
ATOM     82  F   UNL A   1      48.209  28.503  29.684  1.00  0.00    -0.203 F 
ATOM     83  C   UNL A   1      49.835  27.345  30.928  1.00  0.00     0.198 A 
ATOM     84  C   UNL A   1      49.177  26.002  32.807  1.00  0.00     0.198 A 
ATOM     85  F   UNL A   1      46.903  25.815  33.383  1.00  0.00    -0.203 F 
ATOM     86  F   UNL A   1      50.792  27.825  30.121  1.00  0.00    -0.200 F 
ATOM     87  C   UNL A   1      50.171  26.509  31.981  1.00  0.00     0.200 A 
ATOM     88  F   UNL A   1      49.504  25.213  33.840  1.00  0.00    -0.200 F 
ATOM     89  F   UNL A   1      51.455  26.194  32.204  1.00  0.00    -0.200 F 
ENDBRANCH  56  79
ENDBRANCH  30  31
ENDBRANCH  23  25
ENDBRANCH  22  23
ENDBRANCH  21  22
ENDBRANCH   1  21
TORSDOF 15
ENDMDL
MODEL 3
REMARK VINA RESULT:     -10.3      4.139      9.737
REMARK SMILES C[C@@H](CNC(=O)Cc1ccc(F)cc1F)C(=O)OCCOC(=O)c1ccc(-c2c3nc(c(-c4c(F)c(F)c(F)c(F)c4F)c4ccc([nH]4)c(-c4c(F)c(F)c(F)c(F)c4F)c4nc(c(-c5c(F)c(F)c(F)c(F)c5F)c5ccc2[nH]5)C=C4)C=C3)cc1
REMARK SMILES IDX 19 1 18 2 16 3 17 4 2 5 1 6 3 7 4 8 5 9 6 11 7 12 8 13 9 14
REMARK SMILES IDX 14 15 10 16 13 17 15 18 11 19 12 20 20 21 21 22 22 23 23 24
REMARK SMILES IDX 24 25 25 26 86 27 26 28 85 29 27 30 28 31 29 32 79 33 30 34
REMARK SMILES IDX 84 35 78 36 80 37 31 38 83 39 77 40 76 41 32 43 64 44 44 45
REMARK SMILES IDX 63 46 45 47 48 48 62 49 81 50 46 51 47 52 61 54 82 55 49 56
REMARK SMILES IDX 33 57 34 58 42 59 35 60 36 61 40 62 43 63 37 64 38 65 41 66
REMARK SMILES IDX 39 67 65 68 66 69 74 70 67 71 68 72 72 73 75 74 69 75 70 76
REMARK SMILES IDX 73 77 71 78 50 79 51 80 59 81 52 82 53 83 57 84 60 85 54 86
REMARK SMILES IDX 55 87 58 88 56 89
REMARK H PARENT 4 10 80 42 48 53
REMARK Flexibility Score: inf
ROOT
ATOM      1  C   UNL A   1      31.365  29.172  25.357  1.00  0.00     0.274 C 
ENDROOT
BRANCH   1   2
ATOM      2  O   UNL A   1      30.696  29.383  24.099  1.00  0.00    -0.462 OA
BRANCH   2   3
ATOM      3  C   UNL A   1      30.446  28.270  23.363  1.00  0.00     0.310 C 
ATOM      4  O   UNL A   1      30.424  28.232  22.140  1.00  0.00    -0.252 OA
BRANCH   3   5
ATOM      5  C   UNL A   1      30.128  27.058  24.206  1.00  0.00     0.115 C 
ATOM      6  C   UNL A   1      28.777  26.431  23.878  1.00  0.00     0.022 C 
BRANCH   5   7
ATOM      7  C   UNL A   1      31.291  26.065  24.155  1.00  0.00     0.130 C 
BRANCH   7   8
ATOM      8  N   UNL A   1      32.067  26.147  22.930  1.00  0.00    -0.355 N 
ATOM      9  C   UNL A   1      33.014  25.290  22.440  1.00  0.00     0.224 C 
ATOM     10  H   UNL A   1      31.885  26.937  22.370  1.00  0.00     0.163 HD
ATOM     11  O   UNL A   1      33.652  25.650  21.450  1.00  0.00    -0.275 OA
BRANCH   9  12
ATOM     12  C   UNL A   1      33.218  23.920  23.071  1.00  0.00     0.138 C 
BRANCH  12  13
ATOM     13  C   UNL A   1      34.547  23.724  23.762  1.00  0.00    -0.003 A 
ATOM     14  C   UNL A   1      35.583  23.006  23.141  1.00  0.00     0.010 A 
ATOM     15  C   UNL A   1      34.785  24.268  25.031  1.00  0.00     0.129 A 
ATOM     16  C   UNL A   1      36.797  22.800  23.806  1.00  0.00     0.040 A 
ATOM     17  C   UNL A   1      35.994  24.077  25.693  1.00  0.00     0.078 A 
ATOM     18  F   UNL A   1      33.836  24.996  25.634  1.00  0.00    -0.207 F 
ATOM     19  C   UNL A   1      36.986  23.329  25.078  1.00  0.00     0.126 A 
ATOM     20  F   UNL A   1      38.145  23.116  25.714  1.00  0.00    -0.207 F 
ENDBRANCH  12  13
ENDBRANCH   9  12
ENDBRANCH   7   8
ENDBRANCH   5   7
ENDBRANCH   3   5
ENDBRANCH   2   3
ENDBRANCH   1   2
BRANCH   1  21
ATOM     21  C   UNL A   1      31.830  30.480  26.003  1.00  0.00     0.275 C 
BRANCH  21  22
ATOM     22  O   UNL A   1      33.221  30.442  26.380  1.00  0.00    -0.458 OA
BRANCH  22  23
ATOM     23  C   UNL A   1      33.619  31.408  27.237  1.00  0.00     0.338 C 
ATOM     24  O   UNL A   1      32.980  32.385  27.604  1.00  0.00    -0.246 OA
BRANCH  23  25
ATOM     25  C   UNL A   1      34.931  31.061  27.806  1.00  0.00     0.060 A 
ATOM     26  C   UNL A   1      35.151  29.742  28.225  1.00  0.00     0.016 A 
ATOM     27  C   UNL A   1      35.907  32.038  28.000  1.00  0.00     0.016 A 
ATOM     28  C   UNL A   1      36.347  29.391  28.842  1.00  0.00     0.010 A 
ATOM     29  C   UNL A   1      37.098  31.692  28.641  1.00  0.00     0.010 A 
ATOM     30  C   UNL A   1      37.315  30.373  29.077  1.00  0.00    -0.014 A 
BRANCH  30  31
ATOM     31  C   UNL A   1      38.519  30.060  29.877  1.00  0.00     0.031 A 
ATOM     32  C   UNL A   1      39.528  29.101  29.321  1.00  0.00     0.074 A 
ATOM     33  C   UNL A   1      38.694  30.612  31.089  1.00  0.00     0.049 A 
ATOM     34  N   UNL A   1      40.541  28.525  29.916  1.00  0.00    -0.248 NA
ATOM     35  C   UNL A   1      39.378  28.741  27.901  1.00  0.00     0.031 C 
ATOM     36  C   UNL A   1      37.823  31.619  31.693  1.00  0.00     0.029 A 
ATOM     37  N   UNL A   1      39.659  30.386  32.037  1.00  0.00    -0.354 N 
ATOM     38  C   UNL A   1      41.138  27.726  28.951  1.00  0.00     0.074 A 
ATOM     39  C   UNL A   1      40.374  27.884  27.732  1.00  0.00     0.031 C 
ATOM     40  C   UNL A   1      38.280  31.907  32.923  1.00  0.00     0.029 A 
ATOM     41  C   UNL A   1      39.439  31.065  33.211  1.00  0.00     0.049 A 
ATOM     42  H   UNL A   1      40.431  29.794  31.891  1.00  0.00     0.167 HD
ATOM     43  C   UNL A   1      42.222  26.929  29.081  1.00  0.00     0.037 A 
ATOM     44  C   UNL A   1      40.077  30.974  34.394  1.00  0.00     0.037 A 
ATOM     45  C   UNL A   1      42.969  26.774  30.301  1.00  0.00     0.049 A 
ATOM     46  C   UNL A   1      41.220  30.001  34.539  1.00  0.00     0.074 A 
ATOM     47  C   UNL A   1      44.061  25.962  30.548  1.00  0.00     0.029 A 
ATOM     48  N   UNL A   1      42.701  27.456  31.479  1.00  0.00    -0.354 N 
ATOM     49  N   UNL A   1      41.751  29.206  33.643  1.00  0.00    -0.248 NA
ATOM     50  C   UNL A   1      41.841  29.904  35.868  1.00  0.00     0.031 C 
ATOM     51  C   UNL A   1      44.433  26.127  31.886  1.00  0.00     0.029 A 
ATOM     52  C   UNL A   1      43.603  27.076  32.459  1.00  0.00     0.049 A 
ATOM     53  H   UNL A   1      41.978  28.113  31.600  1.00  0.00     0.167 HD
ATOM     54  C   UNL A   1      42.781  28.536  34.289  1.00  0.00     0.074 A 
ATOM     55  C   UNL A   1      42.811  29.028  35.649  1.00  0.00     0.031 C 
ATOM     56  C   UNL A   1      43.626  27.594  33.801  1.00  0.00     0.037 A 
BRANCH  43  57
ATOM     57  C   UNL A   1      42.660  26.140  27.885  1.00  0.00     0.064 A 
ATOM     58  C   UNL A   1      43.619  26.661  27.004  1.00  0.00     0.173 A 
ATOM     59  C   UNL A   1      42.072  24.908  27.567  1.00  0.00     0.173 A 
ATOM     60  F   UNL A   1      44.209  27.837  27.265  1.00  0.00    -0.203 F 
ATOM     61  C   UNL A   1      43.959  25.985  25.836  1.00  0.00     0.198 A 
ATOM     62  C   UNL A   1      42.432  24.223  26.410  1.00  0.00     0.198 A 
ATOM     63  F   UNL A   1      41.162  24.362  28.388  1.00  0.00    -0.203 F 
ATOM     64  F   UNL A   1      44.855  26.517  24.992  1.00  0.00    -0.200 F 
ATOM     65  C   UNL A   1      43.366  24.767  25.540  1.00  0.00     0.200 A 
ATOM     66  F   UNL A   1      41.872  23.037  26.133  1.00  0.00    -0.200 F 
ATOM     67  F   UNL A   1      43.694  24.118  24.415  1.00  0.00    -0.200 F 
ENDBRANCH  43  57
BRANCH  44  68
ATOM     68  C   UNL A   1      39.631  31.794  35.550  1.00  0.00     0.064 A 
ATOM     69  C   UNL A   1      40.188  33.055  35.810  1.00  0.00     0.173 A 
ATOM     70  C   UNL A   1      38.611  31.344  36.400  1.00  0.00     0.173 A 
ATOM     71  F   UNL A   1      41.161  33.536  35.022  1.00  0.00    -0.203 F 
ATOM     72  C   UNL A   1      39.749  33.830  36.882  1.00  0.00     0.198 A 
ATOM     73  C   UNL A   1      38.153  32.132  37.454  1.00  0.00     0.198 A 
ATOM     74  F   UNL A   1      38.027  30.158  36.175  1.00  0.00    -0.203 F 
ATOM     75  F   UNL A   1      40.311  35.023  37.119  1.00  0.00    -0.200 F 
ATOM     76  C   UNL A   1      38.726  33.371  37.697  1.00  0.00     0.200 A 
ATOM     77  F   UNL A   1      37.142  31.699  38.220  1.00  0.00    -0.200 F 
ATOM     78  F   UNL A   1      38.284  34.129  38.710  1.00  0.00    -0.200 F 
ENDBRANCH  44  68
BRANCH  56  79
ATOM     79  C   UNL A   1      44.680  27.066  34.728  1.00  0.00     0.064 A 
ATOM     80  C   UNL A   1      44.434  25.918  35.499  1.00  0.00     0.173 A 
ATOM     81  C   UNL A   1      45.907  27.723  34.898  1.00  0.00     0.173 A 
ATOM     82  F   UNL A   1      43.272  25.261  35.380  1.00  0.00    -0.203 F 
ATOM     83  C   UNL A   1      45.377  25.454  36.411  1.00  0.00     0.198 A 
ATOM     84  C   UNL A   1      46.859  27.239  35.791  1.00  0.00     0.198 A 
ATOM     85  F   UNL A   1      46.193  28.815  34.175  1.00  0.00    -0.203 F 
ATOM     86  F   UNL A   1      45.109  24.372  37.156  1.00  0.00    -0.200 F 
ATOM     87  C   UNL A   1      46.590  26.110  36.552  1.00  0.00     0.200 A 
ATOM     88  F   UNL A   1      48.041  27.859  35.908  1.00  0.00    -0.200 F 
ATOM     89  F   UNL A   1      47.503  25.652  37.419  1.00  0.00    -0.200 F 
ENDBRANCH  56  79
ENDBRANCH  30  31
ENDBRANCH  23  25
ENDBRANCH  22  23
ENDBRANCH  21  22
ENDBRANCH   1  21
TORSDOF 15
ENDMDL
