MODEL 1
REMARK VINA RESULT:     -13.9      0.000      0.000
REMARK SMILES Cc1cc2nc(NC(=O)[C@H]3[C@@H](C(=O)OCCOC(=O)c4ccc(-c5c6nc(c(-c7c(F)c(F)c(F)c(F)c7F)c7ccc([nH]7)c(-c7c(F)c(F)c(F)c(F)c7F)c7nc(c(-c8c(F)c(F)c(F)c(F)c8F)c8ccc5[nH]8)C=C7)C=C6)cc4)[C@@H]4C=C[C@H]3C4)sc2cc1C
REMARK SMILES IDX 15 1 14 2 12 3 13 4 11 5 10 6 86 7 83 8 85 9 87 10 84 11
REMARK SMILES IDX 8 12 7 13 9 15 6 16 1 17 2 18 3 19 91 20 4 21 90 22 92 23
REMARK SMILES IDX 5 24 89 25 88 26 16 27 17 28 18 29 19 30 20 31 21 32 82 33
REMARK SMILES IDX 22 34 81 35 23 36 24 37 25 38 75 39 26 40 80 41 74 42 76 43
REMARK SMILES IDX 27 44 79 45 73 46 72 47 28 49 60 50 40 51 59 52 41 53 44 54
REMARK SMILES IDX 58 55 77 56 42 57 43 58 57 60 78 61 45 62 29 63 30 64 38 65
REMARK SMILES IDX 31 66 32 67 36 68 39 69 33 70 34 71 37 72 35 73 61 74 62 75
REMARK SMILES IDX 70 76 63 77 64 78 68 79 71 80 65 81 66 82 69 83 67 84 46 85
REMARK SMILES IDX 47 86 55 87 48 88 49 89 53 90 56 91 50 92 51 93 54 94 52 95
REMARK H PARENT 7 14 76 48 44 59
REMARK Flexibility Score: inf
ROOT
ATOM      1  C   UNL A   1      34.177  29.185  26.551  1.00  0.00     0.274 C 
ENDROOT
BRANCH   1   2
ATOM      2  O   UNL A   1      33.461  27.937  26.409  1.00  0.00    -0.462 OA
BRANCH   2   3
ATOM      3  C   UNL A   1      32.383  28.145  25.628  1.00  0.00     0.310 C 
ATOM      4  O   UNL A   1      31.578  29.015  25.912  1.00  0.00    -0.252 OA
BRANCH   3   5
ATOM      5  C   UNL A   1      32.361  27.414  24.309  1.00  0.00     0.119 C 
ATOM      6  C   UNL A   1      31.596  26.050  24.436  1.00  0.00     0.100 C 
ATOM      7  C   UNL A   1      32.481  25.108  23.610  1.00  0.00     0.025 C 
ATOM      8  C   UNL A   1      33.667  27.010  23.586  1.00  0.00     0.027 C 
ATOM      9  C   UNL A   1      32.537  25.590  22.166  1.00  0.00    -0.027 C 
ATOM     10  C   UNL A   1      33.872  25.572  24.051  1.00  0.00     0.017 C 
ATOM     11  C   UNL A   1      33.281  26.705  22.147  1.00  0.00    -0.027 C 
BRANCH   6  12
ATOM     12  C   UNL A   1      31.111  25.768  25.889  1.00  0.00     0.230 C 
ATOM     13  N   UNL A   1      31.747  25.111  26.884  1.00  0.00    -0.302 N 
ATOM     14  H   UNL A   1      31.898  25.554  27.750  1.00  0.00     0.172 HD
ATOM     15  O   UNL A   1      30.059  26.272  26.307  1.00  0.00    -0.274 OA
BRANCH  13  16
ATOM     16  C   UNL A   1      32.175  23.848  26.687  1.00  0.00     0.190 A 
ATOM     17  C   UNL A   1      36.198  19.868  24.999  1.00  0.00     0.044 C 
ATOM     18  C   UNL A   1      34.838  20.482  25.156  1.00  0.00    -0.046 A 
ATOM     19  C   UNL A   1      34.788  21.722  25.782  1.00  0.00     0.033 A 
ATOM     20  C   UNL A   1      33.638  19.886  24.721  1.00  0.00    -0.047 A 
ATOM     21  C   UNL A   1      33.552  22.303  26.061  1.00  0.00     0.084 A 
ATOM     22  C   UNL A   1      32.385  20.498  24.967  1.00  0.00     0.025 A 
ATOM     23  C   UNL A   1      33.611  18.597  23.956  1.00  0.00     0.044 C 
ATOM     24  N   UNL A   1      33.414  23.495  26.677  1.00  0.00    -0.220 NA
ATOM     25  C   UNL A   1      32.364  21.702  25.664  1.00  0.00     0.057 A 
ATOM     26  S   UNL A   1      31.041  22.714  26.141  1.00  0.00    -0.097 S 
ENDBRANCH  13  16
ENDBRANCH   6  12
ENDBRANCH   3   5
ENDBRANCH   2   3
ENDBRANCH   1   2
BRANCH   1  27
ATOM     27  C   UNL A   1      35.064  29.163  27.824  1.00  0.00     0.275 C 
BRANCH  27  28
ATOM     28  O   UNL A   1      36.505  29.205  27.549  1.00  0.00    -0.458 OA
BRANCH  28  29
ATOM     29  C   UNL A   1      37.363  29.231  28.609  1.00  0.00     0.338 C 
ATOM     30  O   UNL A   1      37.024  29.021  29.778  1.00  0.00    -0.246 OA
BRANCH  29  31
ATOM     31  C   UNL A   1      38.816  29.217  28.197  1.00  0.00     0.060 A 
ATOM     32  C   UNL A   1      39.283  29.434  26.903  1.00  0.00     0.016 A 
ATOM     33  C   UNL A   1      39.749  28.765  29.138  1.00  0.00     0.016 A 
ATOM     34  C   UNL A   1      40.539  28.892  26.504  1.00  0.00     0.010 A 
ATOM     35  C   UNL A   1      40.986  28.230  28.731  1.00  0.00     0.010 A 
ATOM     36  C   UNL A   1      41.314  28.083  27.372  1.00  0.00    -0.014 A 
BRANCH  36  37
ATOM     37  C   UNL A   1      42.622  27.379  26.959  1.00  0.00     0.031 A 
ATOM     38  C   UNL A   1      42.217  25.970  26.945  1.00  0.00     0.074 A 
ATOM     39  C   UNL A   1      43.947  27.682  26.652  1.00  0.00     0.049 A 
ATOM     40  N   UNL A   1      42.225  25.244  28.013  1.00  0.00    -0.248 NA
ATOM     41  C   UNL A   1      41.385  25.432  25.861  1.00  0.00     0.031 C 
ATOM     42  C   UNL A   1      44.644  28.963  26.640  1.00  0.00     0.029 A 
ATOM     43  N   UNL A   1      45.052  26.858  26.286  1.00  0.00    -0.354 N 
ATOM     44  C   UNL A   1      41.749  24.026  27.587  1.00  0.00     0.074 A 
ATOM     45  C   UNL A   1      40.940  24.309  26.437  1.00  0.00     0.031 C 
ATOM     46  C   UNL A   1      45.839  28.943  26.006  1.00  0.00     0.029 A 
ATOM     47  C   UNL A   1      46.171  27.571  25.707  1.00  0.00     0.049 A 
ATOM     48  H   UNL A   1      45.052  25.881  26.416  1.00  0.00     0.167 HD
ATOM     49  C   UNL A   1      42.511  22.940  27.880  1.00  0.00     0.037 A 
ATOM     50  C   UNL A   1      47.469  27.201  25.410  1.00  0.00     0.037 A 
ATOM     51  C   UNL A   1      43.450  23.266  28.938  1.00  0.00     0.049 A 
ATOM     52  C   UNL A   1      47.761  26.004  26.203  1.00  0.00     0.074 A 
ATOM     53  C   UNL A   1      43.364  23.612  30.273  1.00  0.00     0.029 A 
ATOM     54  N   UNL A   1      44.613  23.820  28.469  1.00  0.00    -0.354 N 
ATOM     55  N   UNL A   1      47.979  26.043  27.485  1.00  0.00    -0.248 NA
ATOM     56  C   UNL A   1      47.314  24.742  25.646  1.00  0.00     0.031 C 
ATOM     57  C   UNL A   1      44.514  24.401  30.572  1.00  0.00     0.029 A 
ATOM     58  C   UNL A   1      45.338  24.425  29.453  1.00  0.00     0.049 A 
ATOM     59  H   UNL A   1      44.894  23.784  27.525  1.00  0.00     0.167 HD
ATOM     60  C   UNL A   1      47.205  25.002  27.948  1.00  0.00     0.074 A 
ATOM     61  C   UNL A   1      46.917  24.165  26.780  1.00  0.00     0.031 C 
ATOM     62  C   UNL A   1      46.561  25.117  29.142  1.00  0.00     0.037 A 
BRANCH  49  63
ATOM     63  C   UNL A   1      42.804  21.847  26.879  1.00  0.00     0.064 A 
ATOM     64  C   UNL A   1      42.300  20.559  27.130  1.00  0.00     0.173 A 
ATOM     65  C   UNL A   1      43.754  21.926  25.831  1.00  0.00     0.173 A 
ATOM     66  F   UNL A   1      41.448  20.349  28.144  1.00  0.00    -0.203 F 
ATOM     67  C   UNL A   1      42.714  19.448  26.390  1.00  0.00     0.198 A 
ATOM     68  C   UNL A   1      44.122  20.828  25.062  1.00  0.00     0.198 A 
ATOM     69  F   UNL A   1      44.458  23.028  25.566  1.00  0.00    -0.203 F 
ATOM     70  F   UNL A   1      42.271  18.228  26.722  1.00  0.00    -0.200 F 
ATOM     71  C   UNL A   1      43.614  19.585  25.350  1.00  0.00     0.200 A 
ATOM     72  F   UNL A   1      45.031  20.985  24.088  1.00  0.00    -0.200 F 
ATOM     73  F   UNL A   1      44.030  18.518  24.656  1.00  0.00    -0.200 F 
ENDBRANCH  49  63
BRANCH  50  74
ATOM     74  C   UNL A   1      48.418  27.607  24.308  1.00  0.00     0.064 A 
ATOM     75  C   UNL A   1      49.831  27.471  24.420  1.00  0.00     0.173 A 
ATOM     76  C   UNL A   1      47.946  27.825  23.007  1.00  0.00     0.173 A 
ATOM     77  F   UNL A   1      50.408  27.279  25.616  1.00  0.00    -0.203 F 
ATOM     78  C   UNL A   1      50.679  27.450  23.296  1.00  0.00     0.198 A 
ATOM     79  C   UNL A   1      48.791  27.793  21.887  1.00  0.00     0.198 A 
ATOM     80  F   UNL A   1      46.636  27.987  22.785  1.00  0.00    -0.203 F 
ATOM     81  F   UNL A   1      51.997  27.239  23.441  1.00  0.00    -0.200 F 
ATOM     82  C   UNL A   1      50.151  27.578  22.026  1.00  0.00     0.200 A 
ATOM     83  F   UNL A   1      48.266  27.911  20.660  1.00  0.00    -0.200 F 
ATOM     84  F   UNL A   1      50.934  27.465  20.944  1.00  0.00    -0.200 F 
ENDBRANCH  50  74
BRANCH  62  85
ATOM     85  C   UNL A   1      47.094  26.072  30.163  1.00  0.00     0.064 A 
ATOM     86  C   UNL A   1      48.318  25.935  30.834  1.00  0.00     0.173 A 
ATOM     87  C   UNL A   1      46.389  27.272  30.326  1.00  0.00     0.173 A 
ATOM     88  F   UNL A   1      49.065  24.831  30.690  1.00  0.00    -0.203 F 
ATOM     89  C   UNL A   1      48.819  26.974  31.624  1.00  0.00     0.198 A 
ATOM     90  C   UNL A   1      46.902  28.314  31.087  1.00  0.00     0.198 A 
ATOM     91  F   UNL A   1      45.227  27.456  29.681  1.00  0.00    -0.203 F 
ATOM     92  F   UNL A   1      50.001  26.842  32.243  1.00  0.00    -0.200 F 
ATOM     93  C   UNL A   1      48.116  28.167  31.736  1.00  0.00     0.200 A 
ATOM     94  F   UNL A   1      46.239  29.477  31.153  1.00  0.00    -0.200 F 
ATOM     95  F   UNL A   1      48.622  29.185  32.447  1.00  0.00    -0.200 F 
ENDBRANCH  62  85
ENDBRANCH  36  37
ENDBRANCH  29  31
ENDBRANCH  28  29
ENDBRANCH  27  28
ENDBRANCH   1  27
TORSDOF 13
ENDMDL
MODEL 2
REMARK VINA RESULT:     -13.7      3.131      6.171
REMARK SMILES Cc1cc2nc(NC(=O)[C@H]3[C@@H](C(=O)OCCOC(=O)c4ccc(-c5c6nc(c(-c7c(F)c(F)c(F)c(F)c7F)c7ccc([nH]7)c(-c7c(F)c(F)c(F)c(F)c7F)c7nc(c(-c8c(F)c(F)c(F)c(F)c8F)c8ccc5[nH]8)C=C7)C=C6)cc4)[C@@H]4C=C[C@H]3C4)sc2cc1C
REMARK SMILES IDX 15 1 14 2 12 3 13 4 11 5 10 6 86 7 83 8 85 9 87 10 84 11
REMARK SMILES IDX 8 12 7 13 9 15 6 16 1 17 2 18 3 19 91 20 4 21 90 22 92 23
REMARK SMILES IDX 5 24 89 25 88 26 16 27 17 28 18 29 19 30 20 31 21 32 82 33
REMARK SMILES IDX 22 34 81 35 23 36 24 37 25 38 75 39 26 40 80 41 74 42 76 43
REMARK SMILES IDX 27 44 79 45 73 46 72 47 28 49 60 50 40 51 59 52 41 53 44 54
REMARK SMILES IDX 58 55 77 56 42 57 43 58 57 60 78 61 45 62 29 63 30 64 38 65
REMARK SMILES IDX 31 66 32 67 36 68 39 69 33 70 34 71 37 72 35 73 61 74 62 75
REMARK SMILES IDX 70 76 63 77 64 78 68 79 71 80 65 81 66 82 69 83 67 84 46 85
REMARK SMILES IDX 47 86 55 87 48 88 49 89 53 90 56 91 50 92 51 93 54 94 52 95
REMARK H PARENT 7 14 76 48 44 59
REMARK Flexibility Score: inf
ROOT
ATOM      1  C   UNL A   1      31.942  29.375  27.174  1.00  0.00     0.274 C 
ENDROOT
BRANCH   1   2
ATOM      2  O   UNL A   1      31.581  28.751  25.921  1.00  0.00    -0.462 OA
BRANCH   2   3
ATOM      3  C   UNL A   1      32.479  27.785  25.645  1.00  0.00     0.310 C 
ATOM      4  O   UNL A   1      33.218  27.368  26.520  1.00  0.00    -0.252 OA
BRANCH   3   5
ATOM      5  C   UNL A   1      32.357  27.122  24.296  1.00  0.00     0.119 C 
ATOM      6  C   UNL A   1      31.465  25.834  24.384  1.00  0.00     0.100 C 
ATOM      7  C   UNL A   1      32.236  24.850  23.494  1.00  0.00     0.025 C 
ATOM      8  C   UNL A   1      33.601  26.628  23.522  1.00  0.00     0.027 C 
ATOM      9  C   UNL A   1      32.307  25.391  22.072  1.00  0.00    -0.027 C 
ATOM     10  C   UNL A   1      33.675  25.157  23.918  1.00  0.00     0.017 C 
ATOM     11  C   UNL A   1      33.156  26.429  22.082  1.00  0.00    -0.027 C 
BRANCH   6  12
ATOM     12  C   UNL A   1      30.988  25.533  25.835  1.00  0.00     0.230 C 
ATOM     13  N   UNL A   1      31.640  24.887  26.827  1.00  0.00    -0.302 N 
ATOM     14  H   UNL A   1      31.780  25.329  27.695  1.00  0.00     0.172 HD
ATOM     15  O   UNL A   1      29.923  26.008  26.255  1.00  0.00    -0.274 OA
BRANCH  13  16
ATOM     16  C   UNL A   1      32.100  23.636  26.624  1.00  0.00     0.190 A 
ATOM     17  C   UNL A   1      36.217  19.767  24.906  1.00  0.00     0.044 C 
ATOM     18  C   UNL A   1      34.842  20.345  25.071  1.00  0.00    -0.046 A 
ATOM     19  C   UNL A   1      34.763  21.582  25.701  1.00  0.00     0.033 A 
ATOM     20  C   UNL A   1      33.657  19.720  24.638  1.00  0.00    -0.047 A 
ATOM     21  C   UNL A   1      33.513  22.129  25.987  1.00  0.00     0.084 A 
ATOM     22  C   UNL A   1      32.389  20.298  24.892  1.00  0.00     0.025 A 
ATOM     23  C   UNL A   1      33.660  18.433  23.869  1.00  0.00     0.044 C 
ATOM     24  N   UNL A   1      33.348  23.315  26.608  1.00  0.00    -0.220 NA
ATOM     25  C   UNL A   1      32.340  21.499  25.593  1.00  0.00     0.057 A 
ATOM     26  S   UNL A   1      30.993  22.475  26.079  1.00  0.00    -0.097 S 
ENDBRANCH  13  16
ENDBRANCH   6  12
ENDBRANCH   3   5
ENDBRANCH   2   3
ENDBRANCH   1   2
BRANCH   1  27
ATOM     27  C   UNL A   1      32.671  30.721  26.923  1.00  0.00     0.275 C 
BRANCH  27  28
ATOM     28  O   UNL A   1      34.135  30.624  26.959  1.00  0.00    -0.458 OA
BRANCH  28  29
ATOM     29  C   UNL A   1      34.825  31.550  27.683  1.00  0.00     0.338 C 
ATOM     30  O   UNL A   1      34.396  32.678  27.952  1.00  0.00    -0.246 OA
BRANCH  29  31
ATOM     31  C   UNL A   1      36.019  30.971  28.405  1.00  0.00     0.060 A 
ATOM     32  C   UNL A   1      37.072  31.715  28.934  1.00  0.00     0.016 A 
ATOM     33  C   UNL A   1      36.180  29.581  28.373  1.00  0.00     0.016 A 
ATOM     34  C   UNL A   1      38.351  31.111  29.098  1.00  0.00     0.010 A 
ATOM     35  C   UNL A   1      37.451  28.997  28.536  1.00  0.00     0.010 A 
ATOM     36  C   UNL A   1      38.608  29.779  28.687  1.00  0.00    -0.014 A 
BRANCH  36  37
ATOM     37  C   UNL A   1      39.998  29.112  28.737  1.00  0.00     0.031 A 
ATOM     38  C   UNL A   1      40.253  29.050  30.180  1.00  0.00     0.074 A 
ATOM     39  C   UNL A   1      40.980  28.626  27.878  1.00  0.00     0.049 A 
ATOM     40  N   UNL A   1      40.764  30.044  30.828  1.00  0.00    -0.248 NA
ATOM     41  C   UNL A   1      39.563  28.071  31.030  1.00  0.00     0.031 C 
ATOM     42  C   UNL A   1      41.034  28.606  26.420  1.00  0.00     0.029 A 
ATOM     43  N   UNL A   1      42.251  28.027  28.126  1.00  0.00    -0.354 N 
ATOM     44  C   UNL A   1      40.802  29.603  32.130  1.00  0.00     0.074 A 
ATOM     45  C   UNL A   1      39.762  28.620  32.234  1.00  0.00     0.031 C 
ATOM     46  C   UNL A   1      41.986  27.792  25.907  1.00  0.00     0.029 A 
ATOM     47  C   UNL A   1      42.825  27.338  26.989  1.00  0.00     0.049 A 
ATOM     48  H   UNL A   1      42.700  28.078  29.001  1.00  0.00     0.167 HD
ATOM     49  C   UNL A   1      41.999  29.687  32.766  1.00  0.00     0.037 A 
ATOM     50  C   UNL A   1      44.080  26.814  26.745  1.00  0.00     0.037 A 
ATOM     51  C   UNL A   1      42.871  30.606  32.058  1.00  0.00     0.049 A 
ATOM     52  C   UNL A   1      45.000  27.454  27.689  1.00  0.00     0.074 A 
ATOM     53  C   UNL A   1      42.879  31.962  31.788  1.00  0.00     0.029 A 
ATOM     54  N   UNL A   1      43.573  30.006  31.045  1.00  0.00    -0.354 N 
ATOM     55  N   UNL A   1      45.399  28.685  27.558  1.00  0.00    -0.248 NA
ATOM     56  C   UNL A   1      45.058  26.876  29.017  1.00  0.00     0.031 C 
ATOM     57  C   UNL A   1      43.601  32.137  30.571  1.00  0.00     0.029 A 
ATOM     58  C   UNL A   1      44.121  30.909  30.182  1.00  0.00     0.049 A 
ATOM     59  H   UNL A   1      43.671  29.030  30.952  1.00  0.00     0.167 HD
ATOM     60  C   UNL A   1      45.253  29.180  28.835  1.00  0.00     0.074 A 
ATOM     61  C   UNL A   1      45.159  28.009  29.712  1.00  0.00     0.031 C 
ATOM     62  C   UNL A   1      44.844  30.465  29.019  1.00  0.00     0.037 A 
BRANCH  49  63
ATOM     63  C   UNL A   1      42.560  28.569  33.614  1.00  0.00     0.064 A 
ATOM     64  C   UNL A   1      42.877  28.843  34.956  1.00  0.00     0.173 A 
ATOM     65  C   UNL A   1      43.038  27.328  33.127  1.00  0.00     0.173 A 
ATOM     66  F   UNL A   1      42.538  30.019  35.506  1.00  0.00    -0.203 F 
ATOM     67  C   UNL A   1      43.610  27.948  35.739  1.00  0.00     0.198 A 
ATOM     68  C   UNL A   1      43.719  26.416  33.925  1.00  0.00     0.198 A 
ATOM     69  F   UNL A   1      42.977  26.976  31.840  1.00  0.00    -0.203 F 
ATOM     70  F   UNL A   1      43.962  28.291  36.985  1.00  0.00    -0.200 F 
ATOM     71  C   UNL A   1      44.019  26.730  35.227  1.00  0.00     0.200 A 
ATOM     72  F   UNL A   1      44.142  25.262  33.386  1.00  0.00    -0.200 F 
ATOM     73  F   UNL A   1      44.742  25.882  35.969  1.00  0.00    -0.200 F 
ENDBRANCH  49  63
BRANCH  50  74
ATOM     74  C   UNL A   1      44.547  25.611  25.958  1.00  0.00     0.064 A 
ATOM     75  C   UNL A   1      45.722  25.626  25.154  1.00  0.00     0.173 A 
ATOM     76  C   UNL A   1      44.039  24.336  26.240  1.00  0.00     0.173 A 
ATOM     77  F   UNL A   1      46.294  26.787  24.800  1.00  0.00    -0.203 F 
ATOM     78  C   UNL A   1      46.383  24.447  24.761  1.00  0.00     0.198 A 
ATOM     79  C   UNL A   1      44.705  23.162  25.856  1.00  0.00     0.198 A 
ATOM     80  F   UNL A   1      42.926  24.202  26.971  1.00  0.00    -0.203 F 
ATOM     81  F   UNL A   1      47.533  24.509  24.071  1.00  0.00    -0.200 F 
ATOM     82  C   UNL A   1      45.889  23.215  25.143  1.00  0.00     0.200 A 
ATOM     83  F   UNL A   1      44.220  21.973  26.239  1.00  0.00    -0.200 F 
ATOM     84  F   UNL A   1      46.560  22.090  24.857  1.00  0.00    -0.200 F 
ENDBRANCH  50  74
BRANCH  62  85
ATOM     85  C   UNL A   1      45.076  31.462  27.928  1.00  0.00     0.064 A 
ATOM     86  C   UNL A   1      44.207  31.697  26.852  1.00  0.00     0.173 A 
ATOM     87  C   UNL A   1      46.159  32.334  28.096  1.00  0.00     0.173 A 
ATOM     88  F   UNL A   1      43.127  30.928  26.656  1.00  0.00    -0.203 F 
ATOM     89  C   UNL A   1      44.413  32.780  25.993  1.00  0.00     0.198 A 
ATOM     90  C   UNL A   1      46.345  33.427  27.259  1.00  0.00     0.198 A 
ATOM     91  F   UNL A   1      47.001  32.163  29.127  1.00  0.00    -0.203 F 
ATOM     92  F   UNL A   1      43.562  33.010  24.981  1.00  0.00    -0.200 F 
ATOM     93  C   UNL A   1      45.473  33.651  26.208  1.00  0.00     0.200 A 
ATOM     94  F   UNL A   1      47.344  34.286  27.501  1.00  0.00    -0.200 F 
ATOM     95  F   UNL A   1      45.639  34.722  25.418  1.00  0.00    -0.200 F 
ENDBRANCH  62  85
ENDBRANCH  36  37
ENDBRANCH  29  31
ENDBRANCH  28  29
ENDBRANCH  27  28
ENDBRANCH   1  27
TORSDOF 13
ENDMDL
MODEL 3
REMARK VINA RESULT:     -13.3      4.731      9.421
REMARK SMILES Cc1cc2nc(NC(=O)[C@H]3[C@@H](C(=O)OCCOC(=O)c4ccc(-c5c6nc(c(-c7c(F)c(F)c(F)c(F)c7F)c7ccc([nH]7)c(-c7c(F)c(F)c(F)c(F)c7F)c7nc(c(-c8c(F)c(F)c(F)c(F)c8F)c8ccc5[nH]8)C=C7)C=C6)cc4)[C@@H]4C=C[C@H]3C4)sc2cc1C
REMARK SMILES IDX 15 1 14 2 12 3 13 4 11 5 10 6 86 7 83 8 85 9 87 10 84 11
REMARK SMILES IDX 8 12 7 13 9 15 6 16 1 17 2 18 3 19 91 20 4 21 90 22 92 23
REMARK SMILES IDX 5 24 89 25 88 26 16 27 17 28 18 29 19 30 20 31 21 32 82 33
REMARK SMILES IDX 22 34 81 35 23 36 24 37 25 38 75 39 26 40 80 41 74 42 76 43
REMARK SMILES IDX 27 44 79 45 73 46 72 47 28 49 60 50 40 51 59 52 41 53 44 54
REMARK SMILES IDX 58 55 77 56 42 57 43 58 57 60 78 61 45 62 29 63 30 64 38 65
REMARK SMILES IDX 31 66 32 67 36 68 39 69 33 70 34 71 37 72 35 73 61 74 62 75
REMARK SMILES IDX 70 76 63 77 64 78 68 79 71 80 65 81 66 82 69 83 67 84 46 85
REMARK SMILES IDX 47 86 55 87 48 88 49 89 53 90 56 91 50 92 51 93 54 94 52 95
REMARK H PARENT 7 14 76 48 44 59
REMARK Flexibility Score: inf
ROOT
ATOM      1  C   UNL A   1      37.110  21.046  24.613  1.00  0.00     0.274 C 
ENDROOT
BRANCH   1   2
ATOM      2  O   UNL A   1      35.824  21.683  24.436  1.00  0.00    -0.462 OA
BRANCH   2   3
ATOM      3  C   UNL A   1      34.863  20.844  24.871  1.00  0.00     0.310 C 
ATOM      4  O   UNL A   1      34.938  19.651  24.632  1.00  0.00    -0.252 OA
BRANCH   3   5
ATOM      5  C   UNL A   1      33.853  21.422  25.830  1.00  0.00     0.119 C 
ATOM      6  C   UNL A   1      32.756  22.240  25.061  1.00  0.00     0.100 C 
ATOM      7  C   UNL A   1      32.577  23.465  25.968  1.00  0.00     0.025 C 
ATOM      8  C   UNL A   1      34.272  22.388  26.962  1.00  0.00     0.027 C 
ATOM      9  C   UNL A   1      32.090  23.020  27.341  1.00  0.00    -0.027 C 
ATOM     10  C   UNL A   1      34.034  23.758  26.336  1.00  0.00     0.017 C 
ATOM     11  C   UNL A   1      33.118  22.413  27.951  1.00  0.00    -0.027 C 
BRANCH   6  12
ATOM     12  C   UNL A   1      33.018  22.301  23.528  1.00  0.00     0.230 C 
ATOM     13  N   UNL A   1      33.739  23.202  22.824  1.00  0.00    -0.302 N 
ATOM     14  H   UNL A   1      34.477  22.900  22.247  1.00  0.00     0.172 HD
ATOM     15  O   UNL A   1      32.642  21.378  22.791  1.00  0.00    -0.274 OA
BRANCH  13  16
ATOM     16  C   UNL A   1      33.447  24.514  22.916  1.00  0.00     0.190 A 
ATOM     17  C   UNL A   1      33.314  29.679  25.775  1.00  0.00     0.044 C 
ATOM     18  C   UNL A   1      32.821  28.574  24.889  1.00  0.00    -0.046 A 
ATOM     19  C   UNL A   1      33.648  27.462  24.768  1.00  0.00     0.033 A 
ATOM     20  C   UNL A   1      31.600  28.597  24.188  1.00  0.00    -0.047 A 
ATOM     21  C   UNL A   1      33.308  26.445  23.878  1.00  0.00     0.084 A 
ATOM     22  C   UNL A   1      31.235  27.543  23.316  1.00  0.00     0.025 A 
ATOM     23  C   UNL A   1      30.609  29.712  24.335  1.00  0.00     0.044 C 
ATOM     24  N   UNL A   1      34.061  25.342  23.689  1.00  0.00    -0.220 NA
ATOM     25  C   UNL A   1      32.121  26.481  23.157  1.00  0.00     0.057 A 
ATOM     26  S   UNL A   1      32.013  25.048  22.190  1.00  0.00    -0.097 S 
ENDBRANCH  13  16
ENDBRANCH   6  12
ENDBRANCH   3   5
ENDBRANCH   2   3
ENDBRANCH   1   2
BRANCH   1  27
ATOM     27  C   UNL A   1      37.836  21.621  25.857  1.00  0.00     0.275 C 
BRANCH  27  28
ATOM     28  O   UNL A   1      39.300  21.607  25.755  1.00  0.00    -0.458 OA
BRANCH  28  29
ATOM     29  C   UNL A   1      40.028  21.793  26.893  1.00  0.00     0.338 C 
ATOM     30  O   UNL A   1      40.409  20.876  27.628  1.00  0.00    -0.246 OA
BRANCH  29  31
ATOM     31  C   UNL A   1      40.608  23.183  27.007  1.00  0.00     0.060 A 
ATOM     32  C   UNL A   1      41.653  23.547  27.853  1.00  0.00     0.016 A 
ATOM     33  C   UNL A   1      39.926  24.222  26.362  1.00  0.00     0.016 A 
ATOM     34  C   UNL A   1      41.772  24.898  28.289  1.00  0.00     0.010 A 
ATOM     35  C   UNL A   1      40.051  25.553  26.804  1.00  0.00     0.010 A 
ATOM     36  C   UNL A   1      40.821  25.886  27.931  1.00  0.00    -0.014 A 
BRANCH  36  37
ATOM     37  C   UNL A   1      40.836  27.334  28.463  1.00  0.00     0.031 A 
ATOM     38  C   UNL A   1      42.058  27.869  27.852  1.00  0.00     0.074 A 
ATOM     39  C   UNL A   1      40.099  28.174  29.294  1.00  0.00     0.049 A 
ATOM     40  N   UNL A   1      43.220  27.712  28.394  1.00  0.00    -0.248 NA
ATOM     41  C   UNL A   1      42.104  28.211  26.425  1.00  0.00     0.031 C 
ATOM     42  C   UNL A   1      38.894  27.911  30.072  1.00  0.00     0.029 A 
ATOM     43  N   UNL A   1      40.287  29.533  29.681  1.00  0.00    -0.354 N 
ATOM     44  C   UNL A   1      44.081  28.313  27.507  1.00  0.00     0.074 A 
ATOM     45  C   UNL A   1      43.427  28.247  26.231  1.00  0.00     0.031 C 
ATOM     46  C   UNL A   1      38.268  29.022  30.526  1.00  0.00     0.029 A 
ATOM     47  C   UNL A   1      39.122  30.157  30.276  1.00  0.00     0.049 A 
ATOM     48  H   UNL A   1      41.139  30.009  29.554  1.00  0.00     0.167 HD
ATOM     49  C   UNL A   1      44.922  29.250  28.016  1.00  0.00     0.037 A 
ATOM     50  C   UNL A   1      38.936  31.350  30.948  1.00  0.00     0.037 A 
ATOM     51  C   UNL A   1      45.005  29.107  29.458  1.00  0.00     0.049 A 
ATOM     52  C   UNL A   1      40.255  31.785  31.416  1.00  0.00     0.074 A 
ATOM     53  C   UNL A   1      45.477  28.153  30.338  1.00  0.00     0.029 A 
ATOM     54  N   UNL A   1      44.018  29.791  30.121  1.00  0.00    -0.354 N 
ATOM     55  N   UNL A   1      40.869  31.222  32.416  1.00  0.00    -0.248 NA
ATOM     56  C   UNL A   1      41.073  32.497  30.454  1.00  0.00     0.031 C 
ATOM     57  C   UNL A   1      44.724  28.289  31.541  1.00  0.00     0.029 A 
ATOM     58  C   UNL A   1      43.890  29.394  31.420  1.00  0.00     0.049 A 
ATOM     59  H   UNL A   1      43.464  30.490  29.705  1.00  0.00     0.167 HD
ATOM     60  C   UNL A   1      42.147  31.063  31.928  1.00  0.00     0.074 A 
ATOM     61  C   UNL A   1      42.252  31.965  30.777  1.00  0.00     0.031 C 
ATOM     62  C   UNL A   1      42.864  29.956  32.259  1.00  0.00     0.037 A 
BRANCH  49  63
ATOM     63  C   UNL A   1      45.180  30.578  27.342  1.00  0.00     0.064 A 
ATOM     64  C   UNL A   1      46.510  30.940  27.067  1.00  0.00     0.173 A 
ATOM     65  C   UNL A   1      44.230  31.616  27.182  1.00  0.00     0.173 A 
ATOM     66  F   UNL A   1      47.505  30.060  27.251  1.00  0.00    -0.203 F 
ATOM     67  C   UNL A   1      46.855  32.234  26.666  1.00  0.00     0.198 A 
ATOM     68  C   UNL A   1      44.569  32.886  26.730  1.00  0.00     0.198 A 
ATOM     69  F   UNL A   1      42.954  31.502  27.557  1.00  0.00    -0.203 F 
ATOM     70  F   UNL A   1      48.144  32.555  26.499  1.00  0.00    -0.200 F 
ATOM     71  C   UNL A   1      45.883  33.201  26.486  1.00  0.00     0.200 A 
ATOM     72  F   UNL A   1      43.611  33.817  26.609  1.00  0.00    -0.200 F 
ATOM     73  F   UNL A   1      46.214  34.448  26.125  1.00  0.00    -0.200 F 
ENDBRANCH  49  63
BRANCH  50  74
ATOM     74  C   UNL A   1      37.775  32.314  31.011  1.00  0.00     0.064 A 
ATOM     75  C   UNL A   1      37.450  33.198  29.944  1.00  0.00     0.173 A 
ATOM     76  C   UNL A   1      36.771  32.156  31.976  1.00  0.00     0.173 A 
ATOM     77  F   UNL A   1      38.335  33.448  28.968  1.00  0.00    -0.203 F 
ATOM     78  C   UNL A   1      36.176  33.785  29.811  1.00  0.00     0.198 A 
ATOM     79  C   UNL A   1      35.500  32.733  31.836  1.00  0.00     0.198 A 
ATOM     80  F   UNL A   1      36.975  31.363  33.035  1.00  0.00    -0.203 F 
ATOM     81  F   UNL A   1      35.887  34.549  28.746  1.00  0.00    -0.200 F 
ATOM     82  C   UNL A   1      35.192  33.523  30.743  1.00  0.00     0.200 A 
ATOM     83  F   UNL A   1      34.550  32.466  32.744  1.00  0.00    -0.200 F 
ATOM     84  F   UNL A   1      33.949  33.999  30.578  1.00  0.00    -0.200 F 
ENDBRANCH  50  74
BRANCH  62  85
ATOM     85  C   UNL A   1      42.524  29.222  33.517  1.00  0.00     0.064 A 
ATOM     86  C   UNL A   1      41.724  28.072  33.590  1.00  0.00     0.173 A 
ATOM     87  C   UNL A   1      43.196  29.625  34.679  1.00  0.00     0.173 A 
ATOM     88  F   UNL A   1      41.086  27.605  32.507  1.00  0.00    -0.203 F 
ATOM     89  C   UNL A   1      41.623  27.347  34.781  1.00  0.00     0.198 A 
ATOM     90  C   UNL A   1      43.118  28.887  35.853  1.00  0.00     0.198 A 
ATOM     91  F   UNL A   1      43.993  30.704  34.649  1.00  0.00    -0.203 F 
ATOM     92  F   UNL A   1      40.874  26.236  34.833  1.00  0.00    -0.200 F 
ATOM     93  C   UNL A   1      42.332  27.749  35.905  1.00  0.00     0.200 A 
ATOM     94  F   UNL A   1      43.841  29.257  36.919  1.00  0.00    -0.200 F 
ATOM     95  F   UNL A   1      42.279  27.024  37.032  1.00  0.00    -0.200 F 
ENDBRANCH  62  85
ENDBRANCH  36  37
ENDBRANCH  29  31
ENDBRANCH  28  29
ENDBRANCH  27  28
ENDBRANCH   1  27
TORSDOF 13
ENDMDL
