MODEL 1
REMARK VINA RESULT:     -12.9      0.000      0.000
REMARK SMILES CC(C)[N@@H+](C)Cc1cc2c(cc1Cl)C=C(C(=O)OCCOC(=O)c1ccc(-c3c4nc(c(-c5c(F)c(F)c(F)c(F)c5F)c5ccc([nH]5)c(-c5c(F)c(F)c(F)c(F)c5F)c5nc(c(-c6c(F)c(F)c(F)c(F)c6F)c6ccc3[nH]6)C=C5)C=C4)cc1)[C@@H](C(F)(F)F)O2
REMARK SMILES IDX 19 1 18 2 16 3 17 4 15 5 7 6 8 7 12 8 9 9 11 10 13 11 10 12
REMARK SMILES IDX 92 13 14 14 87 15 6 16 4 17 5 18 2 20 1 21 3 22 88 23 89 24
REMARK SMILES IDX 90 25 91 26 20 27 21 28 22 29 23 30 24 31 25 32 86 33 26 34
REMARK SMILES IDX 85 35 27 36 28 37 29 38 79 39 30 40 84 41 78 42 80 43 31 44
REMARK SMILES IDX 83 45 77 46 76 47 32 49 64 50 44 51 63 52 45 53 48 54 62 55
REMARK SMILES IDX 81 56 46 57 47 58 61 60 82 61 49 62 33 63 34 64 42 65 35 66
REMARK SMILES IDX 36 67 40 68 43 69 37 70 38 71 41 72 39 73 65 74 66 75 74 76
REMARK SMILES IDX 67 77 68 78 72 79 75 80 69 81 70 82 73 83 71 84 50 85 51 86
REMARK SMILES IDX 59 87 52 88 53 89 57 90 60 91 54 92 55 93 58 94 56 95
REMARK H PARENT 4 19 80 48 48 59
REMARK Flexibility Score: inf
ROOT
ATOM      1  C   UNL A   1      31.484  28.642  25.281  1.00  0.00     0.275 C 
ENDROOT
BRANCH   1   2
ATOM      2  O   UNL A   1      32.458  27.630  25.622  1.00  0.00    -0.459 OA
BRANCH   2   3
ATOM      3  C   UNL A   1      33.048  27.018  24.572  1.00  0.00     0.338 C 
ATOM      4  O   UNL A   1      33.534  27.562  23.591  1.00  0.00    -0.246 OA
BRANCH   3   5
ATOM      5  C   UNL A   1      33.072  25.556  24.759  1.00  0.00     0.087 C 
ATOM      6  C   UNL A   1      34.491  20.727  24.710  1.00  0.00     0.029 A 
ATOM      7  C   UNL A   1      33.269  21.418  24.615  1.00  0.00     0.058 A 
ATOM      8  C   UNL A   1      35.664  21.495  24.810  1.00  0.00     0.050 A 
ATOM      9  C   UNL A   1      33.188  22.797  24.736  1.00  0.00     0.128 A 
ATOM     10  C   UNL A   1      35.596  22.886  24.874  1.00  0.00     0.033 A 
ATOM     11  Cl  UNL A   1      37.242  20.788  24.828  1.00  0.00    -0.084 Cl
ATOM     12  C   UNL A   1      34.355  23.529  24.839  1.00  0.00     0.019 A 
ATOM     13  O   UNL A   1      31.937  23.336  24.777  1.00  0.00    -0.475 OA
ATOM     14  C   UNL A   1      34.271  24.966  24.830  1.00  0.00     0.027 C 
ATOM     15  C   UNL A   1      31.786  24.782  24.710  1.00  0.00     0.316 C 
BRANCH   6  16
ATOM     16  C   UNL A   1      34.548  19.214  24.678  1.00  0.00     0.300 C 
BRANCH  16  17
ATOM     17  N   UNL A   1      33.292  18.463  24.633  1.00  0.00    -0.332 N 
ATOM     18  C   UNL A   1      32.704  18.119  25.914  1.00  0.00     0.333 C 
ATOM     19  H   UNL A   1      32.719  19.233  24.291  1.00  0.00     0.348 HD
BRANCH  17  20
ATOM     20  C   UNL A   1      32.983  17.578  23.503  1.00  0.00     0.177 C 
ATOM     21  C   UNL A   1      32.357  18.374  22.352  1.00  0.00     0.075 C 
ATOM     22  C   UNL A   1      34.116  16.711  22.944  1.00  0.00     0.075 C 
ENDBRANCH  17  20
ENDBRANCH  16  17
ENDBRANCH   6  16
BRANCH  15  23
ATOM     23  C   UNL A   1      30.970  25.094  23.448  1.00  0.00     0.430 C 
ATOM     24  F   UNL A   1      30.119  24.082  23.153  1.00  0.00    -0.167 F 
ATOM     25  F   UNL A   1      30.212  26.206  23.595  1.00  0.00    -0.167 F 
ATOM     26  F   UNL A   1      31.765  25.284  22.369  1.00  0.00    -0.167 F 
ENDBRANCH  15  23
ENDBRANCH   3   5
ENDBRANCH   2   3
ENDBRANCH   1   2
BRANCH   1  27
ATOM     27  C   UNL A   1      31.988  30.052  25.598  1.00  0.00     0.275 C 
BRANCH  27  28
ATOM     28  O   UNL A   1      32.604  30.114  26.899  1.00  0.00    -0.458 OA
BRANCH  28  29
ATOM     29  C   UNL A   1      33.176  31.302  27.196  1.00  0.00     0.338 C 
ATOM     30  O   UNL A   1      32.636  32.394  27.252  1.00  0.00    -0.246 OA
BRANCH  29  31
ATOM     31  C   UNL A   1      34.568  31.106  27.622  1.00  0.00     0.060 A 
ATOM     32  C   UNL A   1      35.420  32.156  27.921  1.00  0.00     0.016 A 
ATOM     33  C   UNL A   1      34.940  29.811  27.944  1.00  0.00     0.016 A 
ATOM     34  C   UNL A   1      36.653  31.872  28.528  1.00  0.00     0.010 A 
ATOM     35  C   UNL A   1      36.046  29.560  28.743  1.00  0.00     0.010 A 
ATOM     36  C   UNL A   1      36.969  30.571  28.989  1.00  0.00    -0.014 A 
BRANCH  36  37
ATOM     37  C   UNL A   1      38.264  30.272  29.675  1.00  0.00     0.031 A 
ATOM     38  C   UNL A   1      38.541  30.753  31.087  1.00  0.00     0.074 A 
ATOM     39  C   UNL A   1      39.206  29.555  29.029  1.00  0.00     0.049 A 
ATOM     40  N   UNL A   1      39.551  30.460  31.874  1.00  0.00    -0.248 NA
ATOM     41  C   UNL A   1      37.607  31.722  31.688  1.00  0.00     0.031 C 
ATOM     42  C   UNL A   1      39.144  29.154  27.621  1.00  0.00     0.029 A 
ATOM     43  N   UNL A   1      40.379  28.995  29.476  1.00  0.00    -0.354 N 
ATOM     44  C   UNL A   1      39.364  31.208  33.032  1.00  0.00     0.074 A 
ATOM     45  C   UNL A   1      38.222  32.055  32.811  1.00  0.00     0.031 C 
ATOM     46  C   UNL A   1      40.158  28.318  27.356  1.00  0.00     0.029 A 
ATOM     47  C   UNL A   1      40.969  28.157  28.559  1.00  0.00     0.049 A 
ATOM     48  H   UNL A   1      40.758  29.176  30.367  1.00  0.00     0.167 HD
ATOM     49  C   UNL A   1      40.032  31.144  34.208  1.00  0.00     0.037 A 
ATOM     50  C   UNL A   1      42.021  27.323  28.682  1.00  0.00     0.037 A 
ATOM     51  C   UNL A   1      41.125  30.249  34.456  1.00  0.00     0.049 A 
ATOM     52  C   UNL A   1      42.725  27.230  30.009  1.00  0.00     0.074 A 
ATOM     53  C   UNL A   1      41.806  30.026  35.637  1.00  0.00     0.029 A 
ATOM     54  N   UNL A   1      41.690  29.420  33.498  1.00  0.00    -0.354 N 
ATOM     55  N   UNL A   1      42.445  27.836  31.136  1.00  0.00    -0.248 NA
ATOM     56  C   UNL A   1      43.891  26.339  30.080  1.00  0.00     0.031 C 
ATOM     57  C   UNL A   1      42.817  29.095  35.384  1.00  0.00     0.029 A 
ATOM     58  C   UNL A   1      42.737  28.709  34.055  1.00  0.00     0.049 A 
ATOM     59  H   UNL A   1      41.392  29.351  32.562  1.00  0.00     0.167 HD
ATOM     60  C   UNL A   1      43.395  27.402  32.049  1.00  0.00     0.074 A 
ATOM     61  C   UNL A   1      44.239  26.452  31.356  1.00  0.00     0.031 C 
ATOM     62  C   UNL A   1      43.563  27.769  33.343  1.00  0.00     0.037 A 
BRANCH  49  63
ATOM     63  C   UNL A   1      39.557  32.016  35.338  1.00  0.00     0.064 A 
ATOM     64  C   UNL A   1      40.015  33.336  35.484  1.00  0.00     0.173 A 
ATOM     65  C   UNL A   1      38.592  31.556  36.247  1.00  0.00     0.173 A 
ATOM     66  F   UNL A   1      40.942  33.825  34.647  1.00  0.00    -0.203 F 
ATOM     67  C   UNL A   1      39.549  34.151  36.512  1.00  0.00     0.198 A 
ATOM     68  C   UNL A   1      38.103  32.386  37.254  1.00  0.00     0.198 A 
ATOM     69  F   UNL A   1      38.110  30.309  36.149  1.00  0.00    -0.203 F 
ATOM     70  F   UNL A   1      40.038  35.390  36.656  1.00  0.00    -0.200 F 
ATOM     71  C   UNL A   1      38.586  33.678  37.390  1.00  0.00     0.200 A 
ATOM     72  F   UNL A   1      37.158  31.935  38.092  1.00  0.00    -0.200 F 
ATOM     73  F   UNL A   1      38.125  34.469  38.370  1.00  0.00    -0.200 F 
ENDBRANCH  49  63
BRANCH  50  74
ATOM     74  C   UNL A   1      42.414  26.458  27.537  1.00  0.00     0.064 A 
ATOM     75  C   UNL A   1      43.427  26.855  26.653  1.00  0.00     0.173 A 
ATOM     76  C   UNL A   1      41.819  25.206  27.323  1.00  0.00     0.173 A 
ATOM     77  F   UNL A   1      44.018  28.050  26.802  1.00  0.00    -0.203 F 
ATOM     78  C   UNL A   1      43.825  26.037  25.596  1.00  0.00     0.198 A 
ATOM     79  C   UNL A   1      42.238  24.377  26.285  1.00  0.00     0.198 A 
ATOM     80  F   UNL A   1      40.851  24.774  28.144  1.00  0.00    -0.203 F 
ATOM     81  F   UNL A   1      44.775  26.455  24.748  1.00  0.00    -0.200 F 
ATOM     82  C   UNL A   1      43.237  24.794  25.419  1.00  0.00     0.200 A 
ATOM     83  F   UNL A   1      41.679  23.169  26.128  1.00  0.00    -0.200 F 
ATOM     84  F   UNL A   1      43.631  24.001  24.413  1.00  0.00    -0.200 F 
ENDBRANCH  50  74
BRANCH  62  85
ATOM     85  C   UNL A   1      44.713  27.172  34.096  1.00  0.00     0.064 A 
ATOM     86  C   UNL A   1      44.592  25.922  34.720  1.00  0.00     0.173 A 
ATOM     87  C   UNL A   1      45.972  27.789  34.090  1.00  0.00     0.173 A 
ATOM     88  F   UNL A   1      43.405  25.298  34.759  1.00  0.00    -0.203 F 
ATOM     89  C   UNL A   1      45.692  25.312  35.312  1.00  0.00     0.198 A 
ATOM     90  C   UNL A   1      47.076  27.162  34.657  1.00  0.00     0.198 A 
ATOM     91  F   UNL A   1      46.138  28.980  33.494  1.00  0.00    -0.203 F 
ATOM     92  F   UNL A   1      45.552  24.125  35.919  1.00  0.00    -0.200 F 
ATOM     93  C   UNL A   1      46.936  25.925  35.268  1.00  0.00     0.200 A 
ATOM     94  F   UNL A   1      48.281  27.746  34.596  1.00  0.00    -0.200 F 
ATOM     95  F   UNL A   1      48.001  25.321  35.811  1.00  0.00    -0.200 F 
ENDBRANCH  62  85
ENDBRANCH  36  37
ENDBRANCH  29  31
ENDBRANCH  28  29
ENDBRANCH  27  28
ENDBRANCH   1  27
TORSDOF 15
ENDMDL
MODEL 2
REMARK VINA RESULT:     -12.9      0.183      1.576
REMARK SMILES CC(C)[N@@H+](C)Cc1cc2c(cc1Cl)C=C(C(=O)OCCOC(=O)c1ccc(-c3c4nc(c(-c5c(F)c(F)c(F)c(F)c5F)c5ccc([nH]5)c(-c5c(F)c(F)c(F)c(F)c5F)c5nc(c(-c6c(F)c(F)c(F)c(F)c6F)c6ccc3[nH]6)C=C5)C=C4)cc1)[C@@H](C(F)(F)F)O2
REMARK SMILES IDX 19 1 18 2 16 3 17 4 15 5 7 6 8 7 12 8 9 9 11 10 13 11 10 12
REMARK SMILES IDX 92 13 14 14 87 15 6 16 4 17 5 18 2 20 1 21 3 22 88 23 89 24
REMARK SMILES IDX 90 25 91 26 20 27 21 28 22 29 23 30 24 31 25 32 86 33 26 34
REMARK SMILES IDX 85 35 27 36 28 37 29 38 79 39 30 40 84 41 78 42 80 43 31 44
REMARK SMILES IDX 83 45 77 46 76 47 32 49 64 50 44 51 63 52 45 53 48 54 62 55
REMARK SMILES IDX 81 56 46 57 47 58 61 60 82 61 49 62 33 63 34 64 42 65 35 66
REMARK SMILES IDX 36 67 40 68 43 69 37 70 38 71 41 72 39 73 65 74 66 75 74 76
REMARK SMILES IDX 67 77 68 78 72 79 75 80 69 81 70 82 73 83 71 84 50 85 51 86
REMARK SMILES IDX 59 87 52 88 53 89 57 90 60 91 54 92 55 93 58 94 56 95
REMARK H PARENT 4 19 80 48 48 59
REMARK Flexibility Score: inf
ROOT
ATOM      1  C   UNL A   1      31.459  28.659  25.288  1.00  0.00     0.275 C 
ENDROOT
BRANCH   1   2
ATOM      2  O   UNL A   1      32.414  27.648  25.681  1.00  0.00    -0.459 OA
BRANCH   2   3
ATOM      3  C   UNL A   1      33.066  27.042  24.664  1.00  0.00     0.338 C 
ATOM      4  O   UNL A   1      33.599  27.591  23.711  1.00  0.00    -0.246 OA
BRANCH   3   5
ATOM      5  C   UNL A   1      33.096  25.580  24.853  1.00  0.00     0.087 C 
ATOM      6  C   UNL A   1      34.493  20.746  24.738  1.00  0.00     0.029 A 
ATOM      7  C   UNL A   1      33.270  21.442  24.709  1.00  0.00     0.058 A 
ATOM      8  C   UNL A   1      35.672  21.510  24.770  1.00  0.00     0.050 A 
ATOM      9  C   UNL A   1      33.201  22.821  24.831  1.00  0.00     0.128 A 
ATOM     10  C   UNL A   1      35.612  22.902  24.834  1.00  0.00     0.033 A 
ATOM     11  Cl  UNL A   1      37.246  20.797  24.702  1.00  0.00    -0.084 Cl
ATOM     12  C   UNL A   1      34.374  23.549  24.867  1.00  0.00     0.019 A 
ATOM     13  O   UNL A   1      31.956  23.365  24.941  1.00  0.00    -0.475 OA
ATOM     14  C   UNL A   1      34.294  24.986  24.859  1.00  0.00     0.027 C 
ATOM     15  C   UNL A   1      31.806  24.811  24.878  1.00  0.00     0.316 C 
BRANCH   6  16
ATOM     16  C   UNL A   1      34.542  19.232  24.707  1.00  0.00     0.300 C 
BRANCH  16  17
ATOM     17  N   UNL A   1      33.284  18.489  24.626  1.00  0.00    -0.332 N 
ATOM     18  C   UNL A   1      32.686  18.103  25.891  1.00  0.00     0.333 C 
ATOM     19  H   UNL A   1      32.716  19.272  24.308  1.00  0.00     0.348 HD
BRANCH  17  20
ATOM     20  C   UNL A   1      32.980  17.645  23.465  1.00  0.00     0.177 C 
ATOM     21  C   UNL A   1      32.441  18.495  22.308  1.00  0.00     0.075 C 
ATOM     22  C   UNL A   1      34.091  16.735  22.931  1.00  0.00     0.075 C 
ENDBRANCH  17  20
ENDBRANCH  16  17
ENDBRANCH   6  16
BRANCH  15  23
ATOM     23  C   UNL A   1      30.922  25.123  23.662  1.00  0.00     0.430 C 
ATOM     24  F   UNL A   1      30.213  24.034  23.282  1.00  0.00    -0.167 F 
ATOM     25  F   UNL A   1      30.021  26.098  23.927  1.00  0.00    -0.167 F 
ATOM     26  F   UNL A   1      31.654  25.525  22.598  1.00  0.00    -0.167 F 
ENDBRANCH  15  23
ENDBRANCH   3   5
ENDBRANCH   2   3
ENDBRANCH   1   2
BRANCH   1  27
ATOM     27  C   UNL A   1      31.959  30.071  25.601  1.00  0.00     0.275 C 
BRANCH  27  28
ATOM     28  O   UNL A   1      32.584  30.137  26.898  1.00  0.00    -0.458 OA
BRANCH  28  29
ATOM     29  C   UNL A   1      33.154  31.326  27.190  1.00  0.00     0.338 C 
ATOM     30  O   UNL A   1      32.614  32.420  27.225  1.00  0.00    -0.246 OA
BRANCH  29  31
ATOM     31  C   UNL A   1      34.539  31.133  27.639  1.00  0.00     0.060 A 
ATOM     32  C   UNL A   1      35.388  32.185  27.939  1.00  0.00     0.016 A 
ATOM     33  C   UNL A   1      34.904  29.842  27.981  1.00  0.00     0.016 A 
ATOM     34  C   UNL A   1      36.611  31.906  28.568  1.00  0.00     0.010 A 
ATOM     35  C   UNL A   1      35.997  29.598  28.799  1.00  0.00     0.010 A 
ATOM     36  C   UNL A   1      36.918  30.610  29.048  1.00  0.00    -0.014 A 
BRANCH  36  37
ATOM     37  C   UNL A   1      38.201  30.317  29.756  1.00  0.00     0.031 A 
ATOM     38  C   UNL A   1      38.448  30.790  31.177  1.00  0.00     0.074 A 
ATOM     39  C   UNL A   1      39.162  29.612  29.124  1.00  0.00     0.049 A 
ATOM     40  N   UNL A   1      39.444  30.499  31.981  1.00  0.00    -0.248 NA
ATOM     41  C   UNL A   1      37.494  31.747  31.766  1.00  0.00     0.031 C 
ATOM     42  C   UNL A   1      39.131  29.220  27.712  1.00  0.00     0.029 A 
ATOM     43  N   UNL A   1      40.331  29.058  29.590  1.00  0.00    -0.354 N 
ATOM     44  C   UNL A   1      39.230  31.238  33.140  1.00  0.00     0.074 A 
ATOM     45  C   UNL A   1      38.084  32.077  32.903  1.00  0.00     0.031 C 
ATOM     46  C   UNL A   1      40.157  28.394  27.461  1.00  0.00     0.029 A 
ATOM     47  C   UNL A   1      40.945  28.232  28.678  1.00  0.00     0.049 A 
ATOM     48  H   UNL A   1      40.691  29.236  30.489  1.00  0.00     0.167 HD
ATOM     49  C   UNL A   1      39.875  31.171  34.329  1.00  0.00     0.037 A 
ATOM     50  C   UNL A   1      42.001  27.405  28.816  1.00  0.00     0.037 A 
ATOM     51  C   UNL A   1      40.971  30.283  34.591  1.00  0.00     0.049 A 
ATOM     52  C   UNL A   1      42.680  27.309  30.155  1.00  0.00     0.074 A 
ATOM     53  C   UNL A   1      41.631  30.058  35.784  1.00  0.00     0.029 A 
ATOM     54  N   UNL A   1      41.561  29.466  33.639  1.00  0.00    -0.354 N 
ATOM     55  N   UNL A   1      42.374  27.905  31.281  1.00  0.00    -0.248 NA
ATOM     56  C   UNL A   1      43.852  26.426  30.243  1.00  0.00     0.031 C 
ATOM     57  C   UNL A   1      42.654  29.137  35.544  1.00  0.00     0.029 A 
ATOM     58  C   UNL A   1      42.602  28.759  34.211  1.00  0.00     0.049 A 
ATOM     59  H   UNL A   1      41.281  29.401  32.697  1.00  0.00     0.167 HD
ATOM     60  C   UNL A   1      43.309  27.472  32.210  1.00  0.00     0.074 A 
ATOM     61  C   UNL A   1      44.175  26.533  31.526  1.00  0.00     0.031 C 
ATOM     62  C   UNL A   1      43.450  27.831  33.509  1.00  0.00     0.037 A 
BRANCH  49  63
ATOM     63  C   UNL A   1      39.371  32.032  35.455  1.00  0.00     0.064 A 
ATOM     64  C   UNL A   1      38.479  31.529  36.416  1.00  0.00     0.173 A 
ATOM     65  C   UNL A   1      39.829  33.348  35.616  1.00  0.00     0.173 A 
ATOM     66  F   UNL A   1      38.005  30.278  36.308  1.00  0.00    -0.203 F 
ATOM     67  C   UNL A   1      38.041  32.318  37.476  1.00  0.00     0.198 A 
ATOM     68  C   UNL A   1      39.415  34.124  36.696  1.00  0.00     0.198 A 
ATOM     69  F   UNL A   1      40.690  33.878  34.735  1.00  0.00    -0.203 F 
ATOM     70  F   UNL A   1      37.153  31.828  38.351  1.00  0.00    -0.200 F 
ATOM     71  C   UNL A   1      38.517  33.612  37.620  1.00  0.00     0.200 A 
ATOM     72  F   UNL A   1      39.888  35.370  36.846  1.00  0.00    -0.200 F 
ATOM     73  F   UNL A   1      38.107  34.366  38.651  1.00  0.00    -0.200 F 
ENDBRANCH  49  63
BRANCH  50  74
ATOM     74  C   UNL A   1      42.423  26.551  27.673  1.00  0.00     0.064 A 
ATOM     75  C   UNL A   1      41.786  25.328  27.417  1.00  0.00     0.173 A 
ATOM     76  C   UNL A   1      43.439  26.951  26.793  1.00  0.00     0.173 A 
ATOM     77  F   UNL A   1      40.819  24.892  28.237  1.00  0.00    -0.203 F 
ATOM     78  C   UNL A   1      42.153  24.537  26.329  1.00  0.00     0.198 A 
ATOM     79  C   UNL A   1      43.785  26.173  25.690  1.00  0.00     0.198 A 
ATOM     80  F   UNL A   1      44.076  28.115  26.988  1.00  0.00    -0.203 F 
ATOM     81  F   UNL A   1      41.547  23.359  26.126  1.00  0.00    -0.200 F 
ATOM     82  C   UNL A   1      43.145  24.964  25.461  1.00  0.00     0.200 A 
ATOM     83  F   UNL A   1      44.732  26.598  24.843  1.00  0.00    -0.200 F 
ATOM     84  F   UNL A   1      43.486  24.211  24.407  1.00  0.00    -0.200 F 
ENDBRANCH  50  74
BRANCH  62  85
ATOM     85  C   UNL A   1      44.590  27.238  34.280  1.00  0.00     0.064 A 
ATOM     86  C   UNL A   1      44.459  25.994  34.912  1.00  0.00     0.173 A 
ATOM     87  C   UNL A   1      45.850  27.853  34.283  1.00  0.00     0.173 A 
ATOM     88  F   UNL A   1      43.270  25.373  34.943  1.00  0.00    -0.203 F 
ATOM     89  C   UNL A   1      45.552  25.386  35.522  1.00  0.00     0.198 A 
ATOM     90  C   UNL A   1      46.947  27.228  34.868  1.00  0.00     0.198 A 
ATOM     91  F   UNL A   1      46.026  29.038  33.679  1.00  0.00    -0.203 F 
ATOM     92  F   UNL A   1      45.402  24.205  36.138  1.00  0.00    -0.200 F 
ATOM     93  C   UNL A   1      46.797  25.997  35.487  1.00  0.00     0.200 A 
ATOM     94  F   UNL A   1      48.153  27.809  34.816  1.00  0.00    -0.200 F 
ATOM     95  F   UNL A   1      47.855  25.395  36.047  1.00  0.00    -0.200 F 
ENDBRANCH  62  85
ENDBRANCH  36  37
ENDBRANCH  29  31
ENDBRANCH  28  29
ENDBRANCH  27  28
ENDBRANCH   1  27
TORSDOF 15
ENDMDL
MODEL 3
REMARK VINA RESULT:     -12.9      0.296      1.594
REMARK SMILES CC(C)[N@@H+](C)Cc1cc2c(cc1Cl)C=C(C(=O)OCCOC(=O)c1ccc(-c3c4nc(c(-c5c(F)c(F)c(F)c(F)c5F)c5ccc([nH]5)c(-c5c(F)c(F)c(F)c(F)c5F)c5nc(c(-c6c(F)c(F)c(F)c(F)c6F)c6ccc3[nH]6)C=C5)C=C4)cc1)[C@@H](C(F)(F)F)O2
REMARK SMILES IDX 19 1 18 2 16 3 17 4 15 5 7 6 8 7 12 8 9 9 11 10 13 11 10 12
REMARK SMILES IDX 92 13 14 14 87 15 6 16 4 17 5 18 2 20 1 21 3 22 88 23 89 24
REMARK SMILES IDX 90 25 91 26 20 27 21 28 22 29 23 30 24 31 25 32 86 33 26 34
REMARK SMILES IDX 85 35 27 36 28 37 29 38 79 39 30 40 84 41 78 42 80 43 31 44
REMARK SMILES IDX 83 45 77 46 76 47 32 49 64 50 44 51 63 52 45 53 48 54 62 55
REMARK SMILES IDX 81 56 46 57 47 58 61 60 82 61 49 62 33 63 34 64 42 65 35 66
REMARK SMILES IDX 36 67 40 68 43 69 37 70 38 71 41 72 39 73 65 74 66 75 74 76
REMARK SMILES IDX 67 77 68 78 72 79 75 80 69 81 70 82 73 83 71 84 50 85 51 86
REMARK SMILES IDX 59 87 52 88 53 89 57 90 60 91 54 92 55 93 58 94 56 95
REMARK H PARENT 4 19 80 48 48 59
REMARK Flexibility Score: inf
ROOT
ATOM      1  C   UNL A   1      31.434  28.967  24.976  1.00  0.00     0.275 C 
ENDROOT
BRANCH   1   2
ATOM      2  O   UNL A   1      32.244  27.899  25.516  1.00  0.00    -0.459 OA
BRANCH   2   3
ATOM      3  C   UNL A   1      33.090  27.316  24.638  1.00  0.00     0.338 C 
ATOM      4  O   UNL A   1      33.790  27.884  23.813  1.00  0.00    -0.246 OA
BRANCH   3   5
ATOM      5  C   UNL A   1      33.104  25.851  24.812  1.00  0.00     0.087 C 
ATOM      6  C   UNL A   1      34.491  21.014  24.729  1.00  0.00     0.029 A 
ATOM      7  C   UNL A   1      33.274  21.714  24.633  1.00  0.00     0.058 A 
ATOM      8  C   UNL A   1      35.668  21.773  24.841  1.00  0.00     0.050 A 
ATOM      9  C   UNL A   1      33.202  23.092  24.766  1.00  0.00     0.128 A 
ATOM     10  C   UNL A   1      35.609  23.164  24.917  1.00  0.00     0.033 A 
ATOM     11  Cl  UNL A   1      37.242  21.055  24.861  1.00  0.00    -0.084 Cl
ATOM     12  C   UNL A   1      34.373  23.815  24.882  1.00  0.00     0.019 A 
ATOM     13  O   UNL A   1      31.954  23.639  24.806  1.00  0.00    -0.475 OA
ATOM     14  C   UNL A   1      34.298  25.253  24.884  1.00  0.00     0.027 C 
ATOM     15  C   UNL A   1      31.813  25.087  24.751  1.00  0.00     0.316 C 
BRANCH   6  16
ATOM     16  C   UNL A   1      34.537  19.500  24.684  1.00  0.00     0.300 C 
BRANCH  16  17
ATOM     17  N   UNL A   1      33.277  18.756  24.696  1.00  0.00    -0.332 N 
ATOM     18  C   UNL A   1      32.701  18.492  26.001  1.00  0.00     0.333 C 
ATOM     19  H   UNL A   1      32.704  19.509  24.316  1.00  0.00     0.348 HD
BRANCH  17  20
ATOM     20  C   UNL A   1      32.950  17.809  23.623  1.00  0.00     0.177 C 
ATOM     21  C   UNL A   1      32.351  18.545  22.419  1.00  0.00     0.075 C 
ATOM     22  C   UNL A   1      34.062  16.878  23.129  1.00  0.00     0.075 C 
ENDBRANCH  17  20
ENDBRANCH  16  17
ENDBRANCH   6  16
BRANCH  15  23
ATOM     23  C   UNL A   1      31.005  25.415  23.487  1.00  0.00     0.430 C 
ATOM     24  F   UNL A   1      30.297  24.340  23.066  1.00  0.00    -0.167 F 
ATOM     25  F   UNL A   1      30.110  26.409  23.700  1.00  0.00    -0.167 F 
ATOM     26  F   UNL A   1      31.804  25.801  22.466  1.00  0.00    -0.167 F 
ENDBRANCH  15  23
ENDBRANCH   3   5
ENDBRANCH   2   3
ENDBRANCH   1   2
BRANCH   1  27
ATOM     27  C   UNL A   1      31.568  30.255  25.792  1.00  0.00     0.275 C 
BRANCH  27  28
ATOM     28  O   UNL A   1      32.623  30.156  26.769  1.00  0.00    -0.458 OA
BRANCH  28  29
ATOM     29  C   UNL A   1      33.172  31.337  27.127  1.00  0.00     0.338 C 
ATOM     30  O   UNL A   1      32.616  32.420  27.214  1.00  0.00    -0.246 OA
BRANCH  29  31
ATOM     31  C   UNL A   1      34.557  31.141  27.578  1.00  0.00     0.060 A 
ATOM     32  C   UNL A   1      35.408  32.191  27.878  1.00  0.00     0.016 A 
ATOM     33  C   UNL A   1      34.919  29.849  27.920  1.00  0.00     0.016 A 
ATOM     34  C   UNL A   1      36.630  31.909  28.507  1.00  0.00     0.010 A 
ATOM     35  C   UNL A   1      36.010  29.603  28.739  1.00  0.00     0.010 A 
ATOM     36  C   UNL A   1      36.933  30.613  28.988  1.00  0.00    -0.014 A 
BRANCH  36  37
ATOM     37  C   UNL A   1      38.216  30.317  29.698  1.00  0.00     0.031 A 
ATOM     38  C   UNL A   1      38.462  30.790  31.119  1.00  0.00     0.074 A 
ATOM     39  C   UNL A   1      39.175  29.610  29.066  1.00  0.00     0.049 A 
ATOM     40  N   UNL A   1      39.457  30.497  31.924  1.00  0.00    -0.248 NA
ATOM     41  C   UNL A   1      37.510  31.748  31.707  1.00  0.00     0.031 C 
ATOM     42  C   UNL A   1      39.145  29.219  27.655  1.00  0.00     0.029 A 
ATOM     43  N   UNL A   1      40.343  29.054  29.533  1.00  0.00    -0.354 N 
ATOM     44  C   UNL A   1      39.243  31.235  33.083  1.00  0.00     0.074 A 
ATOM     45  C   UNL A   1      38.099  32.077  32.845  1.00  0.00     0.031 C 
ATOM     46  C   UNL A   1      40.169  28.391  27.404  1.00  0.00     0.029 A 
ATOM     47  C   UNL A   1      40.956  28.227  28.622  1.00  0.00     0.049 A 
ATOM     48  H   UNL A   1      40.703  29.231  30.432  1.00  0.00     0.167 HD
ATOM     49  C   UNL A   1      39.887  31.167  34.272  1.00  0.00     0.037 A 
ATOM     50  C   UNL A   1      42.010  27.398  28.761  1.00  0.00     0.037 A 
ATOM     51  C   UNL A   1      40.980  30.277  34.535  1.00  0.00     0.049 A 
ATOM     52  C   UNL A   1      42.688  27.300  30.100  1.00  0.00     0.074 A 
ATOM     53  C   UNL A   1      41.639  30.050  35.729  1.00  0.00     0.029 A 
ATOM     54  N   UNL A   1      41.570  29.459  33.583  1.00  0.00    -0.354 N 
ATOM     55  N   UNL A   1      42.382  27.896  31.226  1.00  0.00    -0.248 NA
ATOM     56  C   UNL A   1      43.858  26.415  30.189  1.00  0.00     0.031 C 
ATOM     57  C   UNL A   1      42.660  29.127  35.489  1.00  0.00     0.029 A 
ATOM     58  C   UNL A   1      42.609  28.750  34.156  1.00  0.00     0.049 A 
ATOM     59  H   UNL A   1      41.291  29.395  32.641  1.00  0.00     0.167 HD
ATOM     60  C   UNL A   1      43.316  27.462  32.155  1.00  0.00     0.074 A 
ATOM     61  C   UNL A   1      44.180  26.522  31.472  1.00  0.00     0.031 C 
ATOM     62  C   UNL A   1      43.456  27.820  33.455  1.00  0.00     0.037 A 
BRANCH  49  63
ATOM     63  C   UNL A   1      39.384  32.028  35.398  1.00  0.00     0.064 A 
ATOM     64  C   UNL A   1      38.506  31.521  36.369  1.00  0.00     0.173 A 
ATOM     65  C   UNL A   1      39.829  33.351  35.548  1.00  0.00     0.173 A 
ATOM     66  F   UNL A   1      38.044  30.265  36.272  1.00  0.00    -0.203 F 
ATOM     67  C   UNL A   1      38.068  32.311  37.429  1.00  0.00     0.198 A 
ATOM     68  C   UNL A   1      39.416  34.128  36.628  1.00  0.00     0.198 A 
ATOM     69  F   UNL A   1      40.677  33.884  34.657  1.00  0.00    -0.203 F 
ATOM     70  F   UNL A   1      37.193  31.817  38.315  1.00  0.00    -0.200 F 
ATOM     71  C   UNL A   1      38.531  33.611  37.562  1.00  0.00     0.200 A 
ATOM     72  F   UNL A   1      39.877  35.379  36.767  1.00  0.00    -0.200 F 
ATOM     73  F   UNL A   1      38.123  34.367  38.592  1.00  0.00    -0.200 F 
ENDBRANCH  49  63
BRANCH  50  74
ATOM     74  C   UNL A   1      42.432  26.544  27.617  1.00  0.00     0.064 A 
ATOM     75  C   UNL A   1      43.454  26.958  26.750  1.00  0.00     0.173 A 
ATOM     76  C   UNL A   1      41.857  25.286  27.389  1.00  0.00     0.173 A 
ATOM     77  F   UNL A   1      44.026  28.160  26.915  1.00  0.00    -0.203 F 
ATOM     78  C   UNL A   1      43.877  26.150  25.696  1.00  0.00     0.198 A 
ATOM     79  C   UNL A   1      42.302  24.467  26.353  1.00  0.00     0.198 A 
ATOM     80  F   UNL A   1      40.882  24.837  28.193  1.00  0.00    -0.203 F 
ATOM     81  F   UNL A   1      44.835  26.584  24.865  1.00  0.00    -0.200 F 
ATOM     82  C   UNL A   1      43.308  24.901  25.504  1.00  0.00     0.200 A 
ATOM     83  F   UNL A   1      41.761  23.253  26.182  1.00  0.00    -0.200 F 
ATOM     84  F   UNL A   1      43.728  24.118  24.501  1.00  0.00    -0.200 F 
ENDBRANCH  50  74
BRANCH  62  85
ATOM     85  C   UNL A   1      44.594  27.225  34.227  1.00  0.00     0.064 A 
ATOM     86  C   UNL A   1      45.814  27.905  34.348  1.00  0.00     0.173 A 
ATOM     87  C   UNL A   1      44.426  26.034  34.949  1.00  0.00     0.173 A 
ATOM     88  F   UNL A   1      46.023  29.043  33.669  1.00  0.00    -0.203 F 
ATOM     89  C   UNL A   1      46.826  27.414  35.166  1.00  0.00     0.198 A 
ATOM     90  C   UNL A   1      45.429  25.562  35.788  1.00  0.00     0.198 A 
ATOM     91  F   UNL A   1      43.271  25.356  34.874  1.00  0.00    -0.203 F 
ATOM     92  F   UNL A   1      47.991  28.069  35.254  1.00  0.00    -0.200 F 
ATOM     93  C   UNL A   1      46.627  26.250  35.895  1.00  0.00     0.200 A 
ATOM     94  F   UNL A   1      45.229  24.449  36.508  1.00  0.00    -0.200 F 
ATOM     95  F   UNL A   1      47.591  25.796  36.707  1.00  0.00    -0.200 F 
ENDBRANCH  62  85
ENDBRANCH  36  37
ENDBRANCH  29  31
ENDBRANCH  28  29
ENDBRANCH  27  28
ENDBRANCH   1  27
TORSDOF 15
ENDMDL
