MODEL 1
REMARK VINA RESULT:     -11.3      0.000      0.000
REMARK SMILES C#CCOc1ccccc1/C=C(\C#N)C(=O)OCCOC(=O)c1ccc(-c2c3nc(c(-c4c(F)c(F)c(F)c(F)c4F)c4ccc([nH]4)c(-c4c(F)c(F)c(F)c(F)c4F)c4nc(c(-c5c(F)c(F)c(F)c(F)c5F)c5ccc2[nH]5)C=C4)C=C3)cc1
REMARK SMILES IDX 18 1 17 2 15 3 16 4 12 5 11 6 10 7 5 8 6 9 7 10 9 11 8 12
REMARK SMILES IDX 4 13 3 14 2 15 1 16 13 17 14 18 19 19 20 20 21 21 22 22
REMARK SMILES IDX 23 23 24 24 85 25 25 26 84 27 26 28 27 29 28 30 78 31 29 32
REMARK SMILES IDX 83 33 77 34 79 35 30 36 82 37 76 38 75 39 31 41 63 42 43 43
REMARK SMILES IDX 62 44 44 45 47 46 61 47 80 48 45 49 46 50 60 52 81 53 48 54
REMARK SMILES IDX 32 55 33 56 41 57 34 58 35 59 39 60 42 61 36 62 37 63 40 64
REMARK SMILES IDX 38 65 64 66 65 67 73 68 66 69 67 70 71 71 74 72 68 73 69 74
REMARK SMILES IDX 72 75 70 76 49 77 50 78 58 79 51 80 52 81 56 82 59 83 53 84
REMARK SMILES IDX 54 85 57 86 55 87
REMARK H PARENT 79 40 47 51
REMARK Flexibility Score: inf
ROOT
ATOM      1  C   UNL A   1      31.644  28.136  24.894  1.00  0.00     0.275 C 
ENDROOT
BRANCH   1   2
ATOM      2  O   UNL A   1      32.925  27.480  25.026  1.00  0.00    -0.458 OA
BRANCH   2   3
ATOM      3  C   UNL A   1      32.789  26.205  25.469  1.00  0.00     0.349 C 
ATOM      4  O   UNL A   1      31.738  25.710  25.869  1.00  0.00    -0.245 OA
BRANCH   3   5
ATOM      5  C   UNL A   1      34.072  25.355  25.393  1.00  0.00     0.138 C 
ATOM      6  C   UNL A   1      34.357  24.073  25.889  1.00  0.00     0.039 C 
BRANCH   6   7
ATOM      7  C   UNL A   1      35.653  23.326  25.578  1.00  0.00     0.018 A 
ATOM      8  C   UNL A   1      35.815  22.023  25.024  1.00  0.00     0.128 A 
ATOM      9  C   UNL A   1      37.087  21.410  25.039  1.00  0.00     0.047 A 
ATOM     10  C   UNL A   1      38.207  22.052  25.550  1.00  0.00     0.004 A 
ATOM     11  C   UNL A   1      36.830  23.978  26.013  1.00  0.00     0.012 A 
ATOM     12  C   UNL A   1      38.080  23.346  26.022  1.00  0.00     0.001 A 
BRANCH   8  13
ATOM     13  O   UNL A   1      34.918  21.138  24.474  1.00  0.00    -0.480 OA
BRANCH  13  14
ATOM     14  C   UNL A   1      33.924  20.510  25.265  1.00  0.00     0.318 C 
BRANCH  14  15
ATOM     15  C   UNL A   1      33.179  19.563  24.338  1.00  0.00    -0.065 C 
ATOM     16  C   UNL A   1      32.541  18.751  23.542  1.00  0.00     0.007 C 
ENDBRANCH  14  15
ENDBRANCH  13  14
ENDBRANCH   8  13
ENDBRANCH   6   7
BRANCH   5  17
ATOM     17  C   UNL A   1      33.988  25.016  23.914  1.00  0.00     0.107 C 
ATOM     18  N   UNL A   1      33.918  24.735  22.687  1.00  0.00    -0.192 NA
ENDBRANCH   5  17
ENDBRANCH   3   5
ENDBRANCH   2   3
ENDBRANCH   1   2
BRANCH   1  19
ATOM     19  C   UNL A   1      31.743  29.596  25.317  1.00  0.00     0.275 C 
BRANCH  19  20
ATOM     20  O   UNL A   1      32.270  29.639  26.656  1.00  0.00    -0.458 OA
BRANCH  20  21
ATOM     21  C   UNL A   1      32.839  30.812  27.024  1.00  0.00     0.338 C 
ATOM     22  O   UNL A   1      32.276  31.883  27.167  1.00  0.00    -0.246 OA
BRANCH  21  23
ATOM     23  C   UNL A   1      34.275  30.616  27.345  1.00  0.00     0.060 A 
ATOM     24  C   UNL A   1      34.816  29.344  27.480  1.00  0.00     0.016 A 
ATOM     25  C   UNL A   1      35.059  31.716  27.687  1.00  0.00     0.016 A 
ATOM     26  C   UNL A   1      36.052  29.171  28.121  1.00  0.00     0.010 A 
ATOM     27  C   UNL A   1      36.347  31.532  28.219  1.00  0.00     0.010 A 
ATOM     28  C   UNL A   1      36.839  30.253  28.542  1.00  0.00    -0.014 A 
BRANCH  28  29
ATOM     29  C   UNL A   1      38.075  30.098  29.403  1.00  0.00     0.031 A 
ATOM     30  C   UNL A   1      39.288  29.367  28.849  1.00  0.00     0.074 A 
ATOM     31  C   UNL A   1      38.239  30.629  30.637  1.00  0.00     0.049 A 
ATOM     32  N   UNL A   1      40.232  28.718  29.485  1.00  0.00    -0.248 NA
ATOM     33  C   UNL A   1      39.445  29.349  27.385  1.00  0.00     0.031 C 
ATOM     34  C   UNL A   1      37.302  31.490  31.353  1.00  0.00     0.029 A 
ATOM     35  N   UNL A   1      39.305  30.529  31.512  1.00  0.00    -0.354 N 
ATOM     36  C   UNL A   1      40.991  28.087  28.506  1.00  0.00     0.074 A 
ATOM     37  C   UNL A   1      40.439  28.484  27.228  1.00  0.00     0.031 C 
ATOM     38  C   UNL A   1      37.871  31.928  32.486  1.00  0.00     0.029 A 
ATOM     39  C   UNL A   1      39.136  31.230  32.681  1.00  0.00     0.049 A 
ATOM     40  H   UNL A   1      40.114  30.002  31.314  1.00  0.00     0.167 HD
ATOM     41  C   UNL A   1      42.031  27.233  28.664  1.00  0.00     0.037 A 
ATOM     42  C   UNL A   1      39.849  31.253  33.826  1.00  0.00     0.037 A 
ATOM     43  C   UNL A   1      42.695  26.980  29.917  1.00  0.00     0.049 A 
ATOM     44  C   UNL A   1      41.010  30.314  34.006  1.00  0.00     0.074 A 
ATOM     45  C   UNL A   1      43.738  26.109  30.189  1.00  0.00     0.029 A 
ATOM     46  N   UNL A   1      42.432  27.662  31.092  1.00  0.00    -0.354 N 
ATOM     47  N   UNL A   1      41.540  29.479  33.149  1.00  0.00    -0.248 NA
ATOM     48  C   UNL A   1      41.625  30.271  35.343  1.00  0.00     0.031 C 
ATOM     49  C   UNL A   1      44.107  26.267  31.530  1.00  0.00     0.029 A 
ATOM     50  C   UNL A   1      43.309  27.253  32.083  1.00  0.00     0.049 A 
ATOM     51  H   UNL A   1      41.726  28.338  31.207  1.00  0.00     0.167 HD
ATOM     52  C   UNL A   1      42.534  28.802  33.843  1.00  0.00     0.074 A 
ATOM     53  C   UNL A   1      42.562  29.348  35.183  1.00  0.00     0.031 C 
ATOM     54  C   UNL A   1      43.335  27.798  33.413  1.00  0.00     0.037 A 
BRANCH  41  55
ATOM     55  C   UNL A   1      42.489  26.451  27.468  1.00  0.00     0.064 A 
ATOM     56  C   UNL A   1      43.566  26.850  26.668  1.00  0.00     0.173 A 
ATOM     57  C   UNL A   1      41.863  25.227  27.167  1.00  0.00     0.173 A 
ATOM     58  F   UNL A   1      44.187  28.013  26.905  1.00  0.00    -0.203 F 
ATOM     59  C   UNL A   1      43.991  26.061  25.600  1.00  0.00     0.198 A 
ATOM     60  C   UNL A   1      42.308  24.429  26.118  1.00  0.00     0.198 A 
ATOM     61  F   UNL A   1      40.832  24.796  27.909  1.00  0.00    -0.203 F 
ATOM     62  F   UNL A   1      45.002  26.477  24.824  1.00  0.00    -0.200 F 
ATOM     63  C   UNL A   1      43.369  24.849  25.332  1.00  0.00     0.200 A 
ATOM     64  F   UNL A   1      41.715  23.253  25.872  1.00  0.00    -0.200 F 
ATOM     65  F   UNL A   1      43.792  24.087  24.314  1.00  0.00    -0.200 F 
ENDBRANCH  41  55
BRANCH  42  66
ATOM     66  C   UNL A   1      39.415  32.121  34.955  1.00  0.00     0.064 A 
ATOM     67  C   UNL A   1      39.830  33.458  35.034  1.00  0.00     0.173 A 
ATOM     68  C   UNL A   1      38.584  31.635  35.976  1.00  0.00     0.173 A 
ATOM     69  F   UNL A   1      40.662  33.956  34.108  1.00  0.00    -0.203 F 
ATOM     70  C   UNL A   1      39.424  34.275  36.087  1.00  0.00     0.198 A 
ATOM     71  C   UNL A   1      38.148  32.463  37.006  1.00  0.00     0.198 A 
ATOM     72  F   UNL A   1      38.172  30.359  35.956  1.00  0.00    -0.203 F 
ATOM     73  F   UNL A   1      39.866  35.538  36.162  1.00  0.00    -0.200 F 
ATOM     74  C   UNL A   1      38.572  33.782  37.064  1.00  0.00     0.200 A 
ATOM     75  F   UNL A   1      37.313  31.984  37.938  1.00  0.00    -0.200 F 
ATOM     76  F   UNL A   1      38.166  34.573  38.065  1.00  0.00    -0.200 F 
ENDBRANCH  42  66
BRANCH  54  77
ATOM     77  C   UNL A   1      44.317  27.233  34.393  1.00  0.00     0.064 A 
ATOM     78  C   UNL A   1      45.596  27.788  34.543  1.00  0.00     0.173 A 
ATOM     79  C   UNL A   1      43.973  26.141  35.202  1.00  0.00     0.173 A 
ATOM     80  F   UNL A   1      45.976  28.824  33.779  1.00  0.00    -0.203 F 
ATOM     81  C   UNL A   1      46.503  27.257  35.456  1.00  0.00     0.198 A 
ATOM     82  C   UNL A   1      44.876  25.623  36.126  1.00  0.00     0.198 A 
ATOM     83  F   UNL A   1      42.761  25.576  35.096  1.00  0.00    -0.203 F 
ATOM     84  F   UNL A   1      47.734  27.779  35.557  1.00  0.00    -0.200 F 
ATOM     85  C   UNL A   1      46.142  26.178  36.249  1.00  0.00     0.200 A 
ATOM     86  F   UNL A   1      44.525  24.583  36.895  1.00  0.00    -0.200 F 
ATOM     87  F   UNL A   1      47.018  25.665  37.124  1.00  0.00    -0.200 F 
ENDBRANCH  54  77
ENDBRANCH  28  29
ENDBRANCH  21  23
ENDBRANCH  20  21
ENDBRANCH  19  20
ENDBRANCH   1  19
TORSDOF 16
ENDMDL
MODEL 2
REMARK VINA RESULT:     -11.2      0.283      1.653
REMARK SMILES C#CCOc1ccccc1/C=C(\C#N)C(=O)OCCOC(=O)c1ccc(-c2c3nc(c(-c4c(F)c(F)c(F)c(F)c4F)c4ccc([nH]4)c(-c4c(F)c(F)c(F)c(F)c4F)c4nc(c(-c5c(F)c(F)c(F)c(F)c5F)c5ccc2[nH]5)C=C4)C=C3)cc1
REMARK SMILES IDX 18 1 17 2 15 3 16 4 12 5 11 6 10 7 5 8 6 9 7 10 9 11 8 12
REMARK SMILES IDX 4 13 3 14 2 15 1 16 13 17 14 18 19 19 20 20 21 21 22 22
REMARK SMILES IDX 23 23 24 24 85 25 25 26 84 27 26 28 27 29 28 30 78 31 29 32
REMARK SMILES IDX 83 33 77 34 79 35 30 36 82 37 76 38 75 39 31 41 63 42 43 43
REMARK SMILES IDX 62 44 44 45 47 46 61 47 80 48 45 49 46 50 60 52 81 53 48 54
REMARK SMILES IDX 32 55 33 56 41 57 34 58 35 59 39 60 42 61 36 62 37 63 40 64
REMARK SMILES IDX 38 65 64 66 65 67 73 68 66 69 67 70 71 71 74 72 68 73 69 74
REMARK SMILES IDX 72 75 70 76 49 77 50 78 58 79 51 80 52 81 56 82 59 83 53 84
REMARK SMILES IDX 54 85 57 86 55 87
REMARK H PARENT 79 40 47 51
REMARK Flexibility Score: inf
ROOT
ATOM      1  C   UNL A   1      31.663  28.622  24.350  1.00  0.00     0.275 C 
ENDROOT
BRANCH   1   2
ATOM      2  O   UNL A   1      32.867  27.906  24.707  1.00  0.00    -0.458 OA
BRANCH   2   3
ATOM      3  C   UNL A   1      32.594  26.640  25.108  1.00  0.00     0.349 C 
ATOM      4  O   UNL A   1      31.484  26.235  25.445  1.00  0.00    -0.245 OA
BRANCH   3   5
ATOM      5  C   UNL A   1      33.796  25.677  25.068  1.00  0.00     0.138 C 
ATOM      6  C   UNL A   1      33.953  24.378  25.577  1.00  0.00     0.039 C 
BRANCH   6   7
ATOM      7  C   UNL A   1      35.183  23.515  25.302  1.00  0.00     0.018 A 
ATOM      8  C   UNL A   1      35.238  22.188  24.786  1.00  0.00     0.128 A 
ATOM      9  C   UNL A   1      36.453  21.470  24.833  1.00  0.00     0.047 A 
ATOM     10  C   UNL A   1      37.619  22.028  25.338  1.00  0.00     0.004 A 
ATOM     11  C   UNL A   1      36.408  24.077  25.732  1.00  0.00     0.012 A 
ATOM     12  C   UNL A   1      37.599  23.341  25.774  1.00  0.00     0.001 A 
BRANCH   8  13
ATOM     13  O   UNL A   1      34.274  21.367  24.250  1.00  0.00    -0.480 OA
BRANCH  13  14
ATOM     14  C   UNL A   1      33.343  20.689  25.075  1.00  0.00     0.318 C 
BRANCH  14  15
ATOM     15  C   UNL A   1      32.932  19.440  24.313  1.00  0.00    -0.065 C 
ATOM     16  C   UNL A   1      32.579  18.368  23.659  1.00  0.00     0.007 C 
ENDBRANCH  14  15
ENDBRANCH  13  14
ENDBRANCH   8  13
ENDBRANCH   6   7
BRANCH   5  17
ATOM     17  C   UNL A   1      33.717  25.336  23.589  1.00  0.00     0.107 C 
ATOM     18  N   UNL A   1      33.652  25.053  22.362  1.00  0.00    -0.192 NA
ENDBRANCH   5  17
ENDBRANCH   3   5
ENDBRANCH   2   3
ENDBRANCH   1   2
BRANCH   1  19
ATOM     19  C   UNL A   1      31.444  29.803  25.286  1.00  0.00     0.275 C 
BRANCH  19  20
ATOM     20  O   UNL A   1      32.310  29.639  26.425  1.00  0.00    -0.458 OA
BRANCH  20  21
ATOM     21  C   UNL A   1      32.830  30.781  26.935  1.00  0.00     0.338 C 
ATOM     22  O   UNL A   1      32.226  31.811  27.182  1.00  0.00    -0.246 OA
BRANCH  21  23
ATOM     23  C   UNL A   1      34.264  30.596  27.269  1.00  0.00     0.060 A 
ATOM     24  C   UNL A   1      34.816  29.328  27.399  1.00  0.00     0.016 A 
ATOM     25  C   UNL A   1      35.034  31.702  27.626  1.00  0.00     0.016 A 
ATOM     26  C   UNL A   1      36.047  29.163  28.051  1.00  0.00     0.010 A 
ATOM     27  C   UNL A   1      36.319  31.526  28.169  1.00  0.00     0.010 A 
ATOM     28  C   UNL A   1      36.820  30.249  28.487  1.00  0.00    -0.014 A 
BRANCH  28  29
ATOM     29  C   UNL A   1      38.050  30.100  29.359  1.00  0.00     0.031 A 
ATOM     30  C   UNL A   1      39.266  29.364  28.819  1.00  0.00     0.074 A 
ATOM     31  C   UNL A   1      38.205  30.639  30.590  1.00  0.00     0.049 A 
ATOM     32  N   UNL A   1      40.206  28.720  29.467  1.00  0.00    -0.248 NA
ATOM     33  C   UNL A   1      39.435  29.336  27.357  1.00  0.00     0.031 C 
ATOM     34  C   UNL A   1      37.262  31.506  31.293  1.00  0.00     0.029 A 
ATOM     35  N   UNL A   1      39.264  30.545  31.473  1.00  0.00    -0.354 N 
ATOM     36  C   UNL A   1      40.971  28.081  28.498  1.00  0.00     0.074 A 
ATOM     37  C   UNL A   1      40.429  28.469  27.213  1.00  0.00     0.031 C 
ATOM     38  C   UNL A   1      37.823  31.952  32.427  1.00  0.00     0.029 A 
ATOM     39  C   UNL A   1      39.086  31.255  32.637  1.00  0.00     0.049 A 
ATOM     40  H   UNL A   1      40.074  30.017  31.286  1.00  0.00     0.167 HD
ATOM     41  C   UNL A   1      42.010  27.228  28.670  1.00  0.00     0.037 A 
ATOM     42  C   UNL A   1      39.790  31.285  33.787  1.00  0.00     0.037 A 
ATOM     43  C   UNL A   1      42.664  26.984  29.930  1.00  0.00     0.049 A 
ATOM     44  C   UNL A   1      40.949  30.347  33.982  1.00  0.00     0.074 A 
ATOM     45  C   UNL A   1      43.704  26.114  30.216  1.00  0.00     0.029 A 
ATOM     46  N   UNL A   1      42.392  27.674  31.098  1.00  0.00    -0.354 N 
ATOM     47  N   UNL A   1      41.486  29.506  33.135  1.00  0.00    -0.248 NA
ATOM     48  C   UNL A   1      41.554  30.314  35.324  1.00  0.00     0.031 C 
ATOM     49  C   UNL A   1      44.064  26.282  31.559  1.00  0.00     0.029 A 
ATOM     50  C   UNL A   1      43.262  27.272  32.099  1.00  0.00     0.049 A 
ATOM     51  H   UNL A   1      41.686  28.352  31.203  1.00  0.00     0.167 HD
ATOM     52  C   UNL A   1      42.474  28.834  33.842  1.00  0.00     0.074 A 
ATOM     53  C   UNL A   1      42.492  29.388  35.178  1.00  0.00     0.031 C 
ATOM     54  C   UNL A   1      43.277  27.826  33.425  1.00  0.00     0.037 A 
BRANCH  41  55
ATOM     55  C   UNL A   1      42.477  26.437  27.484  1.00  0.00     0.064 A 
ATOM     56  C   UNL A   1      43.540  26.846  26.671  1.00  0.00     0.173 A 
ATOM     57  C   UNL A   1      41.874  25.197  27.205  1.00  0.00     0.173 A 
ATOM     58  F   UNL A   1      44.138  28.026  26.886  1.00  0.00    -0.203 F 
ATOM     59  C   UNL A   1      43.975  26.050  25.612  1.00  0.00     0.198 A 
ATOM     60  C   UNL A   1      42.330  24.392  26.165  1.00  0.00     0.198 A 
ATOM     61  F   UNL A   1      40.857  24.756  27.960  1.00  0.00    -0.203 F 
ATOM     62  F   UNL A   1      44.972  26.475  24.823  1.00  0.00    -0.200 F 
ATOM     63  C   UNL A   1      43.377  24.821  25.366  1.00  0.00     0.200 A 
ATOM     64  F   UNL A   1      41.760  23.200  25.941  1.00  0.00    -0.200 F 
ATOM     65  F   UNL A   1      43.810  24.053  24.357  1.00  0.00    -0.200 F 
ENDBRANCH  41  55
BRANCH  42  66
ATOM     66  C   UNL A   1      39.347  32.162  34.906  1.00  0.00     0.064 A 
ATOM     67  C   UNL A   1      38.557  31.654  35.947  1.00  0.00     0.173 A 
ATOM     68  C   UNL A   1      39.698  33.519  34.957  1.00  0.00     0.173 A 
ATOM     69  F   UNL A   1      38.158  30.374  35.920  1.00  0.00    -0.203 F 
ATOM     70  C   UNL A   1      38.143  32.469  36.998  1.00  0.00     0.198 A 
ATOM     71  C   UNL A   1      39.316  34.323  36.027  1.00  0.00     0.198 A 
ATOM     72  F   UNL A   1      40.439  34.058  33.978  1.00  0.00    -0.203 F 
ATOM     73  F   UNL A   1      37.356  31.971  37.961  1.00  0.00    -0.200 F 
ATOM     74  C   UNL A   1      38.535  33.799  37.045  1.00  0.00     0.200 A 
ATOM     75  F   UNL A   1      39.710  35.603  36.073  1.00  0.00    -0.200 F 
ATOM     76  F   UNL A   1      38.153  34.578  38.065  1.00  0.00    -0.200 F 
ENDBRANCH  42  66
BRANCH  54  77
ATOM     77  C   UNL A   1      44.252  27.267  34.416  1.00  0.00     0.064 A 
ATOM     78  C   UNL A   1      43.930  26.153  35.205  1.00  0.00     0.173 A 
ATOM     79  C   UNL A   1      45.524  27.836  34.566  1.00  0.00     0.173 A 
ATOM     80  F   UNL A   1      42.717  25.586  35.107  1.00  0.00    -0.203 F 
ATOM     81  C   UNL A   1      44.841  25.641  36.124  1.00  0.00     0.198 A 
ATOM     82  C   UNL A   1      46.440  27.310  35.474  1.00  0.00     0.198 A 
ATOM     83  F   UNL A   1      45.879  28.901  33.834  1.00  0.00    -0.203 F 
ATOM     84  F   UNL A   1      44.499  24.598  36.895  1.00  0.00    -0.200 F 
ATOM     85  C   UNL A   1      46.096  26.216  36.255  1.00  0.00     0.200 A 
ATOM     86  F   UNL A   1      47.654  27.863  35.597  1.00  0.00    -0.200 F 
ATOM     87  F   UNL A   1      46.971  25.723  37.143  1.00  0.00    -0.200 F 
ENDBRANCH  54  77
ENDBRANCH  28  29
ENDBRANCH  21  23
ENDBRANCH  20  21
ENDBRANCH  19  20
ENDBRANCH   1  19
TORSDOF 16
ENDMDL
MODEL 3
REMARK VINA RESULT:     -10.9      1.148      2.100
REMARK SMILES C#CCOc1ccccc1/C=C(\C#N)C(=O)OCCOC(=O)c1ccc(-c2c3nc(c(-c4c(F)c(F)c(F)c(F)c4F)c4ccc([nH]4)c(-c4c(F)c(F)c(F)c(F)c4F)c4nc(c(-c5c(F)c(F)c(F)c(F)c5F)c5ccc2[nH]5)C=C4)C=C3)cc1
REMARK SMILES IDX 18 1 17 2 15 3 16 4 12 5 11 6 10 7 5 8 6 9 7 10 9 11 8 12
REMARK SMILES IDX 4 13 3 14 2 15 1 16 13 17 14 18 19 19 20 20 21 21 22 22
REMARK SMILES IDX 23 23 24 24 85 25 25 26 84 27 26 28 27 29 28 30 78 31 29 32
REMARK SMILES IDX 83 33 77 34 79 35 30 36 82 37 76 38 75 39 31 41 63 42 43 43
REMARK SMILES IDX 62 44 44 45 47 46 61 47 80 48 45 49 46 50 60 52 81 53 48 54
REMARK SMILES IDX 32 55 33 56 41 57 34 58 35 59 39 60 42 61 36 62 37 63 40 64
REMARK SMILES IDX 38 65 64 66 65 67 73 68 66 69 67 70 71 71 74 72 68 73 69 74
REMARK SMILES IDX 72 75 70 76 49 77 50 78 58 79 51 80 52 81 56 82 59 83 53 84
REMARK SMILES IDX 54 85 57 86 55 87
REMARK H PARENT 79 40 47 51
REMARK Flexibility Score: inf
ROOT
ATOM      1  C   UNL A   1      31.576  28.009  26.252  1.00  0.00     0.275 C 
ENDROOT
BRANCH   1   2
ATOM      2  O   UNL A   1      31.727  26.876  27.137  1.00  0.00    -0.458 OA
BRANCH   2   3
ATOM      3  C   UNL A   1      31.405  25.713  26.518  1.00  0.00     0.349 C 
ATOM      4  O   UNL A   1      30.291  25.195  26.533  1.00  0.00    -0.245 OA
BRANCH   3   5
ATOM      5  C   UNL A   1      32.552  25.072  25.713  1.00  0.00     0.138 C 
ATOM      6  C   UNL A   1      33.921  25.378  25.659  1.00  0.00     0.039 C 
BRANCH   6   7
ATOM      7  C   UNL A   1      34.939  24.521  24.908  1.00  0.00     0.018 A 
ATOM      8  C   UNL A   1      34.862  24.011  23.580  1.00  0.00     0.128 A 
ATOM      9  C   UNL A   1      35.788  23.036  23.149  1.00  0.00     0.047 A 
ATOM     10  C   UNL A   1      36.807  22.576  23.972  1.00  0.00     0.004 A 
ATOM     11  C   UNL A   1      36.038  24.089  25.687  1.00  0.00     0.012 A 
ATOM     12  C   UNL A   1      36.942  23.117  25.238  1.00  0.00     0.001 A 
BRANCH   8  13
ATOM     13  O   UNL A   1      33.977  24.245  22.553  1.00  0.00    -0.480 OA
BRANCH  13  14
ATOM     14  C   UNL A   1      33.376  23.178  21.840  1.00  0.00     0.318 C 
BRANCH  14  15
ATOM     15  C   UNL A   1      32.742  22.273  22.884  1.00  0.00    -0.065 C 
ATOM     16  C   UNL A   1      32.198  21.497  23.780  1.00  0.00     0.007 C 
ENDBRANCH  14  15
ENDBRANCH  13  14
ENDBRANCH   8  13
ENDBRANCH   6   7
BRANCH   5  17
ATOM     17  C   UNL A   1      32.637  23.776  26.502  1.00  0.00     0.107 C 
ATOM     18  N   UNL A   1      32.708  22.700  27.157  1.00  0.00    -0.192 NA
ENDBRANCH   5  17
ENDBRANCH   3   5
ENDBRANCH   2   3
ENDBRANCH   1   2
BRANCH   1  19
ATOM     19  C   UNL A   1      31.784  29.313  27.010  1.00  0.00     0.275 C 
BRANCH  19  20
ATOM     20  O   UNL A   1      32.873  30.022  26.391  1.00  0.00    -0.458 OA
BRANCH  20  21
ATOM     21  C   UNL A   1      33.368  31.067  27.095  1.00  0.00     0.338 C 
ATOM     22  O   UNL A   1      32.755  32.054  27.464  1.00  0.00    -0.246 OA
BRANCH  21  23
ATOM     23  C   UNL A   1      34.782  30.820  27.471  1.00  0.00     0.060 A 
ATOM     24  C   UNL A   1      35.273  29.529  27.619  1.00  0.00     0.016 A 
ATOM     25  C   UNL A   1      35.590  31.890  27.850  1.00  0.00     0.016 A 
ATOM     26  C   UNL A   1      36.476  29.310  28.307  1.00  0.00     0.010 A 
ATOM     27  C   UNL A   1      36.849  31.659  28.430  1.00  0.00     0.010 A 
ATOM     28  C   UNL A   1      37.283  30.361  28.764  1.00  0.00    -0.014 A 
BRANCH  28  29
ATOM     29  C   UNL A   1      38.479  30.159  29.672  1.00  0.00     0.031 A 
ATOM     30  C   UNL A   1      39.695  29.407  29.154  1.00  0.00     0.074 A 
ATOM     31  C   UNL A   1      38.605  30.662  30.922  1.00  0.00     0.049 A 
ATOM     32  N   UNL A   1      40.596  28.723  29.815  1.00  0.00    -0.248 NA
ATOM     33  C   UNL A   1      39.911  29.412  27.698  1.00  0.00     0.031 C 
ATOM     34  C   UNL A   1      37.660  31.534  31.615  1.00  0.00     0.029 A 
ATOM     35  N   UNL A   1      39.631  30.519  31.837  1.00  0.00    -0.354 N 
ATOM     36  C   UNL A   1      41.378  28.091  28.855  1.00  0.00     0.074 A 
ATOM     37  C   UNL A   1      40.889  28.525  27.564  1.00  0.00     0.031 C 
ATOM     38  C   UNL A   1      38.193  31.936  32.779  1.00  0.00     0.029 A 
ATOM     39  C   UNL A   1      39.431  31.203  33.012  1.00  0.00     0.049 A 
ATOM     40  H   UNL A   1      40.434  29.976  31.662  1.00  0.00     0.167 HD
ATOM     41  C   UNL A   1      42.389  27.207  29.039  1.00  0.00     0.037 A 
ATOM     42  C   UNL A   1      40.097  31.186  34.185  1.00  0.00     0.037 A 
ATOM     43  C   UNL A   1      42.995  26.915  30.313  1.00  0.00     0.049 A 
ATOM     44  C   UNL A   1      41.225  30.215  34.394  1.00  0.00     0.074 A 
ATOM     45  C   UNL A   1      44.003  26.012  30.610  1.00  0.00     0.029 A 
ATOM     46  N   UNL A   1      42.700  27.581  31.489  1.00  0.00    -0.354 N 
ATOM     47  N   UNL A   1      41.770  29.383  33.543  1.00  0.00    -0.248 NA
ATOM     48  C   UNL A   1      41.783  30.132  35.754  1.00  0.00     0.031 C 
ATOM     49  C   UNL A   1      44.321  26.136  31.969  1.00  0.00     0.029 A 
ATOM     50  C   UNL A   1      43.525  27.132  32.507  1.00  0.00     0.049 A 
ATOM     51  H   UNL A   1      42.007  28.273  31.589  1.00  0.00     0.167 HD
ATOM     52  C   UNL A   1      42.717  28.667  34.264  1.00  0.00     0.074 A 
ATOM     53  C   UNL A   1      42.703  29.187  35.615  1.00  0.00     0.031 C 
ATOM     54  C   UNL A   1      43.509  27.651  33.848  1.00  0.00     0.037 A 
BRANCH  41  55
ATOM     55  C   UNL A   1      42.877  26.436  27.848  1.00  0.00     0.064 A 
ATOM     56  C   UNL A   1      42.314  25.218  27.451  1.00  0.00     0.173 A 
ATOM     57  C   UNL A   1      43.898  26.981  27.049  1.00  0.00     0.173 A 
ATOM     58  F   UNL A   1      41.347  24.651  28.186  1.00  0.00    -0.203 F 
ATOM     59  C   UNL A   1      42.764  24.564  26.304  1.00  0.00     0.198 A 
ATOM     60  C   UNL A   1      44.325  26.340  25.890  1.00  0.00     0.198 A 
ATOM     61  F   UNL A   1      44.465  28.150  27.382  1.00  0.00    -0.203 F 
ATOM     62  F   UNL A   1      42.235  23.382  25.960  1.00  0.00    -0.200 F 
ATOM     63  C   UNL A   1      43.761  25.129  25.521  1.00  0.00     0.200 A 
ATOM     64  F   UNL A   1      45.277  26.896  25.128  1.00  0.00    -0.200 F 
ATOM     65  F   UNL A   1      44.179  24.505  24.411  1.00  0.00    -0.200 F 
ENDBRANCH  41  55
BRANCH  42  66
ATOM     66  C   UNL A   1      39.638  32.045  35.312  1.00  0.00     0.064 A 
ATOM     67  C   UNL A   1      38.665  31.588  36.213  1.00  0.00     0.173 A 
ATOM     68  C   UNL A   1      40.154  33.334  35.509  1.00  0.00     0.173 A 
ATOM     69  F   UNL A   1      38.108  30.381  36.040  1.00  0.00    -0.203 F 
ATOM     70  C   UNL A   1      38.235  32.386  37.271  1.00  0.00     0.198 A 
ATOM     71  C   UNL A   1      39.752  34.115  36.588  1.00  0.00     0.198 A 
ATOM     72  F   UNL A   1      41.075  33.824  34.666  1.00  0.00    -0.203 F 
ATOM     73  F   UNL A   1      37.276  31.943  38.095  1.00  0.00    -0.200 F 
ATOM     74  C   UNL A   1      38.789  33.643  37.467  1.00  0.00     0.200 A 
ATOM     75  F   UNL A   1      40.301  35.322  36.779  1.00  0.00    -0.200 F 
ATOM     76  F   UNL A   1      38.389  34.402  38.495  1.00  0.00    -0.200 F 
ENDBRANCH  42  66
BRANCH  54  77
ATOM     77  C   UNL A   1      44.436  27.043  34.855  1.00  0.00     0.064 A 
ATOM     78  C   UNL A   1      45.701  27.595  35.107  1.00  0.00     0.173 A 
ATOM     79  C   UNL A   1      44.052  25.913  35.590  1.00  0.00     0.173 A 
ATOM     80  F   UNL A   1      46.118  28.668  34.416  1.00  0.00    -0.203 F 
ATOM     81  C   UNL A   1      46.556  27.024  36.045  1.00  0.00     0.198 A 
ATOM     82  C   UNL A   1      44.903  25.354  36.540  1.00  0.00     0.198 A 
ATOM     83  F   UNL A   1      42.852  25.350  35.386  1.00  0.00    -0.203 F 
ATOM     84  F   UNL A   1      47.776  27.544  36.243  1.00  0.00    -0.200 F 
ATOM     85  C   UNL A   1      46.155  25.907  36.763  1.00  0.00     0.200 A 
ATOM     86  F   UNL A   1      44.514  24.278  37.237  1.00  0.00    -0.200 F 
ATOM     87  F   UNL A   1      46.982  25.355  37.663  1.00  0.00    -0.200 F 
ENDBRANCH  54  77
ENDBRANCH  28  29
ENDBRANCH  21  23
ENDBRANCH  20  21
ENDBRANCH  19  20
ENDBRANCH   1  19
TORSDOF 16
ENDMDL
