MODEL 1
REMARK VINA RESULT:     -11.3      0.000      0.000
REMARK SMILES CC(=O)NCCNC(=O)C[N@H+]1CC[C@@H](C(=O)OCCOC(=O)c2ccc(-c3c4nc(c(-c5c(F)c(F)c(F)c(F)c5F)c5ccc([nH]5)c(-c5c(F)c(F)c(F)c(F)c5F)c5nc(c(-c6c(F)c(F)c(F)c(F)c6F)c6ccc3[nH]6)C=C5)C=C4)cc2)[C@H]1C
REMARK SMILES IDX 17 1 15 2 16 3 14 4 11 5 12 6 86 7 13 9 87 10 10 11 8 12
REMARK SMILES IDX 7 13 9 15 6 16 5 17 4 18 1 19 2 20 3 21 18 23 19 24 20 25
REMARK SMILES IDX 21 26 22 27 23 28 24 29 85 30 25 31 84 32 26 33 27 34 28 35
REMARK SMILES IDX 78 36 29 37 83 38 77 39 79 40 30 41 82 42 76 43 75 44 31 46
REMARK SMILES IDX 63 47 43 48 62 49 44 50 47 51 61 52 80 53 45 54 46 55 60 57
REMARK SMILES IDX 81 58 48 59 32 60 33 61 41 62 34 63 35 64 39 65 42 66 36 67
REMARK SMILES IDX 37 68 40 69 38 70 64 71 65 72 73 73 66 74 67 75 71 76 74 77
REMARK SMILES IDX 68 78 69 79 72 80 70 81 49 82 50 83 58 84 51 85 52 86 56 87
REMARK SMILES IDX 59 88 53 89 54 90 57 91 55 92
REMARK H PARENT 11 8 7 14 4 22 79 45 47 56
REMARK Flexibility Score: inf
ROOT
ATOM      1  O   UNL A   1      36.442  20.851  24.973  1.00  0.00    -0.462 OA
ENDROOT
BRANCH   1   2
ATOM      2  C   UNL A   1      35.536  21.713  25.486  1.00  0.00     0.315 C 
ATOM      3  O   UNL A   1      35.012  21.581  26.590  1.00  0.00    -0.252 OA
BRANCH   2   4
ATOM      4  C   UNL A   1      35.142  22.844  24.564  1.00  0.00     0.162 C 
ATOM      5  N   UNL A   1      33.781  24.166  23.163  1.00  0.00    -0.324 N 
ATOM      6  C   UNL A   1      34.266  25.004  24.263  1.00  0.00     0.264 C 
ATOM      7  C   UNL A   1      34.080  22.731  23.454  1.00  0.00     0.195 C 
ATOM      8  H   UNL A   1      34.306  24.356  22.310  1.00  0.00     0.348 HD
ATOM      9  C   UNL A   1      34.711  24.060  25.354  1.00  0.00     0.083 C 
ATOM     10  C   UNL A   1      32.870  21.851  23.771  1.00  0.00     0.076 C 
BRANCH   5  11
ATOM     11  C   UNL A   1      32.443  24.533  22.681  1.00  0.00     0.363 C 
BRANCH  11  12
ATOM     12  C   UNL A   1      32.524  25.564  21.552  1.00  0.00     0.275 C 
ATOM     13  N   UNL A   1      31.734  26.684  21.613  1.00  0.00    -0.349 N 
ATOM     14  H   UNL A   1      31.688  27.223  20.790  1.00  0.00     0.163 HD
ATOM     15  O   UNL A   1      33.237  25.396  20.562  1.00  0.00    -0.269 OA
BRANCH  13  16
ATOM     16  C   UNL A   1      30.956  27.175  22.741  1.00  0.00     0.137 C 
BRANCH  16  17
ATOM     17  C   UNL A   1      30.234  28.481  22.389  1.00  0.00     0.137 C 
BRANCH  17  18
ATOM     18  N   UNL A   1      28.890  28.500  22.951  1.00  0.00    -0.355 N 
ATOM     19  C   UNL A   1      28.044  30.310  21.510  1.00  0.00     0.114 C 
ATOM     20  C   UNL A   1      27.864  29.348  22.652  1.00  0.00     0.216 C 
ATOM     21  O   UNL A   1      26.825  29.302  23.307  1.00  0.00    -0.275 OA
ATOM     22  H   UNL A   1      28.697  27.814  23.631  1.00  0.00     0.163 HD
ENDBRANCH  17  18
ENDBRANCH  16  17
ENDBRANCH  13  16
ENDBRANCH  11  12
ENDBRANCH   5  11
ENDBRANCH   2   4
ENDBRANCH   1   2
BRANCH   1  23
ATOM     23  C   UNL A   1      37.824  21.260  25.037  1.00  0.00     0.274 C 
BRANCH  23  24
ATOM     24  C   UNL A   1      38.705  20.187  25.689  1.00  0.00     0.275 C 
BRANCH  24  25
ATOM     25  O   UNL A   1      40.081  20.603  25.804  1.00  0.00    -0.458 OA
BRANCH  25  26
ATOM     26  C   UNL A   1      40.556  20.674  27.071  1.00  0.00     0.338 C 
ATOM     27  O   UNL A   1      40.789  19.743  27.822  1.00  0.00    -0.246 OA
BRANCH  26  28
ATOM     28  C   UNL A   1      40.918  22.061  27.403  1.00  0.00     0.060 A 
ATOM     29  C   UNL A   1      40.445  23.072  26.562  1.00  0.00     0.016 A 
ATOM     30  C   UNL A   1      41.776  22.364  28.461  1.00  0.00     0.016 A 
ATOM     31  C   UNL A   1      40.827  24.393  26.768  1.00  0.00     0.010 A 
ATOM     32  C   UNL A   1      42.165  23.693  28.665  1.00  0.00     0.010 A 
ATOM     33  C   UNL A   1      41.701  24.711  27.813  1.00  0.00    -0.014 A 
BRANCH  33  34
ATOM     34  C   UNL A   1      42.173  26.108  27.963  1.00  0.00     0.031 A 
ATOM     35  C   UNL A   1      43.494  26.512  27.378  1.00  0.00     0.074 A 
ATOM     36  C   UNL A   1      41.393  27.017  28.576  1.00  0.00     0.049 A 
ATOM     37  N   UNL A   1      44.119  27.660  27.457  1.00  0.00    -0.248 NA
ATOM     38  C   UNL A   1      44.205  25.490  26.596  1.00  0.00     0.031 C 
ATOM     39  C   UNL A   1      40.063  26.754  29.125  1.00  0.00     0.029 A 
ATOM     40  N   UNL A   1      41.606  28.346  28.836  1.00  0.00    -0.354 N 
ATOM     41  C   UNL A   1      45.301  27.495  26.748  1.00  0.00     0.074 A 
ATOM     42  C   UNL A   1      45.316  26.132  26.259  1.00  0.00     0.031 C 
ATOM     43  C   UNL A   1      39.578  27.888  29.655  1.00  0.00     0.029 A 
ATOM     44  C   UNL A   1      40.579  28.942  29.524  1.00  0.00     0.049 A 
ATOM     45  H   UNL A   1      42.419  28.827  28.554  1.00  0.00     0.167 HD
ATOM     46  C   UNL A   1      46.281  28.401  26.526  1.00  0.00     0.037 A 
ATOM     47  C   UNL A   1      40.474  30.192  30.016  1.00  0.00     0.037 A 
ATOM     48  C   UNL A   1      46.256  29.758  27.007  1.00  0.00     0.049 A 
ATOM     49  C   UNL A   1      41.609  31.158  29.811  1.00  0.00     0.074 A 
ATOM     50  C   UNL A   1      47.211  30.748  26.854  1.00  0.00     0.029 A 
ATOM     51  N   UNL A   1      45.212  30.318  27.729  1.00  0.00    -0.354 N 
ATOM     52  N   UNL A   1      42.738  30.985  29.168  1.00  0.00    -0.248 NA
ATOM     53  C   UNL A   1      41.457  32.494  30.406  1.00  0.00     0.031 C 
ATOM     54  C   UNL A   1      46.759  31.898  27.511  1.00  0.00     0.029 A 
ATOM     55  C   UNL A   1      45.505  31.636  28.038  1.00  0.00     0.049 A 
ATOM     56  H   UNL A   1      44.387  29.847  27.985  1.00  0.00     0.167 HD
ATOM     57  C   UNL A   1      43.418  32.192  29.259  1.00  0.00     0.074 A 
ATOM     58  C   UNL A   1      42.570  33.094  30.008  1.00  0.00     0.031 C 
ATOM     59  C   UNL A   1      44.639  32.522  28.770  1.00  0.00     0.037 A 
BRANCH  46  60
ATOM     60  C   UNL A   1      47.481  27.948  25.749  1.00  0.00     0.064 A 
ATOM     61  C   UNL A   1      48.666  27.560  26.388  1.00  0.00     0.173 A 
ATOM     62  C   UNL A   1      47.426  27.860  24.349  1.00  0.00     0.173 A 
ATOM     63  F   UNL A   1      48.772  27.640  27.722  1.00  0.00    -0.203 F 
ATOM     64  C   UNL A   1      49.762  27.112  25.651  1.00  0.00     0.198 A 
ATOM     65  C   UNL A   1      48.514  27.391  23.619  1.00  0.00     0.198 A 
ATOM     66  F   UNL A   1      46.314  28.218  23.692  1.00  0.00    -0.203 F 
ATOM     67  F   UNL A   1      50.897  26.777  26.279  1.00  0.00    -0.200 F 
ATOM     68  C   UNL A   1      49.683  27.022  24.270  1.00  0.00     0.200 A 
ATOM     69  F   UNL A   1      48.433  27.295  22.284  1.00  0.00    -0.200 F 
ATOM     70  F   UNL A   1      50.733  26.582  23.564  1.00  0.00    -0.200 F 
ENDBRANCH  46  60
BRANCH  47  71
ATOM     71  C   UNL A   1      39.262  30.595  30.773  1.00  0.00     0.064 A 
ATOM     72  C   UNL A   1      39.168  30.382  32.156  1.00  0.00     0.173 A 
ATOM     73  C   UNL A   1      38.162  31.179  30.126  1.00  0.00     0.173 A 
ATOM     74  F   UNL A   1      40.183  29.805  32.814  1.00  0.00    -0.203 F 
ATOM     75  C   UNL A   1      38.013  30.720  32.858  1.00  0.00     0.198 A 
ATOM     76  C   UNL A   1      37.019  31.542  30.834  1.00  0.00     0.198 A 
ATOM     77  F   UNL A   1      38.200  31.399  28.804  1.00  0.00    -0.203 F 
ATOM     78  F   UNL A   1      37.930  30.462  34.170  1.00  0.00    -0.200 F 
ATOM     79  C   UNL A   1      36.941  31.304  32.199  1.00  0.00     0.200 A 
ATOM     80  F   UNL A   1      35.991  32.115  30.195  1.00  0.00    -0.200 F 
ATOM     81  F   UNL A   1      35.832  31.628  32.874  1.00  0.00    -0.200 F 
ENDBRANCH  47  71
BRANCH  59  82
ATOM     82  C   UNL A   1      45.107  33.928  28.995  1.00  0.00     0.064 A 
ATOM     83  C   UNL A   1      44.834  34.949  28.073  1.00  0.00     0.173 A 
ATOM     84  C   UNL A   1      45.808  34.264  30.163  1.00  0.00     0.173 A 
ATOM     85  F   UNL A   1      44.181  34.672  26.934  1.00  0.00    -0.203 F 
ATOM     86  C   UNL A   1      45.267  36.252  28.300  1.00  0.00     0.198 A 
ATOM     87  C   UNL A   1      46.218  35.573  30.399  1.00  0.00     0.198 A 
ATOM     88  F   UNL A   1      46.088  33.325  31.077  1.00  0.00    -0.203 F 
ATOM     89  F   UNL A   1      45.035  37.203  27.386  1.00  0.00    -0.200 F 
ATOM     90  C   UNL A   1      45.953  36.565  29.466  1.00  0.00     0.200 A 
ATOM     91  F   UNL A   1      46.872  35.875  31.529  1.00  0.00    -0.200 F 
ATOM     92  F   UNL A   1      46.366  37.820  29.684  1.00  0.00    -0.200 F 
ENDBRANCH  59  82
ENDBRANCH  33  34
ENDBRANCH  26  28
ENDBRANCH  25  26
ENDBRANCH  24  25
ENDBRANCH  23  24
ENDBRANCH   1  23
TORSDOF 16
ENDMDL
MODEL 2
REMARK VINA RESULT:     -11.2      4.577      8.041
REMARK SMILES CC(=O)NCCNC(=O)C[N@H+]1CC[C@@H](C(=O)OCCOC(=O)c2ccc(-c3c4nc(c(-c5c(F)c(F)c(F)c(F)c5F)c5ccc([nH]5)c(-c5c(F)c(F)c(F)c(F)c5F)c5nc(c(-c6c(F)c(F)c(F)c(F)c6F)c6ccc3[nH]6)C=C5)C=C4)cc2)[C@H]1C
REMARK SMILES IDX 17 1 15 2 16 3 14 4 11 5 12 6 86 7 13 9 87 10 10 11 8 12
REMARK SMILES IDX 7 13 9 15 6 16 5 17 4 18 1 19 2 20 3 21 18 23 19 24 20 25
REMARK SMILES IDX 21 26 22 27 23 28 24 29 85 30 25 31 84 32 26 33 27 34 28 35
REMARK SMILES IDX 78 36 29 37 83 38 77 39 79 40 30 41 82 42 76 43 75 44 31 46
REMARK SMILES IDX 63 47 43 48 62 49 44 50 47 51 61 52 80 53 45 54 46 55 60 57
REMARK SMILES IDX 81 58 48 59 32 60 33 61 41 62 34 63 35 64 39 65 42 66 36 67
REMARK SMILES IDX 37 68 40 69 38 70 64 71 65 72 73 73 66 74 67 75 71 76 74 77
REMARK SMILES IDX 68 78 69 79 72 80 70 81 49 82 50 83 58 84 51 85 52 86 56 87
REMARK SMILES IDX 59 88 53 89 54 90 57 91 55 92
REMARK H PARENT 11 8 7 14 4 22 79 45 47 56
REMARK Flexibility Score: inf
ROOT
ATOM      1  O   UNL A   1      31.777  27.395  25.156  1.00  0.00    -0.462 OA
ENDROOT
BRANCH   1   2
ATOM      2  C   UNL A   1      31.676  26.466  24.180  1.00  0.00     0.315 C 
ATOM      3  O   UNL A   1      31.441  26.730  23.003  1.00  0.00    -0.252 OA
BRANCH   2   4
ATOM      4  C   UNL A   1      31.801  25.034  24.649  1.00  0.00     0.162 C 
ATOM      5  N   UNL A   1      32.826  22.985  25.205  1.00  0.00    -0.324 N 
ATOM      6  C   UNL A   1      32.132  23.493  26.392  1.00  0.00     0.264 C 
ATOM      7  C   UNL A   1      32.879  24.050  24.158  1.00  0.00     0.195 C 
ATOM      8  H   UNL A   1      32.286  22.239  24.768  1.00  0.00     0.348 HD
ATOM      9  C   UNL A   1      31.909  24.968  26.157  1.00  0.00     0.083 C 
ATOM     10  C   UNL A   1      34.260  24.647  23.888  1.00  0.00     0.076 C 
BRANCH   5  11
ATOM     11  C   UNL A   1      34.043  22.221  25.510  1.00  0.00     0.363 C 
BRANCH  11  12
ATOM     12  C   UNL A   1      33.848  21.335  26.743  1.00  0.00     0.275 C 
ATOM     13  N   UNL A   1      33.301  20.087  26.588  1.00  0.00    -0.349 N 
ATOM     14  H   UNL A   1      33.032  19.630  27.418  1.00  0.00     0.163 HD
ATOM     15  O   UNL A   1      34.117  21.727  27.879  1.00  0.00    -0.269 OA
BRANCH  13  16
ATOM     16  C   UNL A   1      33.067  19.355  25.352  1.00  0.00     0.137 C 
BRANCH  16  17
ATOM     17  C   UNL A   1      32.542  17.942  25.636  1.00  0.00     0.137 C 
BRANCH  17  18
ATOM     18  N   UNL A   1      33.642  17.015  25.864  1.00  0.00    -0.355 N 
ATOM     19  C   UNL A   1      34.040  16.516  23.484  1.00  0.00     0.114 C 
ATOM     20  C   UNL A   1      34.324  16.276  24.942  1.00  0.00     0.216 C 
ATOM     21  O   UNL A   1      35.152  15.449  25.316  1.00  0.00    -0.275 OA
ATOM     22  H   UNL A   1      33.929  16.908  26.799  1.00  0.00     0.163 HD
ENDBRANCH  17  18
ENDBRANCH  16  17
ENDBRANCH  13  16
ENDBRANCH  11  12
ENDBRANCH   5  11
ENDBRANCH   2   4
ENDBRANCH   1   2
BRANCH   1  23
ATOM     23  C   UNL A   1      32.896  28.300  25.066  1.00  0.00     0.274 C 
BRANCH  23  24
ATOM     24  C   UNL A   1      32.481  29.748  25.358  1.00  0.00     0.275 C 
BRANCH  24  25
ATOM     25  O   UNL A   1      32.551  30.065  26.764  1.00  0.00    -0.458 OA
BRANCH  25  26
ATOM     26  C   UNL A   1      33.168  31.233  27.059  1.00  0.00     0.338 C 
ATOM     27  O   UNL A   1      32.707  32.356  26.955  1.00  0.00    -0.246 OA
BRANCH  26  28
ATOM     28  C   UNL A   1      34.471  30.976  27.694  1.00  0.00     0.060 A 
ATOM     29  C   UNL A   1      34.741  29.669  28.110  1.00  0.00     0.016 A 
ATOM     30  C   UNL A   1      35.376  32.004  27.959  1.00  0.00     0.016 A 
ATOM     31  C   UNL A   1      35.914  29.379  28.798  1.00  0.00     0.010 A 
ATOM     32  C   UNL A   1      36.554  31.713  28.657  1.00  0.00     0.010 A 
ATOM     33  C   UNL A   1      36.823  30.402  29.087  1.00  0.00    -0.014 A 
BRANCH  33  34
ATOM     34  C   UNL A   1      38.023  30.096  29.901  1.00  0.00     0.031 A 
ATOM     35  C   UNL A   1      39.102  29.221  29.334  1.00  0.00     0.074 A 
ATOM     36  C   UNL A   1      38.163  30.645  31.122  1.00  0.00     0.049 A 
ATOM     37  N   UNL A   1      40.195  28.778  29.903  1.00  0.00    -0.248 NA
ATOM     38  C   UNL A   1      38.932  28.792  27.937  1.00  0.00     0.031 C 
ATOM     39  C   UNL A   1      37.211  31.561  31.748  1.00  0.00     0.029 A 
ATOM     40  N   UNL A   1      39.164  30.513  32.050  1.00  0.00    -0.354 N 
ATOM     41  C   UNL A   1      40.834  28.007  28.941  1.00  0.00     0.074 A 
ATOM     42  C   UNL A   1      40.002  28.029  27.757  1.00  0.00     0.031 C 
ATOM     43  C   UNL A   1      37.675  31.911  32.959  1.00  0.00     0.029 A 
ATOM     44  C   UNL A   1      38.931  31.210  33.209  1.00  0.00     0.049 A 
ATOM     45  H   UNL A   1      39.973  29.972  31.898  1.00  0.00     0.167 HD
ATOM     46  C   UNL A   1      42.010  27.345  29.041  1.00  0.00     0.037 A 
ATOM     47  C   UNL A   1      39.640  31.252  34.354  1.00  0.00     0.037 A 
ATOM     48  C   UNL A   1      42.838  27.335  30.219  1.00  0.00     0.049 A 
ATOM     49  C   UNL A   1      40.910  30.452  34.459  1.00  0.00     0.074 A 
ATOM     50  C   UNL A   1      44.037  26.676  30.428  1.00  0.00     0.029 A 
ATOM     51  N   UNL A   1      42.554  28.027  31.387  1.00  0.00    -0.354 N 
ATOM     52  N   UNL A   1      41.492  29.700  33.557  1.00  0.00    -0.248 NA
ATOM     53  C   UNL A   1      41.620  30.503  35.746  1.00  0.00     0.031 C 
ATOM     54  C   UNL A   1      44.463  26.944  31.733  1.00  0.00     0.029 A 
ATOM     55  C   UNL A   1      43.550  27.802  32.323  1.00  0.00     0.049 A 
ATOM     56  H   UNL A   1      41.761  28.592  31.529  1.00  0.00     0.167 HD
ATOM     57  C   UNL A   1      42.645  29.209  34.156  1.00  0.00     0.074 A 
ATOM     58  C   UNL A   1      42.687  29.759  35.494  1.00  0.00     0.031 C 
ATOM     59  C   UNL A   1      43.581  28.373  33.644  1.00  0.00     0.037 A 
BRANCH  46  60
ATOM     60  C   UNL A   1      42.462  26.551  27.852  1.00  0.00     0.064 A 
ATOM     61  C   UNL A   1      42.050  25.227  27.653  1.00  0.00     0.173 A 
ATOM     62  C   UNL A   1      43.282  27.141  26.877  1.00  0.00     0.173 A 
ATOM     63  F   UNL A   1      41.278  24.616  28.563  1.00  0.00    -0.203 F 
ATOM     64  C   UNL A   1      42.455  24.514  26.526  1.00  0.00     0.198 A 
ATOM     65  C   UNL A   1      43.666  26.433  25.742  1.00  0.00     0.198 A 
ATOM     66  F   UNL A   1      43.702  28.406  27.021  1.00  0.00    -0.203 F 
ATOM     67  F   UNL A   1      42.076  23.237  26.371  1.00  0.00    -0.200 F 
ATOM     68  C   UNL A   1      43.255  25.119  25.569  1.00  0.00     0.200 A 
ATOM     69  F   UNL A   1      44.432  27.022  24.813  1.00  0.00    -0.200 F 
ATOM     70  F   UNL A   1      43.636  24.435  24.481  1.00  0.00    -0.200 F 
ENDBRANCH  46  60
BRANCH  47  71
ATOM     71  C   UNL A   1      39.154  32.059  35.502  1.00  0.00     0.064 A 
ATOM     72  C   UNL A   1      39.503  33.410  35.635  1.00  0.00     0.173 A 
ATOM     73  C   UNL A   1      38.353  31.489  36.504  1.00  0.00     0.173 A 
ATOM     74  F   UNL A   1      40.288  33.992  34.718  1.00  0.00    -0.203 F 
ATOM     75  C   UNL A   1      39.084  34.155  36.735  1.00  0.00     0.198 A 
ATOM     76  C   UNL A   1      37.911  32.243  37.588  1.00  0.00     0.198 A 
ATOM     77  F   UNL A   1      37.995  30.200  36.425  1.00  0.00    -0.203 F 
ATOM     78  F   UNL A   1      39.471  35.432  36.864  1.00  0.00    -0.200 F 
ATOM     79  C   UNL A   1      38.285  33.574  37.709  1.00  0.00     0.200 A 
ATOM     80  F   UNL A   1      37.131  31.680  38.520  1.00  0.00    -0.200 F 
ATOM     81  F   UNL A   1      37.883  34.290  38.766  1.00  0.00    -0.200 F 
ENDBRANCH  47  71
BRANCH  59  82
ATOM     82  C   UNL A   1      44.751  28.040  34.521  1.00  0.00     0.064 A 
ATOM     83  C   UNL A   1      45.908  28.832  34.534  1.00  0.00     0.173 A 
ATOM     84  C   UNL A   1      44.699  26.934  35.382  1.00  0.00     0.173 A 
ATOM     85  F   UNL A   1      46.010  29.891  33.717  1.00  0.00    -0.203 F 
ATOM     86  C   UNL A   1      46.981  28.515  35.361  1.00  0.00     0.198 A 
ATOM     87  C   UNL A   1      45.764  26.633  36.226  1.00  0.00     0.198 A 
ATOM     88  F   UNL A   1      43.612  26.149  35.410  1.00  0.00    -0.203 F 
ATOM     89  F   UNL A   1      48.095  29.259  35.327  1.00  0.00    -0.200 F 
ATOM     90  C   UNL A   1      46.906  27.420  36.211  1.00  0.00     0.200 A 
ATOM     91  F   UNL A   1      45.686  25.582  37.052  1.00  0.00    -0.200 F 
ATOM     92  F   UNL A   1      47.940  27.118  37.008  1.00  0.00    -0.200 F 
ENDBRANCH  59  82
ENDBRANCH  33  34
ENDBRANCH  26  28
ENDBRANCH  25  26
ENDBRANCH  24  25
ENDBRANCH  23  24
ENDBRANCH   1  23
TORSDOF 16
ENDMDL
MODEL 3
REMARK VINA RESULT:     -11.2      4.667      7.993
REMARK SMILES CC(=O)NCCNC(=O)C[N@H+]1CC[C@@H](C(=O)OCCOC(=O)c2ccc(-c3c4nc(c(-c5c(F)c(F)c(F)c(F)c5F)c5ccc([nH]5)c(-c5c(F)c(F)c(F)c(F)c5F)c5nc(c(-c6c(F)c(F)c(F)c(F)c6F)c6ccc3[nH]6)C=C5)C=C4)cc2)[C@H]1C
REMARK SMILES IDX 17 1 15 2 16 3 14 4 11 5 12 6 86 7 13 9 87 10 10 11 8 12
REMARK SMILES IDX 7 13 9 15 6 16 5 17 4 18 1 19 2 20 3 21 18 23 19 24 20 25
REMARK SMILES IDX 21 26 22 27 23 28 24 29 85 30 25 31 84 32 26 33 27 34 28 35
REMARK SMILES IDX 78 36 29 37 83 38 77 39 79 40 30 41 82 42 76 43 75 44 31 46
REMARK SMILES IDX 63 47 43 48 62 49 44 50 47 51 61 52 80 53 45 54 46 55 60 57
REMARK SMILES IDX 81 58 48 59 32 60 33 61 41 62 34 63 35 64 39 65 42 66 36 67
REMARK SMILES IDX 37 68 40 69 38 70 64 71 65 72 73 73 66 74 67 75 71 76 74 77
REMARK SMILES IDX 68 78 69 79 72 80 70 81 49 82 50 83 58 84 51 85 52 86 56 87
REMARK SMILES IDX 59 88 53 89 54 90 57 91 55 92
REMARK H PARENT 11 8 7 14 4 22 79 45 47 56
REMARK Flexibility Score: inf
ROOT
ATOM      1  O   UNL A   1      32.113  29.318  23.861  1.00  0.00    -0.462 OA
ENDROOT
BRANCH   1   2
ATOM      2  C   UNL A   1      31.575  28.319  23.129  1.00  0.00     0.315 C 
ATOM      3  O   UNL A   1      30.752  28.491  22.233  1.00  0.00    -0.252 OA
BRANCH   2   4
ATOM      4  C   UNL A   1      32.003  26.928  23.540  1.00  0.00     0.162 C 
ATOM      5  N   UNL A   1      31.835  24.744  24.414  1.00  0.00    -0.324 N 
ATOM      6  C   UNL A   1      32.273  24.653  23.018  1.00  0.00     0.264 C 
ATOM      7  C   UNL A   1      31.387  26.139  24.710  1.00  0.00     0.195 C 
ATOM      8  H   UNL A   1      32.622  24.601  25.046  1.00  0.00     0.348 HD
ATOM      9  C   UNL A   1      31.917  25.970  22.372  1.00  0.00     0.083 C 
ATOM     10  C   UNL A   1      29.884  26.322  24.925  1.00  0.00     0.076 C 
BRANCH   5  11
ATOM     11  C   UNL A   1      31.000  23.618  24.850  1.00  0.00     0.363 C 
BRANCH  11  12
ATOM     12  C   UNL A   1      31.409  23.129  26.242  1.00  0.00     0.275 C 
ATOM     13  N   UNL A   1      31.805  21.826  26.402  1.00  0.00    -0.349 N 
ATOM     14  H   UNL A   1      31.886  21.512  27.332  1.00  0.00     0.163 HD
ATOM     15  O   UNL A   1      31.343  23.854  27.235  1.00  0.00    -0.269 OA
BRANCH  13  16
ATOM     16  C   UNL A   1      32.121  20.849  25.371  1.00  0.00     0.137 C 
BRANCH  16  17
ATOM     17  C   UNL A   1      33.343  20.007  25.760  1.00  0.00     0.137 C 
BRANCH  17  18
ATOM     18  N   UNL A   1      32.948  18.653  26.121  1.00  0.00    -0.355 N 
ATOM     19  C   UNL A   1      33.439  17.659  23.920  1.00  0.00     0.114 C 
ATOM     20  C   UNL A   1      32.897  17.549  25.320  1.00  0.00     0.216 C 
ATOM     21  O   UNL A   1      32.426  16.501  25.755  1.00  0.00    -0.275 OA
ATOM     22  H   UNL A   1      32.685  18.515  27.059  1.00  0.00     0.163 HD
ENDBRANCH  17  18
ENDBRANCH  16  17
ENDBRANCH  13  16
ENDBRANCH  11  12
ENDBRANCH   5  11
ENDBRANCH   2   4
ENDBRANCH   1   2
BRANCH   1  23
ATOM     23  C   UNL A   1      31.224  30.000  24.769  1.00  0.00     0.274 C 
BRANCH  23  24
ATOM     24  C   UNL A   1      31.772  30.009  26.202  1.00  0.00     0.275 C 
BRANCH  24  25
ATOM     25  O   UNL A   1      33.195  30.238  26.244  1.00  0.00    -0.458 OA
BRANCH  25  26
ATOM     26  C   UNL A   1      33.588  31.286  27.006  1.00  0.00     0.338 C 
ATOM     27  O   UNL A   1      32.952  32.296  27.251  1.00  0.00    -0.246 OA
BRANCH  26  28
ATOM     28  C   UNL A   1      34.872  30.988  27.661  1.00  0.00     0.060 A 
ATOM     29  C   UNL A   1      35.121  29.660  28.021  1.00  0.00     0.016 A 
ATOM     30  C   UNL A   1      35.776  31.994  28.000  1.00  0.00     0.016 A 
ATOM     31  C   UNL A   1      36.273  29.328  28.724  1.00  0.00     0.010 A 
ATOM     32  C   UNL A   1      36.933  31.660  28.714  1.00  0.00     0.010 A 
ATOM     33  C   UNL A   1      37.181  30.327  29.087  1.00  0.00    -0.014 A 
BRANCH  33  34
ATOM     34  C   UNL A   1      38.357  29.973  29.917  1.00  0.00     0.031 A 
ATOM     35  C   UNL A   1      39.403  29.049  29.366  1.00  0.00     0.074 A 
ATOM     36  C   UNL A   1      38.506  30.521  31.136  1.00  0.00     0.049 A 
ATOM     37  N   UNL A   1      40.468  28.560  29.950  1.00  0.00    -0.248 NA
ATOM     38  C   UNL A   1      39.231  28.621  27.969  1.00  0.00     0.031 C 
ATOM     39  C   UNL A   1      37.589  31.481  31.748  1.00  0.00     0.029 A 
ATOM     40  N   UNL A   1      39.490  30.350  32.077  1.00  0.00    -0.354 N 
ATOM     41  C   UNL A   1      41.084  27.757  29.000  1.00  0.00     0.074 A 
ATOM     42  C   UNL A   1      40.268  27.810  27.805  1.00  0.00     0.031 C 
ATOM     43  C   UNL A   1      38.053  31.817  32.962  1.00  0.00     0.029 A 
ATOM     44  C   UNL A   1      39.274  31.062  33.230  1.00  0.00     0.049 A 
ATOM     45  H   UNL A   1      40.275  29.773  31.937  1.00  0.00     0.167 HD
ATOM     46  C   UNL A   1      42.228  27.044  29.117  1.00  0.00     0.037 A 
ATOM     47  C   UNL A   1      39.971  31.079  34.383  1.00  0.00     0.037 A 
ATOM     48  C   UNL A   1      43.041  27.004  30.304  1.00  0.00     0.049 A 
ATOM     49  C   UNL A   1      41.203  30.224  34.507  1.00  0.00     0.074 A 
ATOM     50  C   UNL A   1      44.207  26.293  30.530  1.00  0.00     0.029 A 
ATOM     51  N   UNL A   1      42.774  27.713  31.465  1.00  0.00    -0.354 N 
ATOM     52  N   UNL A   1      41.762  29.442  33.615  1.00  0.00    -0.248 NA
ATOM     53  C   UNL A   1      41.899  30.249  35.802  1.00  0.00     0.031 C 
ATOM     54  C   UNL A   1      44.629  26.549  31.839  1.00  0.00     0.029 A 
ATOM     55  C   UNL A   1      43.748  27.450  32.415  1.00  0.00     0.049 A 
ATOM     56  H   UNL A   1      42.005  28.314  31.596  1.00  0.00     0.167 HD
ATOM     57  C   UNL A   1      42.885  28.904  34.230  1.00  0.00     0.074 A 
ATOM     58  C   UNL A   1      42.936  29.458  35.566  1.00  0.00     0.031 C 
ATOM     59  C   UNL A   1      43.789  28.025  33.733  1.00  0.00     0.037 A 
BRANCH  46  60
ATOM     60  C   UNL A   1      42.658  26.226  27.936  1.00  0.00     0.064 A 
ATOM     61  C   UNL A   1      43.562  26.723  26.988  1.00  0.00     0.173 A 
ATOM     62  C   UNL A   1      42.194  24.910  27.779  1.00  0.00     0.173 A 
ATOM     63  F   UNL A   1      44.022  27.979  27.087  1.00  0.00    -0.203 F 
ATOM     64  C   UNL A   1      43.975  25.938  25.913  1.00  0.00     0.198 A 
ATOM     65  C   UNL A   1      42.627  24.121  26.717  1.00  0.00     0.198 A 
ATOM     66  F   UNL A   1      41.330  24.388  28.661  1.00  0.00    -0.203 F 
ATOM     67  F   UNL A   1      44.814  26.444  24.998  1.00  0.00    -0.200 F 
ATOM     68  C   UNL A   1      43.513  24.637  25.782  1.00  0.00     0.200 A 
ATOM     69  F   UNL A   1      42.187  22.861  26.598  1.00  0.00    -0.200 F 
ATOM     70  F   UNL A   1      43.919  23.880  24.754  1.00  0.00    -0.200 F 
ENDBRANCH  46  60
BRANCH  47  71
ATOM     71  C   UNL A   1      39.508  31.912  35.522  1.00  0.00     0.064 A 
ATOM     72  C   UNL A   1      38.581  31.418  36.450  1.00  0.00     0.173 A 
ATOM     73  C   UNL A   1      39.963  33.229  35.691  1.00  0.00     0.173 A 
ATOM     74  F   UNL A   1      38.098  30.175  36.316  1.00  0.00    -0.203 F 
ATOM     75  C   UNL A   1      38.114  32.215  37.493  1.00  0.00     0.198 A 
ATOM     76  C   UNL A   1      39.517  34.015  36.750  1.00  0.00     0.198 A 
ATOM     77  F   UNL A   1      40.847  33.750  34.827  1.00  0.00    -0.203 F 
ATOM     78  F   UNL A   1      37.192  31.736  38.338  1.00  0.00    -0.200 F 
ATOM     79  C   UNL A   1      38.585  33.511  37.645  1.00  0.00     0.200 A 
ATOM     80  F   UNL A   1      39.982  35.262  36.899  1.00  0.00    -0.200 F 
ATOM     81  F   UNL A   1      38.135  34.277  38.648  1.00  0.00    -0.200 F 
ENDBRANCH  47  71
BRANCH  59  82
ATOM     82  C   UNL A   1      44.933  27.645  34.625  1.00  0.00     0.064 A 
ATOM     83  C   UNL A   1      44.866  26.526  35.468  1.00  0.00     0.173 A 
ATOM     84  C   UNL A   1      46.121  28.390  34.610  1.00  0.00     0.173 A 
ATOM     85  F   UNL A   1      43.745  25.792  35.528  1.00  0.00    -0.203 F 
ATOM     86  C   UNL A   1      45.940  26.181  36.283  1.00  0.00     0.198 A 
ATOM     87  C   UNL A   1      47.203  28.027  35.408  1.00  0.00     0.198 A 
ATOM     88  F   UNL A   1      46.236  29.465  33.818  1.00  0.00    -0.203 F 
ATOM     89  F   UNL A   1      45.840  25.134  37.113  1.00  0.00    -0.200 F 
ATOM     90  C   UNL A   1      47.110  26.927  36.248  1.00  0.00     0.200 A 
ATOM     91  F   UNL A   1      48.334  28.744  35.366  1.00  0.00    -0.200 F 
ATOM     92  F   UNL A   1      48.144  26.591  37.031  1.00  0.00    -0.200 F 
ENDBRANCH  59  82
ENDBRANCH  33  34
ENDBRANCH  26  28
ENDBRANCH  25  26
ENDBRANCH  24  25
ENDBRANCH  23  24
ENDBRANCH   1  23
TORSDOF 16
ENDMDL
