MODEL 1
REMARK VINA RESULT:     -12.2      0.000      0.000
REMARK SMILES C[C@@H]1C[C@@H]1NC(=O)Cn1cccc1C(=O)OCCOC(=O)c1ccc(-c2c3nc(c(-c4c(F)c(F)c(F)c(F)c4F)c4ccc([nH]4)c(-c4c(F)c(F)c(F)c(F)c4F)c4nc(c(-c5c(F)c(F)c(F)c(F)c5F)c5ccc2[nH]5)C=C4)C=C3)cc1
REMARK SMILES IDX 17 1 16 2 14 3 15 4 13 5 9 6 10 7 11 8 12 9 8 10 6 11 5 12
REMARK SMILES IDX 7 14 4 15 1 16 2 17 3 18 18 19 19 20 20 21 21 22 22 23 23 24
REMARK SMILES IDX 84 25 24 26 83 27 25 28 26 29 27 30 77 31 28 32 82 33 76 34
REMARK SMILES IDX 78 35 29 36 81 37 75 38 74 39 30 41 62 42 42 43 61 44 43 45
REMARK SMILES IDX 46 46 60 47 79 48 44 49 45 50 59 52 80 53 47 54 31 55 32 56
REMARK SMILES IDX 40 57 33 58 34 59 38 60 41 61 35 62 36 63 39 64 37 65 63 66
REMARK SMILES IDX 64 67 72 68 65 69 66 70 70 71 73 72 67 73 68 74 71 75 69 76
REMARK SMILES IDX 48 77 49 78 57 79 50 80 51 81 55 82 58 83 52 84 53 85 56 86
REMARK SMILES IDX 54 87
REMARK H PARENT 5 13 78 40 46 51
REMARK Flexibility Score: inf
ROOT
ATOM      1  C   UNL A   1      33.528  30.082  26.660  1.00  0.00     0.275 C 
ENDROOT
BRANCH   1   2
ATOM      2  O   UNL A   1      33.427  28.794  27.320  1.00  0.00    -0.457 OA
BRANCH   2   3
ATOM      3  C   UNL A   1      32.322  28.028  27.052  1.00  0.00     0.355 C 
ATOM      4  O   UNL A   1      31.291  28.047  27.709  1.00  0.00    -0.244 OA
BRANCH   3   5
ATOM      5  C   UNL A   1      32.576  27.088  25.976  1.00  0.00     0.128 A 
ATOM      6  N   UNL A   1      31.892  26.988  24.774  1.00  0.00    -0.333 N 
ATOM      7  C   UNL A   1      32.453  25.982  24.014  1.00  0.00     0.087 A 
ATOM      8  C   UNL A   1      33.582  25.530  24.652  1.00  0.00     0.020 A 
ATOM      9  C   UNL A   1      33.676  26.240  25.866  1.00  0.00     0.035 A 
BRANCH   6  10
ATOM     10  C   UNL A   1      30.767  27.803  24.321  1.00  0.00     0.222 C 
BRANCH  10  11
ATOM     11  C   UNL A   1      31.133  29.005  23.468  1.00  0.00     0.240 C 
ATOM     12  N   UNL A   1      30.270  29.725  22.687  1.00  0.00    -0.352 N 
ATOM     13  H   UNL A   1      30.744  30.436  22.197  1.00  0.00     0.163 HD
ATOM     14  O   UNL A   1      32.320  29.358  23.412  1.00  0.00    -0.273 OA
BRANCH  12  15
ATOM     15  C   UNL A   1      28.872  29.729  22.383  1.00  0.00     0.085 C 
ATOM     16  C   UNL A   1      28.769  32.347  22.158  1.00  0.00     0.010 C 
ATOM     17  C   UNL A   1      28.117  31.010  22.080  1.00  0.00     0.010 C 
ATOM     18  C   UNL A   1      27.774  30.163  23.273  1.00  0.00     0.030 C 
ENDBRANCH  12  15
ENDBRANCH  10  11
ENDBRANCH   6  10
ENDBRANCH   3   5
ENDBRANCH   2   3
ENDBRANCH   1   2
BRANCH   1  19
ATOM     19  C   UNL A   1      32.917  31.248  27.430  1.00  0.00     0.275 C 
BRANCH  19  20
ATOM     20  O   UNL A   1      33.698  32.415  27.203  1.00  0.00    -0.458 OA
BRANCH  20  21
ATOM     21  C   UNL A   1      33.046  33.508  27.636  1.00  0.00     0.338 C 
ATOM     22  O   UNL A   1      31.902  33.853  27.360  1.00  0.00    -0.246 OA
BRANCH  21  23
ATOM     23  C   UNL A   1      33.925  34.300  28.502  1.00  0.00     0.060 A 
ATOM     24  C   UNL A   1      35.243  34.238  28.028  1.00  0.00     0.016 A 
ATOM     25  C   UNL A   1      33.597  34.006  29.824  1.00  0.00     0.016 A 
ATOM     26  C   UNL A   1      36.122  33.428  28.691  1.00  0.00     0.010 A 
ATOM     27  C   UNL A   1      34.468  33.197  30.508  1.00  0.00     0.010 A 
ATOM     28  C   UNL A   1      35.698  32.881  29.903  1.00  0.00    -0.014 A 
BRANCH  28  29
ATOM     29  C   UNL A   1      36.722  32.258  30.723  1.00  0.00     0.031 A 
ATOM     30  C   UNL A   1      37.108  30.909  30.045  1.00  0.00     0.074 A 
ATOM     31  C   UNL A   1      37.088  32.991  31.819  1.00  0.00     0.049 A 
ATOM     32  N   UNL A   1      37.901  29.965  30.437  1.00  0.00    -0.248 NA
ATOM     33  C   UNL A   1      36.523  30.558  28.703  1.00  0.00     0.031 C 
ATOM     34  C   UNL A   1      36.516  34.298  32.245  1.00  0.00     0.029 A 
ATOM     35  N   UNL A   1      38.010  32.783  32.812  1.00  0.00    -0.354 N 
ATOM     36  C   UNL A   1      38.102  29.093  29.340  1.00  0.00     0.074 A 
ATOM     37  C   UNL A   1      37.165  29.453  28.332  1.00  0.00     0.031 C 
ATOM     38  C   UNL A   1      37.033  34.695  33.434  1.00  0.00     0.029 A 
ATOM     39  C   UNL A   1      38.010  33.723  33.881  1.00  0.00     0.049 A 
ATOM     40  H   UNL A   1      38.638  32.024  32.788  1.00  0.00     0.167 HD
ATOM     41  C   UNL A   1      39.123  28.194  29.290  1.00  0.00     0.037 A 
ATOM     42  C   UNL A   1      38.729  33.656  35.049  1.00  0.00     0.037 A 
ATOM     43  C   UNL A   1      39.791  28.158  30.545  1.00  0.00     0.049 A 
ATOM     44  C   UNL A   1      39.649  32.538  34.806  1.00  0.00     0.074 A 
ATOM     45  C   UNL A   1      39.386  27.612  31.734  1.00  0.00     0.029 A 
ATOM     46  N   UNL A   1      40.756  29.106  30.781  1.00  0.00    -0.354 N 
ATOM     47  N   UNL A   1      40.652  32.588  33.982  1.00  0.00    -0.248 NA
ATOM     48  C   UNL A   1      39.342  31.234  35.398  1.00  0.00     0.031 C 
ATOM     49  C   UNL A   1      39.731  28.607  32.667  1.00  0.00     0.029 A 
ATOM     50  C   UNL A   1      40.577  29.551  32.071  1.00  0.00     0.049 A 
ATOM     51  H   UNL A   1      41.445  29.411  30.148  1.00  0.00     0.167 HD
ATOM     52  C   UNL A   1      40.872  31.262  33.707  1.00  0.00     0.074 A 
ATOM     53  C   UNL A   1      40.284  30.512  34.798  1.00  0.00     0.031 C 
ATOM     54  C   UNL A   1      41.072  30.858  32.425  1.00  0.00     0.037 A 
BRANCH  41  55
ATOM     55  C   UNL A   1      39.708  27.405  28.164  1.00  0.00     0.064 A 
ATOM     56  C   UNL A   1      39.819  26.004  28.324  1.00  0.00     0.173 A 
ATOM     57  C   UNL A   1      40.475  27.981  27.144  1.00  0.00     0.173 A 
ATOM     58  F   UNL A   1      39.072  25.357  29.233  1.00  0.00    -0.203 F 
ATOM     59  C   UNL A   1      40.754  25.255  27.618  1.00  0.00     0.198 A 
ATOM     60  C   UNL A   1      41.380  27.215  26.403  1.00  0.00     0.198 A 
ATOM     61  F   UNL A   1      40.438  29.301  26.914  1.00  0.00    -0.203 F 
ATOM     62  F   UNL A   1      40.925  23.957  27.910  1.00  0.00    -0.200 F 
ATOM     63  C   UNL A   1      41.551  25.866  26.672  1.00  0.00     0.200 A 
ATOM     64  F   UNL A   1      42.146  27.806  25.474  1.00  0.00    -0.200 F 
ATOM     65  F   UNL A   1      42.504  25.165  26.045  1.00  0.00    -0.200 F 
ENDBRANCH  41  55
BRANCH  42  66
ATOM     66  C   UNL A   1      38.798  34.281  36.426  1.00  0.00     0.064 A 
ATOM     67  C   UNL A   1      38.300  33.736  37.614  1.00  0.00     0.173 A 
ATOM     68  C   UNL A   1      39.549  35.483  36.611  1.00  0.00     0.173 A 
ATOM     69  F   UNL A   1      37.478  32.680  37.592  1.00  0.00    -0.203 F 
ATOM     70  C   UNL A   1      38.639  34.271  38.878  1.00  0.00     0.198 A 
ATOM     71  C   UNL A   1      39.937  35.974  37.857  1.00  0.00     0.198 A 
ATOM     72  F   UNL A   1      39.956  36.226  35.573  1.00  0.00    -0.203 F 
ATOM     73  F   UNL A   1      38.147  33.711  39.992  1.00  0.00    -0.200 F 
ATOM     74  C   UNL A   1      39.496  35.353  38.998  1.00  0.00     0.200 A 
ATOM     75  F   UNL A   1      40.762  37.028  37.928  1.00  0.00    -0.200 F 
ATOM     76  F   UNL A   1      39.888  35.800  40.198  1.00  0.00    -0.200 F 
ENDBRANCH  42  66
BRANCH  54  77
ATOM     77  C   UNL A   1      41.473  31.975  31.468  1.00  0.00     0.064 A 
ATOM     78  C   UNL A   1      42.755  32.542  31.560  1.00  0.00     0.173 A 
ATOM     79  C   UNL A   1      40.607  32.591  30.547  1.00  0.00     0.173 A 
ATOM     80  F   UNL A   1      43.666  32.000  32.381  1.00  0.00    -0.203 F 
ATOM     81  C   UNL A   1      43.124  33.668  30.814  1.00  0.00     0.198 A 
ATOM     82  C   UNL A   1      40.968  33.719  29.802  1.00  0.00     0.198 A 
ATOM     83  F   UNL A   1      39.392  32.105  30.318  1.00  0.00    -0.203 F 
ATOM     84  F   UNL A   1      44.358  34.173  30.936  1.00  0.00    -0.200 F 
ATOM     85  C   UNL A   1      42.227  34.262  29.941  1.00  0.00     0.200 A 
ATOM     86  F   UNL A   1      40.091  34.265  28.942  1.00  0.00    -0.200 F 
ATOM     87  F   UNL A   1      42.584  35.334  29.219  1.00  0.00    -0.200 F 
ENDBRANCH  54  77
ENDBRANCH  28  29
ENDBRANCH  21  23
ENDBRANCH  20  21
ENDBRANCH  19  20
ENDBRANCH   1  19
TORSDOF 14
ENDMDL
MODEL 2
REMARK VINA RESULT:     -11.8      1.361      2.298
REMARK SMILES C[C@@H]1C[C@@H]1NC(=O)Cn1cccc1C(=O)OCCOC(=O)c1ccc(-c2c3nc(c(-c4c(F)c(F)c(F)c(F)c4F)c4ccc([nH]4)c(-c4c(F)c(F)c(F)c(F)c4F)c4nc(c(-c5c(F)c(F)c(F)c(F)c5F)c5ccc2[nH]5)C=C4)C=C3)cc1
REMARK SMILES IDX 17 1 16 2 14 3 15 4 13 5 9 6 10 7 11 8 12 9 8 10 6 11 5 12
REMARK SMILES IDX 7 14 4 15 1 16 2 17 3 18 18 19 19 20 20 21 21 22 22 23 23 24
REMARK SMILES IDX 84 25 24 26 83 27 25 28 26 29 27 30 77 31 28 32 82 33 76 34
REMARK SMILES IDX 78 35 29 36 81 37 75 38 74 39 30 41 62 42 42 43 61 44 43 45
REMARK SMILES IDX 46 46 60 47 79 48 44 49 45 50 59 52 80 53 47 54 31 55 32 56
REMARK SMILES IDX 40 57 33 58 34 59 38 60 41 61 35 62 36 63 39 64 37 65 63 66
REMARK SMILES IDX 64 67 72 68 65 69 66 70 70 71 73 72 67 73 68 74 71 75 69 76
REMARK SMILES IDX 48 77 49 78 57 79 50 80 51 81 55 82 58 83 52 84 53 85 56 86
REMARK SMILES IDX 54 87
REMARK H PARENT 5 13 78 40 46 51
REMARK Flexibility Score: inf
ROOT
ATOM      1  C   UNL A   1      32.766  30.677  26.213  1.00  0.00     0.275 C 
ENDROOT
BRANCH   1   2
ATOM      2  O   UNL A   1      31.757  29.642  26.336  1.00  0.00    -0.457 OA
BRANCH   2   3
ATOM      3  C   UNL A   1      31.650  28.733  25.316  1.00  0.00     0.355 C 
ATOM      4  O   UNL A   1      30.869  28.833  24.380  1.00  0.00    -0.244 OA
BRANCH   3   5
ATOM      5  C   UNL A   1      32.479  27.567  25.554  1.00  0.00     0.128 A 
ATOM      6  N   UNL A   1      32.051  26.296  25.913  1.00  0.00    -0.333 N 
ATOM      7  C   UNL A   1      33.146  25.463  26.023  1.00  0.00     0.087 A 
ATOM      8  C   UNL A   1      34.260  26.146  25.599  1.00  0.00     0.020 A 
ATOM      9  C   UNL A   1      33.839  27.453  25.279  1.00  0.00     0.035 A 
BRANCH   6  10
ATOM     10  C   UNL A   1      30.677  25.849  26.129  1.00  0.00     0.222 C 
BRANCH  10  11
ATOM     11  C   UNL A   1      30.470  24.345  26.113  1.00  0.00     0.240 C 
ATOM     12  N   UNL A   1      30.483  23.547  25.002  1.00  0.00    -0.352 N 
ATOM     13  H   UNL A   1      30.288  22.610  25.235  1.00  0.00     0.163 HD
ATOM     14  O   UNL A   1      30.209  23.767  27.179  1.00  0.00    -0.273 OA
BRANCH  12  15
ATOM     15  C   UNL A   1      30.701  23.696  23.596  1.00  0.00     0.085 C 
ATOM     16  C   UNL A   1      33.071  22.558  23.683  1.00  0.00     0.010 C 
ATOM     17  C   UNL A   1      31.957  23.181  22.916  1.00  0.00     0.010 C 
ATOM     18  C   UNL A   1      31.625  24.647  22.939  1.00  0.00     0.030 C 
ENDBRANCH  12  15
ENDBRANCH  10  11
ENDBRANCH   6  10
ENDBRANCH   3   5
ENDBRANCH   2   3
ENDBRANCH   1   2
BRANCH   1  19
ATOM     19  C   UNL A   1      33.143  31.365  27.521  1.00  0.00     0.275 C 
BRANCH  19  20
ATOM     20  O   UNL A   1      33.814  32.583  27.229  1.00  0.00    -0.458 OA
BRANCH  20  21
ATOM     21  C   UNL A   1      33.125  33.629  27.716  1.00  0.00     0.338 C 
ATOM     22  O   UNL A   1      31.969  33.948  27.455  1.00  0.00    -0.246 OA
BRANCH  21  23
ATOM     23  C   UNL A   1      33.975  34.405  28.624  1.00  0.00     0.060 A 
ATOM     24  C   UNL A   1      35.304  34.371  28.178  1.00  0.00     0.016 A 
ATOM     25  C   UNL A   1      33.621  34.070  29.929  1.00  0.00     0.016 A 
ATOM     26  C   UNL A   1      36.178  33.552  28.837  1.00  0.00     0.010 A 
ATOM     27  C   UNL A   1      34.487  33.251  30.609  1.00  0.00     0.010 A 
ATOM     28  C   UNL A   1      35.733  32.966  30.023  1.00  0.00    -0.014 A 
BRANCH  28  29
ATOM     29  C   UNL A   1      36.745  32.330  30.847  1.00  0.00     0.031 A 
ATOM     30  C   UNL A   1      37.107  30.970  30.179  1.00  0.00     0.074 A 
ATOM     31  C   UNL A   1      37.125  33.065  31.939  1.00  0.00     0.049 A 
ATOM     32  N   UNL A   1      37.884  30.015  30.578  1.00  0.00    -0.248 NA
ATOM     33  C   UNL A   1      36.517  30.620  28.839  1.00  0.00     0.031 C 
ATOM     34  C   UNL A   1      36.576  34.385  32.355  1.00  0.00     0.029 A 
ATOM     35  N   UNL A   1      38.043  32.847  32.933  1.00  0.00    -0.354 N 
ATOM     36  C   UNL A   1      38.069  29.132  29.487  1.00  0.00     0.074 A 
ATOM     37  C   UNL A   1      37.139  29.501  28.476  1.00  0.00     0.031 C 
ATOM     38  C   UNL A   1      37.100  34.781  33.541  1.00  0.00     0.029 A 
ATOM     39  C   UNL A   1      38.059  33.794  33.996  1.00  0.00     0.049 A 
ATOM     40  H   UNL A   1      38.658  32.077  32.914  1.00  0.00     0.167 HD
ATOM     41  C   UNL A   1      39.075  28.214  29.444  1.00  0.00     0.037 A 
ATOM     42  C   UNL A   1      38.777  33.723  35.164  1.00  0.00     0.037 A 
ATOM     43  C   UNL A   1      39.742  28.175  30.698  1.00  0.00     0.049 A 
ATOM     44  C   UNL A   1      39.677  32.587  34.929  1.00  0.00     0.074 A 
ATOM     45  C   UNL A   1      39.327  27.645  31.892  1.00  0.00     0.029 A 
ATOM     46  N   UNL A   1      40.723  29.108  30.928  1.00  0.00    -0.354 N 
ATOM     47  N   UNL A   1      40.680  32.614  34.105  1.00  0.00    -0.248 NA
ATOM     48  C   UNL A   1      39.347  31.293  35.530  1.00  0.00     0.031 C 
ATOM     49  C   UNL A   1      39.690  28.641  32.817  1.00  0.00     0.029 A 
ATOM     50  C   UNL A   1      40.552  29.565  32.215  1.00  0.00     0.049 A 
ATOM     51  H   UNL A   1      41.417  29.396  30.293  1.00  0.00     0.167 HD
ATOM     52  C   UNL A   1      40.877  31.282  33.839  1.00  0.00     0.074 A 
ATOM     53  C   UNL A   1      40.276  30.550  34.936  1.00  0.00     0.031 C 
ATOM     54  C   UNL A   1      41.071  30.865  32.560  1.00  0.00     0.037 A 
BRANCH  41  55
ATOM     55  C   UNL A   1      39.646  27.407  28.323  1.00  0.00     0.064 A 
ATOM     56  C   UNL A   1      39.730  26.005  28.493  1.00  0.00     0.173 A 
ATOM     57  C   UNL A   1      40.423  27.963  27.299  1.00  0.00     0.173 A 
ATOM     58  F   UNL A   1      38.971  25.378  29.406  1.00  0.00    -0.203 F 
ATOM     59  C   UNL A   1      40.652  25.235  27.792  1.00  0.00     0.198 A 
ATOM     60  C   UNL A   1      41.314  27.175  26.564  1.00  0.00     0.198 A 
ATOM     61  F   UNL A   1      40.411  29.281  27.061  1.00  0.00    -0.203 F 
ATOM     62  F   UNL A   1      40.799  23.936  28.093  1.00  0.00    -0.200 F 
ATOM     63  C   UNL A   1      41.460  25.825  26.843  1.00  0.00     0.200 A 
ATOM     64  F   UNL A   1      42.091  27.745  25.632  1.00  0.00    -0.200 F 
ATOM     65  F   UNL A   1      42.401  25.103  26.220  1.00  0.00    -0.200 F 
ENDBRANCH  41  55
BRANCH  42  66
ATOM     66  C   UNL A   1      38.857  34.356  36.537  1.00  0.00     0.064 A 
ATOM     67  C   UNL A   1      38.303  33.854  37.719  1.00  0.00     0.173 A 
ATOM     68  C   UNL A   1      39.677  35.512  36.726  1.00  0.00     0.173 A 
ATOM     69  F   UNL A   1      37.418  32.851  37.690  1.00  0.00    -0.203 F 
ATOM     70  C   UNL A   1      38.649  34.380  38.985  1.00  0.00     0.198 A 
ATOM     71  C   UNL A   1      40.069  35.990  37.976  1.00  0.00     0.198 A 
ATOM     72  F   UNL A   1      40.150  36.218  35.691  1.00  0.00    -0.203 F 
ATOM     73  F   UNL A   1      38.102  33.863  40.094  1.00  0.00    -0.200 F 
ATOM     74  C   UNL A   1      39.569  35.409  39.113  1.00  0.00     0.200 A 
ATOM     75  F   UNL A   1      40.957  36.992  38.054  1.00  0.00    -0.200 F 
ATOM     76  F   UNL A   1      39.964  35.843  40.317  1.00  0.00    -0.200 F 
ENDBRANCH  42  66
BRANCH  54  77
ATOM     77  C   UNL A   1      41.491  31.969  31.596  1.00  0.00     0.064 A 
ATOM     78  C   UNL A   1      42.770  32.539  31.707  1.00  0.00     0.173 A 
ATOM     79  C   UNL A   1      40.645  32.569  30.646  1.00  0.00     0.173 A 
ATOM     80  F   UNL A   1      43.663  32.011  32.557  1.00  0.00    -0.203 F 
ATOM     81  C   UNL A   1      43.154  33.654  30.952  1.00  0.00     0.198 A 
ATOM     82  C   UNL A   1      41.021  33.686  29.892  1.00  0.00     0.198 A 
ATOM     83  F   UNL A   1      39.436  32.077  30.397  1.00  0.00    -0.203 F 
ATOM     84  F   UNL A   1      44.384  34.163  31.095  1.00  0.00    -0.200 F 
ATOM     85  C   UNL A   1      42.276  34.233  30.051  1.00  0.00     0.200 A 
ATOM     86  F   UNL A   1      40.163  34.217  29.005  1.00  0.00    -0.200 F 
ATOM     87  F   UNL A   1      42.648  35.294  29.321  1.00  0.00    -0.200 F 
ENDBRANCH  54  77
ENDBRANCH  28  29
ENDBRANCH  21  23
ENDBRANCH  20  21
ENDBRANCH  19  20
ENDBRANCH   1  19
TORSDOF 14
ENDMDL
MODEL 3
REMARK VINA RESULT:     -11.7      5.185     10.923
REMARK SMILES C[C@@H]1C[C@@H]1NC(=O)Cn1cccc1C(=O)OCCOC(=O)c1ccc(-c2c3nc(c(-c4c(F)c(F)c(F)c(F)c4F)c4ccc([nH]4)c(-c4c(F)c(F)c(F)c(F)c4F)c4nc(c(-c5c(F)c(F)c(F)c(F)c5F)c5ccc2[nH]5)C=C4)C=C3)cc1
REMARK SMILES IDX 17 1 16 2 14 3 15 4 13 5 9 6 10 7 11 8 12 9 8 10 6 11 5 12
REMARK SMILES IDX 7 14 4 15 1 16 2 17 3 18 18 19 19 20 20 21 21 22 22 23 23 24
REMARK SMILES IDX 84 25 24 26 83 27 25 28 26 29 27 30 77 31 28 32 82 33 76 34
REMARK SMILES IDX 78 35 29 36 81 37 75 38 74 39 30 41 62 42 42 43 61 44 43 45
REMARK SMILES IDX 46 46 60 47 79 48 44 49 45 50 59 52 80 53 47 54 31 55 32 56
REMARK SMILES IDX 40 57 33 58 34 59 38 60 41 61 35 62 36 63 39 64 37 65 63 66
REMARK SMILES IDX 64 67 72 68 65 69 66 70 70 71 73 72 67 73 68 74 71 75 69 76
REMARK SMILES IDX 48 77 49 78 57 79 50 80 51 81 55 82 58 83 52 84 53 85 56 86
REMARK SMILES IDX 54 87
REMARK H PARENT 5 13 78 40 46 51
REMARK Flexibility Score: inf
ROOT
ATOM      1  C   UNL A   1      37.766  22.252  25.655  1.00  0.00     0.275 C 
ENDROOT
BRANCH   1   2
ATOM      2  O   UNL A   1      36.579  22.355  24.826  1.00  0.00    -0.457 OA
BRANCH   2   3
ATOM      3  C   UNL A   1      35.366  22.120  25.421  1.00  0.00     0.355 C 
ATOM      4  O   UNL A   1      35.204  21.414  26.405  1.00  0.00    -0.244 OA
BRANCH   3   5
ATOM      5  C   UNL A   1      34.278  22.700  24.656  1.00  0.00     0.128 A 
ATOM      6  N   UNL A   1      33.229  23.467  25.142  1.00  0.00    -0.333 N 
ATOM      7  C   UNL A   1      32.418  23.844  24.092  1.00  0.00     0.087 A 
ATOM      8  C   UNL A   1      33.010  23.450  22.917  1.00  0.00     0.020 A 
ATOM      9  C   UNL A   1      34.188  22.759  23.268  1.00  0.00     0.035 A 
BRANCH   6  10
ATOM     10  C   UNL A   1      32.985  23.862  26.528  1.00  0.00     0.222 C 
BRANCH  10  11
ATOM     11  C   UNL A   1      31.583  24.360  26.827  1.00  0.00     0.240 C 
ATOM     12  N   UNL A   1      31.175  25.666  26.804  1.00  0.00    -0.352 N 
ATOM     13  H   UNL A   1      30.230  25.748  27.070  1.00  0.00     0.163 HD
ATOM     14  O   UNL A   1      30.721  23.541  27.180  1.00  0.00    -0.273 OA
BRANCH  12  15
ATOM     15  C   UNL A   1      31.741  26.945  26.502  1.00  0.00     0.085 C 
ATOM     16  C   UNL A   1      30.476  27.136  24.204  1.00  0.00     0.010 C 
ATOM     17  C   UNL A   1      31.380  27.708  25.240  1.00  0.00     0.010 C 
ATOM     18  C   UNL A   1      32.784  27.235  25.495  1.00  0.00     0.030 C 
ENDBRANCH  12  15
ENDBRANCH  10  11
ENDBRANCH   6  10
ENDBRANCH   3   5
ENDBRANCH   2   3
ENDBRANCH   1   2
BRANCH   1  19
ATOM     19  C   UNL A   1      38.656  21.051  25.354  1.00  0.00     0.275 C 
BRANCH  19  20
ATOM     20  O   UNL A   1      39.655  20.950  26.360  1.00  0.00    -0.458 OA
BRANCH  20  21
ATOM     21  C   UNL A   1      40.455  19.896  26.124  1.00  0.00     0.338 C 
ATOM     22  O   UNL A   1      40.146  18.823  25.616  1.00  0.00    -0.246 OA
BRANCH  21  23
ATOM     23  C   UNL A   1      41.811  20.184  26.601  1.00  0.00     0.060 A 
ATOM     24  C   UNL A   1      41.752  20.808  27.855  1.00  0.00     0.016 A 
ATOM     25  C   UNL A   1      42.531  20.723  25.537  1.00  0.00     0.016 A 
ATOM     26  C   UNL A   1      41.968  22.158  27.907  1.00  0.00     0.010 A 
ATOM     27  C   UNL A   1      42.760  22.075  25.572  1.00  0.00     0.010 A 
ATOM     28  C   UNL A   1      42.425  22.778  26.743  1.00  0.00    -0.014 A 
BRANCH  28  29
ATOM     29  C   UNL A   1      42.909  24.139  26.885  1.00  0.00     0.031 A 
ATOM     30  C   UNL A   1      41.666  25.060  27.074  1.00  0.00     0.074 A 
ATOM     31  C   UNL A   1      44.272  24.260  26.844  1.00  0.00     0.049 A 
ATOM     32  N   UNL A   1      41.575  26.348  27.152  1.00  0.00    -0.248 NA
ATOM     33  C   UNL A   1      40.298  24.445  27.209  1.00  0.00     0.031 C 
ATOM     34  C   UNL A   1      45.254  23.161  26.630  1.00  0.00     0.029 A 
ATOM     35  N   UNL A   1      45.115  25.334  26.959  1.00  0.00    -0.354 N 
ATOM     36  C   UNL A   1      40.264  26.659  27.584  1.00  0.00     0.074 A 
ATOM     37  C   UNL A   1      39.498  25.462  27.518  1.00  0.00     0.031 C 
ATOM     38  C   UNL A   1      46.517  23.644  26.539  1.00  0.00     0.029 A 
ATOM     39  C   UNL A   1      46.495  25.082  26.720  1.00  0.00     0.049 A 
ATOM     40  H   UNL A   1      44.784  26.232  27.195  1.00  0.00     0.167 HD
ATOM     41  C   UNL A   1      39.922  27.877  28.088  1.00  0.00     0.037 A 
ATOM     42  C   UNL A   1      47.508  26.005  26.636  1.00  0.00     0.037 A 
ATOM     43  C   UNL A   1      41.006  28.782  27.929  1.00  0.00     0.049 A 
ATOM     44  C   UNL A   1      46.863  27.245  27.087  1.00  0.00     0.074 A 
ATOM     45  C   UNL A   1      41.472  29.396  26.796  1.00  0.00     0.029 A 
ATOM     46  N   UNL A   1      41.996  28.765  28.880  1.00  0.00    -0.354 N 
ATOM     47  N   UNL A   1      46.513  27.475  28.317  1.00  0.00    -0.248 NA
ATOM     48  C   UNL A   1      46.438  28.222  26.083  1.00  0.00     0.031 C 
ATOM     49  C   UNL A   1      42.866  29.254  26.916  1.00  0.00     0.029 A 
ATOM     50  C   UNL A   1      43.198  28.846  28.214  1.00  0.00     0.049 A 
ATOM     51  H   UNL A   1      41.871  28.706  29.855  1.00  0.00     0.167 HD
ATOM     52  C   UNL A   1      45.548  28.440  28.172  1.00  0.00     0.074 A 
ATOM     53  C   UNL A   1      45.771  29.054  26.878  1.00  0.00     0.031 C 
ATOM     54  C   UNL A   1      44.383  28.345  28.865  1.00  0.00     0.037 A 
BRANCH  41  55
ATOM     55  C   UNL A   1      38.731  28.342  28.863  1.00  0.00     0.064 A 
ATOM     56  C   UNL A   1      38.013  29.455  28.367  1.00  0.00     0.173 A 
ATOM     57  C   UNL A   1      38.507  27.996  30.201  1.00  0.00     0.173 A 
ATOM     58  F   UNL A   1      38.115  29.819  27.079  1.00  0.00    -0.203 F 
ATOM     59  C   UNL A   1      37.246  30.264  29.199  1.00  0.00     0.198 A 
ATOM     60  C   UNL A   1      37.696  28.786  31.022  1.00  0.00     0.198 A 
ATOM     61  F   UNL A   1      39.141  26.957  30.761  1.00  0.00    -0.203 F 
ATOM     62  F   UNL A   1      36.704  31.391  28.716  1.00  0.00    -0.200 F 
ATOM     63  C   UNL A   1      37.106  29.941  30.533  1.00  0.00     0.200 A 
ATOM     64  F   UNL A   1      37.549  28.465  32.316  1.00  0.00    -0.200 F 
ATOM     65  F   UNL A   1      36.432  30.757  31.354  1.00  0.00    -0.200 F 
ENDBRANCH  41  55
BRANCH  42  66
ATOM     66  C   UNL A   1      48.944  26.138  26.177  1.00  0.00     0.064 A 
ATOM     67  C   UNL A   1      49.390  26.259  24.857  1.00  0.00     0.173 A 
ATOM     68  C   UNL A   1      49.977  26.292  27.154  1.00  0.00     0.173 A 
ATOM     69  F   UNL A   1      48.566  26.021  23.831  1.00  0.00    -0.203 F 
ATOM     70  C   UNL A   1      50.718  26.634  24.552  1.00  0.00     0.198 A 
ATOM     71  C   UNL A   1      51.269  26.724  26.857  1.00  0.00     0.198 A 
ATOM     72  F   UNL A   1      49.762  26.043  28.452  1.00  0.00    -0.203 F 
ATOM     73  F   UNL A   1      51.101  26.749  23.272  1.00  0.00    -0.200 F 
ATOM     74  C   UNL A   1      51.637  26.917  25.550  1.00  0.00     0.200 A 
ATOM     75  F   UNL A   1      52.130  26.979  27.854  1.00  0.00    -0.200 F 
ATOM     76  F   UNL A   1      52.867  27.360  25.258  1.00  0.00    -0.200 F 
ENDBRANCH  42  66
BRANCH  54  77
ATOM     77  C   UNL A   1      44.442  27.414  30.070  1.00  0.00     0.064 A 
ATOM     78  C   UNL A   1      45.188  27.785  31.200  1.00  0.00     0.173 A 
ATOM     79  C   UNL A   1      43.892  26.119  30.110  1.00  0.00     0.173 A 
ATOM     80  F   UNL A   1      45.718  29.014  31.273  1.00  0.00    -0.203 F 
ATOM     81  C   UNL A   1      45.402  26.907  32.269  1.00  0.00     0.198 A 
ATOM     82  C   UNL A   1      44.106  25.236  31.173  1.00  0.00     0.198 A 
ATOM     83  F   UNL A   1      43.108  25.677  29.133  1.00  0.00    -0.203 F 
ATOM     84  F   UNL A   1      46.122  27.307  33.325  1.00  0.00    -0.200 F 
ATOM     85  C   UNL A   1      44.868  25.630  32.252  1.00  0.00     0.200 A 
ATOM     86  F   UNL A   1      43.559  24.009  31.148  1.00  0.00    -0.200 F 
ATOM     87  F   UNL A   1      45.064  24.793  33.282  1.00  0.00    -0.200 F 
ENDBRANCH  54  77
ENDBRANCH  28  29
ENDBRANCH  21  23
ENDBRANCH  20  21
ENDBRANCH  19  20
ENDBRANCH   1  19
TORSDOF 14
ENDMDL
