MODEL 1
REMARK VINA RESULT:     -12.5      0.000      0.000
REMARK SMILES Cc1cc(F)cc(N[C@H](C(=O)OCCOC(=O)c2ccc(-c3c4nc(c(-c5c(F)c(F)c(F)c(F)c5F)c5ccc([nH]5)c(-c5c(F)c(F)c(F)c(F)c5F)c5nc(c(-c6c(F)c(F)c(F)c(F)c6F)c6ccc3[nH]6)C=C5)C=C4)cc2)c2cc(Br)cs2)c1
REMARK SMILES IDX 13 1 12 2 10 3 11 4 9 5 8 6 7 8 1 9 2 10 3 11 87 12 4 13
REMARK SMILES IDX 5 14 6 15 81 16 82 17 86 18 83 19 85 20 84 21 14 22 15 23
REMARK SMILES IDX 16 24 17 25 18 26 19 27 80 28 20 29 79 30 21 31 22 32 23 33
REMARK SMILES IDX 73 34 24 35 78 36 72 37 74 38 25 39 77 40 71 41 70 42 26 44
REMARK SMILES IDX 58 45 38 46 57 47 39 48 42 49 56 50 75 51 40 52 41 53 55 55
REMARK SMILES IDX 76 56 43 57 27 58 28 59 36 60 29 61 30 62 34 63 37 64 31 65
REMARK SMILES IDX 32 66 35 67 33 68 59 69 60 70 68 71 61 72 62 73 66 74 69 75
REMARK SMILES IDX 63 76 64 77 67 78 65 79 44 80 45 81 53 82 46 83 47 84 51 85
REMARK SMILES IDX 54 86 48 87 49 88 52 89 50 90
REMARK H PARENT 8 7 74 43 42 54
REMARK Flexibility Score: inf
ROOT
ATOM      1  C   UNL A   1      33.759  30.725  27.003  1.00  0.00     0.274 C 
ENDROOT
BRANCH   1   2
ATOM      2  O   UNL A   1      34.234  29.381  26.809  1.00  0.00    -0.460 OA
BRANCH   2   3
ATOM      3  C   UNL A   1      33.301  28.369  26.834  1.00  0.00     0.334 C 
ATOM      4  O   UNL A   1      32.518  28.205  27.765  1.00  0.00    -0.249 OA
BRANCH   3   5
ATOM      5  C   UNL A   1      33.315  27.554  25.497  1.00  0.00     0.231 C 
BRANCH   5   6
ATOM      6  N   UNL A   1      33.205  26.111  25.779  1.00  0.00    -0.368 N 
ATOM      7  H   UNL A   1      32.629  25.826  26.525  1.00  0.00     0.161 HD
BRANCH   6   8
ATOM      8  C   UNL A   1      33.867  25.134  25.052  1.00  0.00     0.038 A 
ATOM      9  C   UNL A   1      37.199  23.293  25.291  1.00  0.00     0.044 C 
ATOM     10  C   UNL A   1      35.856  23.732  24.800  1.00  0.00    -0.046 A 
ATOM     11  C   UNL A   1      35.354  23.232  23.596  1.00  0.00     0.042 A 
ATOM     12  C   UNL A   1      35.111  24.686  25.510  1.00  0.00     0.029 A 
ATOM     13  C   UNL A   1      34.131  23.681  23.128  1.00  0.00     0.125 A 
ATOM     14  F   UNL A   1      33.647  23.209  21.971  1.00  0.00    -0.207 F 
ATOM     15  C   UNL A   1      33.399  24.623  23.834  1.00  0.00     0.065 A 
ENDBRANCH   6   8
ENDBRANCH   5   6
BRANCH   5  16
ATOM     16  C   UNL A   1      32.312  28.115  24.481  1.00  0.00     0.039 A 
ATOM     17  C   UNL A   1      30.925  28.175  24.546  1.00  0.00     0.033 A 
ATOM     18  S   UNL A   1      32.859  28.855  23.013  1.00  0.00    -0.145 S 
ATOM     19  C   UNL A   1      30.351  28.588  23.318  1.00  0.00     0.029 A 
ATOM     20  C   UNL A   1      31.280  28.941  22.376  1.00  0.00     0.080 A 
ATOM     21  Br  UNL A   1      28.487  28.590  23.037  1.00  0.00    -0.050 Br
ENDBRANCH   5  16
ENDBRANCH   3   5
ENDBRANCH   2   3
ENDBRANCH   1   2
BRANCH   1  22
ATOM     22  C   UNL A   1      34.343  31.353  28.265  1.00  0.00     0.275 C 
BRANCH  22  23
ATOM     23  O   UNL A   1      35.630  31.909  27.992  1.00  0.00    -0.458 OA
BRANCH  23  24
ATOM     24  C   UNL A   1      36.592  31.489  28.843  1.00  0.00     0.338 C 
ATOM     25  O   UNL A   1      37.079  32.103  29.779  1.00  0.00    -0.246 OA
BRANCH  24  26
ATOM     26  C   UNL A   1      37.073  30.159  28.472  1.00  0.00     0.060 A 
ATOM     27  C   UNL A   1      37.081  29.201  29.497  1.00  0.00     0.016 A 
ATOM     28  C   UNL A   1      37.903  30.076  27.356  1.00  0.00     0.016 A 
ATOM     29  C   UNL A   1      38.146  28.332  29.572  1.00  0.00     0.010 A 
ATOM     30  C   UNL A   1      38.970  29.221  27.439  1.00  0.00     0.010 A 
ATOM     31  C   UNL A   1      39.136  28.460  28.605  1.00  0.00    -0.014 A 
BRANCH  31  32
ATOM     32  C   UNL A   1      40.483  28.003  28.845  1.00  0.00     0.031 A 
ATOM     33  C   UNL A   1      40.894  26.687  28.367  1.00  0.00     0.074 A 
ATOM     34  C   UNL A   1      41.349  28.853  29.437  1.00  0.00     0.049 A 
ATOM     35  N   UNL A   1      41.878  26.025  28.863  1.00  0.00    -0.248 NA
ATOM     36  C   UNL A   1      40.180  25.984  27.312  1.00  0.00     0.031 C 
ATOM     37  C   UNL A   1      42.800  28.736  29.495  1.00  0.00     0.029 A 
ATOM     38  N   UNL A   1      41.040  29.925  30.294  1.00  0.00    -0.354 N 
ATOM     39  C   UNL A   1      42.128  24.981  28.010  1.00  0.00     0.074 A 
ATOM     40  C   UNL A   1      40.987  24.937  27.121  1.00  0.00     0.031 C 
ATOM     41  C   UNL A   1      43.248  29.477  30.520  1.00  0.00     0.029 A 
ATOM     42  C   UNL A   1      42.080  29.953  31.244  1.00  0.00     0.049 A 
ATOM     43  H   UNL A   1      40.263  30.528  30.240  1.00  0.00     0.167 HD
ATOM     44  C   UNL A   1      43.357  24.392  28.049  1.00  0.00     0.037 A 
ATOM     45  C   UNL A   1      41.841  29.700  32.561  1.00  0.00     0.037 A 
ATOM     46  C   UNL A   1      44.191  24.975  29.103  1.00  0.00     0.049 A 
ATOM     47  C   UNL A   1      42.629  28.539  33.118  1.00  0.00     0.074 A 
ATOM     48  C   UNL A   1      45.213  25.912  29.088  1.00  0.00     0.029 A 
ATOM     49  N   UNL A   1      43.800  24.860  30.434  1.00  0.00    -0.354 N 
ATOM     50  N   UNL A   1      43.137  27.572  32.407  1.00  0.00    -0.248 NA
ATOM     51  C   UNL A   1      42.892  28.382  34.540  1.00  0.00     0.031 C 
ATOM     52  C   UNL A   1      45.468  26.323  30.421  1.00  0.00     0.029 A 
ATOM     53  C   UNL A   1      44.598  25.640  31.252  1.00  0.00     0.049 A 
ATOM     54  H   UNL A   1      43.056  24.298  30.751  1.00  0.00     0.167 HD
ATOM     55  C   UNL A   1      43.809  26.688  33.225  1.00  0.00     0.074 A 
ATOM     56  C   UNL A   1      43.615  27.250  34.551  1.00  0.00     0.031 C 
ATOM     57  C   UNL A   1      44.456  25.593  32.705  1.00  0.00     0.037 A 
BRANCH  44  58
ATOM     58  C   UNL A   1      43.883  23.555  26.906  1.00  0.00     0.064 A 
ATOM     59  C   UNL A   1      43.443  22.229  26.710  1.00  0.00     0.173 A 
ATOM     60  C   UNL A   1      44.887  23.978  26.016  1.00  0.00     0.173 A 
ATOM     61  F   UNL A   1      42.399  21.729  27.381  1.00  0.00    -0.203 F 
ATOM     62  C   UNL A   1      44.064  21.358  25.812  1.00  0.00     0.198 A 
ATOM     63  C   UNL A   1      45.551  23.093  25.160  1.00  0.00     0.198 A 
ATOM     64  F   UNL A   1      45.224  25.271  25.917  1.00  0.00    -0.203 F 
ATOM     65  F   UNL A   1      43.614  20.102  25.688  1.00  0.00    -0.200 F 
ATOM     66  C   UNL A   1      45.150  21.777  25.072  1.00  0.00     0.200 A 
ATOM     67  F   UNL A   1      46.585  23.527  24.425  1.00  0.00    -0.200 F 
ATOM     68  F   UNL A   1      45.785  20.924  24.257  1.00  0.00    -0.200 F 
ENDBRANCH  44  58
BRANCH  45  69
ATOM     69  C   UNL A   1      40.504  30.131  33.040  1.00  0.00     0.064 A 
ATOM     70  C   UNL A   1      40.280  31.495  33.306  1.00  0.00     0.173 A 
ATOM     71  C   UNL A   1      39.380  29.301  32.945  1.00  0.00     0.173 A 
ATOM     72  F   UNL A   1      41.322  32.337  33.401  1.00  0.00    -0.203 F 
ATOM     73  C   UNL A   1      38.991  32.018  33.404  1.00  0.00     0.198 A 
ATOM     74  C   UNL A   1      38.089  29.828  33.041  1.00  0.00     0.198 A 
ATOM     75  F   UNL A   1      39.523  27.994  32.679  1.00  0.00    -0.203 F 
ATOM     76  F   UNL A   1      38.815  33.333  33.604  1.00  0.00    -0.200 F 
ATOM     77  C   UNL A   1      37.894  31.186  33.252  1.00  0.00     0.200 A 
ATOM     78  F   UNL A   1      37.026  29.028  32.870  1.00  0.00    -0.200 F 
ATOM     79  F   UNL A   1      36.651  31.690  33.292  1.00  0.00    -0.200 F 
ENDBRANCH  45  69
BRANCH  57  80
ATOM     80  C   UNL A   1      45.116  24.406  33.420  1.00  0.00     0.064 A 
ATOM     81  C   UNL A   1      44.500  23.196  33.767  1.00  0.00     0.173 A 
ATOM     82  C   UNL A   1      46.504  24.456  33.755  1.00  0.00     0.173 A 
ATOM     83  F   UNL A   1      43.218  22.946  33.504  1.00  0.00    -0.203 F 
ATOM     84  C   UNL A   1      45.186  22.147  34.398  1.00  0.00     0.198 A 
ATOM     85  C   UNL A   1      47.192  23.401  34.357  1.00  0.00     0.198 A 
ATOM     86  F   UNL A   1      47.269  25.525  33.495  1.00  0.00    -0.203 F 
ATOM     87  F   UNL A   1      44.524  21.025  34.715  1.00  0.00    -0.200 F 
ATOM     88  C   UNL A   1      46.530  22.245  34.687  1.00  0.00     0.200 A 
ATOM     89  F   UNL A   1      48.505  23.518  34.600  1.00  0.00    -0.200 F 
ATOM     90  F   UNL A   1      47.184  21.229  35.264  1.00  0.00    -0.200 F 
ENDBRANCH  57  80
ENDBRANCH  31  32
ENDBRANCH  24  26
ENDBRANCH  23  24
ENDBRANCH  22  23
ENDBRANCH   1  22
TORSDOF 14
ENDMDL
MODEL 2
REMARK VINA RESULT:     -12.3      4.424     10.277
REMARK SMILES Cc1cc(F)cc(N[C@H](C(=O)OCCOC(=O)c2ccc(-c3c4nc(c(-c5c(F)c(F)c(F)c(F)c5F)c5ccc([nH]5)c(-c5c(F)c(F)c(F)c(F)c5F)c5nc(c(-c6c(F)c(F)c(F)c(F)c6F)c6ccc3[nH]6)C=C5)C=C4)cc2)c2cc(Br)cs2)c1
REMARK SMILES IDX 13 1 12 2 10 3 11 4 9 5 8 6 7 8 1 9 2 10 3 11 87 12 4 13
REMARK SMILES IDX 5 14 6 15 81 16 82 17 86 18 83 19 85 20 84 21 14 22 15 23
REMARK SMILES IDX 16 24 17 25 18 26 19 27 80 28 20 29 79 30 21 31 22 32 23 33
REMARK SMILES IDX 73 34 24 35 78 36 72 37 74 38 25 39 77 40 71 41 70 42 26 44
REMARK SMILES IDX 58 45 38 46 57 47 39 48 42 49 56 50 75 51 40 52 41 53 55 55
REMARK SMILES IDX 76 56 43 57 27 58 28 59 36 60 29 61 30 62 34 63 37 64 31 65
REMARK SMILES IDX 32 66 35 67 33 68 59 69 60 70 68 71 61 72 62 73 66 74 69 75
REMARK SMILES IDX 63 76 64 77 67 78 65 79 44 80 45 81 53 82 46 83 47 84 51 85
REMARK SMILES IDX 54 86 48 87 49 88 52 89 50 90
REMARK H PARENT 8 7 74 43 42 54
REMARK Flexibility Score: inf
ROOT
ATOM      1  C   UNL A   1      38.468  21.652  25.477  1.00  0.00     0.274 C 
ENDROOT
BRANCH   1   2
ATOM      2  O   UNL A   1      37.125  22.123  25.690  1.00  0.00    -0.460 OA
BRANCH   2   3
ATOM      3  C   UNL A   1      36.342  22.329  24.577  1.00  0.00     0.334 C 
ATOM      4  O   UNL A   1      36.800  22.397  23.441  1.00  0.00    -0.249 OA
BRANCH   3   5
ATOM      5  C   UNL A   1      34.822  22.356  24.952  1.00  0.00     0.231 C 
BRANCH   5   6
ATOM      6  N   UNL A   1      34.148  23.474  24.270  1.00  0.00    -0.368 N 
ATOM      7  H   UNL A   1      34.113  23.466  23.285  1.00  0.00     0.161 HD
BRANCH   6   8
ATOM      8  C   UNL A   1      33.560  24.539  24.936  1.00  0.00     0.038 A 
ATOM      9  C   UNL A   1      30.010  25.644  25.790  1.00  0.00     0.044 C 
ATOM     10  C   UNL A   1      31.503  25.627  25.689  1.00  0.00    -0.046 A 
ATOM     11  C   UNL A   1      32.248  26.708  26.169  1.00  0.00     0.042 A 
ATOM     12  C   UNL A   1      32.167  24.560  25.068  1.00  0.00     0.029 A 
ATOM     13  C   UNL A   1      33.625  26.703  26.029  1.00  0.00     0.125 A 
ATOM     14  F   UNL A   1      34.344  27.739  26.483  1.00  0.00    -0.207 F 
ATOM     15  C   UNL A   1      34.275  25.644  25.414  1.00  0.00     0.065 A 
ENDBRANCH   6   8
ENDBRANCH   5   6
BRANCH   5  16
ATOM     16  C   UNL A   1      34.172  20.977  24.778  1.00  0.00     0.039 A 
ATOM     17  C   UNL A   1      34.747  19.713  24.831  1.00  0.00     0.033 A 
ATOM     18  S   UNL A   1      32.465  20.829  24.517  1.00  0.00    -0.145 S 
ATOM     19  C   UNL A   1      33.846  18.699  24.422  1.00  0.00     0.029 A 
ATOM     20  C   UNL A   1      32.583  19.164  24.170  1.00  0.00     0.080 A 
ATOM     21  Br  UNL A   1      34.388  16.906  24.212  1.00  0.00    -0.050 Br
ENDBRANCH   5  16
ENDBRANCH   3   5
ENDBRANCH   2   3
ENDBRANCH   1   2
BRANCH   1  22
ATOM     22  C   UNL A   1      39.400  22.074  26.609  1.00  0.00     0.275 C 
BRANCH  22  23
ATOM     23  O   UNL A   1      40.558  22.724  26.081  1.00  0.00    -0.458 OA
BRANCH  23  24
ATOM     24  C   UNL A   1      41.044  23.697  26.882  1.00  0.00     0.338 C 
ATOM     25  O   UNL A   1      42.079  23.682  27.529  1.00  0.00    -0.246 OA
BRANCH  24  26
ATOM     26  C   UNL A   1      40.118  24.827  26.952  1.00  0.00     0.060 A 
ATOM     27  C   UNL A   1      40.442  25.937  26.156  1.00  0.00     0.016 A 
ATOM     28  C   UNL A   1      39.324  24.922  28.092  1.00  0.00     0.016 A 
ATOM     29  C   UNL A   1      40.246  27.195  26.679  1.00  0.00     0.010 A 
ATOM     30  C   UNL A   1      39.142  26.174  28.618  1.00  0.00     0.010 A 
ATOM     31  C   UNL A   1      39.719  27.271  27.963  1.00  0.00    -0.014 A 
BRANCH  31  32
ATOM     32  C   UNL A   1      39.935  28.430  28.795  1.00  0.00     0.031 A 
ATOM     33  C   UNL A   1      38.924  29.482  28.844  1.00  0.00     0.074 A 
ATOM     34  C   UNL A   1      41.039  28.460  29.572  1.00  0.00     0.049 A 
ATOM     35  N   UNL A   1      39.175  30.694  29.190  1.00  0.00    -0.248 NA
ATOM     36  C   UNL A   1      37.543  29.253  28.446  1.00  0.00     0.031 C 
ATOM     37  C   UNL A   1      41.304  29.350  30.694  1.00  0.00     0.029 A 
ATOM     38  N   UNL A   1      42.254  27.786  29.352  1.00  0.00    -0.354 N 
ATOM     39  C   UNL A   1      37.967  31.316  29.370  1.00  0.00     0.074 A 
ATOM     40  C   UNL A   1      36.989  30.416  28.798  1.00  0.00     0.031 C 
ATOM     41  C   UNL A   1      42.629  29.395  30.901  1.00  0.00     0.029 A 
ATOM     42  C   UNL A   1      43.255  28.666  29.810  1.00  0.00     0.049 A 
ATOM     43  H   UNL A   1      42.379  26.890  28.964  1.00  0.00     0.167 HD
ATOM     44  C   UNL A   1      37.924  32.439  30.142  1.00  0.00     0.037 A 
ATOM     45  C   UNL A   1      44.166  29.207  28.954  1.00  0.00     0.037 A 
ATOM     46  C   UNL A   1      39.264  32.823  30.594  1.00  0.00     0.049 A 
ATOM     47  C   UNL A   1      44.167  30.716  28.926  1.00  0.00     0.074 A 
ATOM     48  C   UNL A   1      39.941  32.652  31.792  1.00  0.00     0.029 A 
ATOM     49  N   UNL A   1      40.231  33.181  29.658  1.00  0.00    -0.354 N 
ATOM     50  N   UNL A   1      43.166  31.469  29.285  1.00  0.00    -0.248 NA
ATOM     51  C   UNL A   1      45.313  31.489  28.473  1.00  0.00     0.031 C 
ATOM     52  C   UNL A   1      41.310  32.956  31.583  1.00  0.00     0.029 A 
ATOM     53  C   UNL A   1      41.472  33.309  30.256  1.00  0.00     0.049 A 
ATOM     54  H   UNL A   1      40.055  33.325  28.700  1.00  0.00     0.167 HD
ATOM     55  C   UNL A   1      43.507  32.799  29.154  1.00  0.00     0.074 A 
ATOM     56  C   UNL A   1      44.863  32.745  28.637  1.00  0.00     0.031 C 
ATOM     57  C   UNL A   1      42.623  33.794  29.498  1.00  0.00     0.037 A 
BRANCH  44  58
ATOM     58  C   UNL A   1      36.637  32.947  30.750  1.00  0.00     0.064 A 
ATOM     59  C   UNL A   1      35.768  33.786  30.022  1.00  0.00     0.173 A 
ATOM     60  C   UNL A   1      36.246  32.708  32.080  1.00  0.00     0.173 A 
ATOM     61  F   UNL A   1      35.927  33.994  28.710  1.00  0.00    -0.203 F 
ATOM     62  C   UNL A   1      34.695  34.452  30.619  1.00  0.00     0.198 A 
ATOM     63  C   UNL A   1      35.210  33.418  32.695  1.00  0.00     0.198 A 
ATOM     64  F   UNL A   1      36.826  31.746  32.810  1.00  0.00    -0.203 F 
ATOM     65  F   UNL A   1      33.918  35.254  29.878  1.00  0.00    -0.200 F 
ATOM     66  C   UNL A   1      34.445  34.305  31.967  1.00  0.00     0.200 A 
ATOM     67  F   UNL A   1      34.963  33.239  34.001  1.00  0.00    -0.200 F 
ATOM     68  F   UNL A   1      33.454  34.992  32.552  1.00  0.00    -0.200 F 
ENDBRANCH  44  58
BRANCH  45  69
ATOM     69  C   UNL A   1      44.533  28.332  27.811  1.00  0.00     0.064 A 
ATOM     70  C   UNL A   1      45.444  27.280  28.020  1.00  0.00     0.173 A 
ATOM     71  C   UNL A   1      43.791  28.314  26.624  1.00  0.00     0.173 A 
ATOM     72  F   UNL A   1      46.178  27.245  29.145  1.00  0.00    -0.203 F 
ATOM     73  C   UNL A   1      45.559  26.222  27.119  1.00  0.00     0.198 A 
ATOM     74  C   UNL A   1      43.905  27.251  25.723  1.00  0.00     0.198 A 
ATOM     75  F   UNL A   1      42.896  29.279  26.369  1.00  0.00    -0.203 F 
ATOM     76  F   UNL A   1      46.398  25.209  27.379  1.00  0.00    -0.200 F 
ATOM     77  C   UNL A   1      44.773  26.198  25.979  1.00  0.00     0.200 A 
ATOM     78  F   UNL A   1      43.129  27.215  24.630  1.00  0.00    -0.200 F 
ATOM     79  F   UNL A   1      44.839  25.159  25.132  1.00  0.00    -0.200 F 
ENDBRANCH  45  69
BRANCH  57  80
ATOM     80  C   UNL A   1      42.716  35.311  29.288  1.00  0.00     0.064 A 
ATOM     81  C   UNL A   1      42.046  36.059  28.310  1.00  0.00     0.173 A 
ATOM     82  C   UNL A   1      43.513  36.107  30.167  1.00  0.00     0.173 A 
ATOM     83  F   UNL A   1      41.226  35.500  27.421  1.00  0.00    -0.203 F 
ATOM     84  C   UNL A   1      42.166  37.453  28.204  1.00  0.00     0.198 A 
ATOM     85  C   UNL A   1      43.611  37.496  30.077  1.00  0.00     0.198 A 
ATOM     86  F   UNL A   1      44.223  35.577  31.171  1.00  0.00    -0.203 F 
ATOM     87  F   UNL A   1      41.506  38.098  27.231  1.00  0.00    -0.200 F 
ATOM     88  C   UNL A   1      42.940  38.173  29.088  1.00  0.00     0.200 A 
ATOM     89  F   UNL A   1      44.351  38.169  30.970  1.00  0.00    -0.200 F 
ATOM     90  F   UNL A   1      43.028  39.506  28.997  1.00  0.00    -0.200 F 
ENDBRANCH  57  80
ENDBRANCH  31  32
ENDBRANCH  24  26
ENDBRANCH  23  24
ENDBRANCH  22  23
ENDBRANCH   1  22
TORSDOF 14
ENDMDL
MODEL 3
REMARK VINA RESULT:     -12.2      1.558      2.978
REMARK SMILES Cc1cc(F)cc(N[C@H](C(=O)OCCOC(=O)c2ccc(-c3c4nc(c(-c5c(F)c(F)c(F)c(F)c5F)c5ccc([nH]5)c(-c5c(F)c(F)c(F)c(F)c5F)c5nc(c(-c6c(F)c(F)c(F)c(F)c6F)c6ccc3[nH]6)C=C5)C=C4)cc2)c2cc(Br)cs2)c1
REMARK SMILES IDX 13 1 12 2 10 3 11 4 9 5 8 6 7 8 1 9 2 10 3 11 87 12 4 13
REMARK SMILES IDX 5 14 6 15 81 16 82 17 86 18 83 19 85 20 84 21 14 22 15 23
REMARK SMILES IDX 16 24 17 25 18 26 19 27 80 28 20 29 79 30 21 31 22 32 23 33
REMARK SMILES IDX 73 34 24 35 78 36 72 37 74 38 25 39 77 40 71 41 70 42 26 44
REMARK SMILES IDX 58 45 38 46 57 47 39 48 42 49 56 50 75 51 40 52 41 53 55 55
REMARK SMILES IDX 76 56 43 57 27 58 28 59 36 60 29 61 30 62 34 63 37 64 31 65
REMARK SMILES IDX 32 66 35 67 33 68 59 69 60 70 68 71 61 72 62 73 66 74 69 75
REMARK SMILES IDX 63 76 64 77 67 78 65 79 44 80 45 81 53 82 46 83 47 84 51 85
REMARK SMILES IDX 54 86 48 87 49 88 52 89 50 90
REMARK H PARENT 8 7 74 43 42 54
REMARK Flexibility Score: inf
ROOT
ATOM      1  C   UNL A   1      33.295  30.851  27.498  1.00  0.00     0.274 C 
ENDROOT
BRANCH   1   2
ATOM      2  O   UNL A   1      33.223  30.272  26.182  1.00  0.00    -0.460 OA
BRANCH   2   3
ATOM      3  C   UNL A   1      33.479  28.924  26.069  1.00  0.00     0.334 C 
ATOM      4  O   UNL A   1      34.472  28.390  26.552  1.00  0.00    -0.249 OA
BRANCH   3   5
ATOM      5  C   UNL A   1      32.301  28.184  25.350  1.00  0.00     0.231 C 
BRANCH   5   6
ATOM      6  N   UNL A   1      31.913  28.911  24.128  1.00  0.00    -0.368 N 
ATOM      7  H   UNL A   1      32.628  29.248  23.540  1.00  0.00     0.161 HD
BRANCH   6   8
ATOM      8  C   UNL A   1      30.597  29.147  23.760  1.00  0.00     0.038 A 
ATOM      9  C   UNL A   1      28.398  32.210  23.180  1.00  0.00     0.044 C 
ATOM     10  C   UNL A   1      28.841  30.785  23.293  1.00  0.00    -0.046 A 
ATOM     11  C   UNL A   1      27.917  29.751  23.127  1.00  0.00     0.042 A 
ATOM     12  C   UNL A   1      30.169  30.472  23.619  1.00  0.00     0.029 A 
ATOM     13  C   UNL A   1      28.328  28.438  23.280  1.00  0.00     0.125 A 
ATOM     14  F   UNL A   1      27.445  27.442  23.126  1.00  0.00    -0.207 F 
ATOM     15  C   UNL A   1      29.643  28.135  23.601  1.00  0.00     0.065 A 
ENDBRANCH   6   8
ENDBRANCH   5   6
BRANCH   5  16
ATOM     16  C   UNL A   1      32.597  26.689  25.173  1.00  0.00     0.039 A 
ATOM     17  C   UNL A   1      33.538  26.062  24.365  1.00  0.00     0.033 A 
ATOM     18  S   UNL A   1      31.734  25.500  26.092  1.00  0.00    -0.145 S 
ATOM     19  C   UNL A   1      33.364  24.656  24.335  1.00  0.00     0.029 A 
ATOM     20  C   UNL A   1      32.387  24.212  25.185  1.00  0.00     0.080 A 
ATOM     21  Br  UNL A   1      34.369  23.548  23.188  1.00  0.00    -0.050 Br
ENDBRANCH   5  16
ENDBRANCH   3   5
ENDBRANCH   2   3
ENDBRANCH   1   2
BRANCH   1  22
ATOM     22  C   UNL A   1      34.512  31.759  27.649  1.00  0.00     0.275 C 
BRANCH  22  23
ATOM     23  O   UNL A   1      35.210  31.456  28.857  1.00  0.00    -0.458 OA
BRANCH  23  24
ATOM     24  C   UNL A   1      36.554  31.476  28.726  1.00  0.00     0.338 C 
ATOM     25  O   UNL A   1      37.299  32.437  28.824  1.00  0.00    -0.246 OA
BRANCH  24  26
ATOM     26  C   UNL A   1      37.063  30.151  28.369  1.00  0.00     0.060 A 
ATOM     27  C   UNL A   1      37.064  29.197  29.397  1.00  0.00     0.016 A 
ATOM     28  C   UNL A   1      37.917  30.078  27.271  1.00  0.00     0.016 A 
ATOM     29  C   UNL A   1      38.140  28.344  29.497  1.00  0.00     0.010 A 
ATOM     30  C   UNL A   1      38.995  29.240  27.378  1.00  0.00     0.010 A 
ATOM     31  C   UNL A   1      39.148  28.485  28.550  1.00  0.00    -0.014 A 
BRANCH  31  32
ATOM     32  C   UNL A   1      40.497  28.049  28.820  1.00  0.00     0.031 A 
ATOM     33  C   UNL A   1      40.948  26.752  28.326  1.00  0.00     0.074 A 
ATOM     34  C   UNL A   1      41.329  28.903  29.454  1.00  0.00     0.049 A 
ATOM     35  N   UNL A   1      41.931  26.099  28.837  1.00  0.00    -0.248 NA
ATOM     36  C   UNL A   1      40.279  26.059  27.236  1.00  0.00     0.031 C 
ATOM     37  C   UNL A   1      42.779  28.814  29.552  1.00  0.00     0.029 A 
ATOM     38  N   UNL A   1      40.973  29.951  30.324  1.00  0.00    -0.354 N 
ATOM     39  C   UNL A   1      42.226  25.079  27.969  1.00  0.00     0.074 A 
ATOM     40  C   UNL A   1      41.112  25.032  27.048  1.00  0.00     0.031 C 
ATOM     41  C   UNL A   1      43.182  29.542  30.604  1.00  0.00     0.029 A 
ATOM     42  C   UNL A   1      41.985  29.979  31.304  1.00  0.00     0.049 A 
ATOM     43  H   UNL A   1      40.186  30.539  30.260  1.00  0.00     0.167 HD
ATOM     44  C   UNL A   1      43.465  24.514  28.032  1.00  0.00     0.037 A 
ATOM     45  C   UNL A   1      41.714  29.692  32.608  1.00  0.00     0.037 A 
ATOM     46  C   UNL A   1      44.257  25.090  29.121  1.00  0.00     0.049 A 
ATOM     47  C   UNL A   1      42.509  28.535  33.164  1.00  0.00     0.074 A 
ATOM     48  C   UNL A   1      45.260  26.047  29.156  1.00  0.00     0.029 A 
ATOM     49  N   UNL A   1      43.831  24.939  30.438  1.00  0.00    -0.354 N 
ATOM     50  N   UNL A   1      43.056  27.594  32.447  1.00  0.00    -0.248 NA
ATOM     51  C   UNL A   1      42.735  28.354  34.589  1.00  0.00     0.031 C 
ATOM     52  C   UNL A   1      45.468  26.434  30.504  1.00  0.00     0.029 A 
ATOM     53  C   UNL A   1      44.589  25.717  31.294  1.00  0.00     0.049 A 
ATOM     54  H   UNL A   1      43.089  24.356  30.722  1.00  0.00     0.167 HD
ATOM     55  C   UNL A   1      43.722  26.707  33.266  1.00  0.00     0.074 A 
ATOM     56  C   UNL A   1      43.480  27.235  34.597  1.00  0.00     0.031 C 
ATOM     57  C   UNL A   1      44.406  25.636  32.742  1.00  0.00     0.037 A 
BRANCH  44  58
ATOM     58  C   UNL A   1      44.041  23.712  26.887  1.00  0.00     0.064 A 
ATOM     59  C   UNL A   1      43.661  22.370  26.674  1.00  0.00     0.173 A 
ATOM     60  C   UNL A   1      45.035  24.188  26.013  1.00  0.00     0.173 A 
ATOM     61  F   UNL A   1      42.633  21.818  27.328  1.00  0.00    -0.203 F 
ATOM     62  C   UNL A   1      44.331  21.536  25.776  1.00  0.00     0.198 A 
ATOM     63  C   UNL A   1      45.746  23.341  25.157  1.00  0.00     0.198 A 
ATOM     64  F   UNL A   1      45.315  25.495  25.930  1.00  0.00    -0.203 F 
ATOM     65  F   UNL A   1      43.938  20.263  25.634  1.00  0.00    -0.200 F 
ATOM     66  C   UNL A   1      45.405  22.009  25.052  1.00  0.00     0.200 A 
ATOM     67  F   UNL A   1      46.769  23.827  24.438  1.00  0.00    -0.200 F 
ATOM     68  F   UNL A   1      46.087  21.193  24.236  1.00  0.00    -0.200 F 
ENDBRANCH  44  58
BRANCH  45  69
ATOM     69  C   UNL A   1      40.355  30.087  33.057  1.00  0.00     0.064 A 
ATOM     70  C   UNL A   1      40.103  31.436  33.369  1.00  0.00     0.173 A 
ATOM     71  C   UNL A   1      39.247  29.247  32.889  1.00  0.00     0.173 A 
ATOM     72  F   UNL A   1      41.129  32.286  33.535  1.00  0.00    -0.203 F 
ATOM     73  C   UNL A   1      38.804  31.939  33.443  1.00  0.00     0.198 A 
ATOM     74  C   UNL A   1      37.946  29.754  32.961  1.00  0.00     0.198 A 
ATOM     75  F   UNL A   1      39.417  27.954  32.577  1.00  0.00    -0.203 F 
ATOM     76  F   UNL A   1      38.603  33.241  33.689  1.00  0.00    -0.200 F 
ATOM     77  C   UNL A   1      37.725  31.100  33.219  1.00  0.00     0.200 A 
ATOM     78  F   UNL A   1      36.901  28.947  32.722  1.00  0.00    -0.200 F 
ATOM     79  F   UNL A   1      36.474  31.585  33.237  1.00  0.00    -0.200 F 
ENDBRANCH  45  69
BRANCH  57  80
ATOM     80  C   UNL A   1      45.070  24.447  33.451  1.00  0.00     0.064 A 
ATOM     81  C   UNL A   1      44.455  23.236  33.798  1.00  0.00     0.173 A 
ATOM     82  C   UNL A   1      46.459  24.496  33.780  1.00  0.00     0.173 A 
ATOM     83  F   UNL A   1      43.172  22.987  33.539  1.00  0.00    -0.203 F 
ATOM     84  C   UNL A   1      45.144  22.185  34.423  1.00  0.00     0.198 A 
ATOM     85  C   UNL A   1      47.150  23.440  34.376  1.00  0.00     0.198 A 
ATOM     86  F   UNL A   1      47.222  25.565  33.519  1.00  0.00    -0.203 F 
ATOM     87  F   UNL A   1      44.484  21.062  34.739  1.00  0.00    -0.200 F 
ATOM     88  C   UNL A   1      46.490  22.282  34.706  1.00  0.00     0.200 A 
ATOM     89  F   UNL A   1      48.464  23.556  34.614  1.00  0.00    -0.200 F 
ATOM     90  F   UNL A   1      47.146  21.265  35.277  1.00  0.00    -0.200 F 
ENDBRANCH  57  80
ENDBRANCH  31  32
ENDBRANCH  24  26
ENDBRANCH  23  24
ENDBRANCH  22  23
ENDBRANCH   1  22
TORSDOF 14
ENDMDL
