MODEL 1
REMARK VINA RESULT:     -13.5      0.000      0.000
REMARK SMILES COc1ccc2[nH]cc([C@H](C(=O)OCCOC(=O)c3ccc(-c4c5nc(c(-c6c(F)c(F)c(F)c(F)c6F)c6ccc([nH]6)c(-c6c(F)c(F)c(F)c(F)c6F)c6nc(c(-c7c(F)c(F)c(F)c(F)c7F)c7ccc4[nH]7)C=C6)C=C5)cc3)[NH+]3CC[NH+](Cc4cccc5ccccc45)CC3)c2c1
REMARK SMILES IDX 14 1 13 2 11 3 12 4 10 5 9 6 3 7 4 8 100 9 5 10 99 11 6 12
REMARK SMILES IDX 7 13 8 14 2 16 1 17 82 18 83 19 98 20 84 22 97 23 85 24
REMARK SMILES IDX 86 26 87 27 88 28 96 29 89 30 91 31 95 32 90 33 92 34 94 35
REMARK SMILES IDX 93 36 15 37 16 38 17 39 18 40 19 41 20 42 81 43 21 44 80 45
REMARK SMILES IDX 22 46 23 47 24 48 74 49 25 50 79 51 73 52 75 53 26 54 78 55
REMARK SMILES IDX 72 56 71 57 27 59 59 60 39 61 58 62 40 63 43 64 57 65 76 66
REMARK SMILES IDX 41 67 42 68 56 70 77 71 44 72 28 73 29 74 37 75 30 76 31 77
REMARK SMILES IDX 35 78 38 79 32 80 33 81 36 82 34 83 60 84 61 85 69 86 62 87
REMARK SMILES IDX 63 88 67 89 70 90 64 91 65 92 68 93 66 94 45 95 46 96 54 97
REMARK SMILES IDX 47 98 48 99 52 100 55 101 49 102 50 103 53 104 51 105
REMARK H PARENT 7 15 82 21 85 25 75 58 43 69
REMARK Flexibility Score: inf
ROOT
ATOM      1  C   UNL A   1      32.062  29.834  26.663  1.00  0.00     0.274 C 
ENDROOT
BRANCH   1   2
ATOM      2  O   UNL A   1      32.647  28.701  25.991  1.00  0.00    -0.457 OA
BRANCH   2   3
ATOM      3  C   UNL A   1      31.850  27.592  26.020  1.00  0.00     0.370 C 
ATOM      4  O   UNL A   1      31.468  27.112  27.081  1.00  0.00    -0.245 OA
BRANCH   3   5
ATOM      5  C   UNL A   1      31.444  27.070  24.629  1.00  0.00     0.328 C 
BRANCH   5   6
ATOM      6  C   UNL A   1      31.229  28.126  23.554  1.00  0.00     0.046 A 
ATOM      7  C   UNL A   1      27.653  29.208  22.760  1.00  0.00     0.119 A 
ATOM      8  C   UNL A   1      27.973  30.122  21.764  1.00  0.00     0.048 A 
ATOM      9  C   UNL A   1      28.643  28.538  23.470  1.00  0.00     0.057 A 
ATOM     10  C   UNL A   1      29.309  30.374  21.438  1.00  0.00     0.030 A 
ATOM     11  C   UNL A   1      29.995  28.709  23.108  1.00  0.00     0.013 A 
ATOM     12  C   UNL A   1      30.296  29.648  22.121  1.00  0.00     0.046 A 
ATOM     13  N   UNL A   1      31.666  29.703  22.022  1.00  0.00    -0.361 N 
ATOM     14  C   UNL A   1      32.236  28.786  22.862  1.00  0.00     0.094 A 
ATOM     15  H   UNL A   1      32.164  30.312  21.432  1.00  0.00     0.166 HD
BRANCH   7  16
ATOM     16  O   UNL A   1      26.354  28.956  23.108  1.00  0.00    -0.497 OA
ATOM     17  C   UNL A   1      26.279  27.753  23.874  1.00  0.00     0.278 C 
ENDBRANCH   7  16
ENDBRANCH   5   6
BRANCH   5  18
ATOM     18  N   UNL A   1      32.393  26.076  24.074  1.00  0.00    -0.310 N 
ATOM     19  C   UNL A   1      33.095  25.225  25.036  1.00  0.00     0.325 C 
ATOM     20  C   UNL A   1      31.932  25.326  22.908  1.00  0.00     0.325 C 
ATOM     21  H   UNL A   1      33.108  26.713  23.723  1.00  0.00     0.349 HD
ATOM     22  C   UNL A   1      32.581  23.783  25.243  1.00  0.00     0.324 C 
ATOM     23  C   UNL A   1      31.415  23.878  23.127  1.00  0.00     0.324 C 
ATOM     24  N   UNL A   1      32.197  23.036  24.044  1.00  0.00    -0.322 N 
ATOM     25  H   UNL A   1      31.557  22.298  24.337  1.00  0.00     0.348 HD
BRANCH  24  26
ATOM     26  C   UNL A   1      33.255  22.196  23.453  1.00  0.00     0.300 C 
BRANCH  26  27
ATOM     27  C   UNL A   1      33.563  20.895  24.173  1.00  0.00     0.014 A 
ATOM     28  C   UNL A   1      32.529  19.945  24.236  1.00  0.00     0.010 A 
ATOM     29  C   UNL A   1      34.867  20.522  24.571  1.00  0.00    -0.010 A 
ATOM     30  C   UNL A   1      32.793  18.605  24.475  1.00  0.00     0.001 A 
ATOM     31  C   UNL A   1      35.150  19.140  24.708  1.00  0.00    -0.018 A 
ATOM     32  C   UNL A   1      35.916  21.441  24.790  1.00  0.00     0.009 A 
ATOM     33  C   UNL A   1      34.110  18.198  24.647  1.00  0.00     0.009 A 
ATOM     34  C   UNL A   1      36.479  18.722  24.864  1.00  0.00     0.009 A 
ATOM     35  C   UNL A   1      37.224  21.008  25.011  1.00  0.00     0.001 A 
ATOM     36  C   UNL A   1      37.511  19.649  25.001  1.00  0.00     0.001 A 
ENDBRANCH  26  27
ENDBRANCH  24  26
ENDBRANCH   5  18
ENDBRANCH   3   5
ENDBRANCH   2   3
ENDBRANCH   1   2
BRANCH   1  37
ATOM     37  C   UNL A   1      32.883  31.124  26.539  1.00  0.00     0.275 C 
BRANCH  37  38
ATOM     38  O   UNL A   1      32.652  32.068  27.605  1.00  0.00    -0.458 OA
BRANCH  38  39
ATOM     39  C   UNL A   1      33.615  33.009  27.748  1.00  0.00     0.338 C 
ATOM     40  O   UNL A   1      33.466  34.220  27.631  1.00  0.00    -0.246 OA
BRANCH  39  41
ATOM     41  C   UNL A   1      34.888  32.419  28.225  1.00  0.00     0.060 A 
ATOM     42  C   UNL A   1      34.828  31.129  28.761  1.00  0.00     0.016 A 
ATOM     43  C   UNL A   1      36.112  33.095  28.194  1.00  0.00     0.016 A 
ATOM     44  C   UNL A   1      35.983  30.495  29.224  1.00  0.00     0.010 A 
ATOM     45  C   UNL A   1      37.265  32.477  28.709  1.00  0.00     0.010 A 
ATOM     46  C   UNL A   1      37.209  31.173  29.229  1.00  0.00    -0.014 A 
BRANCH  46  47
ATOM     47  C   UNL A   1      38.359  30.558  29.945  1.00  0.00     0.031 A 
ATOM     48  C   UNL A   1      38.554  30.895  31.396  1.00  0.00     0.074 A 
ATOM     49  C   UNL A   1      39.190  29.681  29.353  1.00  0.00     0.049 A 
ATOM     50  N   UNL A   1      39.447  30.449  32.242  1.00  0.00    -0.248 NA
ATOM     51  C   UNL A   1      37.620  31.880  31.964  1.00  0.00     0.031 C 
ATOM     52  C   UNL A   1      39.120  29.274  27.959  1.00  0.00     0.029 A 
ATOM     53  N   UNL A   1      40.251  28.962  29.859  1.00  0.00    -0.354 N 
ATOM     54  C   UNL A   1      39.189  31.102  33.438  1.00  0.00     0.074 A 
ATOM     55  C   UNL A   1      38.057  31.975  33.210  1.00  0.00     0.031 C 
ATOM     56  C   UNL A   1      40.071  28.353  27.723  1.00  0.00     0.029 A 
ATOM     57  C   UNL A   1      40.838  28.122  28.942  1.00  0.00     0.049 A 
ATOM     58  H   UNL A   1      40.560  29.043  30.790  1.00  0.00     0.167 HD
ATOM     59  C   UNL A   1      39.850  31.004  34.615  1.00  0.00     0.037 A 
ATOM     60  C   UNL A   1      41.883  27.275  29.066  1.00  0.00     0.037 A 
ATOM     61  C   UNL A   1      41.010  30.181  34.832  1.00  0.00     0.049 A 
ATOM     62  C   UNL A   1      42.626  27.218  30.379  1.00  0.00     0.074 A 
ATOM     63  C   UNL A   1      41.766  30.045  35.982  1.00  0.00     0.029 A 
ATOM     64  N   UNL A   1      41.597  29.372  33.869  1.00  0.00    -0.354 N 
ATOM     65  N   UNL A   1      42.362  27.825  31.510  1.00  0.00    -0.248 NA
ATOM     66  C   UNL A   1      43.836  26.381  30.420  1.00  0.00     0.031 C 
ATOM     67  C   UNL A   1      42.845  29.202  35.700  1.00  0.00     0.029 A 
ATOM     68  C   UNL A   1      42.722  28.754  34.394  1.00  0.00     0.049 A 
ATOM     69  H   UNL A   1      41.264  29.253  32.950  1.00  0.00     0.167 HD
ATOM     70  C   UNL A   1      43.364  27.442  32.394  1.00  0.00     0.074 A 
ATOM     71  C   UNL A   1      44.220  26.517  31.681  1.00  0.00     0.031 C 
ATOM     72  C   UNL A   1      43.566  27.833  33.676  1.00  0.00     0.037 A 
BRANCH  59  73
ATOM     73  C   UNL A   1      39.368  31.873  35.738  1.00  0.00     0.064 A 
ATOM     74  C   UNL A   1      39.845  33.180  35.918  1.00  0.00     0.173 A 
ATOM     75  C   UNL A   1      38.420  31.387  36.650  1.00  0.00     0.173 A 
ATOM     76  F   UNL A   1      40.770  33.683  35.086  1.00  0.00    -0.203 F 
ATOM     77  C   UNL A   1      39.414  33.956  36.991  1.00  0.00     0.198 A 
ATOM     78  C   UNL A   1      37.968  32.177  37.701  1.00  0.00     0.198 A 
ATOM     79  F   UNL A   1      37.935  30.143  36.523  1.00  0.00    -0.203 F 
ATOM     80  F   UNL A   1      39.928  35.179  37.179  1.00  0.00    -0.200 F 
ATOM     81  C   UNL A   1      38.471  33.457  37.877  1.00  0.00     0.200 A 
ATOM     82  F   UNL A   1      37.049  31.696  38.552  1.00  0.00    -0.200 F 
ATOM     83  F   UNL A   1      38.058  34.204  38.909  1.00  0.00    -0.200 F 
ENDBRANCH  59  73
BRANCH  60  84
ATOM     84  C   UNL A   1      42.325  26.426  27.920  1.00  0.00     0.064 A 
ATOM     85  C   UNL A   1      43.295  26.881  27.011  1.00  0.00     0.173 A 
ATOM     86  C   UNL A   1      41.748  25.172  27.669  1.00  0.00     0.173 A 
ATOM     87  F   UNL A   1      43.855  28.089  27.179  1.00  0.00    -0.203 F 
ATOM     88  C   UNL A   1      43.648  26.129  25.890  1.00  0.00     0.198 A 
ATOM     89  C   UNL A   1      42.132  24.402  26.572  1.00  0.00     0.198 A 
ATOM     90  F   UNL A   1      40.806  24.689  28.493  1.00  0.00    -0.203 F 
ATOM     91  F   UNL A   1      44.521  26.624  25.002  1.00  0.00    -0.200 F 
ATOM     92  C   UNL A   1      43.071  24.887  25.676  1.00  0.00     0.200 A 
ATOM     93  F   UNL A   1      41.580  23.198  26.377  1.00  0.00    -0.200 F 
ATOM     94  F   UNL A   1      43.408  24.166  24.597  1.00  0.00    -0.200 F 
ENDBRANCH  60  84
BRANCH  72  95
ATOM     95  C   UNL A   1      44.743  27.246  34.407  1.00  0.00     0.064 A 
ATOM     96  C   UNL A   1      44.649  26.032  35.106  1.00  0.00     0.173 A 
ATOM     97  C   UNL A   1      45.993  27.882  34.366  1.00  0.00     0.173 A 
ATOM     98  F   UNL A   1      43.474  25.388  35.188  1.00  0.00    -0.203 F 
ATOM     99  C   UNL A   1      45.755  25.495  35.760  1.00  0.00     0.198 A 
ATOM    100  C   UNL A   1      47.104  27.323  34.990  1.00  0.00     0.198 A 
ATOM    101  F   UNL A   1      46.142  29.040  33.704  1.00  0.00    -0.203 F 
ATOM    102  F   UNL A   1      45.629  24.361  36.464  1.00  0.00    -0.200 F 
ATOM    103  C   UNL A   1      46.983  26.135  35.694  1.00  0.00     0.200 A 
ATOM    104  F   UNL A   1      48.294  27.934  34.910  1.00  0.00    -0.200 F 
ATOM    105  F   UNL A   1      48.049  25.610  36.314  1.00  0.00    -0.200 F 
ENDBRANCH  72  95
ENDBRANCH  46  47
ENDBRANCH  39  41
ENDBRANCH  38  39
ENDBRANCH  37  38
ENDBRANCH   1  37
TORSDOF 16
ENDMDL
MODEL 2
REMARK VINA RESULT:     -13.3      4.215     10.133
REMARK SMILES COc1ccc2[nH]cc([C@H](C(=O)OCCOC(=O)c3ccc(-c4c5nc(c(-c6c(F)c(F)c(F)c(F)c6F)c6ccc([nH]6)c(-c6c(F)c(F)c(F)c(F)c6F)c6nc(c(-c7c(F)c(F)c(F)c(F)c7F)c7ccc4[nH]7)C=C6)C=C5)cc3)[NH+]3CC[NH+](Cc4cccc5ccccc45)CC3)c2c1
REMARK SMILES IDX 14 1 13 2 11 3 12 4 10 5 9 6 3 7 4 8 100 9 5 10 99 11 6 12
REMARK SMILES IDX 7 13 8 14 2 16 1 17 82 18 83 19 98 20 84 22 97 23 85 24
REMARK SMILES IDX 86 26 87 27 88 28 96 29 89 30 91 31 95 32 90 33 92 34 94 35
REMARK SMILES IDX 93 36 15 37 16 38 17 39 18 40 19 41 20 42 81 43 21 44 80 45
REMARK SMILES IDX 22 46 23 47 24 48 74 49 25 50 79 51 73 52 75 53 26 54 78 55
REMARK SMILES IDX 72 56 71 57 27 59 59 60 39 61 58 62 40 63 43 64 57 65 76 66
REMARK SMILES IDX 41 67 42 68 56 70 77 71 44 72 28 73 29 74 37 75 30 76 31 77
REMARK SMILES IDX 35 78 38 79 32 80 33 81 36 82 34 83 60 84 61 85 69 86 62 87
REMARK SMILES IDX 63 88 67 89 70 90 64 91 65 92 68 93 66 94 45 95 46 96 54 97
REMARK SMILES IDX 47 98 48 99 52 100 55 101 49 102 50 103 53 104 51 105
REMARK H PARENT 7 15 82 21 85 25 75 58 43 69
REMARK Flexibility Score: inf
ROOT
ATOM      1  C   UNL A   1      36.963  22.621  23.454  1.00  0.00     0.274 C 
ENDROOT
BRANCH   1   2
ATOM      2  O   UNL A   1      35.602  22.959  23.121  1.00  0.00    -0.457 OA
BRANCH   2   3
ATOM      3  C   UNL A   1      34.895  23.442  24.185  1.00  0.00     0.370 C 
ATOM      4  O   UNL A   1      35.371  24.291  24.930  1.00  0.00    -0.245 OA
BRANCH   3   5
ATOM      5  C   UNL A   1      33.468  22.876  24.303  1.00  0.00     0.328 C 
BRANCH   5   6
ATOM      6  C   UNL A   1      33.315  21.613  25.138  1.00  0.00     0.046 A 
ATOM      7  C   UNL A   1      32.515  18.336  23.347  1.00  0.00     0.119 A 
ATOM      8  C   UNL A   1      32.466  17.534  24.480  1.00  0.00     0.048 A 
ATOM      9  C   UNL A   1      32.853  19.682  23.429  1.00  0.00     0.057 A 
ATOM     10  C   UNL A   1      32.737  18.075  25.741  1.00  0.00     0.030 A 
ATOM     11  C   UNL A   1      33.049  20.274  24.693  1.00  0.00     0.013 A 
ATOM     12  C   UNL A   1      33.018  19.446  25.816  1.00  0.00     0.046 A 
ATOM     13  N   UNL A   1      33.335  20.229  26.901  1.00  0.00    -0.361 N 
ATOM     14  C   UNL A   1      33.499  21.530  26.512  1.00  0.00     0.094 A 
ATOM     15  H   UNL A   1      33.429  19.901  27.824  1.00  0.00     0.166 HD
BRANCH   7  16
ATOM     16  O   UNL A   1      32.270  17.827  22.100  1.00  0.00    -0.497 OA
ATOM     17  C   UNL A   1      32.102  18.892  21.164  1.00  0.00     0.278 C 
ENDBRANCH   7  16
ENDBRANCH   5   6
BRANCH   5  18
ATOM     18  N   UNL A   1      32.487  23.858  24.822  1.00  0.00    -0.310 N 
ATOM     19  C   UNL A   1      32.836  25.273  24.689  1.00  0.00     0.325 C 
ATOM     20  C   UNL A   1      31.085  23.602  24.497  1.00  0.00     0.325 C 
ATOM     21  H   UNL A   1      32.575  23.663  25.820  1.00  0.00     0.349 HD
ATOM     22  C   UNL A   1      32.187  26.078  23.541  1.00  0.00     0.324 C 
ATOM     23  C   UNL A   1      30.443  24.415  23.340  1.00  0.00     0.324 C 
ATOM     24  N   UNL A   1      30.762  25.850  23.292  1.00  0.00    -0.322 N 
ATOM     25  H   UNL A   1      30.573  26.131  22.330  1.00  0.00     0.348 HD
BRANCH  24  26
ATOM     26  C   UNL A   1      29.842  26.770  23.983  1.00  0.00     0.300 C 
BRANCH  26  27
ATOM     27  C   UNL A   1      29.923  28.232  23.580  1.00  0.00     0.014 A 
ATOM     28  C   UNL A   1      29.154  28.629  22.472  1.00  0.00     0.010 A 
ATOM     29  C   UNL A   1      30.539  29.221  24.381  1.00  0.00    -0.010 A 
ATOM     30  C   UNL A   1      28.814  29.957  22.268  1.00  0.00     0.001 A 
ATOM     31  C   UNL A   1      30.104  30.561  24.234  1.00  0.00    -0.018 A 
ATOM     32  C   UNL A   1      31.525  28.944  25.353  1.00  0.00     0.009 A 
ATOM     33  C   UNL A   1      29.237  30.910  23.185  1.00  0.00     0.009 A 
ATOM     34  C   UNL A   1      30.513  31.524  25.167  1.00  0.00     0.009 A 
ATOM     35  C   UNL A   1      31.973  29.931  26.232  1.00  0.00     0.001 A 
ATOM     36  C   UNL A   1      31.431  31.208  26.168  1.00  0.00     0.001 A 
ENDBRANCH  26  27
ENDBRANCH  24  26
ENDBRANCH   5  18
ENDBRANCH   3   5
ENDBRANCH   2   3
ENDBRANCH   1   2
BRANCH   1  37
ATOM     37  C   UNL A   1      37.093  21.425  24.407  1.00  0.00     0.275 C 
BRANCH  37  38
ATOM     38  O   UNL A   1      37.473  21.788  25.750  1.00  0.00    -0.458 OA
BRANCH  38  39
ATOM     39  C   UNL A   1      38.782  21.596  26.041  1.00  0.00     0.338 C 
ATOM     40  O   UNL A   1      39.455  20.619  25.736  1.00  0.00    -0.246 OA
BRANCH  39  41
ATOM     41  C   UNL A   1      39.384  22.799  26.664  1.00  0.00     0.060 A 
ATOM     42  C   UNL A   1      38.810  24.033  26.345  1.00  0.00     0.016 A 
ATOM     43  C   UNL A   1      40.496  22.755  27.510  1.00  0.00     0.016 A 
ATOM     44  C   UNL A   1      39.310  25.216  26.896  1.00  0.00     0.010 A 
ATOM     45  C   UNL A   1      41.032  23.950  28.023  1.00  0.00     0.010 A 
ATOM     46  C   UNL A   1      40.444  25.189  27.718  1.00  0.00    -0.014 A 
BRANCH  46  47
ATOM     47  C   UNL A   1      41.085  26.480  28.088  1.00  0.00     0.031 A 
ATOM     48  C   UNL A   1      42.495  26.728  27.636  1.00  0.00     0.074 A 
ATOM     49  C   UNL A   1      40.429  27.442  28.764  1.00  0.00     0.049 A 
ATOM     50  N   UNL A   1      43.245  27.789  27.790  1.00  0.00    -0.248 NA
ATOM     51  C   UNL A   1      43.152  25.620  26.925  1.00  0.00     0.031 C 
ATOM     52  C   UNL A   1      39.068  27.330  29.266  1.00  0.00     0.029 A 
ATOM     53  N   UNL A   1      40.819  28.710  29.132  1.00  0.00    -0.354 N 
ATOM     54  C   UNL A   1      44.462  27.475  27.203  1.00  0.00     0.074 A 
ATOM     55  C   UNL A   1      44.352  26.126  26.689  1.00  0.00     0.031 C 
ATOM     56  C   UNL A   1      38.720  28.492  29.847  1.00  0.00     0.029 A 
ATOM     57  C   UNL A   1      39.841  29.423  29.785  1.00  0.00     0.049 A 
ATOM     58  H   UNL A   1      41.716  29.072  28.946  1.00  0.00     0.167 HD
ATOM     59  C   UNL A   1      45.581  28.233  27.119  1.00  0.00     0.037 A 
ATOM     60  C   UNL A   1      39.852  30.676  30.288  1.00  0.00     0.037 A 
ATOM     61  C   UNL A   1      45.715  29.552  27.677  1.00  0.00     0.049 A 
ATOM     62  C   UNL A   1      41.127  31.482  30.216  1.00  0.00     0.074 A 
ATOM     63  C   UNL A   1      46.822  30.381  27.671  1.00  0.00     0.029 A 
ATOM     64  N   UNL A   1      44.714  30.227  28.361  1.00  0.00    -0.354 N 
ATOM     65  N   UNL A   1      42.266  31.184  29.642  1.00  0.00    -0.248 NA
ATOM     66  C   UNL A   1      41.126  32.788  30.896  1.00  0.00     0.031 C 
ATOM     67  C   UNL A   1      46.513  31.530  28.404  1.00  0.00     0.029 A 
ATOM     68  C   UNL A   1      45.189  31.452  28.806  1.00  0.00     0.049 A 
ATOM     69  H   UNL A   1      43.802  29.887  28.511  1.00  0.00     0.167 HD
ATOM     70  C   UNL A   1      43.112  32.261  29.885  1.00  0.00     0.074 A 
ATOM     71  C   UNL A   1      42.342  33.238  30.625  1.00  0.00     0.031 C 
ATOM     72  C   UNL A   1      44.413  32.419  29.540  1.00  0.00     0.037 A 
BRANCH  59  73
ATOM     73  C   UNL A   1      46.774  27.609  26.459  1.00  0.00     0.064 A 
ATOM     74  C   UNL A   1      47.044  27.792  25.094  1.00  0.00     0.173 A 
ATOM     75  C   UNL A   1      47.654  26.809  27.202  1.00  0.00     0.173 A 
ATOM     76  F   UNL A   1      46.218  28.529  24.335  1.00  0.00    -0.203 F 
ATOM     77  C   UNL A   1      48.134  27.170  24.493  1.00  0.00     0.198 A 
ATOM     78  C   UNL A   1      48.761  26.216  26.604  1.00  0.00     0.198 A 
ATOM     79  F   UNL A   1      47.438  26.600  28.510  1.00  0.00    -0.203 F 
ATOM     80  F   UNL A   1      48.339  27.310  23.176  1.00  0.00    -0.200 F 
ATOM     81  C   UNL A   1      48.995  26.388  25.249  1.00  0.00     0.200 A 
ATOM     82  F   UNL A   1      49.597  25.468  27.339  1.00  0.00    -0.200 F 
ATOM     83  F   UNL A   1      50.043  25.790  24.668  1.00  0.00    -0.200 F 
ENDBRANCH  59  73
BRANCH  60  84
ATOM     84  C   UNL A   1      38.637  31.256  30.934  1.00  0.00     0.064 A 
ATOM     85  C   UNL A   1      38.437  31.160  32.322  1.00  0.00     0.173 A 
ATOM     86  C   UNL A   1      37.622  31.864  30.179  1.00  0.00     0.173 A 
ATOM     87  F   UNL A   1      39.357  30.557  33.090  1.00  0.00    -0.203 F 
ATOM     88  C   UNL A   1      37.264  31.622  32.918  1.00  0.00     0.198 A 
ATOM     89  C   UNL A   1      36.469  32.363  30.782  1.00  0.00     0.198 A 
ATOM     90  F   UNL A   1      37.749  31.972  28.848  1.00  0.00    -0.203 F 
ATOM     91  F   UNL A   1      37.070  31.448  34.233  1.00  0.00    -0.200 F 
ATOM     92  C   UNL A   1      36.284  32.230  32.150  1.00  0.00     0.200 A 
ATOM     93  F   UNL A   1      35.531  32.960  30.035  1.00  0.00    -0.200 F 
ATOM     94  F   UNL A   1      35.156  32.671  32.722  1.00  0.00    -0.200 F 
ENDBRANCH  60  84
BRANCH  72  95
ATOM     95  C   UNL A   1      45.087  33.705  29.933  1.00  0.00     0.064 A 
ATOM     96  C   UNL A   1      45.785  33.835  31.143  1.00  0.00     0.173 A 
ATOM     97  C   UNL A   1      45.074  34.807  29.064  1.00  0.00     0.173 A 
ATOM     98  F   UNL A   1      45.819  32.817  32.017  1.00  0.00    -0.203 F 
ATOM     99  C   UNL A   1      46.420  35.029  31.480  1.00  0.00     0.198 A 
ATOM    100  C   UNL A   1      45.740  35.985  29.387  1.00  0.00     0.198 A 
ATOM    101  F   UNL A   1      44.430  34.735  27.889  1.00  0.00    -0.203 F 
ATOM    102  F   UNL A   1      47.037  35.146  32.664  1.00  0.00    -0.200 F 
ATOM    103  C   UNL A   1      46.405  36.099  30.599  1.00  0.00     0.200 A 
ATOM    104  F   UNL A   1      45.739  37.013  28.527  1.00  0.00    -0.200 F 
ATOM    105  F   UNL A   1      47.026  37.242  30.919  1.00  0.00    -0.200 F 
ENDBRANCH  72  95
ENDBRANCH  46  47
ENDBRANCH  39  41
ENDBRANCH  38  39
ENDBRANCH  37  38
ENDBRANCH   1  37
TORSDOF 16
ENDMDL
MODEL 3
REMARK VINA RESULT:     -13.2      1.539      7.283
REMARK SMILES COc1ccc2[nH]cc([C@H](C(=O)OCCOC(=O)c3ccc(-c4c5nc(c(-c6c(F)c(F)c(F)c(F)c6F)c6ccc([nH]6)c(-c6c(F)c(F)c(F)c(F)c6F)c6nc(c(-c7c(F)c(F)c(F)c(F)c7F)c7ccc4[nH]7)C=C6)C=C5)cc3)[NH+]3CC[NH+](Cc4cccc5ccccc45)CC3)c2c1
REMARK SMILES IDX 14 1 13 2 11 3 12 4 10 5 9 6 3 7 4 8 100 9 5 10 99 11 6 12
REMARK SMILES IDX 7 13 8 14 2 16 1 17 82 18 83 19 98 20 84 22 97 23 85 24
REMARK SMILES IDX 86 26 87 27 88 28 96 29 89 30 91 31 95 32 90 33 92 34 94 35
REMARK SMILES IDX 93 36 15 37 16 38 17 39 18 40 19 41 20 42 81 43 21 44 80 45
REMARK SMILES IDX 22 46 23 47 24 48 74 49 25 50 79 51 73 52 75 53 26 54 78 55
REMARK SMILES IDX 72 56 71 57 27 59 59 60 39 61 58 62 40 63 43 64 57 65 76 66
REMARK SMILES IDX 41 67 42 68 56 70 77 71 44 72 28 73 29 74 37 75 30 76 31 77
REMARK SMILES IDX 35 78 38 79 32 80 33 81 36 82 34 83 60 84 61 85 69 86 62 87
REMARK SMILES IDX 63 88 67 89 70 90 64 91 65 92 68 93 66 94 45 95 46 96 54 97
REMARK SMILES IDX 47 98 48 99 52 100 55 101 49 102 50 103 53 104 51 105
REMARK H PARENT 7 15 82 21 85 25 75 58 43 69
REMARK Flexibility Score: inf
ROOT
ATOM      1  C   UNL A   1      31.518  27.750  27.118  1.00  0.00     0.274 C 
ENDROOT
BRANCH   1   2
ATOM      2  O   UNL A   1      32.682  26.992  26.734  1.00  0.00    -0.457 OA
BRANCH   2   3
ATOM      3  C   UNL A   1      32.374  25.823  26.099  1.00  0.00     0.370 C 
ATOM      4  O   UNL A   1      31.854  24.891  26.701  1.00  0.00    -0.245 OA
BRANCH   3   5
ATOM      5  C   UNL A   1      32.678  25.827  24.589  1.00  0.00     0.328 C 
BRANCH   5   6
ATOM      6  C   UNL A   1      32.427  27.138  23.859  1.00  0.00     0.046 A 
ATOM      7  C   UNL A   1      28.815  28.156  23.145  1.00  0.00     0.119 A 
ATOM      8  C   UNL A   1      29.104  29.346  22.489  1.00  0.00     0.048 A 
ATOM      9  C   UNL A   1      29.822  27.376  23.701  1.00  0.00     0.057 A 
ATOM     10  C   UNL A   1      30.428  29.776  22.355  1.00  0.00     0.030 A 
ATOM     11  C   UNL A   1      31.170  27.740  23.510  1.00  0.00     0.013 A 
ATOM     12  C   UNL A   1      31.438  28.950  22.868  1.00  0.00     0.046 A 
ATOM     13  N   UNL A   1      32.801  29.127  22.896  1.00  0.00    -0.361 N 
ATOM     14  C   UNL A   1      33.406  28.043  23.470  1.00  0.00     0.094 A 
ATOM     15  H   UNL A   1      33.273  29.918  22.550  1.00  0.00     0.166 HD
BRANCH   7  16
ATOM     16  O   UNL A   1      27.527  27.722  23.303  1.00  0.00    -0.497 OA
ATOM     17  C   UNL A   1      26.636  28.837  23.327  1.00  0.00     0.278 C 
ENDBRANCH   7  16
ENDBRANCH   5   6
BRANCH   5  18
ATOM     18  N   UNL A   1      34.064  25.412  24.267  1.00  0.00    -0.310 N 
ATOM     19  C   UNL A   1      34.861  24.864  25.365  1.00  0.00     0.325 C 
ATOM     20  C   UNL A   1      34.239  24.657  23.028  1.00  0.00     0.325 C 
ATOM     21  H   UNL A   1      34.470  26.330  24.086  1.00  0.00     0.349 HD
ATOM     22  C   UNL A   1      35.022  23.330  25.453  1.00  0.00     0.324 C 
ATOM     23  C   UNL A   1      34.398  23.115  23.128  1.00  0.00     0.324 C 
ATOM     24  N   UNL A   1      35.271  22.615  24.200  1.00  0.00    -0.322 N 
ATOM     25  H   UNL A   1      34.987  21.646  24.341  1.00  0.00     0.348 HD
BRANCH  24  26
ATOM     26  C   UNL A   1      36.689  22.390  23.868  1.00  0.00     0.300 C 
BRANCH  26  27
ATOM     27  C   UNL A   1      37.501  21.603  24.882  1.00  0.00     0.014 A 
ATOM     28  C   UNL A   1      37.560  20.210  24.704  1.00  0.00     0.010 A 
ATOM     29  C   UNL A   1      38.355  22.214  25.829  1.00  0.00    -0.010 A 
ATOM     30  C   UNL A   1      38.570  19.451  25.276  1.00  0.00     0.001 A 
ATOM     31  C   UNL A   1      39.446  21.458  26.324  1.00  0.00    -0.018 A 
ATOM     32  C   UNL A   1      38.214  23.547  26.270  1.00  0.00     0.009 A 
ATOM     33  C   UNL A   1      39.545  20.088  26.032  1.00  0.00     0.009 A 
ATOM     34  C   UNL A   1      40.444  22.098  27.072  1.00  0.00     0.009 A 
ATOM     35  C   UNL A   1      39.183  24.151  27.072  1.00  0.00     0.001 A 
ATOM     36  C   UNL A   1      40.320  23.439  27.433  1.00  0.00     0.001 A 
ENDBRANCH  26  27
ENDBRANCH  24  26
ENDBRANCH   5  18
ENDBRANCH   3   5
ENDBRANCH   2   3
ENDBRANCH   1   2
BRANCH   1  37
ATOM     37  C   UNL A   1      31.760  29.262  27.209  1.00  0.00     0.275 C 
BRANCH  37  38
ATOM     38  O   UNL A   1      32.979  29.698  26.572  1.00  0.00    -0.458 OA
BRANCH  38  39
ATOM     39  C   UNL A   1      33.426  30.911  26.972  1.00  0.00     0.338 C 
ATOM     40  O   UNL A   1      32.807  31.967  26.910  1.00  0.00    -0.246 OA
BRANCH  39  41
ATOM     41  C   UNL A   1      34.737  30.811  27.658  1.00  0.00     0.060 A 
ATOM     42  C   UNL A   1      35.154  29.534  28.045  1.00  0.00     0.016 A 
ATOM     43  C   UNL A   1      35.538  31.917  27.958  1.00  0.00     0.016 A 
ATOM     44  C   UNL A   1      36.380  29.348  28.688  1.00  0.00     0.010 A 
ATOM     45  C   UNL A   1      36.748  31.737  28.652  1.00  0.00     0.010 A 
ATOM     46  C   UNL A   1      37.177  30.451  29.023  1.00  0.00    -0.014 A 
BRANCH  46  47
ATOM     47  C   UNL A   1      38.350  30.237  29.913  1.00  0.00     0.031 A 
ATOM     48  C   UNL A   1      39.538  29.506  29.357  1.00  0.00     0.074 A 
ATOM     49  C   UNL A   1      38.398  30.717  31.169  1.00  0.00     0.049 A 
ATOM     50  N   UNL A   1      40.691  29.242  29.917  1.00  0.00    -0.248 NA
ATOM     51  C   UNL A   1      39.400  28.990  27.986  1.00  0.00     0.031 C 
ATOM     52  C   UNL A   1      37.319  31.433  31.832  1.00  0.00     0.029 A 
ATOM     53  N   UNL A   1      39.405  30.684  32.108  1.00  0.00    -0.354 N 
ATOM     54  C   UNL A   1      41.411  28.526  28.973  1.00  0.00     0.074 A 
ATOM     55  C   UNL A   1      40.568  28.395  27.803  1.00  0.00     0.031 C 
ATOM     56  C   UNL A   1      37.728  31.805  33.057  1.00  0.00     0.029 A 
ATOM     57  C   UNL A   1      39.089  31.330  33.281  1.00  0.00     0.049 A 
ATOM     58  H   UNL A   1      40.269  30.240  31.954  1.00  0.00     0.167 HD
ATOM     59  C   UNL A   1      42.655  28.001  29.077  1.00  0.00     0.037 A 
ATOM     60  C   UNL A   1      39.809  31.506  34.410  1.00  0.00     0.037 A 
ATOM     61  C   UNL A   1      43.476  28.079  30.256  1.00  0.00     0.049 A 
ATOM     62  C   UNL A   1      41.176  30.875  34.512  1.00  0.00     0.074 A 
ATOM     63  C   UNL A   1      44.736  27.547  30.464  1.00  0.00     0.029 A 
ATOM     64  N   UNL A   1      43.108  28.710  31.435  1.00  0.00    -0.354 N 
ATOM     65  N   UNL A   1      41.857  30.216  33.607  1.00  0.00    -0.248 NA
ATOM     66  C   UNL A   1      41.862  30.983  35.810  1.00  0.00     0.031 C 
ATOM     67  C   UNL A   1      45.105  27.802  31.788  1.00  0.00     0.029 A 
ATOM     68  C   UNL A   1      44.108  28.557  32.384  1.00  0.00     0.049 A 
ATOM     69  H   UNL A   1      42.263  29.195  31.578  1.00  0.00     0.167 HD
ATOM     70  C   UNL A   1      43.046  29.838  34.219  1.00  0.00     0.074 A 
ATOM     71  C   UNL A   1      43.013  30.375  35.563  1.00  0.00     0.031 C 
ATOM     72  C   UNL A   1      44.066  29.098  33.719  1.00  0.00     0.037 A 
BRANCH  59  73
ATOM     73  C   UNL A   1      43.166  27.230  27.897  1.00  0.00     0.064 A 
ATOM     74  C   UNL A   1      43.046  25.834  27.818  1.00  0.00     0.173 A 
ATOM     75  C   UNL A   1      43.792  27.898  26.835  1.00  0.00     0.173 A 
ATOM     76  F   UNL A   1      42.476  25.147  28.820  1.00  0.00    -0.203 F 
ATOM     77  C   UNL A   1      43.563  25.134  26.731  1.00  0.00     0.198 A 
ATOM     78  C   UNL A   1      44.279  27.198  25.736  1.00  0.00     0.198 A 
ATOM     79  F   UNL A   1      43.934  29.232  26.864  1.00  0.00    -0.203 F 
ATOM     80  F   UNL A   1      43.492  23.796  26.705  1.00  0.00    -0.200 F 
ATOM     81  C   UNL A   1      44.173  25.816  25.689  1.00  0.00     0.200 A 
ATOM     82  F   UNL A   1      44.859  27.860  24.724  1.00  0.00    -0.200 F 
ATOM     83  F   UNL A   1      44.671  25.140  24.645  1.00  0.00    -0.200 F 
ENDBRANCH  59  73
BRANCH  60  84
ATOM     84  C   UNL A   1      39.258  32.286  35.559  1.00  0.00     0.064 A 
ATOM     85  C   UNL A   1      39.562  33.647  35.725  1.00  0.00     0.173 A 
ATOM     86  C   UNL A   1      38.469  31.678  36.548  1.00  0.00     0.173 A 
ATOM     87  F   UNL A   1      40.342  34.273  34.830  1.00  0.00    -0.203 F 
ATOM     88  C   UNL A   1      39.122  34.357  36.842  1.00  0.00     0.198 A 
ATOM     89  C   UNL A   1      37.994  32.400  37.642  1.00  0.00     0.198 A 
ATOM     90  F   UNL A   1      38.157  30.378  36.453  1.00  0.00    -0.203 F 
ATOM     91  F   UNL A   1      39.492  35.635  37.009  1.00  0.00    -0.200 F 
ATOM     92  C   UNL A   1      38.333  33.735  37.796  1.00  0.00     0.200 A 
ATOM     93  F   UNL A   1      37.222  31.796  38.555  1.00  0.00    -0.200 F 
ATOM     94  F   UNL A   1      37.913  34.417  38.871  1.00  0.00    -0.200 F 
ENDBRANCH  60  84
BRANCH  72  95
ATOM     95  C   UNL A   1      45.248  28.845  34.615  1.00  0.00     0.064 A 
ATOM     96  C   UNL A   1      46.347  29.716  34.654  1.00  0.00     0.173 A 
ATOM     97  C   UNL A   1      45.257  27.740  35.481  1.00  0.00     0.173 A 
ATOM     98  F   UNL A   1      46.396  30.780  33.838  1.00  0.00    -0.203 F 
ATOM     99  C   UNL A   1      47.423  29.474  35.505  1.00  0.00     0.198 A 
ATOM    100  C   UNL A   1      46.317  27.523  36.356  1.00  0.00     0.198 A 
ATOM    101  F   UNL A   1      44.227  26.880  35.492  1.00  0.00    -0.203 F 
ATOM    102  F   UNL A   1      48.486  30.292  35.488  1.00  0.00    -0.200 F 
ATOM    103  C   UNL A   1      47.404  28.384  36.362  1.00  0.00     0.200 A 
ATOM    104  F   UNL A   1      46.288  26.478  37.195  1.00  0.00    -0.200 F 
ATOM    105  F   UNL A   1      48.434  28.160  37.188  1.00  0.00    -0.200 F 
ENDBRANCH  72  95
ENDBRANCH  46  47
ENDBRANCH  39  41
ENDBRANCH  38  39
ENDBRANCH  37  38
ENDBRANCH   1  37
TORSDOF 16
ENDMDL
