MODEL 1
REMARK VINA RESULT:     -11.5      0.000      0.000
REMARK SMILES O=C(OCCOC(=O)[C@@H]1CS[C@@H](C2CC2)N1C(=O)Cc1ccn[nH]1)c1ccc(-c2c3nc(c(-c4c(F)c(F)c(F)c(F)c4F)c4ccc([nH]4)c(-c4c(F)c(F)c(F)c(F)c4F)c4nc(c(-c5c(F)c(F)c(F)c(F)c5F)c5ccc2[nH]5)C=C4)C=C3)cc1
REMARK SMILES IDX 5 1 4 2 3 3 2 4 1 5 25 6 26 7 87 8 27 9 86 10 28 11 29 12
REMARK SMILES IDX 30 13 80 14 31 15 85 16 79 17 81 18 32 19 84 20 78 21 77 22
REMARK SMILES IDX 33 24 65 25 45 26 64 27 46 28 49 29 63 30 82 31 47 32 48 33
REMARK SMILES IDX 62 35 83 36 50 37 34 38 35 39 43 40 36 41 37 42 41 43 44 44
REMARK SMILES IDX 38 45 39 46 42 47 40 48 66 49 67 50 75 51 68 52 69 53 73 54
REMARK SMILES IDX 76 55 70 56 71 57 74 58 72 59 51 60 52 61 60 62 53 63 54 64
REMARK SMILES IDX 58 65 61 66 55 67 56 68 59 69 57 70 6 71 7 72 8 73 9 74
REMARK SMILES IDX 10 75 16 76 11 77 12 78 17 79 18 80 19 81 20 82 21 83 24 84
REMARK SMILES IDX 22 85 23 86 13 88 14 89 15 90
REMARK H PARENT 81 23 49 34 24 87
REMARK Flexibility Score: inf
ROOT
ATOM      1  C   UNL A   1      31.568  28.532  26.173  1.00  0.00     0.274 C 
ENDROOT
BRANCH   1   2
ATOM      2  C   UNL A   1      32.025  29.926  25.715  1.00  0.00     0.275 C 
BRANCH   2   3
ATOM      3  O   UNL A   1      31.957  30.945  26.746  1.00  0.00    -0.458 OA
BRANCH   3   4
ATOM      4  C   UNL A   1      32.847  31.809  27.293  1.00  0.00     0.338 C 
ATOM      5  O   UNL A   1      32.556  33.005  27.329  1.00  0.00    -0.246 OA
BRANCH   4   6
ATOM      6  C   UNL A   1      34.246  31.455  27.704  1.00  0.00     0.060 A 
ATOM      7  C   UNL A   1      35.269  32.358  27.945  1.00  0.00     0.016 A 
ATOM      8  C   UNL A   1      34.547  30.084  27.891  1.00  0.00     0.016 A 
ATOM      9  C   UNL A   1      36.480  31.929  28.522  1.00  0.00     0.010 A 
ATOM     10  C   UNL A   1      35.776  29.650  28.440  1.00  0.00     0.010 A 
ATOM     11  C   UNL A   1      36.742  30.581  28.825  1.00  0.00    -0.014 A 
BRANCH  11  12
ATOM     12  C   UNL A   1      38.049  30.243  29.482  1.00  0.00     0.031 A 
ATOM     13  C   UNL A   1      38.244  30.590  30.928  1.00  0.00     0.074 A 
ATOM     14  C   UNL A   1      39.044  29.555  28.881  1.00  0.00     0.049 A 
ATOM     15  N   UNL A   1      39.185  30.205  31.754  1.00  0.00    -0.248 NA
ATOM     16  C   UNL A   1      37.259  31.511  31.508  1.00  0.00     0.031 C 
ATOM     17  C   UNL A   1      39.095  29.214  27.469  1.00  0.00     0.029 A 
ATOM     18  N   UNL A   1      40.194  28.977  29.400  1.00  0.00    -0.354 N 
ATOM     19  C   UNL A   1      38.936  30.878  32.936  1.00  0.00     0.074 A 
ATOM     20  C   UNL A   1      37.703  31.619  32.749  1.00  0.00     0.031 C 
ATOM     21  C   UNL A   1      40.169  28.436  27.256  1.00  0.00     0.029 A 
ATOM     22  C   UNL A   1      40.857  28.158  28.507  1.00  0.00     0.049 A 
ATOM     23  H   UNL A   1      40.509  29.136  30.319  1.00  0.00     0.167 HD
ATOM     24  C   UNL A   1      39.706  30.958  34.047  1.00  0.00     0.037 A 
ATOM     25  C   UNL A   1      41.862  27.263  28.665  1.00  0.00     0.037 A 
ATOM     26  C   UNL A   1      40.981  30.323  34.233  1.00  0.00     0.049 A 
ATOM     27  C   UNL A   1      42.625  27.249  29.965  1.00  0.00     0.074 A 
ATOM     28  C   UNL A   1      41.856  30.455  35.299  1.00  0.00     0.029 A 
ATOM     29  N   UNL A   1      41.586  29.466  33.329  1.00  0.00    -0.354 N 
ATOM     30  N   UNL A   1      42.359  27.870  31.083  1.00  0.00    -0.248 NA
ATOM     31  C   UNL A   1      43.879  26.473  29.992  1.00  0.00     0.031 C 
ATOM     32  C   UNL A   1      43.017  29.727  35.012  1.00  0.00     0.029 A 
ATOM     33  C   UNL A   1      42.838  29.088  33.799  1.00  0.00     0.049 A 
ATOM     34  H   UNL A   1      41.189  29.167  32.480  1.00  0.00     0.167 HD
ATOM     35  C   UNL A   1      43.444  27.626  31.914  1.00  0.00     0.074 A 
ATOM     36  C   UNL A   1      44.312  26.700  31.224  1.00  0.00     0.031 C 
ATOM     37  C   UNL A   1      43.727  28.192  33.110  1.00  0.00     0.037 A 
BRANCH  24  38
ATOM     38  C   UNL A   1      39.239  31.934  35.079  1.00  0.00     0.064 A 
ATOM     39  C   UNL A   1      39.594  33.287  35.043  1.00  0.00     0.173 A 
ATOM     40  C   UNL A   1      38.484  31.468  36.166  1.00  0.00     0.173 A 
ATOM     41  F   UNL A   1      40.356  33.760  34.045  1.00  0.00    -0.203 F 
ATOM     42  C   UNL A   1      39.234  34.138  36.083  1.00  0.00     0.198 A 
ATOM     43  C   UNL A   1      38.101  32.328  37.187  1.00  0.00     0.198 A 
ATOM     44  F   UNL A   1      38.142  30.173  36.247  1.00  0.00    -0.203 F 
ATOM     45  F   UNL A   1      39.644  35.414  36.073  1.00  0.00    -0.200 F 
ATOM     46  C   UNL A   1      38.486  33.659  37.150  1.00  0.00     0.200 A 
ATOM     47  F   UNL A   1      37.384  31.862  38.218  1.00  0.00    -0.200 F 
ATOM     48  F   UNL A   1      38.156  34.478  38.158  1.00  0.00    -0.200 F 
ENDBRANCH  24  38
BRANCH  25  49
ATOM     49  C   UNL A   1      42.239  26.268  27.605  1.00  0.00     0.064 A 
ATOM     50  C   UNL A   1      41.581  25.021  27.545  1.00  0.00     0.173 A 
ATOM     51  C   UNL A   1      43.267  26.481  26.677  1.00  0.00     0.173 A 
ATOM     52  F   UNL A   1      40.612  24.733  28.426  1.00  0.00    -0.203 F 
ATOM     53  C   UNL A   1      41.944  24.041  26.618  1.00  0.00     0.198 A 
ATOM     54  C   UNL A   1      43.587  25.525  25.710  1.00  0.00     0.198 A 
ATOM     55  F   UNL A   1      43.973  27.620  26.704  1.00  0.00    -0.203 F 
ATOM     56  F   UNL A   1      41.342  22.844  26.639  1.00  0.00    -0.200 F 
ATOM     57  C   UNL A   1      42.935  24.302  25.688  1.00  0.00     0.200 A 
ATOM     58  F   UNL A   1      44.532  25.791  24.799  1.00  0.00    -0.200 F 
ATOM     59  F   UNL A   1      43.266  23.376  24.779  1.00  0.00    -0.200 F 
ENDBRANCH  25  49
BRANCH  37  60
ATOM     60  C   UNL A   1      45.068  27.889  33.715  1.00  0.00     0.064 A 
ATOM     61  C   UNL A   1      46.187  28.691  33.434  1.00  0.00     0.173 A 
ATOM     62  C   UNL A   1      45.239  26.814  34.598  1.00  0.00     0.173 A 
ATOM     63  F   UNL A   1      46.081  29.724  32.583  1.00  0.00    -0.203 F 
ATOM     64  C   UNL A   1      47.431  28.412  33.992  1.00  0.00     0.198 A 
ATOM     65  C   UNL A   1      46.480  26.553  35.176  1.00  0.00     0.198 A 
ATOM     66  F   UNL A   1      44.205  26.018  34.903  1.00  0.00    -0.203 F 
ATOM     67  F   UNL A   1      48.493  29.162  33.669  1.00  0.00    -0.200 F 
ATOM     68  C   UNL A   1      47.576  27.347  34.867  1.00  0.00     0.200 A 
ATOM     69  F   UNL A   1      46.618  25.530  36.029  1.00  0.00    -0.200 F 
ATOM     70  F   UNL A   1      48.774  27.079  35.406  1.00  0.00    -0.200 F 
ENDBRANCH  37  60
ENDBRANCH  11  12
ENDBRANCH   4   6
ENDBRANCH   3   4
ENDBRANCH   2   3
ENDBRANCH   1   2
BRANCH   1  71
ATOM     71  O   UNL A   1      32.618  27.561  26.104  1.00  0.00    -0.461 OA
BRANCH  71  72
ATOM     72  C   UNL A   1      32.238  26.264  26.236  1.00  0.00     0.329 C 
ATOM     73  O   UNL A   1      31.093  25.927  26.496  1.00  0.00    -0.250 OA
BRANCH  72  74
ATOM     74  C   UNL A   1      33.349  25.276  25.769  1.00  0.00     0.206 C 
ATOM     75  C   UNL A   1      33.880  25.754  24.435  1.00  0.00     0.109 C 
ATOM     76  N   UNL A   1      33.069  23.819  25.664  1.00  0.00    -0.315 N 
ATOM     77  S   UNL A   1      32.693  25.006  23.304  1.00  0.00    -0.134 SA
ATOM     78  C   UNL A   1      32.388  23.509  24.406  1.00  0.00     0.147 C 
BRANCH  76  79
ATOM     79  C   UNL A   1      32.935  23.156  26.879  1.00  0.00     0.230 C 
ATOM     80  O   UNL A   1      31.854  23.139  27.478  1.00  0.00    -0.274 OA
BRANCH  79  81
ATOM     81  C   UNL A   1      34.088  22.511  27.602  1.00  0.00     0.155 C 
BRANCH  81  82
ATOM     82  C   UNL A   1      35.200  22.225  26.673  1.00  0.00     0.044 A 
ATOM     83  C   UNL A   1      35.406  21.170  25.811  1.00  0.00     0.045 A 
ATOM     84  N   UNL A   1      36.275  23.049  26.519  1.00  0.00    -0.282 N 
ATOM     85  C   UNL A   1      36.607  21.481  25.154  1.00  0.00     0.135 A 
ATOM     86  N   UNL A   1      37.135  22.630  25.582  1.00  0.00    -0.184 NA
ATOM     87  H   UNL A   1      36.405  23.872  27.043  1.00  0.00     0.190 HD
ENDBRANCH  81  82
ENDBRANCH  79  81
ENDBRANCH  76  79
BRANCH  78  88
ATOM     88  C   UNL A   1      32.767  22.413  23.443  1.00  0.00     0.022 C 
ATOM     89  C   UNL A   1      32.424  20.961  23.683  1.00  0.00     0.007 C 
ATOM     90  C   UNL A   1      31.974  21.640  22.421  1.00  0.00     0.007 C 
ENDBRANCH  78  88
ENDBRANCH  72  74
ENDBRANCH  71  72
ENDBRANCH   1  71
TORSDOF 15
ENDMDL
MODEL 2
REMARK VINA RESULT:     -11.2      1.635      3.161
REMARK SMILES O=C(OCCOC(=O)[C@@H]1CS[C@@H](C2CC2)N1C(=O)Cc1ccn[nH]1)c1ccc(-c2c3nc(c(-c4c(F)c(F)c(F)c(F)c4F)c4ccc([nH]4)c(-c4c(F)c(F)c(F)c(F)c4F)c4nc(c(-c5c(F)c(F)c(F)c(F)c5F)c5ccc2[nH]5)C=C4)C=C3)cc1
REMARK SMILES IDX 5 1 4 2 3 3 2 4 1 5 25 6 26 7 87 8 27 9 86 10 28 11 29 12
REMARK SMILES IDX 30 13 80 14 31 15 85 16 79 17 81 18 32 19 84 20 78 21 77 22
REMARK SMILES IDX 33 24 65 25 45 26 64 27 46 28 49 29 63 30 82 31 47 32 48 33
REMARK SMILES IDX 62 35 83 36 50 37 34 38 35 39 43 40 36 41 37 42 41 43 44 44
REMARK SMILES IDX 38 45 39 46 42 47 40 48 66 49 67 50 75 51 68 52 69 53 73 54
REMARK SMILES IDX 76 55 70 56 71 57 74 58 72 59 51 60 52 61 60 62 53 63 54 64
REMARK SMILES IDX 58 65 61 66 55 67 56 68 59 69 57 70 6 71 7 72 8 73 9 74
REMARK SMILES IDX 10 75 16 76 11 77 12 78 17 79 18 80 19 81 20 82 21 83 24 84
REMARK SMILES IDX 22 85 23 86 13 88 14 89 15 90
REMARK H PARENT 81 23 49 34 24 87
REMARK Flexibility Score: inf
ROOT
ATOM      1  C   UNL A   1      31.956  28.368  27.184  1.00  0.00     0.274 C 
ENDROOT
BRANCH   1   2
ATOM      2  C   UNL A   1      31.594  29.809  26.790  1.00  0.00     0.275 C 
BRANCH   2   3
ATOM      3  O   UNL A   1      32.739  30.669  26.555  1.00  0.00    -0.458 OA
BRANCH   3   4
ATOM      4  C   UNL A   1      33.516  31.457  27.338  1.00  0.00     0.338 C 
ATOM      5  O   UNL A   1      33.114  32.587  27.614  1.00  0.00    -0.246 OA
BRANCH   4   6
ATOM      6  C   UNL A   1      34.918  31.131  27.760  1.00  0.00     0.060 A 
ATOM      7  C   UNL A   1      35.926  32.053  27.992  1.00  0.00     0.016 A 
ATOM      8  C   UNL A   1      35.240  29.768  27.968  1.00  0.00     0.016 A 
ATOM      9  C   UNL A   1      37.141  31.651  28.580  1.00  0.00     0.010 A 
ATOM     10  C   UNL A   1      36.474  29.361  28.529  1.00  0.00     0.010 A 
ATOM     11  C   UNL A   1      37.423  30.312  28.904  1.00  0.00    -0.014 A 
BRANCH  11  12
ATOM     12  C   UNL A   1      38.732  30.005  29.571  1.00  0.00     0.031 A 
ATOM     13  C   UNL A   1      38.911  30.364  31.017  1.00  0.00     0.074 A 
ATOM     14  C   UNL A   1      39.745  29.334  28.980  1.00  0.00     0.049 A 
ATOM     15  N   UNL A   1      39.854  30.002  31.850  1.00  0.00    -0.248 NA
ATOM     16  C   UNL A   1      37.904  31.268  31.585  1.00  0.00     0.031 C 
ATOM     17  C   UNL A   1      39.812  28.986  27.571  1.00  0.00     0.029 A 
ATOM     18  N   UNL A   1      40.903  28.782  29.509  1.00  0.00    -0.354 N 
ATOM     19  C   UNL A   1      39.584  30.677  33.027  1.00  0.00     0.074 A 
ATOM     20  C   UNL A   1      38.338  31.392  32.828  1.00  0.00     0.031 C 
ATOM     21  C   UNL A   1      40.903  28.228  27.369  1.00  0.00     0.029 A 
ATOM     22  C   UNL A   1      41.588  27.972  28.625  1.00  0.00     0.049 A 
ATOM     23  H   UNL A   1      41.209  28.953  30.430  1.00  0.00     0.167 HD
ATOM     24  C   UNL A   1      40.345  30.779  34.142  1.00  0.00     0.037 A 
ATOM     25  C   UNL A   1      42.611  27.099  28.795  1.00  0.00     0.037 A 
ATOM     26  C   UNL A   1      41.632  30.171  34.340  1.00  0.00     0.049 A 
ATOM     27  C   UNL A   1      43.364  27.107  30.100  1.00  0.00     0.074 A 
ATOM     28  C   UNL A   1      42.497  30.326  35.410  1.00  0.00     0.029 A 
ATOM     29  N   UNL A   1      42.260  29.321  33.444  1.00  0.00    -0.354 N 
ATOM     30  N   UNL A   1      43.079  27.729  31.213  1.00  0.00    -0.248 NA
ATOM     31  C   UNL A   1      44.634  26.356  30.140  1.00  0.00     0.031 C 
ATOM     32  C   UNL A   1      43.674  29.621  35.135  1.00  0.00     0.029 A 
ATOM     33  C   UNL A   1      43.516  28.971  33.924  1.00  0.00     0.049 A 
ATOM     34  H   UNL A   1      41.874  29.010  32.595  1.00  0.00     0.167 HD
ATOM     35  C   UNL A   1      44.163  27.511  32.051  1.00  0.00     0.074 A 
ATOM     36  C   UNL A   1      45.055  26.599  31.372  1.00  0.00     0.031 C 
ATOM     37  C   UNL A   1      44.427  28.090  33.246  1.00  0.00     0.037 A 
BRANCH  24  38
ATOM     38  C   UNL A   1      39.852  31.751  35.166  1.00  0.00     0.064 A 
ATOM     39  C   UNL A   1      38.954  31.383  36.174  1.00  0.00     0.173 A 
ATOM     40  C   UNL A   1      40.240  33.095  35.071  1.00  0.00     0.173 A 
ATOM     41  F   UNL A   1      38.522  30.116  36.267  1.00  0.00    -0.203 F 
ATOM     42  C   UNL A   1      38.432  32.342  37.037  1.00  0.00     0.198 A 
ATOM     43  C   UNL A   1      39.739  34.044  35.954  1.00  0.00     0.198 A 
ATOM     44  F   UNL A   1      41.083  33.491  34.105  1.00  0.00    -0.203 F 
ATOM     45  F   UNL A   1      37.516  31.990  37.949  1.00  0.00    -0.200 F 
ATOM     46  C   UNL A   1      38.828  33.668  36.928  1.00  0.00     0.200 A 
ATOM     47  F   UNL A   1      40.119  35.324  35.843  1.00  0.00    -0.200 F 
ATOM     48  F   UNL A   1      38.310  34.592  37.750  1.00  0.00    -0.200 F 
ENDBRANCH  24  38
BRANCH  25  49
ATOM     49  C   UNL A   1      43.014  26.105  27.743  1.00  0.00     0.064 A 
ATOM     50  C   UNL A   1      43.968  26.463  26.766  1.00  0.00     0.173 A 
ATOM     51  C   UNL A   1      42.452  24.828  27.632  1.00  0.00     0.173 A 
ATOM     52  F   UNL A   1      44.521  27.685  26.787  1.00  0.00    -0.203 F 
ATOM     53  C   UNL A   1      44.323  25.595  25.732  1.00  0.00     0.198 A 
ATOM     54  C   UNL A   1      42.854  23.936  26.635  1.00  0.00     0.198 A 
ATOM     55  F   UNL A   1      41.501  24.434  28.492  1.00  0.00    -0.203 F 
ATOM     56  F   UNL A   1      45.181  25.997  24.784  1.00  0.00    -0.200 F 
ATOM     57  C   UNL A   1      43.780  24.323  25.679  1.00  0.00     0.200 A 
ATOM     58  F   UNL A   1      42.340  22.699  26.600  1.00  0.00    -0.200 F 
ATOM     59  F   UNL A   1      44.140  23.477  24.705  1.00  0.00    -0.200 F 
ENDBRANCH  25  49
BRANCH  37  60
ATOM     60  C   UNL A   1      45.770  27.817  33.861  1.00  0.00     0.064 A 
ATOM     61  C   UNL A   1      46.877  28.635  33.575  1.00  0.00     0.173 A 
ATOM     62  C   UNL A   1      45.956  26.757  34.758  1.00  0.00     0.173 A 
ATOM     63  F   UNL A   1      46.757  29.656  32.711  1.00  0.00    -0.203 F 
ATOM     64  C   UNL A   1      48.123  28.384  34.143  1.00  0.00     0.198 A 
ATOM     65  C   UNL A   1      47.198  26.524  35.346  1.00  0.00     0.198 A 
ATOM     66  F   UNL A   1      44.933  25.946  35.068  1.00  0.00    -0.203 F 
ATOM     67  F   UNL A   1      49.173  29.149  33.815  1.00  0.00    -0.200 F 
ATOM     68  C   UNL A   1      48.281  27.333  35.032  1.00  0.00     0.200 A 
ATOM     69  F   UNL A   1      47.349  25.514  36.212  1.00  0.00    -0.200 F 
ATOM     70  F   UNL A   1      49.481  27.092  35.580  1.00  0.00    -0.200 F 
ENDBRANCH  37  60
ENDBRANCH  11  12
ENDBRANCH   4   6
ENDBRANCH   3   4
ENDBRANCH   2   3
ENDBRANCH   1   2
BRANCH   1  71
ATOM     71  O   UNL A   1      31.700  27.432  26.131  1.00  0.00    -0.461 OA
BRANCH  71  72
ATOM     72  C   UNL A   1      32.795  26.910  25.522  1.00  0.00     0.329 C 
ATOM     73  O   UNL A   1      33.908  27.404  25.611  1.00  0.00    -0.250 OA
BRANCH  72  74
ATOM     74  C   UNL A   1      32.518  25.496  24.927  1.00  0.00     0.206 C 
ATOM     75  C   UNL A   1      32.610  24.482  26.047  1.00  0.00     0.109 C 
ATOM     76  N   UNL A   1      33.314  24.991  23.775  1.00  0.00    -0.315 N 
ATOM     77  S   UNL A   1      34.383  24.160  26.075  1.00  0.00    -0.134 SA
ATOM     78  C   UNL A   1      34.598  24.453  24.227  1.00  0.00     0.147 C 
BRANCH  76  79
ATOM     79  C   UNL A   1      33.038  25.601  22.557  1.00  0.00     0.230 C 
ATOM     80  O   UNL A   1      33.935  26.139  21.898  1.00  0.00    -0.274 OA
BRANCH  79  81
ATOM     81  C   UNL A   1      31.646  25.749  22.001  1.00  0.00     0.155 C 
BRANCH  81  82
ATOM     82  C   UNL A   1      31.076  27.066  22.348  1.00  0.00     0.044 A 
ATOM     83  C   UNL A   1      29.932  27.400  23.041  1.00  0.00     0.045 A 
ATOM     84  N   UNL A   1      31.665  28.249  22.007  1.00  0.00    -0.282 N 
ATOM     85  C   UNL A   1      29.952  28.803  23.100  1.00  0.00     0.135 A 
ATOM     86  N   UNL A   1      31.011  29.321  22.474  1.00  0.00    -0.184 NA
ATOM     87  H   UNL A   1      32.489  28.308  21.472  1.00  0.00     0.190 HD
ENDBRANCH  81  82
ENDBRANCH  79  81
ENDBRANCH  76  79
BRANCH  78  88
ATOM     88  C   UNL A   1      35.185  23.121  23.833  1.00  0.00     0.022 C 
ATOM     89  C   UNL A   1      36.452  22.997  23.019  1.00  0.00     0.007 C 
ATOM     90  C   UNL A   1      36.353  22.331  24.362  1.00  0.00     0.007 C 
ENDBRANCH  78  88
ENDBRANCH  72  74
ENDBRANCH  71  72
ENDBRANCH   1  71
TORSDOF 15
ENDMDL
MODEL 3
REMARK VINA RESULT:     -11.2      4.145      9.136
REMARK SMILES O=C(OCCOC(=O)[C@@H]1CS[C@@H](C2CC2)N1C(=O)Cc1ccn[nH]1)c1ccc(-c2c3nc(c(-c4c(F)c(F)c(F)c(F)c4F)c4ccc([nH]4)c(-c4c(F)c(F)c(F)c(F)c4F)c4nc(c(-c5c(F)c(F)c(F)c(F)c5F)c5ccc2[nH]5)C=C4)C=C3)cc1
REMARK SMILES IDX 5 1 4 2 3 3 2 4 1 5 25 6 26 7 87 8 27 9 86 10 28 11 29 12
REMARK SMILES IDX 30 13 80 14 31 15 85 16 79 17 81 18 32 19 84 20 78 21 77 22
REMARK SMILES IDX 33 24 65 25 45 26 64 27 46 28 49 29 63 30 82 31 47 32 48 33
REMARK SMILES IDX 62 35 83 36 50 37 34 38 35 39 43 40 36 41 37 42 41 43 44 44
REMARK SMILES IDX 38 45 39 46 42 47 40 48 66 49 67 50 75 51 68 52 69 53 73 54
REMARK SMILES IDX 76 55 70 56 71 57 74 58 72 59 51 60 52 61 60 62 53 63 54 64
REMARK SMILES IDX 58 65 61 66 55 67 56 68 59 69 57 70 6 71 7 72 8 73 9 74
REMARK SMILES IDX 10 75 16 76 11 77 12 78 17 79 18 80 19 81 20 82 21 83 24 84
REMARK SMILES IDX 22 85 23 86 13 88 14 89 15 90
REMARK H PARENT 81 23 49 34 24 87
REMARK Flexibility Score: inf
ROOT
ATOM      1  C   UNL A   1      36.029  21.444  24.617  1.00  0.00     0.274 C 
ENDROOT
BRANCH   1   2
ATOM      2  C   UNL A   1      37.292  20.568  24.583  1.00  0.00     0.275 C 
BRANCH   2   3
ATOM      3  O   UNL A   1      38.067  20.591  25.810  1.00  0.00    -0.458 OA
BRANCH   3   4
ATOM      4  C   UNL A   1      39.345  20.919  26.124  1.00  0.00     0.338 C 
ATOM      5  O   UNL A   1      40.215  20.056  26.008  1.00  0.00    -0.246 OA
BRANCH   4   6
ATOM      6  C   UNL A   1      39.768  22.204  26.772  1.00  0.00     0.060 A 
ATOM      7  C   UNL A   1      40.774  22.339  27.715  1.00  0.00     0.016 A 
ATOM      8  C   UNL A   1      39.104  23.389  26.372  1.00  0.00     0.016 A 
ATOM      9  C   UNL A   1      41.223  23.616  28.104  1.00  0.00     0.010 A 
ATOM     10  C   UNL A   1      39.534  24.671  26.789  1.00  0.00     0.010 A 
ATOM     11  C   UNL A   1      40.649  24.804  27.616  1.00  0.00    -0.014 A 
BRANCH  11  12
ATOM     12  C   UNL A   1      41.239  26.110  28.063  1.00  0.00     0.031 A 
ATOM     13  C   UNL A   1      42.583  26.517  27.536  1.00  0.00     0.074 A 
ATOM     14  C   UNL A   1      40.595  27.004  28.846  1.00  0.00     0.049 A 
ATOM     15  N   UNL A   1      43.183  27.679  27.604  1.00  0.00    -0.248 NA
ATOM     16  C   UNL A   1      43.357  25.465  26.867  1.00  0.00     0.031 C 
ATOM     17  C   UNL A   1      39.338  26.765  29.534  1.00  0.00     0.029 A 
ATOM     18  N   UNL A   1      40.895  28.322  29.159  1.00  0.00    -0.354 N 
ATOM     19  C   UNL A   1      44.428  27.484  27.033  1.00  0.00     0.074 A 
ATOM     20  C   UNL A   1      44.458  26.120  26.539  1.00  0.00     0.031 C 
ATOM     21  C   UNL A   1      38.948  27.909  30.121  1.00  0.00     0.029 A 
ATOM     22  C   UNL A   1      39.875  28.986  29.811  1.00  0.00     0.049 A 
ATOM     23  H   UNL A   1      41.757  28.746  28.938  1.00  0.00     0.167 HD
ATOM     24  C   UNL A   1      45.490  28.323  27.003  1.00  0.00     0.037 A 
ATOM     25  C   UNL A   1      39.674  30.296  30.094  1.00  0.00     0.037 A 
ATOM     26  C   UNL A   1      45.535  29.642  27.571  1.00  0.00     0.049 A 
ATOM     27  C   UNL A   1      40.818  31.261  29.915  1.00  0.00     0.074 A 
ATOM     28  C   UNL A   1      46.620  30.498  27.664  1.00  0.00     0.029 A 
ATOM     29  N   UNL A   1      44.469  30.290  28.171  1.00  0.00    -0.354 N 
ATOM     30  N   UNL A   1      41.978  31.068  29.347  1.00  0.00    -0.248 NA
ATOM     31  C   UNL A   1      40.652  32.605  30.499  1.00  0.00     0.031 C 
ATOM     32  C   UNL A   1      46.227  31.638  28.375  1.00  0.00     0.029 A 
ATOM     33  C   UNL A   1      44.880  31.521  28.667  1.00  0.00     0.049 A 
ATOM     34  H   UNL A   1      43.554  29.932  28.237  1.00  0.00     0.167 HD
ATOM     35  C   UNL A   1      42.704  32.229  29.573  1.00  0.00     0.074 A 
ATOM     36  C   UNL A   1      41.816  33.170  30.218  1.00  0.00     0.031 C 
ATOM     37  C   UNL A   1      44.017  32.456  29.338  1.00  0.00     0.037 A 
BRANCH  24  38
ATOM     38  C   UNL A   1      46.759  27.730  26.479  1.00  0.00     0.064 A 
ATOM     39  C   UNL A   1      47.113  27.799  25.127  1.00  0.00     0.173 A 
ATOM     40  C   UNL A   1      47.588  27.013  27.354  1.00  0.00     0.173 A 
ATOM     41  F   UNL A   1      46.320  28.434  24.251  1.00  0.00    -0.203 F 
ATOM     42  C   UNL A   1      48.245  27.136  24.661  1.00  0.00     0.198 A 
ATOM     43  C   UNL A   1      48.733  26.378  26.889  1.00  0.00     0.198 A 
ATOM     44  F   UNL A   1      47.271  26.906  28.654  1.00  0.00    -0.203 F 
ATOM     45  F   UNL A   1      48.531  27.147  23.352  1.00  0.00    -0.200 F 
ATOM     46  C   UNL A   1      49.054  26.432  25.542  1.00  0.00     0.200 A 
ATOM     47  F   UNL A   1      49.509  25.695  27.741  1.00  0.00    -0.200 F 
ATOM     48  F   UNL A   1      50.133  25.781  25.086  1.00  0.00    -0.200 F 
ENDBRANCH  24  38
BRANCH  25  49
ATOM     49  C   UNL A   1      38.352  30.834  30.560  1.00  0.00     0.064 A 
ATOM     50  C   UNL A   1      38.109  31.006  31.940  1.00  0.00     0.173 A 
ATOM     51  C   UNL A   1      37.293  31.135  29.695  1.00  0.00     0.173 A 
ATOM     52  F   UNL A   1      39.065  30.702  32.830  1.00  0.00    -0.203 F 
ATOM     53  C   UNL A   1      36.873  31.441  32.421  1.00  0.00     0.198 A 
ATOM     54  C   UNL A   1      36.077  31.630  30.173  1.00  0.00     0.198 A 
ATOM     55  F   UNL A   1      37.429  30.947  28.375  1.00  0.00    -0.203 F 
ATOM     56  F   UNL A   1      36.660  31.526  33.742  1.00  0.00    -0.200 F 
ATOM     57  C   UNL A   1      35.863  31.772  31.535  1.00  0.00     0.200 A 
ATOM     58  F   UNL A   1      35.111  31.968  29.309  1.00  0.00    -0.200 F 
ATOM     59  F   UNL A   1      34.685  32.217  31.991  1.00  0.00    -0.200 F 
ENDBRANCH  25  49
BRANCH  37  60
ATOM     60  C   UNL A   1      44.596  33.742  29.852  1.00  0.00     0.064 A 
ATOM     61  C   UNL A   1      44.601  34.902  29.057  1.00  0.00     0.173 A 
ATOM     62  C   UNL A   1      45.125  33.835  31.146  1.00  0.00     0.173 A 
ATOM     63  F   UNL A   1      44.119  34.865  27.805  1.00  0.00    -0.203 F 
ATOM     64  C   UNL A   1      45.138  36.096  29.530  1.00  0.00     0.198 A 
ATOM     65  C   UNL A   1      45.638  35.039  31.626  1.00  0.00     0.198 A 
ATOM     66  F   UNL A   1      45.144  32.760  31.947  1.00  0.00    -0.203 F 
ATOM     67  F   UNL A   1      45.175  37.174  28.735  1.00  0.00    -0.200 F 
ATOM     68  C   UNL A   1      45.650  36.165  30.816  1.00  0.00     0.200 A 
ATOM     69  F   UNL A   1      46.125  35.108  32.872  1.00  0.00    -0.200 F 
ATOM     70  F   UNL A   1      46.167  37.315  31.272  1.00  0.00    -0.200 F 
ENDBRANCH  37  60
ENDBRANCH  11  12
ENDBRANCH   4   6
ENDBRANCH   3   4
ENDBRANCH   2   3
ENDBRANCH   1   2
BRANCH   1  71
ATOM     71  O   UNL A   1      35.459  21.533  25.926  1.00  0.00    -0.461 OA
BRANCH  71  72
ATOM     72  C   UNL A   1      34.744  22.657  26.188  1.00  0.00     0.329 C 
ATOM     73  O   UNL A   1      34.728  23.198  27.283  1.00  0.00    -0.250 OA
BRANCH  72  74
ATOM     74  C   UNL A   1      34.173  23.306  24.891  1.00  0.00     0.206 C 
ATOM     75  C   UNL A   1      34.808  24.670  24.723  1.00  0.00     0.109 C 
ATOM     76  N   UNL A   1      32.705  23.449  24.700  1.00  0.00    -0.315 N 
ATOM     77  S   UNL A   1      33.724  25.682  25.746  1.00  0.00    -0.134 SA
ATOM     78  C   UNL A   1      32.201  24.627  25.406  1.00  0.00     0.147 C 
BRANCH  76  79
ATOM     79  C   UNL A   1      32.026  22.262  24.453  1.00  0.00     0.230 C 
ATOM     80  O   UNL A   1      31.000  21.973  25.079  1.00  0.00    -0.274 OA
BRANCH  79  81
ATOM     81  C   UNL A   1      32.525  21.204  23.503  1.00  0.00     0.155 C 
BRANCH  81  82
ATOM     82  C   UNL A   1      32.516  19.873  24.142  1.00  0.00     0.044 A 
ATOM     83  C   UNL A   1      32.433  18.611  23.596  1.00  0.00     0.045 A 
ATOM     84  N   UNL A   1      32.607  19.691  25.491  1.00  0.00    -0.282 N 
ATOM     85  C   UNL A   1      32.530  17.744  24.695  1.00  0.00     0.135 A 
ATOM     86  N   UNL A   1      32.642  18.402  25.851  1.00  0.00    -0.184 NA
ATOM     87  H   UNL A   1      32.646  20.435  26.135  1.00  0.00     0.190 HD
ENDBRANCH  81  82
ENDBRANCH  79  81
ENDBRANCH  76  79
BRANCH  78  88
ATOM     88  C   UNL A   1      31.294  25.684  24.826  1.00  0.00     0.022 C 
ATOM     89  C   UNL A   1      29.902  25.944  25.354  1.00  0.00     0.007 C 
ATOM     90  C   UNL A   1      30.906  27.059  25.300  1.00  0.00     0.007 C 
ENDBRANCH  78  88
ENDBRANCH  72  74
ENDBRANCH  71  72
ENDBRANCH   1  71
TORSDOF 15
ENDMDL
