MODEL 1
REMARK VINA RESULT:     -10.9      0.000      0.000
REMARK SMILES C[C@H]([NH3+])C(=O)N1CCC[C@H]1C(=O)OCCOC(=O)c1ccc(-c2c3nc(c(-c4c(F)c(F)c(F)c(F)c4F)c4ccc([nH]4)c(-c4c(F)c(F)c(F)c(F)c4F)c4nc(c(-c5c(F)c(F)c(F)c(F)c5F)c5ccc2[nH]5)C=C4)C=C3)cc1
REMARK SMILES IDX 14 1 13 2 11 3 12 4 10 5 6 6 7 7 8 8 9 9 4 10 5 11 2 12 1 13
REMARK SMILES IDX 3 14 15 18 16 19 17 20 18 21 19 22 20 23 81 24 21 25 80 26
REMARK SMILES IDX 22 27 23 28 24 29 74 30 25 31 79 32 73 33 75 34 26 35 78 36
REMARK SMILES IDX 72 37 71 38 27 40 59 41 39 42 58 43 40 44 43 45 57 46 76 47
REMARK SMILES IDX 41 48 42 49 56 51 77 52 44 53 28 54 29 55 37 56 30 57 31 58
REMARK SMILES IDX 35 59 38 60 32 61 33 62 36 63 34 64 60 65 61 66 69 67 62 68
REMARK SMILES IDX 63 69 67 70 70 71 64 72 65 73 68 74 66 75 45 76 46 77 54 78
REMARK SMILES IDX 47 79 48 80 52 81 55 82 49 83 50 84 53 85 51 86
REMARK H PARENT 3 15 3 16 3 17 75 39 43 50
REMARK Flexibility Score: inf
ROOT
ATOM      1  C   UNL A   1      31.713  28.648  27.125  1.00  0.00     0.274 C 
ENDROOT
BRANCH   1   2
ATOM      2  O   UNL A   1      32.347  27.546  26.443  1.00  0.00    -0.461 OA
BRANCH   2   3
ATOM      3  C   UNL A   1      31.519  26.589  25.927  1.00  0.00     0.328 C 
ATOM      4  O   UNL A   1      30.689  25.988  26.596  1.00  0.00    -0.250 OA
BRANCH   3   5
ATOM      5  C   UNL A   1      31.796  26.347  24.420  1.00  0.00     0.195 C 
ATOM      6  N   UNL A   1      31.570  27.511  23.526  1.00  0.00    -0.324 N 
ATOM      7  C   UNL A   1      32.782  27.842  22.797  1.00  0.00     0.121 C 
ATOM      8  C   UNL A   1      33.561  26.541  22.781  1.00  0.00     0.024 C 
ATOM      9  C   UNL A   1      33.261  25.960  24.150  1.00  0.00     0.039 C 
BRANCH   6  10
ATOM     10  C   UNL A   1      30.284  27.934  23.248  1.00  0.00     0.281 C 
ATOM     11  O   UNL A   1      29.356  27.116  23.232  1.00  0.00    -0.268 OA
BRANCH  10  12
ATOM     12  C   UNL A   1      29.970  29.404  22.866  1.00  0.00     0.268 C 
ATOM     13  C   UNL A   1      28.472  29.576  22.653  1.00  0.00     0.086 C 
BRANCH  12  14
ATOM     14  N   UNL A   1      30.733  29.945  21.727  1.00  0.00    -0.348 N 
ATOM     15  H   UNL A   1      30.103  30.452  21.106  1.00  0.00     0.345 HD
ATOM     16  H   UNL A   1      31.170  29.178  21.216  1.00  0.00     0.345 HD
ATOM     17  H   UNL A   1      31.454  30.579  22.072  1.00  0.00     0.345 HD
ENDBRANCH  12  14
ENDBRANCH  10  12
ENDBRANCH   6  10
ENDBRANCH   3   5
ENDBRANCH   2   3
ENDBRANCH   1   2
BRANCH   1  18
ATOM     18  C   UNL A   1      31.775  29.917  26.276  1.00  0.00     0.275 C 
BRANCH  18  19
ATOM     19  O   UNL A   1      33.132  30.390  26.194  1.00  0.00    -0.458 OA
BRANCH  19  20
ATOM     20  C   UNL A   1      33.501  31.319  27.102  1.00  0.00     0.338 C 
ATOM     21  O   UNL A   1      32.860  32.278  27.498  1.00  0.00    -0.246 OA
BRANCH  20  22
ATOM     22  C   UNL A   1      34.838  30.990  27.621  1.00  0.00     0.060 A 
ATOM     23  C   UNL A   1      35.129  29.669  27.949  1.00  0.00     0.016 A 
ATOM     24  C   UNL A   1      35.755  32.000  27.909  1.00  0.00     0.016 A 
ATOM     25  C   UNL A   1      36.302  29.362  28.629  1.00  0.00     0.010 A 
ATOM     26  C   UNL A   1      36.964  31.677  28.542  1.00  0.00     0.010 A 
ATOM     27  C   UNL A   1      37.231  30.358  28.954  1.00  0.00    -0.014 A 
BRANCH  27  28
ATOM     28  C   UNL A   1      38.409  30.023  29.804  1.00  0.00     0.031 A 
ATOM     29  C   UNL A   1      39.534  29.194  29.237  1.00  0.00     0.074 A 
ATOM     30  C   UNL A   1      38.529  30.516  31.053  1.00  0.00     0.049 A 
ATOM     31  N   UNL A   1      40.553  28.644  29.851  1.00  0.00    -0.248 NA
ATOM     32  C   UNL A   1      39.505  28.941  27.788  1.00  0.00     0.031 C 
ATOM     33  C   UNL A   1      37.572  31.405  31.712  1.00  0.00     0.029 A 
ATOM     34  N   UNL A   1      39.528  30.360  31.984  1.00  0.00    -0.354 N 
ATOM     35  C   UNL A   1      41.239  27.924  28.880  1.00  0.00     0.074 A 
ATOM     36  C   UNL A   1      40.533  28.117  27.632  1.00  0.00     0.031 C 
ATOM     37  C   UNL A   1      38.058  31.766  32.910  1.00  0.00     0.029 A 
ATOM     38  C   UNL A   1      39.312  31.060  33.146  1.00  0.00     0.049 A 
ATOM     39  H   UNL A   1      40.324  29.801  31.831  1.00  0.00     0.167 HD
ATOM     40  C   UNL A   1      42.351  27.165  29.022  1.00  0.00     0.037 A 
ATOM     41  C   UNL A   1      40.022  31.101  34.289  1.00  0.00     0.037 A 
ATOM     42  C   UNL A   1      43.101  27.039  30.244  1.00  0.00     0.049 A 
ATOM     43  C   UNL A   1      41.252  30.248  34.425  1.00  0.00     0.074 A 
ATOM     44  C   UNL A   1      44.223  26.268  30.495  1.00  0.00     0.029 A 
ATOM     45  N   UNL A   1      42.825  27.735  31.410  1.00  0.00    -0.354 N 
ATOM     46  N   UNL A   1      41.816  29.463  33.541  1.00  0.00    -0.248 NA
ATOM     47  C   UNL A   1      41.925  30.262  35.732  1.00  0.00     0.031 C 
ATOM     48  C   UNL A   1      44.619  26.488  31.819  1.00  0.00     0.029 A 
ATOM     49  C   UNL A   1      43.760  27.416  32.382  1.00  0.00     0.049 A 
ATOM     50  H   UNL A   1      42.076  28.362  31.531  1.00  0.00     0.167 HD
ATOM     51  C   UNL A   1      42.905  28.889  34.182  1.00  0.00     0.074 A 
ATOM     52  C   UNL A   1      42.941  29.437  35.521  1.00  0.00     0.031 C 
ATOM     53  C   UNL A   1      43.785  27.976  33.707  1.00  0.00     0.037 A 
BRANCH  40  54
ATOM     54  C   UNL A   1      42.808  26.374  27.835  1.00  0.00     0.064 A 
ATOM     55  C   UNL A   1      42.330  25.084  27.572  1.00  0.00     0.173 A 
ATOM     56  C   UNL A   1      43.709  26.943  26.920  1.00  0.00     0.173 A 
ATOM     57  F   UNL A   1      41.482  24.490  28.425  1.00  0.00    -0.203 F 
ATOM     58  C   UNL A   1      42.749  24.384  26.442  1.00  0.00     0.198 A 
ATOM     59  C   UNL A   1      44.107  26.250  25.781  1.00  0.00     0.198 A 
ATOM     60  F   UNL A   1      44.192  28.177  27.126  1.00  0.00    -0.203 F 
ATOM     61  F   UNL A   1      42.306  23.137  26.226  1.00  0.00    -0.200 F 
ATOM     62  C   UNL A   1      43.630  24.970  25.545  1.00  0.00     0.200 A 
ATOM     63  F   UNL A   1      44.952  26.821  24.912  1.00  0.00    -0.200 F 
ATOM     64  F   UNL A   1      44.026  24.298  24.455  1.00  0.00    -0.200 F 
ENDBRANCH  40  54
BRANCH  41  65
ATOM     65  C   UNL A   1      39.558  31.946  35.420  1.00  0.00     0.064 A 
ATOM     66  C   UNL A   1      38.617  31.465  36.340  1.00  0.00     0.173 A 
ATOM     67  C   UNL A   1      40.040  33.252  35.597  1.00  0.00     0.173 A 
ATOM     68  F   UNL A   1      38.104  30.235  36.193  1.00  0.00    -0.203 F 
ATOM     69  C   UNL A   1      38.170  32.263  37.392  1.00  0.00     0.198 A 
ATOM     70  C   UNL A   1      39.613  34.036  36.665  1.00  0.00     0.198 A 
ATOM     71  F   UNL A   1      40.934  33.761  34.738  1.00  0.00    -0.203 F 
ATOM     72  F   UNL A   1      37.238  31.795  38.234  1.00  0.00    -0.200 F 
ATOM     73  C   UNL A   1      38.674  33.544  37.558  1.00  0.00     0.200 A 
ATOM     74  F   UNL A   1      40.109  35.271  36.827  1.00  0.00    -0.200 F 
ATOM     75  F   UNL A   1      38.247  34.308  38.572  1.00  0.00    -0.200 F 
ENDBRANCH  41  65
BRANCH  53  76
ATOM     76  C   UNL A   1      44.869  27.526  34.636  1.00  0.00     0.064 A 
ATOM     77  C   UNL A   1      46.088  28.215  34.719  1.00  0.00     0.173 A 
ATOM     78  C   UNL A   1      44.678  26.417  35.472  1.00  0.00     0.173 A 
ATOM     79  F   UNL A   1      46.321  29.273  33.927  1.00  0.00    -0.203 F 
ATOM     80  C   UNL A   1      47.085  27.798  35.595  1.00  0.00     0.198 A 
ATOM     81  C   UNL A   1      45.670  26.014  36.361  1.00  0.00     0.198 A 
ATOM     82  F   UNL A   1      43.527  25.730  35.429  1.00  0.00    -0.203 F 
ATOM     83  F   UNL A   1      48.256  28.448  35.635  1.00  0.00    -0.200 F 
ATOM     84  C   UNL A   1      46.874  26.701  36.418  1.00  0.00     0.200 A 
ATOM     85  F   UNL A   1      45.463  24.958  37.160  1.00  0.00    -0.200 F 
ATOM     86  F   UNL A   1      47.835  26.301  37.262  1.00  0.00    -0.200 F 
ENDBRANCH  53  76
ENDBRANCH  27  28
ENDBRANCH  20  22
ENDBRANCH  19  20
ENDBRANCH  18  19
ENDBRANCH   1  18
TORSDOF 14
ENDMDL
MODEL 2
REMARK VINA RESULT:     -10.9      1.046      2.180
REMARK SMILES C[C@H]([NH3+])C(=O)N1CCC[C@H]1C(=O)OCCOC(=O)c1ccc(-c2c3nc(c(-c4c(F)c(F)c(F)c(F)c4F)c4ccc([nH]4)c(-c4c(F)c(F)c(F)c(F)c4F)c4nc(c(-c5c(F)c(F)c(F)c(F)c5F)c5ccc2[nH]5)C=C4)C=C3)cc1
REMARK SMILES IDX 14 1 13 2 11 3 12 4 10 5 6 6 7 7 8 8 9 9 4 10 5 11 2 12 1 13
REMARK SMILES IDX 3 14 15 18 16 19 17 20 18 21 19 22 20 23 81 24 21 25 80 26
REMARK SMILES IDX 22 27 23 28 24 29 74 30 25 31 79 32 73 33 75 34 26 35 78 36
REMARK SMILES IDX 72 37 71 38 27 40 59 41 39 42 58 43 40 44 43 45 57 46 76 47
REMARK SMILES IDX 41 48 42 49 56 51 77 52 44 53 28 54 29 55 37 56 30 57 31 58
REMARK SMILES IDX 35 59 38 60 32 61 33 62 36 63 34 64 60 65 61 66 69 67 62 68
REMARK SMILES IDX 63 69 67 70 70 71 64 72 65 73 68 74 66 75 45 76 46 77 54 78
REMARK SMILES IDX 47 79 48 80 52 81 55 82 49 83 50 84 53 85 51 86
REMARK H PARENT 3 15 3 16 3 17 75 39 43 50
REMARK Flexibility Score: inf
ROOT
ATOM      1  C   UNL A   1      32.904  29.353  24.749  1.00  0.00     0.274 C 
ENDROOT
BRANCH   1   2
ATOM      2  O   UNL A   1      33.283  28.099  25.353  1.00  0.00    -0.461 OA
BRANCH   2   3
ATOM      3  C   UNL A   1      33.287  27.004  24.535  1.00  0.00     0.328 C 
ATOM      4  O   UNL A   1      33.607  27.050  23.355  1.00  0.00    -0.250 OA
BRANCH   3   5
ATOM      5  C   UNL A   1      32.802  25.733  25.280  1.00  0.00     0.195 C 
ATOM      6  N   UNL A   1      31.532  25.141  24.788  1.00  0.00    -0.324 N 
ATOM      7  C   UNL A   1      31.733  23.761  24.380  1.00  0.00     0.121 C 
ATOM      8  C   UNL A   1      32.950  23.323  25.170  1.00  0.00     0.024 C 
ATOM      9  C   UNL A   1      33.810  24.574  25.172  1.00  0.00     0.039 C 
BRANCH   6  10
ATOM     10  C   UNL A   1      30.329  25.775  25.036  1.00  0.00     0.281 C 
ATOM     11  O   UNL A   1      29.923  25.895  26.198  1.00  0.00    -0.268 OA
BRANCH  10  12
ATOM     12  C   UNL A   1      29.415  26.274  23.886  1.00  0.00     0.268 C 
ATOM     13  C   UNL A   1      29.826  27.680  23.471  1.00  0.00     0.086 C 
BRANCH  12  14
ATOM     14  N   UNL A   1      27.966  26.198  24.143  1.00  0.00    -0.348 N 
ATOM     15  H   UNL A   1      27.783  25.491  24.854  1.00  0.00     0.345 HD
ATOM     16  H   UNL A   1      27.481  25.948  23.281  1.00  0.00     0.345 HD
ATOM     17  H   UNL A   1      27.632  27.104  24.471  1.00  0.00     0.345 HD
ENDBRANCH  12  14
ENDBRANCH  10  12
ENDBRANCH   6  10
ENDBRANCH   3   5
ENDBRANCH   2   3
ENDBRANCH   1   2
BRANCH   1  18
ATOM     18  C   UNL A   1      31.874  30.080  25.613  1.00  0.00     0.275 C 
BRANCH  18  19
ATOM     19  O   UNL A   1      32.386  30.255  26.948  1.00  0.00    -0.458 OA
BRANCH  19  20
ATOM     20  C   UNL A   1      33.040  31.411  27.194  1.00  0.00     0.338 C 
ATOM     21  O   UNL A   1      32.619  32.550  27.085  1.00  0.00    -0.246 OA
BRANCH  20  22
ATOM     22  C   UNL A   1      34.395  31.109  27.684  1.00  0.00     0.060 A 
ATOM     23  C   UNL A   1      34.729  29.790  27.974  1.00  0.00     0.016 A 
ATOM     24  C   UNL A   1      35.286  32.139  27.984  1.00  0.00     0.016 A 
ATOM     25  C   UNL A   1      35.922  29.501  28.629  1.00  0.00     0.010 A 
ATOM     26  C   UNL A   1      36.514  31.837  28.590  1.00  0.00     0.010 A 
ATOM     27  C   UNL A   1      36.826  30.517  28.963  1.00  0.00    -0.014 A 
BRANCH  27  28
ATOM     28  C   UNL A   1      38.027  30.196  29.786  1.00  0.00     0.031 A 
ATOM     29  C   UNL A   1      39.156  29.393  29.189  1.00  0.00     0.074 A 
ATOM     30  C   UNL A   1      38.164  30.680  31.037  1.00  0.00     0.049 A 
ATOM     31  N   UNL A   1      40.197  28.857  29.777  1.00  0.00    -0.248 NA
ATOM     32  C   UNL A   1      39.102  29.152  27.739  1.00  0.00     0.031 C 
ATOM     33  C   UNL A   1      37.204  31.545  31.724  1.00  0.00     0.029 A 
ATOM     34  N   UNL A   1      39.185  30.535  31.946  1.00  0.00    -0.354 N 
ATOM     35  C   UNL A   1      40.876  28.159  28.787  1.00  0.00     0.074 A 
ATOM     36  C   UNL A   1      40.141  28.349  27.554  1.00  0.00     0.031 C 
ATOM     37  C   UNL A   1      37.708  31.905  32.914  1.00  0.00     0.029 A 
ATOM     38  C   UNL A   1      38.980  31.220  33.118  1.00  0.00     0.049 A 
ATOM     39  H   UNL A   1      39.987  29.992  31.772  1.00  0.00     0.167 HD
ATOM     40  C   UNL A   1      42.005  27.420  28.899  1.00  0.00     0.037 A 
ATOM     41  C   UNL A   1      39.712  31.264  34.248  1.00  0.00     0.037 A 
ATOM     42  C   UNL A   1      42.782  27.296  30.103  1.00  0.00     0.049 A 
ATOM     43  C   UNL A   1      40.960  30.434  34.351  1.00  0.00     0.074 A 
ATOM     44  C   UNL A   1      43.923  26.545  30.324  1.00  0.00     0.029 A 
ATOM     45  N   UNL A   1      42.517  27.977  31.281  1.00  0.00    -0.354 N 
ATOM     46  N   UNL A   1      41.520  29.667  33.448  1.00  0.00    -0.248 NA
ATOM     47  C   UNL A   1      41.659  30.449  35.644  1.00  0.00     0.031 C 
ATOM     48  C   UNL A   1      44.342  26.760  31.643  1.00  0.00     0.029 A 
ATOM     49  C   UNL A   1      43.477  27.667  32.231  1.00  0.00     0.049 A 
ATOM     50  H   UNL A   1      41.759  28.588  31.423  1.00  0.00     0.167 HD
ATOM     51  C   UNL A   1      42.632  29.108  34.062  1.00  0.00     0.074 A 
ATOM     52  C   UNL A   1      42.686  29.645  35.405  1.00  0.00     0.031 C 
ATOM     53  C   UNL A   1      43.520  28.215  33.561  1.00  0.00     0.037 A 
BRANCH  40  54
ATOM     54  C   UNL A   1      42.452  26.648  27.695  1.00  0.00     0.064 A 
ATOM     55  C   UNL A   1      43.393  27.157  26.791  1.00  0.00     0.173 A 
ATOM     56  C   UNL A   1      41.955  25.353  27.470  1.00  0.00     0.173 A 
ATOM     57  F   UNL A   1      43.883  28.396  26.953  1.00  0.00    -0.203 F 
ATOM     58  C   UNL A   1      43.813  26.404  25.697  1.00  0.00     0.198 A 
ATOM     59  C   UNL A   1      42.394  24.595  26.389  1.00  0.00     0.198 A 
ATOM     60  F   UNL A   1      41.054  24.821  28.309  1.00  0.00    -0.203 F 
ATOM     61  F   UNL A   1      44.690  26.922  24.826  1.00  0.00    -0.200 F 
ATOM     62  C   UNL A   1      43.320  25.122  25.501  1.00  0.00     0.200 A 
ATOM     63  F   UNL A   1      41.922  23.354  26.207  1.00  0.00    -0.200 F 
ATOM     64  F   UNL A   1      43.731  24.396  24.453  1.00  0.00    -0.200 F 
ENDBRANCH  40  54
BRANCH  41  65
ATOM     65  C   UNL A   1      39.255  32.091  35.395  1.00  0.00     0.064 A 
ATOM     66  C   UNL A   1      39.614  33.442  35.497  1.00  0.00     0.173 A 
ATOM     67  C   UNL A   1      38.460  31.545  36.413  1.00  0.00     0.173 A 
ATOM     68  F   UNL A   1      40.400  33.999  34.565  1.00  0.00    -0.203 F 
ATOM     69  C   UNL A   1      39.198  34.214  36.581  1.00  0.00     0.198 A 
ATOM     70  C   UNL A   1      38.023  32.326  37.480  1.00  0.00     0.198 A 
ATOM     71  F   UNL A   1      38.098  30.255  36.366  1.00  0.00    -0.203 F 
ATOM     72  F   UNL A   1      39.590  35.492  36.678  1.00  0.00    -0.200 F 
ATOM     73  C   UNL A   1      38.397  33.658  37.567  1.00  0.00     0.200 A 
ATOM     74  F   UNL A   1      37.242  31.787  38.426  1.00  0.00    -0.200 F 
ATOM     75  F   UNL A   1      37.995  34.402  38.605  1.00  0.00    -0.200 F 
ENDBRANCH  41  65
BRANCH  53  76
ATOM     76  C   UNL A   1      44.631  27.778  34.464  1.00  0.00     0.064 A 
ATOM     77  C   UNL A   1      45.845  28.477  34.513  1.00  0.00     0.173 A 
ATOM     78  C   UNL A   1      44.470  26.670  35.308  1.00  0.00     0.173 A 
ATOM     79  F   UNL A   1      46.049  29.534  33.713  1.00  0.00    -0.203 F 
ATOM     80  C   UNL A   1      46.867  28.071  35.365  1.00  0.00     0.198 A 
ATOM     81  C   UNL A   1      45.487  26.279  36.172  1.00  0.00     0.198 A 
ATOM     82  F   UNL A   1      43.324  25.973  35.296  1.00  0.00    -0.203 F 
ATOM     83  F   UNL A   1      48.033  28.731  35.374  1.00  0.00    -0.200 F 
ATOM     84  C   UNL A   1      46.686  26.976  36.197  1.00  0.00     0.200 A 
ATOM     85  F   UNL A   1      45.309  25.223  36.979  1.00  0.00    -0.200 F 
ATOM     86  F   UNL A   1      47.672  26.586  37.017  1.00  0.00    -0.200 F 
ENDBRANCH  53  76
ENDBRANCH  27  28
ENDBRANCH  20  22
ENDBRANCH  19  20
ENDBRANCH  18  19
ENDBRANCH   1  18
TORSDOF 14
ENDMDL
MODEL 3
REMARK VINA RESULT:     -10.8      5.127     10.191
REMARK SMILES C[C@H]([NH3+])C(=O)N1CCC[C@H]1C(=O)OCCOC(=O)c1ccc(-c2c3nc(c(-c4c(F)c(F)c(F)c(F)c4F)c4ccc([nH]4)c(-c4c(F)c(F)c(F)c(F)c4F)c4nc(c(-c5c(F)c(F)c(F)c(F)c5F)c5ccc2[nH]5)C=C4)C=C3)cc1
REMARK SMILES IDX 14 1 13 2 11 3 12 4 10 5 6 6 7 7 8 8 9 9 4 10 5 11 2 12 1 13
REMARK SMILES IDX 3 14 15 18 16 19 17 20 18 21 19 22 20 23 81 24 21 25 80 26
REMARK SMILES IDX 22 27 23 28 24 29 74 30 25 31 79 32 73 33 75 34 26 35 78 36
REMARK SMILES IDX 72 37 71 38 27 40 59 41 39 42 58 43 40 44 43 45 57 46 76 47
REMARK SMILES IDX 41 48 42 49 56 51 77 52 44 53 28 54 29 55 37 56 30 57 31 58
REMARK SMILES IDX 35 59 38 60 32 61 33 62 36 63 34 64 60 65 61 66 69 67 62 68
REMARK SMILES IDX 63 69 67 70 70 71 64 72 65 73 68 74 66 75 45 76 46 77 54 78
REMARK SMILES IDX 47 79 48 80 52 81 55 82 49 83 50 84 53 85 51 86
REMARK H PARENT 3 15 3 16 3 17 75 39 43 50
REMARK Flexibility Score: inf
ROOT
ATOM      1  C   UNL A   1      36.036  21.707  24.582  1.00  0.00     0.274 C 
ENDROOT
BRANCH   1   2
ATOM      2  O   UNL A   1      35.668  22.603  25.650  1.00  0.00    -0.461 OA
BRANCH   2   3
ATOM      3  C   UNL A   1      34.494  22.335  26.296  1.00  0.00     0.328 C 
ATOM      4  O   UNL A   1      34.440  21.823  27.405  1.00  0.00    -0.250 OA
BRANCH   3   5
ATOM      5  C   UNL A   1      33.266  22.724  25.432  1.00  0.00     0.195 C 
ATOM      6  N   UNL A   1      32.229  21.673  25.273  1.00  0.00    -0.324 N 
ATOM      7  C   UNL A   1      30.940  22.145  25.751  1.00  0.00     0.121 C 
ATOM      8  C   UNL A   1      31.044  23.653  25.640  1.00  0.00     0.024 C 
ATOM      9  C   UNL A   1      32.488  23.915  26.025  1.00  0.00     0.039 C 
BRANCH   6  10
ATOM     10  C   UNL A   1      32.474  20.572  24.473  1.00  0.00     0.281 C 
ATOM     11  O   UNL A   1      32.154  20.595  23.279  1.00  0.00    -0.268 OA
BRANCH  10  12
ATOM     12  C   UNL A   1      33.066  19.259  25.048  1.00  0.00     0.268 C 
ATOM     13  C   UNL A   1      32.528  18.064  24.271  1.00  0.00     0.086 C 
BRANCH  12  14
ATOM     14  N   UNL A   1      32.903  19.066  26.499  1.00  0.00    -0.348 N 
ATOM     15  H   UNL A   1      33.557  18.353  26.823  1.00  0.00     0.345 HD
ATOM     16  H   UNL A   1      31.949  18.765  26.697  1.00  0.00     0.345 HD
ATOM     17  H   UNL A   1      33.090  19.944  26.982  1.00  0.00     0.345 HD
ENDBRANCH  12  14
ENDBRANCH  10  12
ENDBRANCH   6  10
ENDBRANCH   3   5
ENDBRANCH   2   3
ENDBRANCH   1   2
BRANCH   1  18
ATOM     18  C   UNL A   1      37.476  21.223  24.753  1.00  0.00     0.275 C 
BRANCH  18  19
ATOM     19  O   UNL A   1      37.929  21.491  26.094  1.00  0.00    -0.458 OA
BRANCH  19  20
ATOM     20  C   UNL A   1      39.251  21.344  26.322  1.00  0.00     0.338 C 
ATOM     21  O   UNL A   1      39.948  20.368  26.100  1.00  0.00    -0.246 OA
BRANCH  20  22
ATOM     22  C   UNL A   1      39.794  22.600  26.866  1.00  0.00     0.060 A 
ATOM     23  C   UNL A   1      39.243  23.808  26.451  1.00  0.00     0.016 A 
ATOM     24  C   UNL A   1      40.929  22.590  27.676  1.00  0.00     0.016 A 
ATOM     25  C   UNL A   1      39.863  25.008  26.784  1.00  0.00     0.010 A 
ATOM     26  C   UNL A   1      41.517  23.804  28.058  1.00  0.00     0.010 A 
ATOM     27  C   UNL A   1      41.018  25.028  27.576  1.00  0.00    -0.014 A 
BRANCH  27  28
ATOM     28  C   UNL A   1      41.739  26.314  27.800  1.00  0.00     0.031 A 
ATOM     29  C   UNL A   1      41.118  27.385  28.661  1.00  0.00     0.074 A 
ATOM     30  C   UNL A   1      42.980  26.510  27.311  1.00  0.00     0.049 A 
ATOM     31  N   UNL A   1      41.488  28.630  28.836  1.00  0.00    -0.248 NA
ATOM     32  C   UNL A   1      39.913  27.010  29.418  1.00  0.00     0.031 C 
ATOM     33  C   UNL A   1      43.753  25.538  26.538  1.00  0.00     0.029 A 
ATOM     34  N   UNL A   1      43.825  27.589  27.421  1.00  0.00    -0.354 N 
ATOM     35  C   UNL A   1      40.526  29.201  29.659  1.00  0.00     0.074 A 
ATOM     36  C   UNL A   1      39.561  28.166  29.964  1.00  0.00     0.031 C 
ATOM     37  C   UNL A   1      44.976  26.036  26.298  1.00  0.00     0.029 A 
ATOM     38  C   UNL A   1      45.042  27.399  26.815  1.00  0.00     0.049 A 
ATOM     39  H   UNL A   1      43.580  28.419  27.890  1.00  0.00     0.167 HD
ATOM     40  C   UNL A   1      40.451  30.475  30.111  1.00  0.00     0.037 A 
ATOM     41  C   UNL A   1      46.083  28.239  26.656  1.00  0.00     0.037 A 
ATOM     42  C   UNL A   1      41.451  31.483  29.876  1.00  0.00     0.049 A 
ATOM     43  C   UNL A   1      45.977  29.649  27.164  1.00  0.00     0.074 A 
ATOM     44  C   UNL A   1      41.450  32.811  30.266  1.00  0.00     0.029 A 
ATOM     45  N   UNL A   1      42.653  31.259  29.223  1.00  0.00    -0.354 N 
ATOM     46  N   UNL A   1      45.000  30.219  27.826  1.00  0.00    -0.248 NA
ATOM     47  C   UNL A   1      47.107  30.543  26.872  1.00  0.00     0.031 C 
ATOM     48  C   UNL A   1      42.647  33.396  29.836  1.00  0.00     0.029 A 
ATOM     49  C   UNL A   1      43.403  32.424  29.204  1.00  0.00     0.049 A 
ATOM     50  H   UNL A   1      42.932  30.401  28.830  1.00  0.00     0.167 HD
ATOM     51  C   UNL A   1      45.394  31.535  28.026  1.00  0.00     0.074 A 
ATOM     52  C   UNL A   1      46.712  31.673  27.443  1.00  0.00     0.031 C 
ATOM     53  C   UNL A   1      44.716  32.542  28.625  1.00  0.00     0.037 A 
BRANCH  40  54
ATOM     54  C   UNL A   1      39.224  30.871  30.874  1.00  0.00     0.064 A 
ATOM     55  C   UNL A   1      38.076  31.358  30.236  1.00  0.00     0.173 A 
ATOM     56  C   UNL A   1      39.187  30.715  32.269  1.00  0.00     0.173 A 
ATOM     57  F   UNL A   1      38.068  31.542  28.907  1.00  0.00    -0.203 F 
ATOM     58  C   UNL A   1      36.937  31.688  30.969  1.00  0.00     0.198 A 
ATOM     59  C   UNL A   1      38.041  31.024  32.995  1.00  0.00     0.198 A 
ATOM     60  F   UNL A   1      40.260  30.249  32.925  1.00  0.00    -0.203 F 
ATOM     61  F   UNL A   1      35.861  32.184  30.344  1.00  0.00    -0.200 F 
ATOM     62  C   UNL A   1      36.918  31.513  32.345  1.00  0.00     0.200 A 
ATOM     63  F   UNL A   1      38.023  30.847  34.323  1.00  0.00    -0.200 F 
ATOM     64  F   UNL A   1      35.820  31.825  33.047  1.00  0.00    -0.200 F 
ENDBRANCH  40  54
BRANCH  41  65
ATOM     65  C   UNL A   1      47.303  27.781  25.941  1.00  0.00     0.064 A 
ATOM     66  C   UNL A   1      48.429  27.341  26.648  1.00  0.00     0.173 A 
ATOM     67  C   UNL A   1      47.367  27.782  24.540  1.00  0.00     0.173 A 
ATOM     68  F   UNL A   1      48.427  27.353  27.989  1.00  0.00    -0.203 F 
ATOM     69  C   UNL A   1      49.579  26.925  25.978  1.00  0.00     0.198 A 
ATOM     70  C   UNL A   1      48.506  27.340  23.873  1.00  0.00     0.198 A 
ATOM     71  F   UNL A   1      46.318  28.203  23.819  1.00  0.00    -0.203 F 
ATOM     72  F   UNL A   1      50.659  26.549  26.677  1.00  0.00    -0.200 F 
ATOM     73  C   UNL A   1      49.613  26.917  24.592  1.00  0.00     0.200 A 
ATOM     74  F   UNL A   1      48.532  27.326  22.533  1.00  0.00    -0.200 F 
ATOM     75  F   UNL A   1      50.717  26.514  23.949  1.00  0.00    -0.200 F 
ENDBRANCH  41  65
BRANCH  53  76
ATOM     76  C   UNL A   1      45.393  33.875  28.694  1.00  0.00     0.064 A 
ATOM     77  C   UNL A   1      45.295  34.796  27.642  1.00  0.00     0.173 A 
ATOM     78  C   UNL A   1      46.122  34.247  29.833  1.00  0.00     0.173 A 
ATOM     79  F   UNL A   1      44.621  34.477  26.526  1.00  0.00    -0.203 F 
ATOM     80  C   UNL A   1      45.918  36.037  27.720  1.00  0.00     0.198 A 
ATOM     81  C   UNL A   1      46.727  35.496  29.916  1.00  0.00     0.198 A 
ATOM     82  F   UNL A   1      46.240  33.399  30.866  1.00  0.00    -0.203 F 
ATOM     83  F   UNL A   1      45.841  36.891  26.689  1.00  0.00    -0.200 F 
ATOM     84  C   UNL A   1      46.629  36.389  28.858  1.00  0.00     0.200 A 
ATOM     85  F   UNL A   1      47.409  35.838  31.018  1.00  0.00    -0.200 F 
ATOM     86  F   UNL A   1      47.228  37.585  28.932  1.00  0.00    -0.200 F 
ENDBRANCH  53  76
ENDBRANCH  27  28
ENDBRANCH  20  22
ENDBRANCH  19  20
ENDBRANCH  18  19
ENDBRANCH   1  18
TORSDOF 14
ENDMDL
