MODEL 1
REMARK VINA RESULT:     -10.6      0.000      0.000
REMARK SMILES CCCC[N@H+](CC)[C@H]1CCC[C@]([NH3+])(C(=O)OCCOC(=O)c2ccc(-c3c4nc(c(-c5c(F)c(F)c(F)c(F)c5F)c5ccc([nH]5)c(-c5c(F)c(F)c(F)c(F)c5F)c5nc(c(-c6c(F)c(F)c(F)c(F)c6F)c6ccc3[nH]6)C=C5)C=C4)cc2)C1
REMARK SMILES IDX 17 1 16 2 14 3 15 4 12 5 8 6 9 7 85 8 10 9 11 10 5 11 4 13
REMARK SMILES IDX 3 14 2 15 1 16 6 17 7 18 13 19 18 23 19 24 20 25 21 26 22 27
REMARK SMILES IDX 23 28 84 29 24 30 83 31 25 32 26 33 27 34 77 35 28 36 82 37
REMARK SMILES IDX 76 38 78 39 29 40 81 41 75 42 74 43 30 45 62 46 42 47 61 48
REMARK SMILES IDX 43 49 46 50 60 51 79 52 44 53 45 54 59 56 80 57 47 58 31 59
REMARK SMILES IDX 32 60 40 61 33 62 34 63 38 64 41 65 35 66 36 67 39 68 37 69
REMARK SMILES IDX 63 70 64 71 72 72 65 73 66 74 70 75 73 76 67 77 68 78 71 79
REMARK SMILES IDX 69 80 48 81 49 82 57 83 50 84 51 85 55 86 58 87 52 88 53 89
REMARK SMILES IDX 56 90 54 91
REMARK H PARENT 5 12 13 20 13 21 13 22 78 44 46 55
REMARK Flexibility Score: inf
ROOT
ATOM      1  C   UNL A   1      31.988  29.401  25.028  1.00  0.00     0.274 C 
ENDROOT
BRANCH   1   2
ATOM      2  O   UNL A   1      31.818  28.165  25.758  1.00  0.00    -0.457 OA
BRANCH   2   3
ATOM      3  C   UNL A   1      32.873  27.311  25.708  1.00  0.00     0.368 C 
ATOM      4  O   UNL A   1      34.048  27.667  25.645  1.00  0.00    -0.245 OA
BRANCH   3   5
ATOM      5  C   UNL A   1      32.467  25.810  25.629  1.00  0.00     0.198 C 
ATOM      6  C   UNL A   1      34.592  24.514  24.826  1.00  0.00     0.190 C 
ATOM      7  C   UNL A   1      33.951  24.395  23.433  1.00  0.00     0.065 C 
ATOM      8  C   UNL A   1      33.562  24.774  25.959  1.00  0.00     0.145 C 
ATOM      9  C   UNL A   1      32.949  25.494  23.171  1.00  0.00     0.013 C 
ATOM     10  C   UNL A   1      31.868  25.532  24.240  1.00  0.00     0.081 C 
BRANCH   6  11
ATOM     11  N   UNL A   1      35.472  23.358  25.057  1.00  0.00    -0.333 N 
ATOM     12  H   UNL A   1      36.380  23.676  24.718  1.00  0.00     0.348 HD
BRANCH  11  13
ATOM     13  C   UNL A   1      35.224  22.184  24.226  1.00  0.00     0.262 C 
BRANCH  13  14
ATOM     14  C   UNL A   1      34.526  20.937  24.801  1.00  0.00     0.061 C 
BRANCH  14  15
ATOM     15  C   UNL A   1      33.094  20.647  24.340  1.00  0.00     0.002 C 
ATOM     16  C   UNL A   1      32.033  21.528  24.979  1.00  0.00     0.004 C 
ENDBRANCH  14  15
ENDBRANCH  13  14
ENDBRANCH  11  13
BRANCH  11  17
ATOM     17  C   UNL A   1      36.380  23.313  26.188  1.00  0.00     0.258 C 
ATOM     18  C   UNL A   1      37.792  23.825  25.904  1.00  0.00     0.071 C 
ENDBRANCH  11  17
ENDBRANCH   6  11
BRANCH   5  19
ATOM     19  N   UNL A   1      31.366  25.632  26.624  1.00  0.00    -0.343 N 
ATOM     20  H   UNL A   1      31.759  25.601  27.565  1.00  0.00     0.345 HD
ATOM     21  H   UNL A   1      30.874  24.759  26.434  1.00  0.00     0.345 HD
ATOM     22  H   UNL A   1      30.713  26.412  26.553  1.00  0.00     0.345 HD
ENDBRANCH   5  19
ENDBRANCH   3   5
ENDBRANCH   2   3
ENDBRANCH   1   2
BRANCH   1  23
ATOM     23  C   UNL A   1      31.564  30.597  25.875  1.00  0.00     0.275 C 
BRANCH  23  24
ATOM     24  O   UNL A   1      32.299  30.594  27.110  1.00  0.00    -0.458 OA
BRANCH  24  25
ATOM     25  C   UNL A   1      33.093  31.667  27.318  1.00  0.00     0.338 C 
ATOM     26  O   UNL A   1      32.750  32.844  27.260  1.00  0.00    -0.246 OA
BRANCH  25  27
ATOM     27  C   UNL A   1      34.463  31.254  27.706  1.00  0.00     0.060 A 
ATOM     28  C   UNL A   1      34.785  29.919  27.963  1.00  0.00     0.016 A 
ATOM     29  C   UNL A   1      35.412  32.247  27.968  1.00  0.00     0.016 A 
ATOM     30  C   UNL A   1      35.972  29.603  28.632  1.00  0.00     0.010 A 
ATOM     31  C   UNL A   1      36.648  31.910  28.529  1.00  0.00     0.010 A 
ATOM     32  C   UNL A   1      36.919  30.592  28.933  1.00  0.00    -0.014 A 
BRANCH  32  33
ATOM     33  C   UNL A   1      38.151  30.290  29.726  1.00  0.00     0.031 A 
ATOM     34  C   UNL A   1      39.244  29.433  29.130  1.00  0.00     0.074 A 
ATOM     35  C   UNL A   1      38.319  30.767  30.975  1.00  0.00     0.049 A 
ATOM     36  N   UNL A   1      40.244  28.828  29.723  1.00  0.00    -0.248 NA
ATOM     37  C   UNL A   1      39.192  29.210  27.676  1.00  0.00     0.031 C 
ATOM     38  C   UNL A   1      37.399  31.656  31.680  1.00  0.00     0.029 A 
ATOM     39  N   UNL A   1      39.342  30.572  31.873  1.00  0.00    -0.354 N 
ATOM     40  C   UNL A   1      40.872  28.074  28.738  1.00  0.00     0.074 A 
ATOM     41  C   UNL A   1      40.162  28.323  27.501  1.00  0.00     0.031 C 
ATOM     42  C   UNL A   1      37.924  31.980  32.872  1.00  0.00     0.029 A 
ATOM     43  C   UNL A   1      39.166  31.237  33.060  1.00  0.00     0.049 A 
ATOM     44  H   UNL A   1      40.127  30.008  31.682  1.00  0.00     0.167 HD
ATOM     45  C   UNL A   1      41.935  27.242  28.859  1.00  0.00     0.037 A 
ATOM     46  C   UNL A   1      39.892  31.222  34.194  1.00  0.00     0.037 A 
ATOM     47  C   UNL A   1      42.712  27.078  30.062  1.00  0.00     0.049 A 
ATOM     48  C   UNL A   1      41.086  30.320  34.301  1.00  0.00     0.074 A 
ATOM     49  C   UNL A   1      43.818  26.272  30.275  1.00  0.00     0.029 A 
ATOM     50  N   UNL A   1      42.485  27.766  31.244  1.00  0.00    -0.354 N 
ATOM     51  N   UNL A   1      41.596  29.514  33.403  1.00  0.00    -0.248 NA
ATOM     52  C   UNL A   1      41.786  30.302  35.593  1.00  0.00     0.031 C 
ATOM     53  C   UNL A   1      44.253  26.462  31.592  1.00  0.00     0.029 A 
ATOM     54  C   UNL A   1      43.435  27.409  32.188  1.00  0.00     0.049 A 
ATOM     55  H   UNL A   1      41.758  28.412  31.391  1.00  0.00     0.167 HD
ATOM     56  C   UNL A   1      42.674  28.894  34.018  1.00  0.00     0.074 A 
ATOM     57  C   UNL A   1      42.760  29.433  35.359  1.00  0.00     0.031 C 
ATOM     58  C   UNL A   1      43.512  27.955  33.516  1.00  0.00     0.037 A 
BRANCH  45  59
ATOM     59  C   UNL A   1      42.302  26.401  27.670  1.00  0.00     0.064 A 
ATOM     60  C   UNL A   1      43.334  26.756  26.792  1.00  0.00     0.173 A 
ATOM     61  C   UNL A   1      41.627  25.192  27.439  1.00  0.00     0.173 A 
ATOM     62  F   UNL A   1      43.999  27.908  26.961  1.00  0.00    -0.203 F 
ATOM     63  C   UNL A   1      43.662  25.941  25.710  1.00  0.00     0.198 A 
ATOM     64  C   UNL A   1      41.976  24.368  26.372  1.00  0.00     0.198 A 
ATOM     65  F   UNL A   1      40.636  24.802  28.256  1.00  0.00    -0.203 F 
ATOM     66  F   UNL A   1      44.626  26.317  24.858  1.00  0.00    -0.200 F 
ATOM     67  C   UNL A   1      42.989  24.744  25.505  1.00  0.00     0.200 A 
ATOM     68  F   UNL A   1      41.331  23.207  26.185  1.00  0.00    -0.200 F 
ATOM     69  F   UNL A   1      43.313  23.959  24.470  1.00  0.00    -0.200 F 
ENDBRANCH  45  59
BRANCH  46  70
ATOM     70  C   UNL A   1      39.479  32.076  35.335  1.00  0.00     0.064 A 
ATOM     71  C   UNL A   1      39.910  33.407  35.422  1.00  0.00     0.173 A 
ATOM     72  C   UNL A   1      38.623  31.597  36.338  1.00  0.00     0.173 A 
ATOM     73  F   UNL A   1      40.752  33.898  34.501  1.00  0.00    -0.203 F 
ATOM     74  C   UNL A   1      39.496  34.229  36.466  1.00  0.00     0.198 A 
ATOM     75  C   UNL A   1      38.187  32.428  37.366  1.00  0.00     0.198 A 
ATOM     76  F   UNL A   1      38.185  30.331  36.297  1.00  0.00    -0.203 F 
ATOM     77  F   UNL A   1      39.940  35.491  36.540  1.00  0.00    -0.200 F 
ATOM     78  C   UNL A   1      38.625  33.742  37.431  1.00  0.00     0.200 A 
ATOM     79  F   UNL A   1      37.337  31.958  38.289  1.00  0.00    -0.200 F 
ATOM     80  F   UNL A   1      38.211  34.540  38.425  1.00  0.00    -0.200 F 
ENDBRANCH  46  70
BRANCH  58  81
ATOM     81  C   UNL A   1      44.610  27.474  34.416  1.00  0.00     0.064 A 
ATOM     82  C   UNL A   1      45.837  28.147  34.496  1.00  0.00     0.173 A 
ATOM     83  C   UNL A   1      44.427  26.336  35.214  1.00  0.00     0.173 A 
ATOM     84  F   UNL A   1      46.062  29.232  33.738  1.00  0.00    -0.203 F 
ATOM     85  C   UNL A   1      46.852  27.683  35.327  1.00  0.00     0.198 A 
ATOM     86  C   UNL A   1      45.438  25.885  36.058  1.00  0.00     0.198 A 
ATOM     87  F   UNL A   1      43.269  25.660  35.173  1.00  0.00    -0.203 F 
ATOM     88  F   UNL A   1      48.033  28.317  35.358  1.00  0.00    -0.200 F 
ATOM     89  C   UNL A   1      46.652  26.555  36.110  1.00  0.00     0.200 A 
ATOM     90  F   UNL A   1      45.241  24.798  36.817  1.00  0.00    -0.200 F 
ATOM     91  F   UNL A   1      47.632  26.106  36.905  1.00  0.00    -0.200 F 
ENDBRANCH  58  81
ENDBRANCH  32  33
ENDBRANCH  25  27
ENDBRANCH  24  25
ENDBRANCH  23  24
ENDBRANCH   1  23
TORSDOF 17
ENDMDL
MODEL 2
REMARK VINA RESULT:     -10.5      1.020      2.366
REMARK SMILES CCCC[N@H+](CC)[C@H]1CCC[C@]([NH3+])(C(=O)OCCOC(=O)c2ccc(-c3c4nc(c(-c5c(F)c(F)c(F)c(F)c5F)c5ccc([nH]5)c(-c5c(F)c(F)c(F)c(F)c5F)c5nc(c(-c6c(F)c(F)c(F)c(F)c6F)c6ccc3[nH]6)C=C5)C=C4)cc2)C1
REMARK SMILES IDX 17 1 16 2 14 3 15 4 12 5 8 6 9 7 85 8 10 9 11 10 5 11 4 13
REMARK SMILES IDX 3 14 2 15 1 16 6 17 7 18 13 19 18 23 19 24 20 25 21 26 22 27
REMARK SMILES IDX 23 28 84 29 24 30 83 31 25 32 26 33 27 34 77 35 28 36 82 37
REMARK SMILES IDX 76 38 78 39 29 40 81 41 75 42 74 43 30 45 62 46 42 47 61 48
REMARK SMILES IDX 43 49 46 50 60 51 79 52 44 53 45 54 59 56 80 57 47 58 31 59
REMARK SMILES IDX 32 60 40 61 33 62 34 63 38 64 41 65 35 66 36 67 39 68 37 69
REMARK SMILES IDX 63 70 64 71 72 72 65 73 66 74 70 75 73 76 67 77 68 78 71 79
REMARK SMILES IDX 69 80 48 81 49 82 57 83 50 84 51 85 55 86 58 87 52 88 53 89
REMARK SMILES IDX 56 90 54 91
REMARK H PARENT 5 12 13 20 13 21 13 22 78 44 46 55
REMARK Flexibility Score: inf
ROOT
ATOM      1  C   UNL A   1      31.031  29.616  25.062  1.00  0.00     0.274 C 
ENDROOT
BRANCH   1   2
ATOM      2  O   UNL A   1      31.943  29.403  23.961  1.00  0.00    -0.457 OA
BRANCH   2   3
ATOM      3  C   UNL A   1      31.869  28.182  23.372  1.00  0.00     0.368 C 
ATOM      4  O   UNL A   1      30.816  27.599  23.119  1.00  0.00    -0.245 OA
BRANCH   3   5
ATOM      5  C   UNL A   1      33.254  27.513  23.129  1.00  0.00     0.198 C 
ATOM      6  C   UNL A   1      33.052  25.061  24.016  1.00  0.00     0.190 C 
ATOM      7  C   UNL A   1      33.865  25.477  25.254  1.00  0.00     0.065 C 
ATOM      8  C   UNL A   1      33.251  26.005  22.800  1.00  0.00     0.145 C 
ATOM      9  C   UNL A   1      33.748  26.955  25.542  1.00  0.00     0.013 C 
ATOM     10  C   UNL A   1      34.158  27.794  24.342  1.00  0.00     0.081 C 
BRANCH   6  11
ATOM     11  N   UNL A   1      33.296  23.639  23.730  1.00  0.00    -0.333 N 
ATOM     12  H   UNL A   1      32.367  23.222  23.773  1.00  0.00     0.348 HD
BRANCH  11  13
ATOM     13  C   UNL A   1      34.022  22.891  24.752  1.00  0.00     0.262 C 
BRANCH  13  14
ATOM     14  C   UNL A   1      35.396  22.265  24.453  1.00  0.00     0.061 C 
BRANCH  14  15
ATOM     15  C   UNL A   1      36.561  23.213  24.153  1.00  0.00     0.002 C 
ATOM     16  C   UNL A   1      37.366  23.632  25.373  1.00  0.00     0.004 C 
ENDBRANCH  14  15
ENDBRANCH  13  14
ENDBRANCH  11  13
BRANCH  11  17
ATOM     17  C   UNL A   1      33.028  23.074  22.419  1.00  0.00     0.258 C 
ATOM     18  C   UNL A   1      32.269  21.748  22.431  1.00  0.00     0.071 C 
ENDBRANCH  11  17
ENDBRANCH   6  11
BRANCH   5  19
ATOM     19  N   UNL A   1      33.854  28.227  21.961  1.00  0.00    -0.343 N 
ATOM     20  H   UNL A   1      34.869  28.252  22.063  1.00  0.00     0.345 HD
ATOM     21  H   UNL A   1      33.493  29.180  21.924  1.00  0.00     0.345 HD
ATOM     22  H   UNL A   1      33.610  27.737  21.101  1.00  0.00     0.345 HD
ENDBRANCH   5  19
ENDBRANCH   3   5
ENDBRANCH   2   3
ENDBRANCH   1   2
BRANCH   1  23
ATOM     23  C   UNL A   1      31.417  30.857  25.859  1.00  0.00     0.275 C 
BRANCH  23  24
ATOM     24  O   UNL A   1      32.509  30.540  26.739  1.00  0.00    -0.458 OA
BRANCH  24  25
ATOM     25  C   UNL A   1      33.202  31.599  27.212  1.00  0.00     0.338 C 
ATOM     26  O   UNL A   1      32.776  32.741  27.346  1.00  0.00    -0.246 OA
BRANCH  25  27
ATOM     27  C   UNL A   1      34.567  31.202  27.632  1.00  0.00     0.060 A 
ATOM     28  C   UNL A   1      34.904  29.869  27.879  1.00  0.00     0.016 A 
ATOM     29  C   UNL A   1      35.492  32.206  27.936  1.00  0.00     0.016 A 
ATOM     30  C   UNL A   1      36.076  29.562  28.576  1.00  0.00     0.010 A 
ATOM     31  C   UNL A   1      36.716  31.880  28.527  1.00  0.00     0.010 A 
ATOM     32  C   UNL A   1      36.998  30.561  28.919  1.00  0.00    -0.014 A 
BRANCH  32  33
ATOM     33  C   UNL A   1      38.212  30.266  29.741  1.00  0.00     0.031 A 
ATOM     34  C   UNL A   1      39.329  29.424  29.169  1.00  0.00     0.074 A 
ATOM     35  C   UNL A   1      38.343  30.738  30.997  1.00  0.00     0.049 A 
ATOM     36  N   UNL A   1      40.320  28.825  29.785  1.00  0.00    -0.248 NA
ATOM     37  C   UNL A   1      39.317  29.209  27.714  1.00  0.00     0.031 C 
ATOM     38  C   UNL A   1      37.396  31.613  31.683  1.00  0.00     0.029 A 
ATOM     39  N   UNL A   1      39.344  30.547  31.921  1.00  0.00    -0.354 N 
ATOM     40  C   UNL A   1      40.981  28.084  28.812  1.00  0.00     0.074 A 
ATOM     41  C   UNL A   1      40.300  28.333  27.559  1.00  0.00     0.031 C 
ATOM     42  C   UNL A   1      37.886  31.935  32.890  1.00  0.00     0.029 A 
ATOM     43  C   UNL A   1      39.130  31.204  33.107  1.00  0.00     0.049 A 
ATOM     44  H   UNL A   1      40.140  29.993  31.747  1.00  0.00     0.167 HD
ATOM     45  C   UNL A   1      42.048  27.262  28.956  1.00  0.00     0.037 A 
ATOM     46  C   UNL A   1      39.827  31.189  34.259  1.00  0.00     0.037 A 
ATOM     47  C   UNL A   1      42.795  27.098  30.178  1.00  0.00     0.049 A 
ATOM     48  C   UNL A   1      41.027  30.299  34.391  1.00  0.00     0.074 A 
ATOM     49  C   UNL A   1      43.903  26.302  30.415  1.00  0.00     0.029 A 
ATOM     50  N   UNL A   1      42.531  27.777  31.357  1.00  0.00    -0.354 N 
ATOM     51  N   UNL A   1      41.568  29.503  33.503  1.00  0.00    -0.248 NA
ATOM     52  C   UNL A   1      41.694  30.279  35.702  1.00  0.00     0.031 C 
ATOM     53  C   UNL A   1      44.302  26.489  31.744  1.00  0.00     0.029 A 
ATOM     54  C   UNL A   1      43.460  27.424  32.324  1.00  0.00     0.049 A 
ATOM     55  H   UNL A   1      41.793  28.415  31.490  1.00  0.00     0.167 HD
ATOM     56  C   UNL A   1      42.636  28.891  34.142  1.00  0.00     0.074 A 
ATOM     57  C   UNL A   1      42.682  29.422  35.488  1.00  0.00     0.031 C 
ATOM     58  C   UNL A   1      43.496  27.962  33.657  1.00  0.00     0.037 A 
BRANCH  45  59
ATOM     59  C   UNL A   1      42.455  26.432  27.772  1.00  0.00     0.064 A 
ATOM     60  C   UNL A   1      41.863  25.196  27.485  1.00  0.00     0.173 A 
ATOM     61  C   UNL A   1      43.432  26.915  26.887  1.00  0.00     0.173 A 
ATOM     62  F   UNL A   1      40.936  24.684  28.309  1.00  0.00    -0.203 F 
ATOM     63  C   UNL A   1      42.249  24.461  26.366  1.00  0.00     0.198 A 
ATOM     64  C   UNL A   1      43.796  26.191  25.755  1.00  0.00     0.198 A 
ATOM     65  F   UNL A   1      44.024  28.098  27.112  1.00  0.00    -0.203 F 
ATOM     66  F   UNL A   1      41.699  23.262  26.131  1.00  0.00    -0.200 F 
ATOM     67  C   UNL A   1      43.210  24.962  25.498  1.00  0.00     0.200 A 
ATOM     68  F   UNL A   1      44.716  26.683  24.913  1.00  0.00    -0.200 F 
ATOM     69  F   UNL A   1      43.573  24.257  24.419  1.00  0.00    -0.200 F 
ENDBRANCH  45  59
BRANCH  46  70
ATOM     70  C   UNL A   1      39.375  32.032  35.394  1.00  0.00     0.064 A 
ATOM     71  C   UNL A   1      38.512  31.513  36.368  1.00  0.00     0.173 A 
ATOM     72  C   UNL A   1      39.820  33.353  35.548  1.00  0.00     0.173 A 
ATOM     73  F   UNL A   1      38.039  30.264  36.245  1.00  0.00    -0.203 F 
ATOM     74  C   UNL A   1      38.116  32.282  37.458  1.00  0.00     0.198 A 
ATOM     75  C   UNL A   1      39.445  34.112  36.653  1.00  0.00     0.198 A 
ATOM     76  F   UNL A   1      40.646  33.893  34.640  1.00  0.00    -0.203 F 
ATOM     77  F   UNL A   1      37.271  31.771  38.365  1.00  0.00    -0.200 F 
ATOM     78  C   UNL A   1      38.592  33.577  37.606  1.00  0.00     0.200 A 
ATOM     79  F   UNL A   1      39.916  35.357  36.799  1.00  0.00    -0.200 F 
ATOM     80  F   UNL A   1      38.225  34.311  38.666  1.00  0.00    -0.200 F 
ENDBRANCH  46  70
BRANCH  58  81
ATOM     81  C   UNL A   1      44.576  27.488  34.582  1.00  0.00     0.064 A 
ATOM     82  C   UNL A   1      45.806  28.152  34.671  1.00  0.00     0.173 A 
ATOM     83  C   UNL A   1      44.370  26.364  35.395  1.00  0.00     0.173 A 
ATOM     84  F   UNL A   1      46.053  29.222  33.900  1.00  0.00    -0.203 F 
ATOM     85  C   UNL A   1      46.804  27.693  35.527  1.00  0.00     0.198 A 
ATOM     86  C   UNL A   1      45.364  25.918  36.262  1.00  0.00     0.198 A 
ATOM     87  F   UNL A   1      43.208  25.696  35.345  1.00  0.00    -0.203 F 
ATOM     88  F   UNL A   1      47.990  28.318  35.567  1.00  0.00    -0.200 F 
ATOM     89  C   UNL A   1      46.582  26.580  36.324  1.00  0.00     0.200 A 
ATOM     90  F   UNL A   1      45.145  24.845  37.035  1.00  0.00    -0.200 F 
ATOM     91  F   UNL A   1      47.546  26.135  37.142  1.00  0.00    -0.200 F 
ENDBRANCH  58  81
ENDBRANCH  32  33
ENDBRANCH  25  27
ENDBRANCH  24  25
ENDBRANCH  23  24
ENDBRANCH   1  23
TORSDOF 17
ENDMDL
MODEL 3
REMARK VINA RESULT:     -10.5      0.926      2.300
REMARK SMILES CCCC[N@H+](CC)[C@H]1CCC[C@]([NH3+])(C(=O)OCCOC(=O)c2ccc(-c3c4nc(c(-c5c(F)c(F)c(F)c(F)c5F)c5ccc([nH]5)c(-c5c(F)c(F)c(F)c(F)c5F)c5nc(c(-c6c(F)c(F)c(F)c(F)c6F)c6ccc3[nH]6)C=C5)C=C4)cc2)C1
REMARK SMILES IDX 17 1 16 2 14 3 15 4 12 5 8 6 9 7 85 8 10 9 11 10 5 11 4 13
REMARK SMILES IDX 3 14 2 15 1 16 6 17 7 18 13 19 18 23 19 24 20 25 21 26 22 27
REMARK SMILES IDX 23 28 84 29 24 30 83 31 25 32 26 33 27 34 77 35 28 36 82 37
REMARK SMILES IDX 76 38 78 39 29 40 81 41 75 42 74 43 30 45 62 46 42 47 61 48
REMARK SMILES IDX 43 49 46 50 60 51 79 52 44 53 45 54 59 56 80 57 47 58 31 59
REMARK SMILES IDX 32 60 40 61 33 62 34 63 38 64 41 65 35 66 36 67 39 68 37 69
REMARK SMILES IDX 63 70 64 71 72 72 65 73 66 74 70 75 73 76 67 77 68 78 71 79
REMARK SMILES IDX 69 80 48 81 49 82 57 83 50 84 51 85 55 86 58 87 52 88 53 89
REMARK SMILES IDX 56 90 54 91
REMARK H PARENT 5 12 13 20 13 21 13 22 78 44 46 55
REMARK Flexibility Score: inf
ROOT
ATOM      1  C   UNL A   1      31.004  29.737  24.601  1.00  0.00     0.274 C 
ENDROOT
BRANCH   1   2
ATOM      2  O   UNL A   1      31.477  28.437  25.021  1.00  0.00    -0.457 OA
BRANCH   2   3
ATOM      3  C   UNL A   1      31.517  27.492  24.047  1.00  0.00     0.368 C 
ATOM      4  O   UNL A   1      30.527  27.063  23.458  1.00  0.00    -0.245 OA
BRANCH   3   5
ATOM      5  C   UNL A   1      32.936  26.899  23.801  1.00  0.00     0.198 C 
ATOM      6  C   UNL A   1      32.769  24.343  24.330  1.00  0.00     0.190 C 
ATOM      7  C   UNL A   1      33.495  24.605  25.660  1.00  0.00     0.065 C 
ATOM      8  C   UNL A   1      33.003  25.452  23.269  1.00  0.00     0.145 C 
ATOM      9  C   UNL A   1      33.310  26.025  26.140  1.00  0.00     0.013 C 
ATOM     10  C   UNL A   1      33.759  27.033  25.094  1.00  0.00     0.081 C 
BRANCH   6  11
ATOM     11  N   UNL A   1      33.078  22.982  23.867  1.00  0.00    -0.333 N 
ATOM     12  H   UNL A   1      32.173  22.512  23.881  1.00  0.00     0.348 HD
BRANCH  11  13
ATOM     13  C   UNL A   1      33.872  22.158  24.773  1.00  0.00     0.262 C 
BRANCH  13  14
ATOM     14  C   UNL A   1      35.324  21.775  24.433  1.00  0.00     0.061 C 
BRANCH  14  15
ATOM     15  C   UNL A   1      36.223  22.858  23.828  1.00  0.00     0.002 C 
ATOM     16  C   UNL A   1      37.050  23.632  24.841  1.00  0.00     0.004 C 
ENDBRANCH  14  15
ENDBRANCH  13  14
ENDBRANCH  11  13
BRANCH  11  17
ATOM     17  C   UNL A   1      32.800  22.565  22.504  1.00  0.00     0.258 C 
ATOM     18  C   UNL A   1      32.062  21.233  22.374  1.00  0.00     0.071 C 
ENDBRANCH  11  17
ENDBRANCH   6  11
BRANCH   5  19
ATOM     19  N   UNL A   1      33.577  27.784  22.781  1.00  0.00    -0.343 N 
ATOM     20  H   UNL A   1      33.258  28.743  22.915  1.00  0.00     0.345 HD
ATOM     21  H   UNL A   1      33.317  27.467  21.847  1.00  0.00     0.345 HD
ATOM     22  H   UNL A   1      34.591  27.744  22.884  1.00  0.00     0.345 HD
ENDBRANCH   5  19
ENDBRANCH   3   5
ENDBRANCH   2   3
ENDBRANCH   1   2
BRANCH   1  23
ATOM     23  C   UNL A   1      31.302  30.794  25.660  1.00  0.00     0.275 C 
BRANCH  23  24
ATOM     24  O   UNL A   1      32.503  30.439  26.366  1.00  0.00    -0.458 OA
BRANCH  24  25
ATOM     25  C   UNL A   1      33.075  31.433  27.079  1.00  0.00     0.338 C 
ATOM     26  O   UNL A   1      32.541  32.488  27.407  1.00  0.00    -0.246 OA
BRANCH  25  27
ATOM     27  C   UNL A   1      34.450  31.070  27.500  1.00  0.00     0.060 A 
ATOM     28  C   UNL A   1      34.816  29.747  27.758  1.00  0.00     0.016 A 
ATOM     29  C   UNL A   1      35.353  32.096  27.793  1.00  0.00     0.016 A 
ATOM     30  C   UNL A   1      35.996  29.471  28.455  1.00  0.00     0.010 A 
ATOM     31  C   UNL A   1      36.585  31.803  28.383  1.00  0.00     0.010 A 
ATOM     32  C   UNL A   1      36.897  30.494  28.787  1.00  0.00    -0.014 A 
BRANCH  32  33
ATOM     33  C   UNL A   1      38.118  30.233  29.609  1.00  0.00     0.031 A 
ATOM     34  C   UNL A   1      39.251  29.408  29.042  1.00  0.00     0.074 A 
ATOM     35  C   UNL A   1      38.243  30.721  30.859  1.00  0.00     0.049 A 
ATOM     36  N   UNL A   1      40.256  28.837  29.662  1.00  0.00    -0.248 NA
ATOM     37  C   UNL A   1      39.240  29.177  27.590  1.00  0.00     0.031 C 
ATOM     38  C   UNL A   1      37.280  31.583  31.539  1.00  0.00     0.029 A 
ATOM     39  N   UNL A   1      39.250  30.561  31.782  1.00  0.00    -0.354 N 
ATOM     40  C   UNL A   1      40.929  28.099  28.695  1.00  0.00     0.074 A 
ATOM     41  C   UNL A   1      40.240  28.320  27.441  1.00  0.00     0.031 C 
ATOM     42  C   UNL A   1      37.766  31.928  32.741  1.00  0.00     0.029 A 
ATOM     43  C   UNL A   1      39.026  31.225  32.962  1.00  0.00     0.049 A 
ATOM     44  H   UNL A   1      40.056  30.021  31.612  1.00  0.00     0.167 HD
ATOM     45  C   UNL A   1      42.014  27.301  28.844  1.00  0.00     0.037 A 
ATOM     46  C   UNL A   1      39.725  31.238  34.112  1.00  0.00     0.037 A 
ATOM     47  C   UNL A   1      42.767  27.166  30.066  1.00  0.00     0.049 A 
ATOM     48  C   UNL A   1      40.944  30.374  34.250  1.00  0.00     0.074 A 
ATOM     49  C   UNL A   1      43.892  26.395  30.309  1.00  0.00     0.029 A 
ATOM     50  N   UNL A   1      42.492  27.851  31.239  1.00  0.00    -0.354 N 
ATOM     51  N   UNL A   1      41.499  29.579  33.369  1.00  0.00    -0.248 NA
ATOM     52  C   UNL A   1      41.614  30.382  35.559  1.00  0.00     0.031 C 
ATOM     53  C   UNL A   1      44.291  26.604  31.635  1.00  0.00     0.029 A 
ATOM     54  C   UNL A   1      43.431  27.528  32.207  1.00  0.00     0.049 A 
ATOM     55  H   UNL A   1      41.742  28.475  31.367  1.00  0.00     0.167 HD
ATOM     56  C   UNL A   1      42.582  28.996  34.011  1.00  0.00     0.074 A 
ATOM     57  C   UNL A   1      42.620  29.544  35.352  1.00  0.00     0.031 C 
ATOM     58  C   UNL A   1      43.459  28.081  33.534  1.00  0.00     0.037 A 
BRANCH  45  59
ATOM     59  C   UNL A   1      42.435  26.467  27.669  1.00  0.00     0.064 A 
ATOM     60  C   UNL A   1      43.440  26.874  26.783  1.00  0.00     0.173 A 
ATOM     61  C   UNL A   1      41.840  25.212  27.458  1.00  0.00     0.173 A 
ATOM     62  F   UNL A   1      44.028  28.070  26.932  1.00  0.00    -0.203 F 
ATOM     63  C   UNL A   1      43.821  26.065  25.714  1.00  0.00     0.198 A 
ATOM     64  C   UNL A   1      42.241  24.395  26.405  1.00  0.00     0.198 A 
ATOM     65  F   UNL A   1      40.878  24.771  28.283  1.00  0.00    -0.203 F 
ATOM     66  F   UNL A   1      44.757  26.490  24.854  1.00  0.00    -0.200 F 
ATOM     67  C   UNL A   1      43.227  24.824  25.530  1.00  0.00     0.200 A 
ATOM     68  F   UNL A   1      41.674  23.192  26.237  1.00  0.00    -0.200 F 
ATOM     69  F   UNL A   1      43.601  24.045  24.506  1.00  0.00    -0.200 F 
ENDBRANCH  45  59
BRANCH  46  70
ATOM     70  C   UNL A   1      39.259  32.083  35.239  1.00  0.00     0.064 A 
ATOM     71  C   UNL A   1      38.471  31.537  36.261  1.00  0.00     0.173 A 
ATOM     72  C   UNL A   1      39.618  33.436  35.338  1.00  0.00     0.173 A 
ATOM     73  F   UNL A   1      38.081  30.256  36.192  1.00  0.00    -0.203 F 
ATOM     74  C   UNL A   1      38.063  32.312  37.343  1.00  0.00     0.198 A 
ATOM     75  C   UNL A   1      39.232  34.201  36.435  1.00  0.00     0.198 A 
ATOM     76  F   UNL A   1      40.370  34.002  34.383  1.00  0.00    -0.203 F 
ATOM     77  F   UNL A   1      37.290  31.773  38.296  1.00  0.00    -0.200 F 
ATOM     78  C   UNL A   1      38.454  33.640  37.435  1.00  0.00     0.200 A 
ATOM     79  F   UNL A   1      39.622  35.480  36.526  1.00  0.00    -0.200 F 
ATOM     80  F   UNL A   1      38.077  34.380  38.487  1.00  0.00    -0.200 F 
ENDBRANCH  46  70
BRANCH  58  81
ATOM     81  C   UNL A   1      44.551  27.639  34.461  1.00  0.00     0.064 A 
ATOM     82  C   UNL A   1      44.399  26.515  35.285  1.00  0.00     0.173 A 
ATOM     83  C   UNL A   1      45.763  28.340  34.515  1.00  0.00     0.173 A 
ATOM     84  F   UNL A   1      43.250  25.823  35.278  1.00  0.00    -0.203 F 
ATOM     85  C   UNL A   1      45.418  26.122  36.150  1.00  0.00     0.198 A 
ATOM     86  C   UNL A   1      46.786  27.934  35.368  1.00  0.00     0.198 A 
ATOM     87  F   UNL A   1      45.955  29.421  33.744  1.00  0.00    -0.203 F 
ATOM     88  F   UNL A   1      45.238  25.070  36.960  1.00  0.00    -0.200 F 
ATOM     89  C   UNL A   1      46.611  26.829  36.188  1.00  0.00     0.200 A 
ATOM     90  F   UNL A   1      47.940  28.615  35.400  1.00  0.00    -0.200 F 
ATOM     91  F   UNL A   1      47.587  26.453  37.025  1.00  0.00    -0.200 F 
ENDBRANCH  58  81
ENDBRANCH  32  33
ENDBRANCH  25  27
ENDBRANCH  24  25
ENDBRANCH  23  24
ENDBRANCH   1  23
TORSDOF 17
ENDMDL
