MODEL 1
REMARK VINA RESULT:     -10.4      0.000      0.000
REMARK SMILES [N-]=[N+]=NC[C@H](NC=O)C(=O)OCCOC(=O)c1ccc(-c2c3nc(c(-c4c(F)c(F)c(F)c(F)c4F)c4ccc([nH]4)c(-c4c(F)c(F)c(F)c(F)c4F)c4nc(c(-c5c(F)c(F)c(F)c(F)c5F)c5ccc2[nH]5)C=C4)C=C3)cc1
REMARK SMILES IDX 12 1 11 2 9 3 10 4 5 5 4 6 3 7 1 8 2 9 6 10 7 11 8 13 13 14
REMARK SMILES IDX 14 15 15 16 16 17 17 18 18 19 79 20 19 21 78 22 20 23 21 24
REMARK SMILES IDX 22 25 72 26 23 27 77 28 71 29 73 30 24 31 76 32 70 33 69 34
REMARK SMILES IDX 25 36 57 37 37 38 56 39 38 40 41 41 55 42 74 43 39 44 40 45
REMARK SMILES IDX 54 47 75 48 42 49 26 50 27 51 35 52 28 53 29 54 33 55 36 56
REMARK SMILES IDX 30 57 31 58 34 59 32 60 58 61 59 62 67 63 60 64 61 65 65 66
REMARK SMILES IDX 68 67 62 68 63 69 66 70 64 71 43 72 44 73 52 74 45 75 46 76
REMARK SMILES IDX 50 77 53 78 47 79 48 80 51 81 49 82
REMARK H PARENT 6 12 73 35 41 46
REMARK Flexibility Score: inf
ROOT
ATOM      1  C   UNL A   1      42.688  20.065  26.309  1.00  0.00     0.274 C 
ENDROOT
BRANCH   1   2
ATOM      2  O   UNL A   1      43.248  20.567  25.081  1.00  0.00    -0.461 OA
BRANCH   2   3
ATOM      3  C   UNL A   1      43.546  21.898  25.032  1.00  0.00     0.328 C 
ATOM      4  O   UNL A   1      42.722  22.804  25.055  1.00  0.00    -0.250 OA
BRANCH   3   5
ATOM      5  C   UNL A   1      45.054  22.134  24.867  1.00  0.00     0.197 C 
BRANCH   5   6
ATOM      6  C   UNL A   1      45.782  20.887  24.339  1.00  0.00     0.127 C 
BRANCH   6   7
ATOM      7  N   UNL A   1      46.426  20.072  25.381  1.00  0.00    -0.091 NA
ATOM      8  N   UNL A   1      46.009  17.729  25.376  1.00  0.00    -0.003 NA
ATOM      9  N   UNL A   1      46.192  18.848  25.382  1.00  0.00     0.001 N 
ENDBRANCH   6   7
ENDBRANCH   5   6
BRANCH   5  10
ATOM     10  N   UNL A   1      45.686  22.653  26.080  1.00  0.00    -0.345 N 
ATOM     11  C   UNL A   1      46.686  23.585  26.070  1.00  0.00     0.337 C 
ATOM     12  H   UNL A   1      45.374  22.314  26.950  1.00  0.00     0.164 HD
ATOM     13  O   UNL A   1      47.160  24.078  27.081  1.00  0.00    -0.279 OA
ENDBRANCH   5  10
ENDBRANCH   3   5
ENDBRANCH   2   3
ENDBRANCH   1   2
BRANCH   1  14
ATOM     14  C   UNL A   1      41.241  19.601  26.119  1.00  0.00     0.275 C 
BRANCH  14  15
ATOM     15  O   UNL A   1      40.341  20.276  27.021  1.00  0.00    -0.458 OA
BRANCH  15  16
ATOM     16  C   UNL A   1      39.646  21.287  26.452  1.00  0.00     0.338 C 
ATOM     17  O   UNL A   1      38.734  21.193  25.647  1.00  0.00    -0.246 OA
BRANCH  16  18
ATOM     18  C   UNL A   1      40.010  22.574  27.060  1.00  0.00     0.060 A 
ATOM     19  C   UNL A   1      39.436  23.719  26.503  1.00  0.00     0.016 A 
ATOM     20  C   UNL A   1      40.993  22.680  28.042  1.00  0.00     0.016 A 
ATOM     21  C   UNL A   1      39.872  24.979  26.883  1.00  0.00     0.010 A 
ATOM     22  C   UNL A   1      41.429  23.952  28.433  1.00  0.00     0.010 A 
ATOM     23  C   UNL A   1      40.896  25.106  27.827  1.00  0.00    -0.014 A 
BRANCH  23  24
ATOM     24  C   UNL A   1      41.477  26.451  28.060  1.00  0.00     0.031 A 
ATOM     25  C   UNL A   1      42.844  26.770  27.520  1.00  0.00     0.074 A 
ATOM     26  C   UNL A   1      40.748  27.403  28.668  1.00  0.00     0.049 A 
ATOM     27  N   UNL A   1      43.537  27.876  27.615  1.00  0.00    -0.248 NA
ATOM     28  C   UNL A   1      43.522  25.700  26.771  1.00  0.00     0.031 C 
ATOM     29  C   UNL A   1      39.390  27.226  29.184  1.00  0.00     0.029 A 
ATOM     30  N   UNL A   1      41.042  28.715  28.945  1.00  0.00    -0.354 N 
ATOM     31  C   UNL A   1      44.738  27.627  26.963  1.00  0.00     0.074 A 
ATOM     32  C   UNL A   1      44.692  26.258  26.497  1.00  0.00     0.031 C 
ATOM     33  C   UNL A   1      38.965  28.388  29.705  1.00  0.00     0.029 A 
ATOM     34  C   UNL A   1      40.035  29.375  29.603  1.00  0.00     0.049 A 
ATOM     35  H   UNL A   1      41.894  29.141  28.695  1.00  0.00     0.167 HD
ATOM     36  C   UNL A   1      45.781  28.468  26.764  1.00  0.00     0.037 A 
ATOM     37  C   UNL A   1      39.992  30.631  30.088  1.00  0.00     0.037 A 
ATOM     38  C   UNL A   1      45.809  29.838  27.209  1.00  0.00     0.049 A 
ATOM     39  C   UNL A   1      41.184  31.530  29.889  1.00  0.00     0.074 A 
ATOM     40  C   UNL A   1      46.813  30.778  27.048  1.00  0.00     0.029 A 
ATOM     41  N   UNL A   1      44.782  30.465  27.899  1.00  0.00    -0.354 N 
ATOM     42  N   UNL A   1      42.315  31.286  29.274  1.00  0.00    -0.248 NA
ATOM     43  C   UNL A   1      41.087  32.885  30.450  1.00  0.00     0.031 C 
ATOM     44  C   UNL A   1      46.414  31.957  27.687  1.00  0.00     0.029 A 
ATOM     45  C   UNL A   1      45.136  31.774  28.190  1.00  0.00     0.049 A 
ATOM     46  H   UNL A   1      43.928  30.043  28.147  1.00  0.00     0.167 HD
ATOM     47  C   UNL A   1      43.052  32.461  29.346  1.00  0.00     0.074 A 
ATOM     48  C   UNL A   1      42.226  33.425  30.045  1.00  0.00     0.031 C 
ATOM     49  C   UNL A   1      44.299  32.722  28.880  1.00  0.00     0.037 A 
BRANCH  36  50
ATOM     50  C   UNL A   1      46.992  27.924  26.063  1.00  0.00     0.064 A 
ATOM     51  C   UNL A   1      47.068  27.839  24.665  1.00  0.00     0.173 A 
ATOM     52  C   UNL A   1      48.111  27.513  26.804  1.00  0.00     0.173 A 
ATOM     53  F   UNL A   1      46.022  28.205  23.909  1.00  0.00    -0.203 F 
ATOM     54  C   UNL A   1      48.208  27.341  24.037  1.00  0.00     0.198 A 
ATOM     55  C   UNL A   1      49.261  27.045  26.174  1.00  0.00     0.198 A 
ATOM     56  F   UNL A   1      48.095  27.576  28.145  1.00  0.00    -0.203 F 
ATOM     57  F   UNL A   1      48.240  27.225  22.702  1.00  0.00    -0.200 F 
ATOM     58  C   UNL A   1      49.306  26.952  24.791  1.00  0.00     0.200 A 
ATOM     59  F   UNL A   1      50.325  26.685  26.903  1.00  0.00    -0.200 F 
ATOM     60  F   UNL A   1      50.405  26.483  24.185  1.00  0.00    -0.200 F 
ENDBRANCH  36  50
BRANCH  37  61
ATOM     61  C   UNL A   1      38.791  31.108  30.823  1.00  0.00     0.064 A 
ATOM     62  C   UNL A   1      37.742  31.761  30.159  1.00  0.00     0.173 A 
ATOM     63  C   UNL A   1      38.682  30.951  32.213  1.00  0.00     0.173 A 
ATOM     64  F   UNL A   1      37.809  31.957  28.834  1.00  0.00    -0.203 F 
ATOM     65  C   UNL A   1      36.648  32.263  30.860  1.00  0.00     0.198 A 
ATOM     66  C   UNL A   1      37.570  31.422  32.907  1.00  0.00     0.198 A 
ATOM     67  F   UNL A   1      39.655  30.332  32.898  1.00  0.00    -0.203 F 
ATOM     68  F   UNL A   1      35.690  32.936  30.207  1.00  0.00    -0.200 F 
ATOM     69  C   UNL A   1      36.560  32.089  32.232  1.00  0.00     0.200 A 
ATOM     70  F   UNL A   1      37.483  31.237  34.232  1.00  0.00    -0.200 F 
ATOM     71  F   UNL A   1      35.508  32.573  32.906  1.00  0.00    -0.200 F 
ENDBRANCH  37  61
BRANCH  49  72
ATOM     72  C   UNL A   1      44.821  34.118  29.068  1.00  0.00     0.064 A 
ATOM     73  C   UNL A   1      44.595  35.128  28.120  1.00  0.00     0.173 A 
ATOM     74  C   UNL A   1      45.552  34.452  30.219  1.00  0.00     0.173 A 
ATOM     75  F   UNL A   1      43.913  34.859  26.996  1.00  0.00    -0.203 F 
ATOM     76  C   UNL A   1      45.123  36.405  28.294  1.00  0.00     0.198 A 
ATOM     77  C   UNL A   1      46.045  35.740  30.407  1.00  0.00     0.198 A 
ATOM     78  F   UNL A   1      45.788  33.529  31.162  1.00  0.00    -0.203 F 
ATOM     79  F   UNL A   1      44.955  37.332  27.341  1.00  0.00    -0.200 F 
ATOM     80  C   UNL A   1      45.842  36.711  29.439  1.00  0.00     0.200 A 
ATOM     81  F   UNL A   1      46.725  36.037  31.523  1.00  0.00    -0.200 F 
ATOM     82  F   UNL A   1      46.351  37.939  29.605  1.00  0.00    -0.200 F 
ENDBRANCH  49  72
ENDBRANCH  23  24
ENDBRANCH  16  18
ENDBRANCH  15  16
ENDBRANCH  14  15
ENDBRANCH   1  14
TORSDOF 14
ENDMDL
MODEL 2
REMARK VINA RESULT:     -10.1      6.487     12.796
REMARK SMILES [N-]=[N+]=NC[C@H](NC=O)C(=O)OCCOC(=O)c1ccc(-c2c3nc(c(-c4c(F)c(F)c(F)c(F)c4F)c4ccc([nH]4)c(-c4c(F)c(F)c(F)c(F)c4F)c4nc(c(-c5c(F)c(F)c(F)c(F)c5F)c5ccc2[nH]5)C=C4)C=C3)cc1
REMARK SMILES IDX 12 1 11 2 9 3 10 4 5 5 4 6 3 7 1 8 2 9 6 10 7 11 8 13 13 14
REMARK SMILES IDX 14 15 15 16 16 17 17 18 18 19 79 20 19 21 78 22 20 23 21 24
REMARK SMILES IDX 22 25 72 26 23 27 77 28 71 29 73 30 24 31 76 32 70 33 69 34
REMARK SMILES IDX 25 36 57 37 37 38 56 39 38 40 41 41 55 42 74 43 39 44 40 45
REMARK SMILES IDX 54 47 75 48 42 49 26 50 27 51 35 52 28 53 29 54 33 55 36 56
REMARK SMILES IDX 30 57 31 58 34 59 32 60 58 61 59 62 67 63 60 64 61 65 65 66
REMARK SMILES IDX 68 67 62 68 63 69 66 70 64 71 43 72 44 73 52 74 45 75 46 76
REMARK SMILES IDX 50 77 53 78 47 79 48 80 51 81 49 82
REMARK H PARENT 6 12 73 35 41 46
REMARK Flexibility Score: inf
ROOT
ATOM      1  C   UNL A   1      33.275  35.211  28.886  1.00  0.00     0.274 C 
ENDROOT
BRANCH   1   2
ATOM      2  O   UNL A   1      32.689  35.199  30.202  1.00  0.00    -0.461 OA
BRANCH   2   3
ATOM      3  C   UNL A   1      32.718  36.370  30.904  1.00  0.00     0.328 C 
ATOM      4  O   UNL A   1      32.944  37.473  30.424  1.00  0.00    -0.250 OA
BRANCH   3   5
ATOM      5  C   UNL A   1      32.505  36.132  32.407  1.00  0.00     0.197 C 
BRANCH   5   6
ATOM      6  C   UNL A   1      33.315  34.932  32.924  1.00  0.00     0.127 C 
BRANCH   6   7
ATOM      7  N   UNL A   1      34.677  35.265  33.372  1.00  0.00    -0.091 NA
ATOM      8  N   UNL A   1      35.655  33.906  35.063  1.00  0.00    -0.003 NA
ATOM      9  N   UNL A   1      35.178  34.559  34.267  1.00  0.00     0.001 N 
ENDBRANCH   6   7
ENDBRANCH   5   6
BRANCH   5  10
ATOM     10  N   UNL A   1      31.092  36.026  32.772  1.00  0.00    -0.345 N 
ATOM     11  C   UNL A   1      30.491  36.831  33.699  1.00  0.00     0.337 C 
ATOM     12  H   UNL A   1      30.545  35.339  32.327  1.00  0.00     0.164 HD
ATOM     13  O   UNL A   1      29.296  36.798  33.948  1.00  0.00    -0.279 OA
ENDBRANCH   5  10
ENDBRANCH   3   5
ENDBRANCH   2   3
ENDBRANCH   1   2
BRANCH   1  14
ATOM     14  C   UNL A   1      32.744  34.061  28.024  1.00  0.00     0.275 C 
BRANCH  14  15
ATOM     15  O   UNL A   1      33.811  33.365  27.349  1.00  0.00    -0.458 OA
BRANCH  15  16
ATOM     16  C   UNL A   1      33.788  32.023  27.519  1.00  0.00     0.338 C 
ATOM     17  O   UNL A   1      32.867  31.264  27.268  1.00  0.00    -0.246 OA
BRANCH  16  18
ATOM     18  C   UNL A   1      35.116  31.526  27.904  1.00  0.00     0.060 A 
ATOM     19  C   UNL A   1      35.205  30.180  28.264  1.00  0.00     0.016 A 
ATOM     20  C   UNL A   1      36.211  32.374  28.057  1.00  0.00     0.016 A 
ATOM     21  C   UNL A   1      36.369  29.678  28.825  1.00  0.00     0.010 A 
ATOM     22  C   UNL A   1      37.390  31.867  28.616  1.00  0.00     0.010 A 
ATOM     23  C   UNL A   1      37.462  30.525  29.038  1.00  0.00    -0.014 A 
BRANCH  23  24
ATOM     24  C   UNL A   1      38.611  30.011  29.821  1.00  0.00     0.031 A 
ATOM     25  C   UNL A   1      38.798  30.463  31.243  1.00  0.00     0.074 A 
ATOM     26  C   UNL A   1      39.422  29.078  29.292  1.00  0.00     0.049 A 
ATOM     27  N   UNL A   1      39.735  30.144  32.099  1.00  0.00    -0.248 NA
ATOM     28  C   UNL A   1      37.796  31.402  31.773  1.00  0.00     0.031 C 
ATOM     29  C   UNL A   1      39.304  28.523  27.944  1.00  0.00     0.029 A 
ATOM     30  N   UNL A   1      40.500  28.422  29.831  1.00  0.00    -0.354 N 
ATOM     31  C   UNL A   1      39.450  30.859  33.256  1.00  0.00     0.074 A 
ATOM     32  C   UNL A   1      38.269  31.649  32.986  1.00  0.00     0.031 C 
ATOM     33  C   UNL A   1      40.265  27.603  27.764  1.00  0.00     0.029 A 
ATOM     34  C   UNL A   1      41.093  27.538  28.964  1.00  0.00     0.049 A 
ATOM     35  H   UNL A   1      40.818  28.571  30.751  1.00  0.00     0.167 HD
ATOM     36  C   UNL A   1      40.111  30.850  34.439  1.00  0.00     0.037 A 
ATOM     37  C   UNL A   1      42.195  26.779  29.116  1.00  0.00     0.037 A 
ATOM     38  C   UNL A   1      41.272  30.041  34.708  1.00  0.00     0.049 A 
ATOM     39  C   UNL A   1      42.934  26.822  30.428  1.00  0.00     0.074 A 
ATOM     40  C   UNL A   1      42.008  29.949  35.877  1.00  0.00     0.029 A 
ATOM     41  N   UNL A   1      41.863  29.179  33.796  1.00  0.00    -0.354 N 
ATOM     42  N   UNL A   1      42.660  27.502  31.514  1.00  0.00    -0.248 NA
ATOM     43  C   UNL A   1      44.136  25.984  30.534  1.00  0.00     0.031 C 
ATOM     44  C   UNL A   1      43.076  29.072  35.654  1.00  0.00     0.029 A 
ATOM     45  C   UNL A   1      42.968  28.567  34.368  1.00  0.00     0.049 A 
ATOM     46  H   UNL A   1      41.545  29.025  32.877  1.00  0.00     0.167 HD
ATOM     47  C   UNL A   1      43.633  27.153  32.442  1.00  0.00     0.074 A 
ATOM     48  C   UNL A   1      44.491  26.181  31.795  1.00  0.00     0.031 C 
ATOM     49  C   UNL A   1      43.806  27.596  33.712  1.00  0.00     0.037 A 
BRANCH  36  50
ATOM     50  C   UNL A   1      39.615  31.765  35.521  1.00  0.00     0.064 A 
ATOM     51  C   UNL A   1      40.078  33.083  35.650  1.00  0.00     0.173 A 
ATOM     52  C   UNL A   1      38.634  31.326  36.423  1.00  0.00     0.173 A 
ATOM     53  F   UNL A   1      41.026  33.550  34.824  1.00  0.00    -0.203 F 
ATOM     54  C   UNL A   1      39.594  33.918  36.656  1.00  0.00     0.198 A 
ATOM     55  C   UNL A   1      38.130  32.171  37.407  1.00  0.00     0.198 A 
ATOM     56  F   UNL A   1      38.153  30.075  36.343  1.00  0.00    -0.203 F 
ATOM     57  F   UNL A   1      40.085  35.158  36.790  1.00  0.00    -0.200 F 
ATOM     58  C   UNL A   1      38.616  33.464  37.528  1.00  0.00     0.200 A 
ATOM     59  F   UNL A   1      37.174  31.735  38.239  1.00  0.00    -0.200 F 
ATOM     60  F   UNL A   1      38.144  34.271  38.488  1.00  0.00    -0.200 F 
ENDBRANCH  36  50
BRANCH  37  61
ATOM     61  C   UNL A   1      42.679  25.929  27.996  1.00  0.00     0.064 A 
ATOM     62  C   UNL A   1      43.553  26.434  27.024  1.00  0.00     0.173 A 
ATOM     63  C   UNL A   1      42.248  24.600  27.858  1.00  0.00     0.173 A 
ATOM     64  F   UNL A   1      43.975  27.705  27.099  1.00  0.00    -0.203 F 
ATOM     65  C   UNL A   1      43.954  25.654  25.941  1.00  0.00     0.198 A 
ATOM     66  C   UNL A   1      42.678  23.811  26.793  1.00  0.00     0.198 A 
ATOM     67  F   UNL A   1      41.413  24.066  28.760  1.00  0.00    -0.203 F 
ATOM     68  F   UNL A   1      44.741  26.182  24.994  1.00  0.00    -0.200 F 
ATOM     69  C   UNL A   1      43.520  24.342  25.829  1.00  0.00     0.200 A 
ATOM     70  F   UNL A   1      42.268  22.538  26.698  1.00  0.00    -0.200 F 
ATOM     71  F   UNL A   1      43.905  23.593  24.787  1.00  0.00    -0.200 F 
ENDBRANCH  37  61
BRANCH  49  72
ATOM     72  C   UNL A   1      44.935  26.993  34.498  1.00  0.00     0.064 A 
ATOM     73  C   UNL A   1      44.770  25.824  35.257  1.00  0.00     0.173 A 
ATOM     74  C   UNL A   1      46.205  27.593  34.487  1.00  0.00     0.173 A 
ATOM     75  F   UNL A   1      43.574  25.219  35.312  1.00  0.00    -0.203 F 
ATOM     76  C   UNL A   1      45.819  25.305  36.011  1.00  0.00     0.198 A 
ATOM     77  C   UNL A   1      47.261  27.049  35.211  1.00  0.00     0.198 A 
ATOM     78  F   UNL A   1      46.421  28.706  33.771  1.00  0.00    -0.203 F 
ATOM     79  F   UNL A   1      45.618  24.229  36.784  1.00  0.00    -0.200 F 
ATOM     80  C   UNL A   1      47.065  25.915  35.983  1.00  0.00     0.200 A 
ATOM     81  F   UNL A   1      48.468  27.630  35.170  1.00  0.00    -0.200 F 
ATOM     82  F   UNL A   1      48.073  25.416  36.712  1.00  0.00    -0.200 F 
ENDBRANCH  49  72
ENDBRANCH  23  24
ENDBRANCH  16  18
ENDBRANCH  15  16
ENDBRANCH  14  15
ENDBRANCH   1  14
TORSDOF 14
ENDMDL
MODEL 3
REMARK VINA RESULT:     -10.0      0.618      7.794
REMARK SMILES [N-]=[N+]=NC[C@H](NC=O)C(=O)OCCOC(=O)c1ccc(-c2c3nc(c(-c4c(F)c(F)c(F)c(F)c4F)c4ccc([nH]4)c(-c4c(F)c(F)c(F)c(F)c4F)c4nc(c(-c5c(F)c(F)c(F)c(F)c5F)c5ccc2[nH]5)C=C4)C=C3)cc1
REMARK SMILES IDX 12 1 11 2 9 3 10 4 5 5 4 6 3 7 1 8 2 9 6 10 7 11 8 13 13 14
REMARK SMILES IDX 14 15 15 16 16 17 17 18 18 19 79 20 19 21 78 22 20 23 21 24
REMARK SMILES IDX 22 25 72 26 23 27 77 28 71 29 73 30 24 31 76 32 70 33 69 34
REMARK SMILES IDX 25 36 57 37 37 38 56 39 38 40 41 41 55 42 74 43 39 44 40 45
REMARK SMILES IDX 54 47 75 48 42 49 26 50 27 51 35 52 28 53 29 54 33 55 36 56
REMARK SMILES IDX 30 57 31 58 34 59 32 60 58 61 59 62 67 63 60 64 61 65 65 66
REMARK SMILES IDX 68 67 62 68 63 69 66 70 64 71 43 72 44 73 52 74 45 75 46 76
REMARK SMILES IDX 50 77 53 78 47 79 48 80 51 81 49 82
REMARK H PARENT 6 12 73 35 41 46
REMARK Flexibility Score: inf
ROOT
ATOM      1  C   UNL A   1      42.299  19.818  26.218  1.00  0.00     0.274 C 
ENDROOT
BRANCH   1   2
ATOM      2  O   UNL A   1      42.633  20.939  25.376  1.00  0.00    -0.461 OA
BRANCH   2   3
ATOM      3  C   UNL A   1      43.689  21.713  25.763  1.00  0.00     0.328 C 
ATOM      4  O   UNL A   1      43.842  22.185  26.882  1.00  0.00    -0.250 OA
BRANCH   3   5
ATOM      5  C   UNL A   1      44.644  21.991  24.593  1.00  0.00     0.197 C 
BRANCH   5   6
ATOM      6  C   UNL A   1      45.482  20.757  24.222  1.00  0.00     0.127 C 
BRANCH   6   7
ATOM      7  N   UNL A   1      46.111  20.082  25.369  1.00  0.00    -0.091 NA
ATOM      8  N   UNL A   1      46.141  17.702  25.378  1.00  0.00    -0.003 NA
ATOM      9  N   UNL A   1      46.111  18.836  25.375  1.00  0.00     0.001 N 
ENDBRANCH   6   7
ENDBRANCH   5   6
BRANCH   5  10
ATOM     10  N   UNL A   1      45.485  23.168  24.811  1.00  0.00    -0.345 N 
ATOM     11  C   UNL A   1      46.617  23.431  24.092  1.00  0.00     0.337 C 
ATOM     12  H   UNL A   1      45.221  23.806  25.514  1.00  0.00     0.164 HD
ATOM     13  O   UNL A   1      47.276  24.450  24.217  1.00  0.00    -0.279 OA
ENDBRANCH   5  10
ENDBRANCH   3   5
ENDBRANCH   2   3
ENDBRANCH   1   2
BRANCH   1  14
ATOM     14  C   UNL A   1      40.798  19.515  26.182  1.00  0.00     0.275 C 
BRANCH  14  15
ATOM     15  O   UNL A   1      40.055  20.399  27.045  1.00  0.00    -0.458 OA
BRANCH  15  16
ATOM     16  C   UNL A   1      39.434  21.410  26.396  1.00  0.00     0.338 C 
ATOM     17  O   UNL A   1      38.542  21.317  25.569  1.00  0.00    -0.246 OA
BRANCH  16  18
ATOM     18  C   UNL A   1      39.851  22.710  26.939  1.00  0.00     0.060 A 
ATOM     19  C   UNL A   1      39.405  23.848  26.265  1.00  0.00     0.016 A 
ATOM     20  C   UNL A   1      40.771  22.819  27.980  1.00  0.00     0.016 A 
ATOM     21  C   UNL A   1      39.907  25.099  26.588  1.00  0.00     0.010 A 
ATOM     22  C   UNL A   1      41.274  24.083  28.314  1.00  0.00     0.010 A 
ATOM     23  C   UNL A   1      40.872  25.223  27.594  1.00  0.00    -0.014 A 
BRANCH  23  24
ATOM     24  C   UNL A   1      41.535  26.538  27.775  1.00  0.00     0.031 A 
ATOM     25  C   UNL A   1      40.827  27.625  28.535  1.00  0.00     0.074 A 
ATOM     26  C   UNL A   1      42.795  26.721  27.343  1.00  0.00     0.049 A 
ATOM     27  N   UNL A   1      41.221  28.844  28.802  1.00  0.00    -0.248 NA
ATOM     28  C   UNL A   1      39.495  27.295  29.067  1.00  0.00     0.031 C 
ATOM     29  C   UNL A   1      43.601  25.721  26.643  1.00  0.00     0.029 A 
ATOM     30  N   UNL A   1      43.624  27.810  27.440  1.00  0.00    -0.354 N 
ATOM     31  C   UNL A   1      40.180  29.432  29.509  1.00  0.00     0.074 A 
ATOM     32  C   UNL A   1      39.125  28.447  29.608  1.00  0.00     0.031 C 
ATOM     33  C   UNL A   1      44.813  26.239  26.382  1.00  0.00     0.029 A 
ATOM     34  C   UNL A   1      44.851  27.620  26.854  1.00  0.00     0.049 A 
ATOM     35  H   UNL A   1      43.364  28.648  27.888  1.00  0.00     0.167 HD
ATOM     36  C   UNL A   1      40.114  30.679  30.034  1.00  0.00     0.037 A 
ATOM     37  C   UNL A   1      45.880  28.474  26.697  1.00  0.00     0.037 A 
ATOM     38  C   UNL A   1      41.179  31.646  29.952  1.00  0.00     0.049 A 
ATOM     39  C   UNL A   1      45.761  29.869  27.254  1.00  0.00     0.074 A 
ATOM     40  C   UNL A   1      41.217  32.933  30.461  1.00  0.00     0.029 A 
ATOM     41  N   UNL A   1      42.397  31.428  29.325  1.00  0.00    -0.354 N 
ATOM     42  N   UNL A   1      44.774  30.417  27.918  1.00  0.00    -0.248 NA
ATOM     43  C   UNL A   1      46.909  30.762  27.043  1.00  0.00     0.031 C 
ATOM     44  C   UNL A   1      42.438  33.512  30.095  1.00  0.00     0.029 A 
ATOM     45  C   UNL A   1      43.186  32.565  29.415  1.00  0.00     0.049 A 
ATOM     46  H   UNL A   1      42.662  30.591  28.880  1.00  0.00     0.167 HD
ATOM     47  C   UNL A   1      45.189  31.705  28.230  1.00  0.00     0.074 A 
ATOM     48  C   UNL A   1      46.531  31.846  27.702  1.00  0.00     0.031 C 
ATOM     49  C   UNL A   1      44.523  32.685  28.890  1.00  0.00     0.037 A 
BRANCH  36  50
ATOM     50  C   UNL A   1      38.838  31.083  30.714  1.00  0.00     0.064 A 
ATOM     51  C   UNL A   1      37.735  31.571  29.997  1.00  0.00     0.173 A 
ATOM     52  C   UNL A   1      38.704  30.945  32.104  1.00  0.00     0.173 A 
ATOM     53  F   UNL A   1      37.812  31.736  28.668  1.00  0.00    -0.203 F 
ATOM     54  C   UNL A   1      36.556  31.929  30.650  1.00  0.00     0.198 A 
ATOM     55  C   UNL A   1      37.516  31.274  32.750  1.00  0.00     0.198 A 
ATOM     56  F   UNL A   1      39.727  30.480  32.839  1.00  0.00    -0.203 F 
ATOM     57  F   UNL A   1      35.532  32.437  29.950  1.00  0.00    -0.200 F 
ATOM     58  C   UNL A   1      36.445  31.772  32.023  1.00  0.00     0.200 A 
ATOM     59  F   UNL A   1      37.405  31.108  34.074  1.00  0.00    -0.200 F 
ATOM     60  F   UNL A   1      35.308  32.106  32.648  1.00  0.00    -0.200 F 
ENDBRANCH  36  50
BRANCH  37  61
ATOM     61  C   UNL A   1      47.103  28.045  25.969  1.00  0.00     0.064 A 
ATOM     62  C   UNL A   1      47.125  27.961  24.569  1.00  0.00     0.173 A 
ATOM     63  C   UNL A   1      48.268  27.679  26.661  1.00  0.00     0.173 A 
ATOM     64  F   UNL A   1      46.031  28.278  23.862  1.00  0.00    -0.203 F 
ATOM     65  C   UNL A   1      48.253  27.498  23.894  1.00  0.00     0.198 A 
ATOM     66  C   UNL A   1      49.406  27.250  25.982  1.00  0.00     0.198 A 
ATOM     67  F   UNL A   1      48.302  27.743  28.000  1.00  0.00    -0.203 F 
ATOM     68  F   UNL A   1      48.224  27.369  22.560  1.00  0.00    -0.200 F 
ATOM     69  C   UNL A   1      49.394  27.148  24.599  1.00  0.00     0.200 A 
ATOM     70  F   UNL A   1      50.511  26.928  26.668  1.00  0.00    -0.200 F 
ATOM     71  F   UNL A   1      50.476  26.702  23.949  1.00  0.00    -0.200 F 
ENDBRANCH  37  61
BRANCH  49  72
ATOM     72  C   UNL A   1      45.258  33.975  29.121  1.00  0.00     0.064 A 
ATOM     73  C   UNL A   1      46.086  34.168  30.238  1.00  0.00     0.173 A 
ATOM     74  C   UNL A   1      45.136  35.032  28.206  1.00  0.00     0.173 A 
ATOM     75  F   UNL A   1      46.226  33.193  31.150  1.00  0.00    -0.203 F 
ATOM     76  C   UNL A   1      46.725  35.385  30.454  1.00  0.00     0.198 A 
ATOM     77  C   UNL A   1      45.808  36.235  28.405  1.00  0.00     0.198 A 
ATOM     78  F   UNL A   1      44.366  34.899  27.116  1.00  0.00    -0.203 F 
ATOM     79  F   UNL A   1      47.453  35.570  31.564  1.00  0.00    -0.200 F 
ATOM     80  C   UNL A   1      46.590  36.415  29.535  1.00  0.00     0.200 A 
ATOM     81  F   UNL A   1      45.689  37.223  27.508  1.00  0.00    -0.200 F 
ATOM     82  F   UNL A   1      47.204  37.588  29.746  1.00  0.00    -0.200 F 
ENDBRANCH  49  72
ENDBRANCH  23  24
ENDBRANCH  16  18
ENDBRANCH  15  16
ENDBRANCH  14  15
ENDBRANCH   1  14
TORSDOF 14
ENDMDL
