MODEL 1
REMARK VINA RESULT:     -13.1      0.000      0.000
REMARK SMILES CCOC(=O)c1c(NC(=O)c2ncccc2C(=O)OCCOC(=O)c2ccc(-c3c4nc(c(-c5c(F)c(F)c(F)c(F)c5F)c5ccc([nH]5)c(-c5c(F)c(F)c(F)c(F)c5F)c5nc(c(-c6c(F)c(F)c(F)c(F)c6F)c6ccc3[nH]6)C=C5)C=C4)cc2)sc2c1CC[C@H](C)C2
REMARK SMILES IDX 19 1 17 2 18 3 16 4 11 5 12 6 13 7 15 8 14 9 9 10 8 11 10 13
REMARK SMILES IDX 7 14 6 15 90 16 88 17 89 18 91 19 95 20 92 21 93 22 94 23
REMARK SMILES IDX 4 24 5 25 3 26 2 27 1 28 20 29 21 30 22 31 23 32 24 33 25 34
REMARK SMILES IDX 26 35 87 36 27 37 86 38 28 39 29 40 30 41 80 42 31 43 85 44
REMARK SMILES IDX 79 45 81 46 32 47 84 48 78 49 77 50 33 52 65 53 45 54 64 55
REMARK SMILES IDX 46 56 49 57 63 58 82 59 47 60 48 61 62 63 83 64 50 65 34 66
REMARK SMILES IDX 35 67 43 68 36 69 37 70 41 71 44 72 38 73 39 74 42 75 40 76
REMARK SMILES IDX 66 77 67 78 75 79 68 80 69 81 73 82 76 83 70 84 71 85 74 86
REMARK SMILES IDX 72 87 51 88 52 89 60 90 53 91 54 92 58 93 61 94 55 95 56 96
REMARK SMILES IDX 59 97 57 98
REMARK H PARENT 8 12 81 51 49 62
REMARK Flexibility Score: inf
ROOT
ATOM      1  O   UNL A   1      33.139  29.053  25.832  1.00  0.00    -0.458 OA
ENDROOT
BRANCH   1   2
ATOM      2  C   UNL A   1      31.923  28.621  26.224  1.00  0.00     0.340 C 
ATOM      3  O   UNL A   1      31.589  28.269  27.345  1.00  0.00    -0.246 OA
BRANCH   2   4
ATOM      4  C   UNL A   1      31.059  28.356  25.082  1.00  0.00     0.091 A 
ATOM      5  C   UNL A   1      30.782  27.078  24.644  1.00  0.00     0.142 A 
ATOM      6  N   UNL A   1      30.528  26.797  23.325  1.00  0.00    -0.250 NA
ATOM      7  C   UNL A   1      30.451  27.834  22.464  1.00  0.00     0.112 A 
ATOM      8  C   UNL A   1      30.878  29.417  24.185  1.00  0.00     0.020 A 
ATOM      9  C   UNL A   1      30.539  29.153  22.861  1.00  0.00     0.021 A 
BRANCH   5  10
ATOM     10  C   UNL A   1      30.683  25.881  25.504  1.00  0.00     0.275 C 
ATOM     11  N   UNL A   1      31.704  24.980  25.717  1.00  0.00    -0.311 N 
ATOM     12  H   UNL A   1      31.540  24.421  26.511  1.00  0.00     0.171 HD
ATOM     13  O   UNL A   1      29.658  25.729  26.176  1.00  0.00    -0.267 OA
BRANCH  11  14
ATOM     14  C   UNL A   1      32.891  24.663  25.106  1.00  0.00     0.110 A 
ATOM     15  C   UNL A   1      33.448  24.057  23.992  1.00  0.00     0.098 A 
ATOM     16  C   UNL A   1      34.824  23.662  24.285  1.00  0.00    -0.017 A 
ATOM     17  S   UNL A   1      34.184  25.406  25.939  1.00  0.00    -0.122 S 
ATOM     18  C   UNL A   1      35.175  24.105  25.542  1.00  0.00     0.011 A 
ATOM     19  C   UNL A   1      35.860  22.988  23.430  1.00  0.00     0.038 C 
ATOM     20  C   UNL A   1      36.386  23.718  26.298  1.00  0.00     0.050 C 
ATOM     21  C   UNL A   1      37.148  22.593  24.222  1.00  0.00     0.008 C 
ATOM     22  C   UNL A   1      37.553  23.607  25.322  1.00  0.00    -0.009 C 
ATOM     23  C   UNL A   1      38.814  23.193  26.079  1.00  0.00     0.008 C 
BRANCH  15  24
ATOM     24  C   UNL A   1      32.764  23.991  22.725  1.00  0.00     0.341 C 
ATOM     25  O   UNL A   1      33.219  24.401  21.667  1.00  0.00    -0.246 OA
BRANCH  24  26
ATOM     26  O   UNL A   1      31.550  23.387  22.887  1.00  0.00    -0.462 OA
BRANCH  26  27
ATOM     27  C   UNL A   1      31.618  22.012  23.245  1.00  0.00     0.230 C 
ATOM     28  C   UNL A   1      32.050  21.128  22.105  1.00  0.00     0.049 C 
ENDBRANCH  26  27
ENDBRANCH  24  26
ENDBRANCH  15  24
ENDBRANCH  11  14
ENDBRANCH   5  10
ENDBRANCH   2   4
ENDBRANCH   1   2
BRANCH   1  29
ATOM     29  C   UNL A   1      33.796  29.885  26.809  1.00  0.00     0.275 C 
BRANCH  29  30
ATOM     30  C   UNL A   1      34.987  29.146  27.384  1.00  0.00     0.275 C 
BRANCH  30  31
ATOM     31  O   UNL A   1      36.270  29.798  27.324  1.00  0.00    -0.458 OA
BRANCH  31  32
ATOM     32  C   UNL A   1      37.139  29.702  28.352  1.00  0.00     0.338 C 
ATOM     33  O   UNL A   1      37.123  30.327  29.401  1.00  0.00    -0.246 OA
BRANCH  32  34
ATOM     34  C   UNL A   1      38.309  28.919  27.899  1.00  0.00     0.060 A 
ATOM     35  C   UNL A   1      38.514  27.667  28.482  1.00  0.00     0.016 A 
ATOM     36  C   UNL A   1      39.327  29.533  27.160  1.00  0.00     0.016 A 
ATOM     37  C   UNL A   1      39.810  27.175  28.563  1.00  0.00     0.010 A 
ATOM     38  C   UNL A   1      40.608  29.012  27.194  1.00  0.00     0.010 A 
ATOM     39  C   UNL A   1      40.876  27.896  27.990  1.00  0.00    -0.014 A 
BRANCH  39  40
ATOM     40  C   UNL A   1      42.223  27.302  27.973  1.00  0.00     0.031 A 
ATOM     41  C   UNL A   1      42.965  27.603  29.235  1.00  0.00     0.074 A 
ATOM     42  C   UNL A   1      42.618  26.403  27.039  1.00  0.00     0.049 A 
ATOM     43  N   UNL A   1      44.197  27.972  29.374  1.00  0.00    -0.248 NA
ATOM     44  C   UNL A   1      42.167  27.720  30.479  1.00  0.00     0.031 C 
ATOM     45  C   UNL A   1      41.939  26.029  25.807  1.00  0.00     0.029 A 
ATOM     46  N   UNL A   1      43.616  25.468  27.097  1.00  0.00    -0.354 N 
ATOM     47  C   UNL A   1      44.360  28.163  30.745  1.00  0.00     0.074 A 
ATOM     48  C   UNL A   1      43.050  28.256  31.316  1.00  0.00     0.031 C 
ATOM     49  C   UNL A   1      42.275  24.782  25.427  1.00  0.00     0.029 A 
ATOM     50  C   UNL A   1      43.351  24.348  26.284  1.00  0.00     0.049 A 
ATOM     51  H   UNL A   1      44.428  25.567  27.645  1.00  0.00     0.167 HD
ATOM     52  C   UNL A   1      45.535  27.871  31.358  1.00  0.00     0.037 A 
ATOM     53  C   UNL A   1      43.955  23.137  26.364  1.00  0.00     0.037 A 
ATOM     54  C   UNL A   1      46.637  27.988  30.442  1.00  0.00     0.049 A 
ATOM     55  C   UNL A   1      45.215  23.352  27.118  1.00  0.00     0.074 A 
ATOM     56  C   UNL A   1      47.153  29.032  29.699  1.00  0.00     0.029 A 
ATOM     57  N   UNL A   1      47.146  26.844  29.884  1.00  0.00    -0.354 N 
ATOM     58  N   UNL A   1      46.209  24.060  26.650  1.00  0.00    -0.248 NA
ATOM     59  C   UNL A   1      45.140  23.243  28.567  1.00  0.00     0.031 C 
ATOM     60  C   UNL A   1      47.545  28.448  28.461  1.00  0.00     0.029 A 
ATOM     61  C   UNL A   1      47.323  27.073  28.543  1.00  0.00     0.049 A 
ATOM     62  H   UNL A   1      47.348  26.006  30.361  1.00  0.00     0.167 HD
ATOM     63  C   UNL A   1      46.617  24.832  27.727  1.00  0.00     0.074 A 
ATOM     64  C   UNL A   1      45.950  24.255  28.892  1.00  0.00     0.031 C 
ATOM     65  C   UNL A   1      47.215  26.045  27.538  1.00  0.00     0.037 A 
BRANCH  52  66
ATOM     66  C   UNL A   1      45.589  27.077  32.645  1.00  0.00     0.064 A 
ATOM     67  C   UNL A   1      46.331  27.587  33.724  1.00  0.00     0.173 A 
ATOM     68  C   UNL A   1      45.193  25.722  32.773  1.00  0.00     0.173 A 
ATOM     69  F   UNL A   1      46.774  28.853  33.709  1.00  0.00    -0.203 F 
ATOM     70  C   UNL A   1      46.715  26.781  34.801  1.00  0.00     0.198 A 
ATOM     71  C   UNL A   1      45.530  24.939  33.871  1.00  0.00     0.198 A 
ATOM     72  F   UNL A   1      44.561  25.053  31.805  1.00  0.00    -0.203 F 
ATOM     73  F   UNL A   1      47.528  27.277  35.742  1.00  0.00    -0.200 F 
ATOM     74  C   UNL A   1      46.321  25.457  34.868  1.00  0.00     0.200 A 
ATOM     75  F   UNL A   1      45.150  23.653  33.903  1.00  0.00    -0.200 F 
ATOM     76  F   UNL A   1      46.744  24.667  35.863  1.00  0.00    -0.200 F 
ENDBRANCH  52  66
BRANCH  53  77
ATOM     77  C   UNL A   1      43.346  21.798  26.162  1.00  0.00     0.064 A 
ATOM     78  C   UNL A   1      43.936  20.847  25.315  1.00  0.00     0.173 A 
ATOM     79  C   UNL A   1      42.317  21.328  27.005  1.00  0.00     0.173 A 
ATOM     80  F   UNL A   1      44.949  21.200  24.511  1.00  0.00    -0.203 F 
ATOM     81  C   UNL A   1      43.536  19.505  25.324  1.00  0.00     0.198 A 
ATOM     82  C   UNL A   1      41.916  19.991  27.010  1.00  0.00     0.198 A 
ATOM     83  F   UNL A   1      41.741  22.137  27.906  1.00  0.00    -0.203 F 
ATOM     84  F   UNL A   1      44.159  18.615  24.539  1.00  0.00    -0.200 F 
ATOM     85  C   UNL A   1      42.534  19.075  26.179  1.00  0.00     0.200 A 
ATOM     86  F   UNL A   1      40.968  19.584  27.868  1.00  0.00    -0.200 F 
ATOM     87  F   UNL A   1      42.191  17.781  26.231  1.00  0.00    -0.200 F 
ENDBRANCH  53  77
BRANCH  65  88
ATOM     88  C   UNL A   1      47.598  26.428  26.134  1.00  0.00     0.064 A 
ATOM     89  C   UNL A   1      46.777  27.178  25.272  1.00  0.00     0.173 A 
ATOM     90  C   UNL A   1      48.906  26.168  25.708  1.00  0.00     0.173 A 
ATOM     91  F   UNL A   1      45.547  27.552  25.647  1.00  0.00    -0.203 F 
ATOM     92  C   UNL A   1      47.237  27.613  24.028  1.00  0.00     0.198 A 
ATOM     93  C   UNL A   1      49.374  26.633  24.482  1.00  0.00     0.198 A 
ATOM     94  F   UNL A   1      49.752  25.507  26.513  1.00  0.00    -0.203 F 
ATOM     95  F   UNL A   1      46.431  28.324  23.224  1.00  0.00    -0.200 F 
ATOM     96  C   UNL A   1      48.538  27.346  23.639  1.00  0.00     0.200 A 
ATOM     97  F   UNL A   1      50.648  26.416  24.133  1.00  0.00    -0.200 F 
ATOM     98  F   UNL A   1      48.996  27.801  22.464  1.00  0.00    -0.200 F 
ENDBRANCH  65  88
ENDBRANCH  39  40
ENDBRANCH  32  34
ENDBRANCH  31  32
ENDBRANCH  30  31
ENDBRANCH  29  30
ENDBRANCH   1  29
TORSDOF 16
ENDMDL
MODEL 2
REMARK VINA RESULT:     -13.0      6.069     10.878
REMARK SMILES CCOC(=O)c1c(NC(=O)c2ncccc2C(=O)OCCOC(=O)c2ccc(-c3c4nc(c(-c5c(F)c(F)c(F)c(F)c5F)c5ccc([nH]5)c(-c5c(F)c(F)c(F)c(F)c5F)c5nc(c(-c6c(F)c(F)c(F)c(F)c6F)c6ccc3[nH]6)C=C5)C=C4)cc2)sc2c1CC[C@H](C)C2
REMARK SMILES IDX 19 1 17 2 18 3 16 4 11 5 12 6 13 7 15 8 14 9 9 10 8 11 10 13
REMARK SMILES IDX 7 14 6 15 90 16 88 17 89 18 91 19 95 20 92 21 93 22 94 23
REMARK SMILES IDX 4 24 5 25 3 26 2 27 1 28 20 29 21 30 22 31 23 32 24 33 25 34
REMARK SMILES IDX 26 35 87 36 27 37 86 38 28 39 29 40 30 41 80 42 31 43 85 44
REMARK SMILES IDX 79 45 81 46 32 47 84 48 78 49 77 50 33 52 65 53 45 54 64 55
REMARK SMILES IDX 46 56 49 57 63 58 82 59 47 60 48 61 62 63 83 64 50 65 34 66
REMARK SMILES IDX 35 67 43 68 36 69 37 70 41 71 44 72 38 73 39 74 42 75 40 76
REMARK SMILES IDX 66 77 67 78 75 79 68 80 69 81 73 82 76 83 70 84 71 85 74 86
REMARK SMILES IDX 72 87 51 88 52 89 60 90 53 91 54 92 58 93 61 94 55 95 56 96
REMARK SMILES IDX 59 97 57 98
REMARK H PARENT 8 12 81 51 49 62
REMARK Flexibility Score: inf
ROOT
ATOM      1  O   UNL A   1      36.347  22.705  25.393  1.00  0.00    -0.458 OA
ENDROOT
BRANCH   1   2
ATOM      2  C   UNL A   1      35.749  22.674  24.185  1.00  0.00     0.340 C 
ATOM      3  O   UNL A   1      36.037  23.335  23.199  1.00  0.00    -0.246 OA
BRANCH   2   4
ATOM      4  C   UNL A   1      34.500  21.926  24.229  1.00  0.00     0.091 A 
ATOM      5  C   UNL A   1      33.284  22.496  23.918  1.00  0.00     0.142 A 
ATOM      6  N   UNL A   1      32.113  22.079  24.499  1.00  0.00    -0.250 NA
ATOM      7  C   UNL A   1      32.162  21.010  25.320  1.00  0.00     0.112 A 
ATOM      8  C   UNL A   1      34.505  20.762  25.009  1.00  0.00     0.020 A 
ATOM      9  C   UNL A   1      33.312  20.278  25.538  1.00  0.00     0.021 A 
BRANCH   5  10
ATOM     10  C   UNL A   1      33.070  23.568  22.925  1.00  0.00     0.275 C 
ATOM     11  N   UNL A   1      32.983  24.910  23.224  1.00  0.00    -0.311 N 
ATOM     12  H   UNL A   1      33.112  25.473  22.426  1.00  0.00     0.171 HD
ATOM     13  O   UNL A   1      33.085  23.265  21.727  1.00  0.00    -0.267 OA
BRANCH  11  14
ATOM     14  C   UNL A   1      32.763  25.664  24.349  1.00  0.00     0.110 A 
ATOM     15  C   UNL A   1      31.776  26.205  25.156  1.00  0.00     0.098 A 
ATOM     16  C   UNL A   1      32.325  27.326  25.916  1.00  0.00    -0.017 A 
ATOM     17  S   UNL A   1      34.242  25.933  25.160  1.00  0.00    -0.122 S 
ATOM     18  C   UNL A   1      33.678  27.434  25.672  1.00  0.00     0.011 A 
ATOM     19  C   UNL A   1      31.690  28.237  26.930  1.00  0.00     0.038 C 
ATOM     20  C   UNL A   1      34.549  28.564  26.062  1.00  0.00     0.050 C 
ATOM     21  C   UNL A   1      32.614  29.422  27.356  1.00  0.00     0.008 C 
ATOM     22  C   UNL A   1      34.118  29.056  27.439  1.00  0.00    -0.009 C 
ATOM     23  C   UNL A   1      34.996  30.236  27.857  1.00  0.00     0.008 C 
BRANCH  15  24
ATOM     24  C   UNL A   1      30.470  25.612  25.284  1.00  0.00     0.341 C 
ATOM     25  O   UNL A   1      29.967  25.260  26.341  1.00  0.00    -0.246 OA
BRANCH  24  26
ATOM     26  O   UNL A   1      29.881  25.522  24.055  1.00  0.00    -0.462 OA
BRANCH  26  27
ATOM     27  C   UNL A   1      28.831  26.455  23.834  1.00  0.00     0.230 C 
ATOM     28  C   UNL A   1      29.328  27.811  23.410  1.00  0.00     0.049 C 
ENDBRANCH  26  27
ENDBRANCH  24  26
ENDBRANCH  15  24
ENDBRANCH  11  14
ENDBRANCH   5  10
ENDBRANCH   2   4
ENDBRANCH   1   2
BRANCH   1  29
ATOM     29  C   UNL A   1      37.262  23.808  25.553  1.00  0.00     0.275 C 
BRANCH  29  30
ATOM     30  C   UNL A   1      38.453  23.363  26.377  1.00  0.00     0.275 C 
BRANCH  30  31
ATOM     31  O   UNL A   1      38.883  24.225  27.448  1.00  0.00    -0.458 OA
BRANCH  31  32
ATOM     32  C   UNL A   1      39.657  25.302  27.195  1.00  0.00     0.338 C 
ATOM     33  O   UNL A   1      40.673  25.346  26.518  1.00  0.00    -0.246 OA
BRANCH  32  34
ATOM     34  C   UNL A   1      39.252  26.390  28.111  1.00  0.00     0.060 A 
ATOM     35  C   UNL A   1      38.868  27.605  27.540  1.00  0.00     0.016 A 
ATOM     36  C   UNL A   1      39.541  26.307  29.478  1.00  0.00     0.016 A 
ATOM     37  C   UNL A   1      39.051  28.771  28.272  1.00  0.00     0.010 A 
ATOM     38  C   UNL A   1      39.668  27.467  30.222  1.00  0.00     0.010 A 
ATOM     39  C   UNL A   1      39.536  28.707  29.593  1.00  0.00    -0.014 A 
BRANCH  39  40
ATOM     40  C   UNL A   1      39.605  29.938  30.397  1.00  0.00     0.031 A 
ATOM     41  C   UNL A   1      40.941  30.595  30.272  1.00  0.00     0.074 A 
ATOM     42  C   UNL A   1      38.514  30.505  30.966  1.00  0.00     0.049 A 
ATOM     43  N   UNL A   1      41.674  31.113  31.204  1.00  0.00    -0.248 NA
ATOM     44  C   UNL A   1      41.644  30.458  28.973  1.00  0.00     0.031 C 
ATOM     45  C   UNL A   1      37.175  29.949  31.097  1.00  0.00     0.029 A 
ATOM     46  N   UNL A   1      38.313  31.800  31.362  1.00  0.00    -0.354 N 
ATOM     47  C   UNL A   1      42.830  31.540  30.553  1.00  0.00     0.074 A 
ATOM     48  C   UNL A   1      42.864  30.884  29.281  1.00  0.00     0.031 C 
ATOM     49  C   UNL A   1      36.250  30.924  31.176  1.00  0.00     0.029 A 
ATOM     50  C   UNL A   1      36.955  32.175  31.306  1.00  0.00     0.049 A 
ATOM     51  H   UNL A   1      39.035  32.402  31.655  1.00  0.00     0.167 HD
ATOM     52  C   UNL A   1      43.479  32.665  30.947  1.00  0.00     0.037 A 
ATOM     53  C   UNL A   1      36.472  33.442  31.313  1.00  0.00     0.037 A 
ATOM     54  C   UNL A   1      43.256  32.927  32.344  1.00  0.00     0.049 A 
ATOM     55  C   UNL A   1      37.560  34.298  31.845  1.00  0.00     0.074 A 
ATOM     56  C   UNL A   1      43.530  32.226  33.501  1.00  0.00     0.029 A 
ATOM     57  N   UNL A   1      42.322  33.870  32.689  1.00  0.00    -0.354 N 
ATOM     58  N   UNL A   1      37.985  34.220  33.079  1.00  0.00    -0.248 NA
ATOM     59  C   UNL A   1      38.511  34.827  30.879  1.00  0.00     0.031 C 
ATOM     60  C   UNL A   1      42.412  32.459  34.351  1.00  0.00     0.029 A 
ATOM     61  C   UNL A   1      41.558  33.351  33.703  1.00  0.00     0.049 A 
ATOM     62  H   UNL A   1      42.219  34.760  32.282  1.00  0.00     0.167 HD
ATOM     63  C   UNL A   1      39.367  34.273  32.970  1.00  0.00     0.074 A 
ATOM     64  C   UNL A   1      39.631  34.689  31.595  1.00  0.00     0.031 C 
ATOM     65  C   UNL A   1      40.170  33.687  33.906  1.00  0.00     0.037 A 
BRANCH  52  66
ATOM     66  C   UNL A   1      43.937  33.713  29.956  1.00  0.00     0.064 A 
ATOM     67  C   UNL A   1      42.979  34.332  29.135  1.00  0.00     0.173 A 
ATOM     68  C   UNL A   1      45.286  33.928  29.577  1.00  0.00     0.173 A 
ATOM     69  F   UNL A   1      41.670  34.187  29.386  1.00  0.00    -0.203 F 
ATOM     70  C   UNL A   1      43.342  35.036  27.982  1.00  0.00     0.198 A 
ATOM     71  C   UNL A   1      45.645  34.675  28.461  1.00  0.00     0.198 A 
ATOM     72  F   UNL A   1      46.317  33.342  30.192  1.00  0.00    -0.203 F 
ATOM     73  F   UNL A   1      42.391  35.499  27.162  1.00  0.00    -0.200 F 
ATOM     74  C   UNL A   1      44.673  35.199  27.643  1.00  0.00     0.200 A 
ATOM     75  F   UNL A   1      46.942  34.802  28.146  1.00  0.00    -0.200 F 
ATOM     76  F   UNL A   1      45.020  35.814  26.506  1.00  0.00    -0.200 F 
ENDBRANCH  52  66
BRANCH  53  77
ATOM     77  C   UNL A   1      35.306  33.978  30.566  1.00  0.00     0.064 A 
ATOM     78  C   UNL A   1      34.239  34.604  31.228  1.00  0.00     0.173 A 
ATOM     79  C   UNL A   1      35.342  34.126  29.163  1.00  0.00     0.173 A 
ATOM     80  F   UNL A   1      34.151  34.548  32.564  1.00  0.00    -0.203 F 
ATOM     81  C   UNL A   1      33.278  35.349  30.533  1.00  0.00     0.198 A 
ATOM     82  C   UNL A   1      34.381  34.865  28.471  1.00  0.00     0.198 A 
ATOM     83  F   UNL A   1      36.361  33.632  28.445  1.00  0.00    -0.203 F 
ATOM     84  F   UNL A   1      32.303  35.977  31.205  1.00  0.00    -0.200 F 
ATOM     85  C   UNL A   1      33.356  35.489  29.157  1.00  0.00     0.200 A 
ATOM     86  F   UNL A   1      34.490  35.018  27.143  1.00  0.00    -0.200 F 
ATOM     87  F   UNL A   1      32.471  36.250  28.497  1.00  0.00    -0.200 F 
ENDBRANCH  53  77
BRANCH  65  88
ATOM     88  C   UNL A   1      39.521  33.159  35.157  1.00  0.00     0.064 A 
ATOM     89  C   UNL A   1      39.174  33.958  36.261  1.00  0.00     0.173 A 
ATOM     90  C   UNL A   1      39.088  31.828  35.168  1.00  0.00     0.173 A 
ATOM     91  F   UNL A   1      39.465  35.265  36.282  1.00  0.00    -0.203 F 
ATOM     92  C   UNL A   1      38.458  33.436  37.339  1.00  0.00     0.198 A 
ATOM     93  C   UNL A   1      38.344  31.317  36.228  1.00  0.00     0.198 A 
ATOM     94  F   UNL A   1      39.341  31.033  34.115  1.00  0.00    -0.203 F 
ATOM     95  F   UNL A   1      38.142  34.220  38.381  1.00  0.00    -0.200 F 
ATOM     96  C   UNL A   1      38.037  32.117  37.317  1.00  0.00     0.200 A 
ATOM     97  F   UNL A   1      37.896  30.056  36.178  1.00  0.00    -0.200 F 
ATOM     98  F   UNL A   1      37.312  31.625  38.331  1.00  0.00    -0.200 F 
ENDBRANCH  65  88
ENDBRANCH  39  40
ENDBRANCH  32  34
ENDBRANCH  31  32
ENDBRANCH  30  31
ENDBRANCH  29  30
ENDBRANCH   1  29
TORSDOF 16
ENDMDL
MODEL 3
REMARK VINA RESULT:     -12.5      6.335     11.198
REMARK SMILES CCOC(=O)c1c(NC(=O)c2ncccc2C(=O)OCCOC(=O)c2ccc(-c3c4nc(c(-c5c(F)c(F)c(F)c(F)c5F)c5ccc([nH]5)c(-c5c(F)c(F)c(F)c(F)c5F)c5nc(c(-c6c(F)c(F)c(F)c(F)c6F)c6ccc3[nH]6)C=C5)C=C4)cc2)sc2c1CC[C@H](C)C2
REMARK SMILES IDX 19 1 17 2 18 3 16 4 11 5 12 6 13 7 15 8 14 9 9 10 8 11 10 13
REMARK SMILES IDX 7 14 6 15 90 16 88 17 89 18 91 19 95 20 92 21 93 22 94 23
REMARK SMILES IDX 4 24 5 25 3 26 2 27 1 28 20 29 21 30 22 31 23 32 24 33 25 34
REMARK SMILES IDX 26 35 87 36 27 37 86 38 28 39 29 40 30 41 80 42 31 43 85 44
REMARK SMILES IDX 79 45 81 46 32 47 84 48 78 49 77 50 33 52 65 53 45 54 64 55
REMARK SMILES IDX 46 56 49 57 63 58 82 59 47 60 48 61 62 63 83 64 50 65 34 66
REMARK SMILES IDX 35 67 43 68 36 69 37 70 41 71 44 72 38 73 39 74 42 75 40 76
REMARK SMILES IDX 66 77 67 78 75 79 68 80 69 81 73 82 76 83 70 84 71 85 74 86
REMARK SMILES IDX 72 87 51 88 52 89 60 90 53 91 54 92 58 93 61 94 55 95 56 96
REMARK SMILES IDX 59 97 57 98
REMARK H PARENT 8 12 81 51 49 62
REMARK Flexibility Score: inf
ROOT
ATOM      1  O   UNL A   1      35.871  23.678  26.203  1.00  0.00    -0.458 OA
ENDROOT
BRANCH   1   2
ATOM      2  C   UNL A   1      34.856  22.837  26.487  1.00  0.00     0.340 C 
ATOM      3  O   UNL A   1      34.806  22.016  27.391  1.00  0.00    -0.246 OA
BRANCH   2   4
ATOM      4  C   UNL A   1      33.871  22.811  25.414  1.00  0.00     0.091 A 
ATOM      5  C   UNL A   1      32.513  22.817  25.657  1.00  0.00     0.142 A 
ATOM      6  N   UNL A   1      31.619  22.206  24.814  1.00  0.00    -0.250 NA
ATOM      7  C   UNL A   1      32.095  21.677  23.667  1.00  0.00     0.112 A 
ATOM      8  C   UNL A   1      34.320  22.339  24.174  1.00  0.00     0.020 A 
ATOM      9  C   UNL A   1      33.413  21.791  23.273  1.00  0.00     0.021 A 
BRANCH   5  10
ATOM     10  C   UNL A   1      31.849  23.490  26.791  1.00  0.00     0.275 C 
ATOM     11  N   UNL A   1      31.266  24.737  26.732  1.00  0.00    -0.311 N 
ATOM     12  H   UNL A   1      30.653  24.892  27.487  1.00  0.00     0.171 HD
ATOM     13  O   UNL A   1      31.696  22.854  27.839  1.00  0.00    -0.267 OA
BRANCH  11  14
ATOM     14  C   UNL A   1      31.320  25.819  25.889  1.00  0.00     0.110 A 
ATOM     15  C   UNL A   1      31.959  27.026  25.660  1.00  0.00     0.098 A 
ATOM     16  C   UNL A   1      31.115  27.876  24.822  1.00  0.00    -0.017 A 
ATOM     17  S   UNL A   1      30.340  25.532  24.520  1.00  0.00    -0.122 S 
ATOM     18  C   UNL A   1      29.992  27.176  24.435  1.00  0.00     0.011 A 
ATOM     19  C   UNL A   1      31.339  29.259  24.279  1.00  0.00     0.038 C 
ATOM     20  C   UNL A   1      28.792  27.743  23.782  1.00  0.00     0.050 C 
ATOM     21  C   UNL A   1      30.078  29.854  23.573  1.00  0.00     0.008 C 
ATOM     22  C   UNL A   1      29.238  28.812  22.790  1.00  0.00    -0.009 C 
ATOM     23  C   UNL A   1      28.012  29.423  22.113  1.00  0.00     0.008 C 
BRANCH  15  24
ATOM     24  C   UNL A   1      33.309  27.280  26.091  1.00  0.00     0.341 C 
ATOM     25  O   UNL A   1      34.266  26.563  25.839  1.00  0.00    -0.246 OA
BRANCH  24  26
ATOM     26  O   UNL A   1      33.355  28.445  26.803  1.00  0.00    -0.462 OA
BRANCH  26  27
ATOM     27  C   UNL A   1      34.578  29.161  26.685  1.00  0.00     0.230 C 
ATOM     28  C   UNL A   1      34.753  30.207  27.753  1.00  0.00     0.049 C 
ENDBRANCH  26  27
ENDBRANCH  24  26
ENDBRANCH  15  24
ENDBRANCH  11  14
ENDBRANCH   5  10
ENDBRANCH   2   4
ENDBRANCH   1   2
BRANCH   1  29
ATOM     29  C   UNL A   1      37.132  23.009  25.998  1.00  0.00     0.275 C 
BRANCH  29  30
ATOM     30  C   UNL A   1      38.261  24.014  26.103  1.00  0.00     0.275 C 
BRANCH  30  31
ATOM     31  O   UNL A   1      38.596  24.505  27.415  1.00  0.00    -0.458 OA
BRANCH  31  32
ATOM     32  C   UNL A   1      39.608  25.382  27.584  1.00  0.00     0.338 C 
ATOM     33  O   UNL A   1      40.783  25.229  27.287  1.00  0.00    -0.246 OA
BRANCH  32  34
ATOM     34  C   UNL A   1      39.135  26.473  28.463  1.00  0.00     0.060 A 
ATOM     35  C   UNL A   1      38.868  27.710  27.872  1.00  0.00     0.016 A 
ATOM     36  C   UNL A   1      39.252  26.361  29.853  1.00  0.00     0.016 A 
ATOM     37  C   UNL A   1      39.004  28.857  28.642  1.00  0.00     0.010 A 
ATOM     38  C   UNL A   1      39.331  27.504  30.628  1.00  0.00     0.010 A 
ATOM     39  C   UNL A   1      39.323  28.757  30.011  1.00  0.00    -0.014 A 
BRANCH  39  40
ATOM     40  C   UNL A   1      39.339  29.973  30.840  1.00  0.00     0.031 A 
ATOM     41  C   UNL A   1      40.683  30.625  30.822  1.00  0.00     0.074 A 
ATOM     42  C   UNL A   1      38.212  30.537  31.338  1.00  0.00     0.049 A 
ATOM     43  N   UNL A   1      41.349  31.123  31.813  1.00  0.00    -0.248 NA
ATOM     44  C   UNL A   1      41.476  30.507  29.575  1.00  0.00     0.031 C 
ATOM     45  C   UNL A   1      36.865  29.986  31.363  1.00  0.00     0.029 A 
ATOM     46  N   UNL A   1      37.988  31.826  31.741  1.00  0.00    -0.354 N 
ATOM     47  C   UNL A   1      42.551  31.555  31.255  1.00  0.00     0.074 A 
ATOM     48  C   UNL A   1      42.674  30.921  29.977  1.00  0.00     0.031 C 
ATOM     49  C   UNL A   1      35.940  30.964  31.393  1.00  0.00     0.029 A 
ATOM     50  C   UNL A   1      36.640  32.209  31.595  1.00  0.00     0.049 A 
ATOM     51  H   UNL A   1      38.690  32.418  32.096  1.00  0.00     0.167 HD
ATOM     52  C   UNL A   1      43.174  32.669  31.714  1.00  0.00     0.037 A 
ATOM     53  C   UNL A   1      36.162  33.478  31.590  1.00  0.00     0.037 A 
ATOM     54  C   UNL A   1      42.853  32.908  33.096  1.00  0.00     0.049 A 
ATOM     55  C   UNL A   1      37.214  34.318  32.214  1.00  0.00     0.074 A 
ATOM     56  C   UNL A   1      43.041  32.185  34.257  1.00  0.00     0.029 A 
ATOM     57  N   UNL A   1      41.901  33.850  33.390  1.00  0.00    -0.354 N 
ATOM     58  N   UNL A   1      37.548  34.217  33.473  1.00  0.00    -0.248 NA
ATOM     59  C   UNL A   1      38.233  34.859  31.328  1.00  0.00     0.031 C 
ATOM     60  C   UNL A   1      41.865  32.410  35.029  1.00  0.00     0.029 A 
ATOM     61  C   UNL A   1      41.063  33.318  34.337  1.00  0.00     0.049 A 
ATOM     62  H   UNL A   1      41.831  34.748  32.992  1.00  0.00     0.167 HD
ATOM     63  C   UNL A   1      38.935  34.264  33.465  1.00  0.00     0.074 A 
ATOM     64  C   UNL A   1      39.298  34.703  32.120  1.00  0.00     0.031 C 
ATOM     65  C   UNL A   1      39.666  33.658  34.446  1.00  0.00     0.037 A 
BRANCH  52  66
ATOM     66  C   UNL A   1      43.707  33.731  30.777  1.00  0.00     0.064 A 
ATOM     67  C   UNL A   1      45.027  34.182  30.945  1.00  0.00     0.173 A 
ATOM     68  C   UNL A   1      42.904  34.524  29.919  1.00  0.00     0.173 A 
ATOM     69  F   UNL A   1      45.876  33.522  31.746  1.00  0.00    -0.203 F 
ATOM     70  C   UNL A   1      45.478  35.374  30.368  1.00  0.00     0.198 A 
ATOM     71  C   UNL A   1      43.372  35.679  29.302  1.00  0.00     0.198 A 
ATOM     72  F   UNL A   1      41.603  34.292  29.718  1.00  0.00    -0.203 F 
ATOM     73  F   UNL A   1      46.703  35.829  30.659  1.00  0.00    -0.200 F 
ATOM     74  C   UNL A   1      44.647  36.124  29.555  1.00  0.00     0.200 A 
ATOM     75  F   UNL A   1      42.540  36.396  28.533  1.00  0.00    -0.200 F 
ATOM     76  F   UNL A   1      45.054  37.298  29.057  1.00  0.00    -0.200 F 
ENDBRANCH  52  66
BRANCH  53  77
ATOM     77  C   UNL A   1      35.056  34.033  30.770  1.00  0.00     0.064 A 
ATOM     78  C   UNL A   1      34.024  34.787  31.351  1.00  0.00     0.173 A 
ATOM     79  C   UNL A   1      35.132  34.062  29.362  1.00  0.00     0.173 A 
ATOM     80  F   UNL A   1      33.904  34.848  32.685  1.00  0.00    -0.203 F 
ATOM     81  C   UNL A   1      33.136  35.540  30.572  1.00  0.00     0.198 A 
ATOM     82  C   UNL A   1      34.244  34.809  28.586  1.00  0.00     0.198 A 
ATOM     83  F   UNL A   1      36.127  33.438  28.713  1.00  0.00    -0.203 F 
ATOM     84  F   UNL A   1      32.196  36.290  31.165  1.00  0.00    -0.200 F 
ATOM     85  C   UNL A   1      33.253  35.560  29.192  1.00  0.00     0.200 A 
ATOM     86  F   UNL A   1      34.391  34.844  27.254  1.00  0.00    -0.200 F 
ATOM     87  F   UNL A   1      32.441  36.326  28.449  1.00  0.00    -0.200 F 
ENDBRANCH  53  77
BRANCH  65  88
ATOM     88  C   UNL A   1      38.927  33.112  35.637  1.00  0.00     0.064 A 
ATOM     89  C   UNL A   1      38.523  31.770  35.764  1.00  0.00     0.173 A 
ATOM     90  C   UNL A   1      38.769  33.937  36.756  1.00  0.00     0.173 A 
ATOM     91  F   UNL A   1      38.730  30.893  34.774  1.00  0.00    -0.203 F 
ATOM     92  C   UNL A   1      37.956  31.292  36.947  1.00  0.00     0.198 A 
ATOM     93  C   UNL A   1      38.236  33.450  37.946  1.00  0.00     0.198 A 
ATOM     94  F   UNL A   1      39.189  35.212  36.712  1.00  0.00    -0.203 F 
ATOM     95  F   UNL A   1      37.577  30.008  37.040  1.00  0.00    -0.200 F 
ATOM     96  C   UNL A   1      37.820  32.131  38.039  1.00  0.00     0.200 A 
ATOM     97  F   UNL A   1      38.153  34.253  39.015  1.00  0.00    -0.200 F 
ATOM     98  F   UNL A   1      37.317  31.663  39.189  1.00  0.00    -0.200 F 
ENDBRANCH  65  88
ENDBRANCH  39  40
ENDBRANCH  32  34
ENDBRANCH  31  32
ENDBRANCH  30  31
ENDBRANCH  29  30
ENDBRANCH   1  29
TORSDOF 16
ENDMDL
