MODEL 1
REMARK VINA RESULT:     -12.8      0.000      0.000
REMARK SMILES C[N@H+]1C[C@@H](Oc2cccc3cccnc23)C[C@H]1C(=O)OCCOC(=O)c1ccc(-c2c3nc(c(-c4c(F)c(F)c(F)c(F)c4F)c4ccc([nH]4)c(-c4c(F)c(F)c(F)c(F)c4F)c4nc(c(-c5c(F)c(F)c(F)c(F)c5F)c5ccc2[nH]5)C=C4)C=C3)cc1
REMARK SMILES IDX 21 1 20 2 18 3 19 4 17 5 1 6 2 7 3 8 4 10 16 11 5 12 6 13
REMARK SMILES IDX 7 14 15 15 8 16 10 17 14 18 9 19 11 20 13 21 12 22 22 23
REMARK SMILES IDX 23 24 24 25 25 26 26 27 27 28 88 29 28 30 87 31 29 32 30 33
REMARK SMILES IDX 31 34 81 35 32 36 86 37 80 38 82 39 33 40 85 41 79 42 78 43
REMARK SMILES IDX 34 45 66 46 46 47 65 48 47 49 50 50 64 51 83 52 48 53 49 54
REMARK SMILES IDX 63 56 84 57 51 58 35 59 36 60 44 61 37 62 38 63 42 64 45 65
REMARK SMILES IDX 39 66 40 67 43 68 41 69 67 70 68 71 76 72 69 73 70 74 74 75
REMARK SMILES IDX 77 76 71 77 72 78 75 79 73 80 52 81 53 82 61 83 54 84 55 85
REMARK SMILES IDX 59 86 62 87 56 88 57 89 60 90 58 91
REMARK H PARENT 2 9 82 44 50 55
REMARK Flexibility Score: inf
ROOT
ATOM      1  C   UNL A   1      31.510  29.155  24.999  1.00  0.00     0.274 C 
ENDROOT
BRANCH   1   2
ATOM      2  O   UNL A   1      31.175  28.067  25.881  1.00  0.00    -0.458 OA
BRANCH   2   3
ATOM      3  C   UNL A   1      31.619  26.831  25.549  1.00  0.00     0.365 C 
ATOM      4  O   UNL A   1      32.766  26.594  25.173  1.00  0.00    -0.245 OA
BRANCH   3   5
ATOM      5  C   UNL A   1      30.568  25.713  25.666  1.00  0.00     0.298 C 
ATOM      6  C   UNL A   1      28.947  26.477  23.937  1.00  0.00     0.333 C 
ATOM      7  N   UNL A   1      29.728  25.396  24.500  1.00  0.00    -0.322 N 
ATOM      8  C   UNL A   1      30.581  24.670  23.556  1.00  0.00     0.308 C 
ATOM      9  H   UNL A   1      28.953  24.807  24.805  1.00  0.00     0.348 HD
ATOM     10  C   UNL A   1      31.404  23.764  24.489  1.00  0.00     0.234 C 
ATOM     11  C   UNL A   1      31.263  24.371  25.894  1.00  0.00     0.128 C 
BRANCH  10  12
ATOM     12  O   UNL A   1      32.744  23.419  24.117  1.00  0.00    -0.482 OA
BRANCH  12  13
ATOM     13  C   UNL A   1      33.202  22.167  24.448  1.00  0.00     0.146 A 
ATOM     14  C   UNL A   1      32.276  21.117  24.460  1.00  0.00     0.049 A 
ATOM     15  C   UNL A   1      34.579  21.931  24.578  1.00  0.00     0.112 A 
ATOM     16  C   UNL A   1      32.696  19.814  24.693  1.00  0.00     0.005 A 
ATOM     17  C   UNL A   1      34.991  20.595  24.797  1.00  0.00     0.004 A 
ATOM     18  N   UNL A   1      35.483  22.936  24.496  1.00  0.00    -0.252 NA
ATOM     19  C   UNL A   1      34.050  19.552  24.864  1.00  0.00     0.010 A 
ATOM     20  C   UNL A   1      36.359  20.330  24.932  1.00  0.00     0.012 A 
ATOM     21  C   UNL A   1      36.794  22.640  24.621  1.00  0.00     0.112 A 
ATOM     22  C   UNL A   1      37.278  21.366  24.839  1.00  0.00     0.021 A 
ENDBRANCH  12  13
ENDBRANCH  10  12
ENDBRANCH   3   5
ENDBRANCH   2   3
ENDBRANCH   1   2
BRANCH   1  23
ATOM     23  C   UNL A   1      31.793  30.441  25.769  1.00  0.00     0.275 C 
BRANCH  23  24
ATOM     24  O   UNL A   1      32.851  30.244  26.719  1.00  0.00    -0.458 OA
BRANCH  24  25
ATOM     25  C   UNL A   1      33.374  31.379  27.230  1.00  0.00     0.338 C 
ATOM     26  O   UNL A   1      32.841  32.468  27.346  1.00  0.00    -0.246 OA
BRANCH  25  27
ATOM     27  C   UNL A   1      34.723  31.099  27.723  1.00  0.00     0.060 A 
ATOM     28  C   UNL A   1      35.066  29.780  28.033  1.00  0.00     0.016 A 
ATOM     29  C   UNL A   1      35.599  32.152  27.975  1.00  0.00     0.016 A 
ATOM     30  C   UNL A   1      36.291  29.504  28.626  1.00  0.00     0.010 A 
ATOM     31  C   UNL A   1      36.828  31.875  28.568  1.00  0.00     0.010 A 
ATOM     32  C   UNL A   1      37.168  30.555  28.915  1.00  0.00    -0.014 A 
BRANCH  32  33
ATOM     33  C   UNL A   1      38.410  30.319  29.676  1.00  0.00     0.031 A 
ATOM     34  C   UNL A   1      39.435  29.386  29.107  1.00  0.00     0.074 A 
ATOM     35  C   UNL A   1      38.584  30.887  30.881  1.00  0.00     0.049 A 
ATOM     36  N   UNL A   1      40.449  28.810  29.692  1.00  0.00    -0.248 NA
ATOM     37  C   UNL A   1      39.281  29.045  27.683  1.00  0.00     0.031 C 
ATOM     38  C   UNL A   1      37.685  31.865  31.492  1.00  0.00     0.029 A 
ATOM     39  N   UNL A   1      39.564  30.693  31.818  1.00  0.00    -0.354 N 
ATOM     40  C   UNL A   1      41.032  28.006  28.724  1.00  0.00     0.074 A 
ATOM     41  C   UNL A   1      40.264  28.172  27.509  1.00  0.00     0.031 C 
ATOM     42  C   UNL A   1      38.139  32.163  32.720  1.00  0.00     0.029 A 
ATOM     43  C   UNL A   1      39.321  31.351  32.997  1.00  0.00     0.049 A 
ATOM     44  H   UNL A   1      40.361  30.137  31.662  1.00  0.00     0.167 HD
ATOM     45  C   UNL A   1      42.107  27.194  28.851  1.00  0.00     0.037 A 
ATOM     46  C   UNL A   1      39.953  31.261  34.183  1.00  0.00     0.037 A 
ATOM     47  C   UNL A   1      42.864  27.055  30.067  1.00  0.00     0.049 A 
ATOM     48  C   UNL A   1      41.116  30.315  34.315  1.00  0.00     0.074 A 
ATOM     49  C   UNL A   1      43.958  26.247  30.320  1.00  0.00     0.029 A 
ATOM     50  N   UNL A   1      42.601  27.756  31.235  1.00  0.00    -0.354 N 
ATOM     51  N   UNL A   1      41.635  29.512  33.418  1.00  0.00    -0.248 NA
ATOM     52  C   UNL A   1      41.772  30.252  35.628  1.00  0.00     0.031 C 
ATOM     53  C   UNL A   1      44.342  26.443  31.651  1.00  0.00     0.029 A 
ATOM     54  C   UNL A   1      43.512  27.399  32.214  1.00  0.00     0.049 A 
ATOM     55  H   UNL A   1      41.874  28.410  31.351  1.00  0.00     0.167 HD
ATOM     56  C   UNL A   1      42.693  28.870  34.045  1.00  0.00     0.074 A 
ATOM     57  C   UNL A   1      42.743  29.379  35.401  1.00  0.00     0.031 C 
ATOM     58  C   UNL A   1      43.548  27.944  33.547  1.00  0.00     0.037 A 
BRANCH  45  59
ATOM     59  C   UNL A   1      42.498  26.370  27.662  1.00  0.00     0.064 A 
ATOM     60  C   UNL A   1      43.504  26.781  26.777  1.00  0.00     0.173 A 
ATOM     61  C   UNL A   1      41.868  25.140  27.417  1.00  0.00     0.173 A 
ATOM     62  F   UNL A   1      44.123  27.958  26.958  1.00  0.00    -0.203 F 
ATOM     63  C   UNL A   1      43.854  25.999  25.679  1.00  0.00     0.198 A 
ATOM     64  C   UNL A   1      42.236  24.351  26.331  1.00  0.00     0.198 A 
ATOM     65  F   UNL A   1      40.897  24.703  28.233  1.00  0.00    -0.203 F 
ATOM     66  F   UNL A   1      44.791  26.430  24.823  1.00  0.00    -0.200 F 
ATOM     67  C   UNL A   1      43.224  24.783  25.460  1.00  0.00     0.200 A 
ATOM     68  F   UNL A   1      41.631  23.173  26.125  1.00  0.00    -0.200 F 
ATOM     69  F   UNL A   1      43.565  24.030  24.405  1.00  0.00    -0.200 F 
ENDBRANCH  45  59
BRANCH  46  70
ATOM     70  C   UNL A   1      39.474  32.061  35.337  1.00  0.00     0.064 A 
ATOM     71  C   UNL A   1      39.906  33.380  35.524  1.00  0.00     0.173 A 
ATOM     72  C   UNL A   1      38.568  31.530  36.266  1.00  0.00     0.173 A 
ATOM     73  F   UNL A   1      40.791  33.922  34.675  1.00  0.00    -0.203 F 
ATOM     74  C   UNL A   1      39.455  34.137  36.604  1.00  0.00     0.198 A 
ATOM     75  C   UNL A   1      38.099  32.295  37.332  1.00  0.00     0.198 A 
ATOM     76  F   UNL A   1      38.125  30.271  36.130  1.00  0.00    -0.203 F 
ATOM     77  F   UNL A   1      39.910  35.385  36.780  1.00  0.00    -0.200 F 
ATOM     78  C   UNL A   1      38.547  33.596  37.503  1.00  0.00     0.200 A 
ATOM     79  F   UNL A   1      37.212  31.774  38.191  1.00  0.00    -0.200 F 
ATOM     80  F   UNL A   1      38.108  34.327  38.536  1.00  0.00    -0.200 F 
ENDBRANCH  46  70
BRANCH  58  81
ATOM     81  C   UNL A   1      44.643  27.469  34.450  1.00  0.00     0.064 A 
ATOM     82  C   UNL A   1      45.867  28.144  34.540  1.00  0.00     0.173 A 
ATOM     83  C   UNL A   1      44.437  26.354  35.276  1.00  0.00     0.173 A 
ATOM     84  F   UNL A   1      46.111  29.207  33.758  1.00  0.00    -0.203 F 
ATOM     85  C   UNL A   1      46.855  27.711  35.419  1.00  0.00     0.198 A 
ATOM     86  C   UNL A   1      45.420  25.936  36.167  1.00  0.00     0.198 A 
ATOM     87  F   UNL A   1      43.279  25.679  35.226  1.00  0.00    -0.203 F 
ATOM     88  F   UNL A   1      48.032  28.351  35.470  1.00  0.00    -0.200 F 
ATOM     89  C   UNL A   1      46.629  26.612  36.236  1.00  0.00     0.200 A 
ATOM     90  F   UNL A   1      45.196  24.880  36.962  1.00  0.00    -0.200 F 
ATOM     91  F   UNL A   1      47.579  26.201  37.086  1.00  0.00    -0.200 F 
ENDBRANCH  58  81
ENDBRANCH  32  33
ENDBRANCH  25  27
ENDBRANCH  24  25
ENDBRANCH  23  24
ENDBRANCH   1  23
TORSDOF 13
ENDMDL
MODEL 2
REMARK VINA RESULT:     -12.7      0.233      1.975
REMARK SMILES C[N@H+]1C[C@@H](Oc2cccc3cccnc23)C[C@H]1C(=O)OCCOC(=O)c1ccc(-c2c3nc(c(-c4c(F)c(F)c(F)c(F)c4F)c4ccc([nH]4)c(-c4c(F)c(F)c(F)c(F)c4F)c4nc(c(-c5c(F)c(F)c(F)c(F)c5F)c5ccc2[nH]5)C=C4)C=C3)cc1
REMARK SMILES IDX 21 1 20 2 18 3 19 4 17 5 1 6 2 7 3 8 4 10 16 11 5 12 6 13
REMARK SMILES IDX 7 14 15 15 8 16 10 17 14 18 9 19 11 20 13 21 12 22 22 23
REMARK SMILES IDX 23 24 24 25 25 26 26 27 27 28 88 29 28 30 87 31 29 32 30 33
REMARK SMILES IDX 31 34 81 35 32 36 86 37 80 38 82 39 33 40 85 41 79 42 78 43
REMARK SMILES IDX 34 45 66 46 46 47 65 48 47 49 50 50 64 51 83 52 48 53 49 54
REMARK SMILES IDX 63 56 84 57 51 58 35 59 36 60 44 61 37 62 38 63 42 64 45 65
REMARK SMILES IDX 39 66 40 67 43 68 41 69 67 70 68 71 76 72 69 73 70 74 74 75
REMARK SMILES IDX 77 76 71 77 72 78 75 79 73 80 52 81 53 82 61 83 54 84 55 85
REMARK SMILES IDX 59 86 62 87 56 88 57 89 60 90 58 91
REMARK H PARENT 2 9 82 44 50 55
REMARK Flexibility Score: inf
ROOT
ATOM      1  C   UNL A   1      31.903  29.319  24.763  1.00  0.00     0.274 C 
ENDROOT
BRANCH   1   2
ATOM      2  O   UNL A   1      31.000  28.244  25.079  1.00  0.00    -0.458 OA
BRANCH   2   3
ATOM      3  C   UNL A   1      31.531  27.010  25.258  1.00  0.00     0.365 C 
ATOM      4  O   UNL A   1      32.739  26.777  25.244  1.00  0.00    -0.245 OA
BRANCH   3   5
ATOM      5  C   UNL A   1      30.503  25.887  25.478  1.00  0.00     0.298 C 
ATOM      6  C   UNL A   1      28.759  26.589  23.843  1.00  0.00     0.333 C 
ATOM      7  N   UNL A   1      29.588  25.530  24.381  1.00  0.00    -0.322 N 
ATOM      8  C   UNL A   1      30.382  24.786  23.401  1.00  0.00     0.308 C 
ATOM      9  H   UNL A   1      28.842  24.944  24.754  1.00  0.00     0.348 HD
ATOM     10  C   UNL A   1      31.276  23.913  24.299  1.00  0.00     0.234 C 
ATOM     11  C   UNL A   1      31.225  24.558  25.694  1.00  0.00     0.128 C 
BRANCH  10  12
ATOM     12  O   UNL A   1      32.591  23.569  23.846  1.00  0.00    -0.482 OA
BRANCH  12  13
ATOM     13  C   UNL A   1      33.130  22.381  24.276  1.00  0.00     0.146 A 
ATOM     14  C   UNL A   1      32.278  21.274  24.366  1.00  0.00     0.049 A 
ATOM     15  C   UNL A   1      34.519  22.251  24.430  1.00  0.00     0.112 A 
ATOM     16  C   UNL A   1      32.783  20.025  24.702  1.00  0.00     0.005 A 
ATOM     17  C   UNL A   1      35.019  20.968  24.754  1.00  0.00     0.004 A 
ATOM     18  N   UNL A   1      35.353  23.307  24.273  1.00  0.00    -0.252 NA
ATOM     19  C   UNL A   1      34.151  19.871  24.899  1.00  0.00     0.010 A 
ATOM     20  C   UNL A   1      36.400  20.809  24.916  1.00  0.00     0.012 A 
ATOM     21  C   UNL A   1      36.680  23.112  24.427  1.00  0.00     0.112 A 
ATOM     22  C   UNL A   1      37.248  21.895  24.746  1.00  0.00     0.021 A 
ENDBRANCH  12  13
ENDBRANCH  10  12
ENDBRANCH   3   5
ENDBRANCH   2   3
ENDBRANCH   1   2
BRANCH   1  23
ATOM     23  C   UNL A   1      31.828  30.442  25.794  1.00  0.00     0.275 C 
BRANCH  23  24
ATOM     24  O   UNL A   1      32.833  30.272  26.805  1.00  0.00    -0.458 OA
BRANCH  24  25
ATOM     25  C   UNL A   1      33.366  31.421  27.273  1.00  0.00     0.338 C 
ATOM     26  O   UNL A   1      32.844  32.519  27.349  1.00  0.00    -0.246 OA
BRANCH  25  27
ATOM     27  C   UNL A   1      34.713  31.148  27.775  1.00  0.00     0.060 A 
ATOM     28  C   UNL A   1      35.058  29.831  28.095  1.00  0.00     0.016 A 
ATOM     29  C   UNL A   1      35.585  32.204  28.027  1.00  0.00     0.016 A 
ATOM     30  C   UNL A   1      36.281  29.561  28.697  1.00  0.00     0.010 A 
ATOM     31  C   UNL A   1      36.811  31.934  28.629  1.00  0.00     0.010 A 
ATOM     32  C   UNL A   1      37.153  30.617  28.985  1.00  0.00    -0.014 A 
BRANCH  32  33
ATOM     33  C   UNL A   1      38.391  30.388  29.755  1.00  0.00     0.031 A 
ATOM     34  C   UNL A   1      39.430  29.470  29.187  1.00  0.00     0.074 A 
ATOM     35  C   UNL A   1      38.549  30.950  30.964  1.00  0.00     0.049 A 
ATOM     36  N   UNL A   1      40.446  28.900  29.777  1.00  0.00    -0.248 NA
ATOM     37  C   UNL A   1      39.292  29.137  27.760  1.00  0.00     0.031 C 
ATOM     38  C   UNL A   1      37.635  31.914  31.575  1.00  0.00     0.029 A 
ATOM     39  N   UNL A   1      39.523  30.760  31.909  1.00  0.00    -0.354 N 
ATOM     40  C   UNL A   1      41.045  28.110  28.808  1.00  0.00     0.074 A 
ATOM     41  C   UNL A   1      40.285  28.276  27.588  1.00  0.00     0.031 C 
ATOM     42  C   UNL A   1      38.075  32.208  32.809  1.00  0.00     0.029 A 
ATOM     43  C   UNL A   1      39.264  31.407  33.090  1.00  0.00     0.049 A 
ATOM     44  H   UNL A   1      40.327  30.213  31.756  1.00  0.00     0.167 HD
ATOM     45  C   UNL A   1      42.127  27.308  28.939  1.00  0.00     0.037 A 
ATOM     46  C   UNL A   1      39.887  31.315  34.280  1.00  0.00     0.037 A 
ATOM     47  C   UNL A   1      42.875  27.168  30.160  1.00  0.00     0.049 A 
ATOM     48  C   UNL A   1      41.058  30.381  34.416  1.00  0.00     0.074 A 
ATOM     49  C   UNL A   1      43.975  26.370  30.416  1.00  0.00     0.029 A 
ATOM     50  N   UNL A   1      42.595  27.858  31.331  1.00  0.00    -0.354 N 
ATOM     51  N   UNL A   1      41.593  29.589  33.517  1.00  0.00    -0.248 NA
ATOM     52  C   UNL A   1      41.705  30.316  35.734  1.00  0.00     0.031 C 
ATOM     53  C   UNL A   1      44.347  26.560  31.752  1.00  0.00     0.029 A 
ATOM     54  C   UNL A   1      43.502  27.504  32.315  1.00  0.00     0.049 A 
ATOM     55  H   UNL A   1      41.861  28.504  31.445  1.00  0.00     0.167 HD
ATOM     56  C   UNL A   1      42.653  28.954  34.149  1.00  0.00     0.074 A 
ATOM     57  C   UNL A   1      42.686  29.454  35.509  1.00  0.00     0.031 C 
ATOM     58  C   UNL A   1      43.522  28.041  33.651  1.00  0.00     0.037 A 
BRANCH  45  59
ATOM     59  C   UNL A   1      42.536  26.496  27.748  1.00  0.00     0.064 A 
ATOM     60  C   UNL A   1      41.939  25.260  27.457  1.00  0.00     0.173 A 
ATOM     61  C   UNL A   1      43.525  26.971  26.874  1.00  0.00     0.173 A 
ATOM     62  F   UNL A   1      41.003  24.754  28.273  1.00  0.00    -0.203 F 
ATOM     63  C   UNL A   1      42.332  24.522  26.343  1.00  0.00     0.198 A 
ATOM     64  C   UNL A   1      43.898  26.241  25.749  1.00  0.00     0.198 A 
ATOM     65  F   UNL A   1      44.127  28.146  27.109  1.00  0.00    -0.203 F 
ATOM     66  F   UNL A   1      41.777  23.325  26.105  1.00  0.00    -0.200 F 
ATOM     67  C   UNL A   1      43.306  25.015  25.487  1.00  0.00     0.200 A 
ATOM     68  F   UNL A   1      44.834  26.722  24.920  1.00  0.00    -0.200 F 
ATOM     69  F   UNL A   1      43.679  24.304  24.414  1.00  0.00    -0.200 F 
ENDBRANCH  45  59
BRANCH  46  70
ATOM     70  C   UNL A   1      39.390  32.102  35.436  1.00  0.00     0.064 A 
ATOM     71  C   UNL A   1      38.531  31.525  36.380  1.00  0.00     0.173 A 
ATOM     72  C   UNL A   1      39.773  33.437  35.628  1.00  0.00     0.173 A 
ATOM     73  F   UNL A   1      38.119  30.259  36.225  1.00  0.00    -0.203 F 
ATOM     74  C   UNL A   1      38.066  32.259  37.470  1.00  0.00     0.198 A 
ATOM     75  C   UNL A   1      39.327  34.162  36.731  1.00  0.00     0.198 A 
ATOM     76  F   UNL A   1      40.595  34.034  34.752  1.00  0.00    -0.203 F 
ATOM     77  F   UNL A   1      37.217  31.695  38.340  1.00  0.00    -0.200 F 
ATOM     78  C   UNL A   1      38.470  33.574  37.648  1.00  0.00     0.200 A 
ATOM     79  F   UNL A   1      39.729  35.428  36.906  1.00  0.00    -0.200 F 
ATOM     80  F   UNL A   1      38.028  34.276  38.700  1.00  0.00    -0.200 F 
ENDBRANCH  46  70
BRANCH  58  81
ATOM     81  C   UNL A   1      44.614  27.570  34.561  1.00  0.00     0.064 A 
ATOM     82  C   UNL A   1      44.462  26.434  35.366  1.00  0.00     0.173 A 
ATOM     83  C   UNL A   1      45.848  28.238  34.580  1.00  0.00     0.173 A 
ATOM     84  F   UNL A   1      43.294  25.774  35.388  1.00  0.00    -0.203 F 
ATOM     85  C   UNL A   1      45.505  25.988  36.171  1.00  0.00     0.198 A 
ATOM     86  C   UNL A   1      46.895  27.777  35.372  1.00  0.00     0.198 A 
ATOM     87  F   UNL A   1      46.039  29.327  33.823  1.00  0.00    -0.203 F 
ATOM     88  F   UNL A   1      45.332  24.917  36.957  1.00  0.00    -0.200 F 
ATOM     89  C   UNL A   1      46.723  26.655  36.169  1.00  0.00     0.200 A 
ATOM     90  F   UNL A   1      48.073  28.417  35.361  1.00  0.00    -0.200 F 
ATOM     91  F   UNL A   1      47.728  26.220  36.939  1.00  0.00    -0.200 F 
ENDBRANCH  58  81
ENDBRANCH  32  33
ENDBRANCH  25  27
ENDBRANCH  24  25
ENDBRANCH  23  24
ENDBRANCH   1  23
TORSDOF 13
ENDMDL
MODEL 3
REMARK VINA RESULT:     -12.5      1.544      3.598
REMARK SMILES C[N@H+]1C[C@@H](Oc2cccc3cccnc23)C[C@H]1C(=O)OCCOC(=O)c1ccc(-c2c3nc(c(-c4c(F)c(F)c(F)c(F)c4F)c4ccc([nH]4)c(-c4c(F)c(F)c(F)c(F)c4F)c4nc(c(-c5c(F)c(F)c(F)c(F)c5F)c5ccc2[nH]5)C=C4)C=C3)cc1
REMARK SMILES IDX 21 1 20 2 18 3 19 4 17 5 1 6 2 7 3 8 4 10 16 11 5 12 6 13
REMARK SMILES IDX 7 14 15 15 8 16 10 17 14 18 9 19 11 20 13 21 12 22 22 23
REMARK SMILES IDX 23 24 24 25 25 26 26 27 27 28 88 29 28 30 87 31 29 32 30 33
REMARK SMILES IDX 31 34 81 35 32 36 86 37 80 38 82 39 33 40 85 41 79 42 78 43
REMARK SMILES IDX 34 45 66 46 46 47 65 48 47 49 50 50 64 51 83 52 48 53 49 54
REMARK SMILES IDX 63 56 84 57 51 58 35 59 36 60 44 61 37 62 38 63 42 64 45 65
REMARK SMILES IDX 39 66 40 67 43 68 41 69 67 70 68 71 76 72 69 73 70 74 74 75
REMARK SMILES IDX 77 76 71 77 72 78 75 79 73 80 52 81 53 82 61 83 54 84 55 85
REMARK SMILES IDX 59 86 62 87 56 88 57 89 60 90 58 91
REMARK H PARENT 2 9 82 44 50 55
REMARK Flexibility Score: inf
ROOT
ATOM      1  C   UNL A   1      31.858  28.165  27.242  1.00  0.00     0.274 C 
ENDROOT
BRANCH   1   2
ATOM      2  O   UNL A   1      32.185  27.117  26.311  1.00  0.00    -0.458 OA
BRANCH   2   3
ATOM      3  C   UNL A   1      31.423  25.996  26.336  1.00  0.00     0.365 C 
ATOM      4  O   UNL A   1      30.202  26.002  26.482  1.00  0.00    -0.245 OA
BRANCH   3   5
ATOM      5  C   UNL A   1      32.204  24.680  26.175  1.00  0.00     0.298 C 
ATOM      6  C   UNL A   1      30.452  23.062  26.896  1.00  0.00     0.333 C 
ATOM      7  N   UNL A   1      31.461  23.434  25.926  1.00  0.00    -0.322 N 
ATOM      8  C   UNL A   1      31.013  23.487  24.532  1.00  0.00     0.308 C 
ATOM      9  H   UNL A   1      32.089  22.643  26.068  1.00  0.00     0.348 HD
ATOM     10  C   UNL A   1      32.231  24.100  23.820  1.00  0.00     0.234 C 
ATOM     11  C   UNL A   1      33.081  24.747  24.926  1.00  0.00     0.128 C 
BRANCH  10  12
ATOM     12  O   UNL A   1      32.020  24.925  22.668  1.00  0.00    -0.482 OA
BRANCH  12  13
ATOM     13  C   UNL A   1      32.285  26.268  22.780  1.00  0.00     0.146 A 
ATOM     14  C   UNL A   1      33.594  26.696  22.531  1.00  0.00     0.049 A 
ATOM     15  C   UNL A   1      31.235  27.183  22.948  1.00  0.00     0.112 A 
ATOM     16  C   UNL A   1      33.903  28.050  22.534  1.00  0.00     0.005 A 
ATOM     17  C   UNL A   1      31.564  28.559  22.931  1.00  0.00     0.004 A 
ATOM     18  N   UNL A   1      29.955  26.773  23.118  1.00  0.00    -0.252 NA
ATOM     19  C   UNL A   1      32.891  28.981  22.737  1.00  0.00     0.010 A 
ATOM     20  C   UNL A   1      30.536  29.495  23.099  1.00  0.00     0.012 A 
ATOM     21  C   UNL A   1      28.990  27.705  23.267  1.00  0.00     0.112 A 
ATOM     22  C   UNL A   1      29.226  29.065  23.265  1.00  0.00     0.021 A 
ENDBRANCH  12  13
ENDBRANCH  10  12
ENDBRANCH   3   5
ENDBRANCH   2   3
ENDBRANCH   1   2
BRANCH   1  23
ATOM     23  C   UNL A   1      31.769  29.525  26.554  1.00  0.00     0.275 C 
BRANCH  23  24
ATOM     24  O   UNL A   1      33.080  30.052  26.298  1.00  0.00    -0.458 OA
BRANCH  24  25
ATOM     25  C   UNL A   1      33.429  31.104  27.068  1.00  0.00     0.338 C 
ATOM     26  O   UNL A   1      32.757  32.074  27.369  1.00  0.00    -0.246 OA
BRANCH  25  27
ATOM     27  C   UNL A   1      34.780  30.884  27.585  1.00  0.00     0.060 A 
ATOM     28  C   UNL A   1      35.186  29.578  27.874  1.00  0.00     0.016 A 
ATOM     29  C   UNL A   1      35.593  31.976  27.881  1.00  0.00     0.016 A 
ATOM     30  C   UNL A   1      36.412  29.353  28.489  1.00  0.00     0.010 A 
ATOM     31  C   UNL A   1      36.822  31.751  28.495  1.00  0.00     0.010 A 
ATOM     32  C   UNL A   1      37.224  30.443  28.821  1.00  0.00    -0.014 A 
BRANCH  32  33
ATOM     33  C   UNL A   1      38.461  30.255  29.605  1.00  0.00     0.031 A 
ATOM     34  C   UNL A   1      39.524  29.350  29.062  1.00  0.00     0.074 A 
ATOM     35  C   UNL A   1      38.596  30.840  30.806  1.00  0.00     0.049 A 
ATOM     36  N   UNL A   1      40.547  28.813  29.670  1.00  0.00    -0.248 NA
ATOM     37  C   UNL A   1      39.406  28.990  27.639  1.00  0.00     0.031 C 
ATOM     38  C   UNL A   1      37.655  31.793  31.392  1.00  0.00     0.029 A 
ATOM     39  N   UNL A   1      39.565  30.687  31.762  1.00  0.00    -0.354 N 
ATOM     40  C   UNL A   1      41.172  28.020  28.720  1.00  0.00     0.074 A 
ATOM     41  C   UNL A   1      40.419  28.148  27.491  1.00  0.00     0.031 C 
ATOM     42  C   UNL A   1      38.078  32.118  32.624  1.00  0.00     0.029 A 
ATOM     43  C   UNL A   1      39.281  31.349  32.930  1.00  0.00     0.049 A 
ATOM     44  H   UNL A   1      40.382  30.156  31.625  1.00  0.00     0.167 HD
ATOM     45  C   UNL A   1      42.271  27.244  28.873  1.00  0.00     0.037 A 
ATOM     46  C   UNL A   1      39.896  31.291  34.126  1.00  0.00     0.037 A 
ATOM     47  C   UNL A   1      43.010  27.142  30.103  1.00  0.00     0.049 A 
ATOM     48  C   UNL A   1      41.086  30.385  34.288  1.00  0.00     0.074 A 
ATOM     49  C   UNL A   1      44.126  26.373  30.382  1.00  0.00     0.029 A 
ATOM     50  N   UNL A   1      42.705  27.845  31.259  1.00  0.00    -0.354 N 
ATOM     51  N   UNL A   1      41.646  29.590  33.407  1.00  0.00    -0.248 NA
ATOM     52  C   UNL A   1      41.722  30.356  35.612  1.00  0.00     0.031 C 
ATOM     53  C   UNL A   1      44.481  26.594  31.718  1.00  0.00     0.029 A 
ATOM     54  C   UNL A   1      43.611  27.528  32.257  1.00  0.00     0.049 A 
ATOM     55  H   UNL A   1      41.956  28.476  31.356  1.00  0.00     0.167 HD
ATOM     56  C   UNL A   1      42.714  28.990  34.059  1.00  0.00     0.074 A 
ATOM     57  C   UNL A   1      42.724  29.513  35.410  1.00  0.00     0.031 C 
ATOM     58  C   UNL A   1      43.607  28.087  33.584  1.00  0.00     0.037 A 
BRANCH  45  59
ATOM     59  C   UNL A   1      42.707  26.421  27.700  1.00  0.00     0.064 A 
ATOM     60  C   UNL A   1      42.170  25.151  27.448  1.00  0.00     0.173 A 
ATOM     61  C   UNL A   1      43.664  26.921  26.803  1.00  0.00     0.173 A 
ATOM     62  F   UNL A   1      41.268  24.621  28.287  1.00  0.00    -0.203 F 
ATOM     63  C   UNL A   1      42.588  24.402  26.350  1.00  0.00     0.198 A 
ATOM     64  C   UNL A   1      44.062  26.180  25.693  1.00  0.00     0.198 A 
ATOM     65  F   UNL A   1      44.209  28.130  27.000  1.00  0.00    -0.203 F 
ATOM     66  F   UNL A   1      42.091  23.174  26.150  1.00  0.00    -0.200 F 
ATOM     67  C   UNL A   1      43.528  24.920  25.471  1.00  0.00     0.200 A 
ATOM     68  F   UNL A   1      44.965  26.684  24.842  1.00  0.00    -0.200 F 
ATOM     69  F   UNL A   1      43.926  24.200  24.413  1.00  0.00    -0.200 F 
ENDBRANCH  45  59
BRANCH  46  70
ATOM     70  C   UNL A   1      39.372  32.086  35.264  1.00  0.00     0.064 A 
ATOM     71  C   UNL A   1      38.546  31.497  36.231  1.00  0.00     0.173 A 
ATOM     72  C   UNL A   1      39.694  33.442  35.417  1.00  0.00     0.173 A 
ATOM     73  F   UNL A   1      38.191  30.209  36.113  1.00  0.00    -0.203 F 
ATOM     74  C   UNL A   1      38.055  32.238  37.304  1.00  0.00     0.198 A 
ATOM     75  C   UNL A   1      39.223  34.176  36.503  1.00  0.00     0.198 A 
ATOM     76  F   UNL A   1      40.481  34.051  34.517  1.00  0.00    -0.203 F 
ATOM     77  F   UNL A   1      37.239  31.660  38.196  1.00  0.00    -0.200 F 
ATOM     78  C   UNL A   1      38.400  33.575  37.442  1.00  0.00     0.200 A 
ATOM     79  F   UNL A   1      39.568  35.464  36.640  1.00  0.00    -0.200 F 
ATOM     80  F   UNL A   1      37.934  34.285  38.479  1.00  0.00    -0.200 F 
ENDBRANCH  46  70
BRANCH  58  81
ATOM     81  C   UNL A   1      44.701  27.657  34.511  1.00  0.00     0.064 A 
ATOM     82  C   UNL A   1      44.587  26.502  35.297  1.00  0.00     0.173 A 
ATOM     83  C   UNL A   1      45.900  28.382  34.566  1.00  0.00     0.173 A 
ATOM     84  F   UNL A   1      43.452  25.787  35.284  1.00  0.00    -0.203 F 
ATOM     85  C   UNL A   1      45.633  26.096  36.118  1.00  0.00     0.198 A 
ATOM     86  C   UNL A   1      46.951  27.961  35.374  1.00  0.00     0.198 A 
ATOM     87  F   UNL A   1      46.055  29.491  33.828  1.00  0.00    -0.203 F 
ATOM     88  F   UNL A   1      45.496  25.006  36.886  1.00  0.00    -0.200 F 
ATOM     89  C   UNL A   1      46.817  26.820  36.152  1.00  0.00     0.200 A 
ATOM     90  F   UNL A   1      48.097  28.657  35.398  1.00  0.00    -0.200 F 
ATOM     91  F   UNL A   1      47.825  26.422  36.938  1.00  0.00    -0.200 F 
ENDBRANCH  58  81
ENDBRANCH  32  33
ENDBRANCH  25  27
ENDBRANCH  24  25
ENDBRANCH  23  24
ENDBRANCH   1  23
TORSDOF 13
ENDMDL
