MODEL 1
REMARK VINA RESULT:     -11.4      0.000      0.000
REMARK SMILES O=C(OCCOC(=O)[C@@H]1CCCN(C(=O)[C@H]2CC=CCC2)C1)c1ccc(-c2c3nc(c(-c4c(F)c(F)c(F)c(F)c4F)c4ccc([nH]4)c(-c4c(F)c(F)c(F)c(F)c4F)c4nc(c(-c5c(F)c(F)c(F)c(F)c5F)c5ccc2[nH]5)C=C4)C=C3)cc1
REMARK SMILES IDX 4 1 3 2 2 3 1 4 23 5 24 6 85 7 25 8 84 9 26 10 27 11 28 12
REMARK SMILES IDX 78 13 29 14 83 15 77 16 79 17 30 18 82 19 76 20 75 21 31 23
REMARK SMILES IDX 63 24 43 25 62 26 44 27 47 28 61 29 80 30 45 31 46 32 60 34
REMARK SMILES IDX 81 35 48 36 32 37 33 38 41 39 34 40 35 41 39 42 42 43 36 44
REMARK SMILES IDX 37 45 40 46 38 47 64 48 65 49 73 50 66 51 67 52 71 53 74 54
REMARK SMILES IDX 68 55 69 56 72 57 70 58 49 59 50 60 58 61 51 62 52 63 56 64
REMARK SMILES IDX 59 65 53 66 54 67 57 68 55 69 5 70 6 71 7 72 8 73 9 74 10 75
REMARK SMILES IDX 22 76 11 77 13 78 12 79 14 80 15 81 16 82 17 83 21 84 18 85
REMARK SMILES IDX 20 86 19 87
REMARK H PARENT 79 22 47 33
REMARK Flexibility Score: inf
ROOT
ATOM      1  C   UNL A   1      35.011  34.471  28.501  1.00  0.00     0.275 C 
ENDROOT
BRANCH   1   2
ATOM      2  O   UNL A   1      35.329  33.377  27.629  1.00  0.00    -0.458 OA
BRANCH   2   3
ATOM      3  C   UNL A   1      35.030  32.110  27.963  1.00  0.00     0.338 C 
ATOM      4  O   UNL A   1      33.899  31.653  27.788  1.00  0.00    -0.246 OA
BRANCH   3   5
ATOM      5  C   UNL A   1      36.107  31.238  28.506  1.00  0.00     0.060 A 
ATOM      6  C   UNL A   1      35.953  30.005  29.134  1.00  0.00     0.016 A 
ATOM      7  C   UNL A   1      37.390  31.758  28.391  1.00  0.00     0.016 A 
ATOM      8  C   UNL A   1      37.082  29.324  29.627  1.00  0.00     0.010 A 
ATOM      9  C   UNL A   1      38.507  31.117  28.896  1.00  0.00     0.010 A 
ATOM     10  C   UNL A   1      38.360  29.893  29.528  1.00  0.00    -0.014 A 
BRANCH  10  11
ATOM     11  C   UNL A   1      39.579  29.272  30.077  1.00  0.00     0.031 A 
ATOM     12  C   UNL A   1      40.174  29.815  31.345  1.00  0.00     0.074 A 
ATOM     13  C   UNL A   1      40.239  28.362  29.339  1.00  0.00     0.049 A 
ATOM     14  N   UNL A   1      41.198  29.381  32.032  1.00  0.00    -0.248 NA
ATOM     15  C   UNL A   1      39.576  31.051  31.882  1.00  0.00     0.031 C 
ATOM     16  C   UNL A   1      39.870  27.944  27.985  1.00  0.00     0.029 A 
ATOM     17  N   UNL A   1      41.369  27.642  29.614  1.00  0.00    -0.354 N 
ATOM     18  C   UNL A   1      41.352  30.277  33.082  1.00  0.00     0.074 A 
ATOM     19  C   UNL A   1      40.399  31.343  32.878  1.00  0.00     0.031 C 
ATOM     20  C   UNL A   1      40.740  27.011  27.562  1.00  0.00     0.029 A 
ATOM     21  C   UNL A   1      41.702  26.748  28.627  1.00  0.00     0.049 A 
ATOM     22  H   UNL A   1      41.893  27.753  30.440  1.00  0.00     0.167 HD
ATOM     23  C   UNL A   1      42.171  30.174  34.155  1.00  0.00     0.037 A 
ATOM     24  C   UNL A   1      42.641  25.785  28.627  1.00  0.00     0.037 A 
ATOM     25  C   UNL A   1      43.073  29.069  34.336  1.00  0.00     0.049 A 
ATOM     26  C   UNL A   1      43.431  25.576  29.892  1.00  0.00     0.074 A 
ATOM     27  C   UNL A   1      43.860  28.752  35.427  1.00  0.00     0.029 A 
ATOM     28  N   UNL A   1      43.295  28.086  33.379  1.00  0.00    -0.354 N 
ATOM     29  N   UNL A   1      43.440  26.298  30.988  1.00  0.00    -0.248 NA
ATOM     30  C   UNL A   1      44.293  24.389  29.948  1.00  0.00     0.031 C 
ATOM     31  C   UNL A   1      44.565  27.580  35.124  1.00  0.00     0.029 A 
ATOM     32  C   UNL A   1      44.194  27.152  33.856  1.00  0.00     0.049 A 
ATOM     33  H   UNL A   1      42.873  28.060  32.490  1.00  0.00     0.167 HD
ATOM     34  C   UNL A   1      44.273  25.635  31.877  1.00  0.00     0.074 A 
ATOM     35  C   UNL A   1      44.742  24.445  31.194  1.00  0.00     0.031 C 
ATOM     36  C   UNL A   1      44.620  25.973  33.145  1.00  0.00     0.037 A 
BRANCH  23  37
ATOM     37  C   UNL A   1      42.065  31.230  35.220  1.00  0.00     0.064 A 
ATOM     38  C   UNL A   1      40.964  31.274  36.095  1.00  0.00     0.173 A 
ATOM     39  C   UNL A   1      43.060  32.205  35.383  1.00  0.00     0.173 A 
ATOM     40  F   UNL A   1      39.979  30.368  35.987  1.00  0.00    -0.203 F 
ATOM     41  C   UNL A   1      40.837  32.281  37.048  1.00  0.00     0.198 A 
ATOM     42  C   UNL A   1      42.948  33.190  36.364  1.00  0.00     0.198 A 
ATOM     43  F   UNL A   1      44.140  32.209  34.588  1.00  0.00    -0.203 F 
ATOM     44  F   UNL A   1      39.741  32.338  37.818  1.00  0.00    -0.200 F 
ATOM     45  C   UNL A   1      41.831  33.235  37.185  1.00  0.00     0.200 A 
ATOM     46  F   UNL A   1      43.918  34.104  36.507  1.00  0.00    -0.200 F 
ATOM     47  F   UNL A   1      41.709  34.205  38.102  1.00  0.00    -0.200 F 
ENDBRANCH  23  37
BRANCH  24  48
ATOM     48  C   UNL A   1      42.753  24.860  27.469  1.00  0.00     0.064 A 
ATOM     49  C   UNL A   1      43.718  25.078  26.474  1.00  0.00     0.173 A 
ATOM     50  C   UNL A   1      41.938  23.727  27.349  1.00  0.00     0.173 A 
ATOM     51  F   UNL A   1      44.522  26.149  26.546  1.00  0.00    -0.203 F 
ATOM     52  C   UNL A   1      43.845  24.213  25.390  1.00  0.00     0.198 A 
ATOM     53  C   UNL A   1      42.081  22.850  26.273  1.00  0.00     0.198 A 
ATOM     54  F   UNL A   1      41.017  23.460  28.286  1.00  0.00    -0.203 F 
ATOM     55  F   UNL A   1      44.754  24.465  24.439  1.00  0.00    -0.200 F 
ATOM     56  C   UNL A   1      43.028  23.097  25.292  1.00  0.00     0.200 A 
ATOM     57  F   UNL A   1      41.303  21.761  26.191  1.00  0.00    -0.200 F 
ATOM     58  F   UNL A   1      43.155  22.261  24.252  1.00  0.00    -0.200 F 
ENDBRANCH  24  48
BRANCH  36  59
ATOM     59  C   UNL A   1      45.519  25.025  33.878  1.00  0.00     0.064 A 
ATOM     60  C   UNL A   1      46.913  25.131  33.795  1.00  0.00     0.173 A 
ATOM     61  C   UNL A   1      44.975  24.041  34.715  1.00  0.00     0.173 A 
ATOM     62  F   UNL A   1      47.475  26.050  32.995  1.00  0.00    -0.203 F 
ATOM     63  C   UNL A   1      47.735  24.267  34.511  1.00  0.00     0.198 A 
ATOM     64  C   UNL A   1      45.801  23.197  35.451  1.00  0.00     0.198 A 
ATOM     65  F   UNL A   1      43.645  23.908  34.830  1.00  0.00    -0.203 F 
ATOM     66  F   UNL A   1      49.066  24.357  34.387  1.00  0.00    -0.200 F 
ATOM     67  C   UNL A   1      47.179  23.308  35.344  1.00  0.00     0.200 A 
ATOM     68  F   UNL A   1      45.262  22.280  36.266  1.00  0.00    -0.200 F 
ATOM     69  F   UNL A   1      47.973  22.484  36.041  1.00  0.00    -0.200 F 
ENDBRANCH  36  59
ENDBRANCH  10  11
ENDBRANCH   3   5
ENDBRANCH   2   3
ENDBRANCH   1   2
BRANCH   1  70
ATOM     70  C   UNL A   1      33.960  35.475  28.001  1.00  0.00     0.274 C 
BRANCH  70  71
ATOM     71  O   UNL A   1      32.855  35.715  28.899  1.00  0.00    -0.462 OA
BRANCH  71  72
ATOM     72  C   UNL A   1      33.057  36.791  29.714  1.00  0.00     0.310 C 
ATOM     73  O   UNL A   1      33.278  37.924  29.293  1.00  0.00    -0.252 OA
BRANCH  72  74
ATOM     74  C   UNL A   1      32.943  36.502  31.209  1.00  0.00     0.119 C 
ATOM     75  C   UNL A   1      33.731  37.437  32.114  1.00  0.00     0.019 C 
ATOM     76  C   UNL A   1      33.123  35.008  31.506  1.00  0.00     0.134 C 
ATOM     77  C   UNL A   1      33.967  36.827  33.496  1.00  0.00     0.022 C 
ATOM     78  N   UNL A   1      34.317  34.637  32.285  1.00  0.00    -0.342 N 
ATOM     79  C   UNL A   1      34.545  35.401  33.504  1.00  0.00     0.119 C 
BRANCH  78  80
ATOM     80  C   UNL A   1      34.835  33.365  32.037  1.00  0.00     0.226 C 
ATOM     81  O   UNL A   1      34.028  32.442  31.822  1.00  0.00    -0.275 OA
BRANCH  80  82
ATOM     82  C   UNL A   1      36.335  32.949  32.032  1.00  0.00     0.083 C 
ATOM     83  C   UNL A   1      37.543  33.850  31.745  1.00  0.00     0.040 C 
ATOM     84  C   UNL A   1      36.666  32.022  33.207  1.00  0.00     0.018 C 
ATOM     85  C   UNL A   1      38.213  34.426  32.956  1.00  0.00    -0.030 C 
ATOM     86  C   UNL A   1      37.079  32.788  34.462  1.00  0.00     0.028 C 
ATOM     87  C   UNL A   1      37.989  33.952  34.188  1.00  0.00    -0.031 C 
ENDBRANCH  80  82
ENDBRANCH  78  80
ENDBRANCH  72  74
ENDBRANCH  71  72
ENDBRANCH  70  71
ENDBRANCH   1  70
TORSDOF 13
ENDMDL
MODEL 2
REMARK VINA RESULT:     -11.1      4.072      6.485
REMARK SMILES O=C(OCCOC(=O)[C@@H]1CCCN(C(=O)[C@H]2CC=CCC2)C1)c1ccc(-c2c3nc(c(-c4c(F)c(F)c(F)c(F)c4F)c4ccc([nH]4)c(-c4c(F)c(F)c(F)c(F)c4F)c4nc(c(-c5c(F)c(F)c(F)c(F)c5F)c5ccc2[nH]5)C=C4)C=C3)cc1
REMARK SMILES IDX 4 1 3 2 2 3 1 4 23 5 24 6 85 7 25 8 84 9 26 10 27 11 28 12
REMARK SMILES IDX 78 13 29 14 83 15 77 16 79 17 30 18 82 19 76 20 75 21 31 23
REMARK SMILES IDX 63 24 43 25 62 26 44 27 47 28 61 29 80 30 45 31 46 32 60 34
REMARK SMILES IDX 81 35 48 36 32 37 33 38 41 39 34 40 35 41 39 42 42 43 36 44
REMARK SMILES IDX 37 45 40 46 38 47 64 48 65 49 73 50 66 51 67 52 71 53 74 54
REMARK SMILES IDX 68 55 69 56 72 57 70 58 49 59 50 60 58 61 51 62 52 63 56 64
REMARK SMILES IDX 59 65 53 66 54 67 57 68 55 69 5 70 6 71 7 72 8 73 9 74 10 75
REMARK SMILES IDX 22 76 11 77 13 78 12 79 14 80 15 81 16 82 17 83 21 84 18 85
REMARK SMILES IDX 20 86 19 87
REMARK H PARENT 79 22 47 33
REMARK Flexibility Score: inf
ROOT
ATOM      1  C   UNL A   1      31.937  29.293  26.843  1.00  0.00     0.275 C 
ENDROOT
BRANCH   1   2
ATOM      2  O   UNL A   1      33.090  30.041  26.431  1.00  0.00    -0.458 OA
BRANCH   2   3
ATOM      3  C   UNL A   1      33.540  31.082  27.154  1.00  0.00     0.338 C 
ATOM      4  O   UNL A   1      32.887  32.122  27.250  1.00  0.00    -0.246 OA
BRANCH   3   5
ATOM      5  C   UNL A   1      34.827  30.940  27.888  1.00  0.00     0.060 A 
ATOM      6  C   UNL A   1      35.836  31.892  28.003  1.00  0.00     0.016 A 
ATOM      7  C   UNL A   1      35.027  29.699  28.479  1.00  0.00     0.016 A 
ATOM      8  C   UNL A   1      37.016  31.581  28.705  1.00  0.00     0.010 A 
ATOM      9  C   UNL A   1      36.191  29.367  29.147  1.00  0.00     0.010 A 
ATOM     10  C   UNL A   1      37.203  30.306  29.259  1.00  0.00    -0.014 A 
BRANCH  10  11
ATOM     11  C   UNL A   1      38.434  29.885  29.952  1.00  0.00     0.031 A 
ATOM     12  C   UNL A   1      38.724  30.419  31.326  1.00  0.00     0.074 A 
ATOM     13  C   UNL A   1      39.361  29.187  29.272  1.00  0.00     0.049 A 
ATOM     14  N   UNL A   1      39.709  30.131  32.135  1.00  0.00    -0.248 NA
ATOM     15  C   UNL A   1      37.820  31.465  31.835  1.00  0.00     0.031 C 
ATOM     16  C   UNL A   1      39.277  28.826  27.855  1.00  0.00     0.029 A 
ATOM     17  N   UNL A   1      40.564  28.675  29.676  1.00  0.00    -0.354 N 
ATOM     18  C   UNL A   1      39.530  30.944  33.247  1.00  0.00     0.074 A 
ATOM     19  C   UNL A   1      38.419  31.821  32.961  1.00  0.00     0.031 C 
ATOM     20  C   UNL A   1      40.368  28.118  27.518  1.00  0.00     0.029 A 
ATOM     21  C   UNL A   1      41.205  27.952  28.702  1.00  0.00     0.049 A 
ATOM     22  H   UNL A   1      40.934  28.812  30.578  1.00  0.00     0.167 HD
ATOM     23  C   UNL A   1      40.196  30.907  34.425  1.00  0.00     0.037 A 
ATOM     24  C   UNL A   1      42.311  27.190  28.790  1.00  0.00     0.037 A 
ATOM     25  C   UNL A   1      41.269  29.983  34.679  1.00  0.00     0.049 A 
ATOM     26  C   UNL A   1      42.943  27.027  30.147  1.00  0.00     0.074 A 
ATOM     27  C   UNL A   1      41.944  29.728  35.857  1.00  0.00     0.029 A 
ATOM     28  N   UNL A   1      41.816  29.149  33.711  1.00  0.00    -0.354 N 
ATOM     29  N   UNL A   1      42.653  27.638  31.271  1.00  0.00    -0.248 NA
ATOM     30  C   UNL A   1      44.011  26.027  30.265  1.00  0.00     0.031 C 
ATOM     31  C   UNL A   1      42.907  28.745  35.598  1.00  0.00     0.029 A 
ATOM     32  C   UNL A   1      42.811  28.367  34.266  1.00  0.00     0.049 A 
ATOM     33  H   UNL A   1      41.536  29.121  32.768  1.00  0.00     0.167 HD
ATOM     34  C   UNL A   1      43.470  27.073  32.238  1.00  0.00     0.074 A 
ATOM     35  C   UNL A   1      44.261  26.059  31.567  1.00  0.00     0.031 C 
ATOM     36  C   UNL A   1      43.562  27.358  33.561  1.00  0.00     0.037 A 
BRANCH  23  37
ATOM     37  C   UNL A   1      39.731  31.825  35.521  1.00  0.00     0.064 A 
ATOM     38  C   UNL A   1      40.322  33.087  35.714  1.00  0.00     0.173 A 
ATOM     39  C   UNL A   1      38.689  31.460  36.386  1.00  0.00     0.173 A 
ATOM     40  F   UNL A   1      41.324  33.492  34.918  1.00  0.00    -0.203 F 
ATOM     41  C   UNL A   1      39.927  33.918  36.759  1.00  0.00     0.198 A 
ATOM     42  C   UNL A   1      38.272  32.311  37.409  1.00  0.00     0.198 A 
ATOM     43  F   UNL A   1      38.077  30.275  36.246  1.00  0.00    -0.203 F 
ATOM     44  F   UNL A   1      40.560  35.083  36.961  1.00  0.00    -0.200 F 
ATOM     45  C   UNL A   1      38.900  33.532  37.603  1.00  0.00     0.200 A 
ATOM     46  F   UNL A   1      37.266  31.944  38.216  1.00  0.00    -0.200 F 
ATOM     47  F   UNL A   1      38.522  34.332  38.610  1.00  0.00    -0.200 F 
ENDBRANCH  23  37
BRANCH  24  48
ATOM     48  C   UNL A   1      42.768  26.409  27.611  1.00  0.00     0.064 A 
ATOM     49  C   UNL A   1      43.766  26.915  26.765  1.00  0.00     0.173 A 
ATOM     50  C   UNL A   1      42.256  25.137  27.326  1.00  0.00     0.173 A 
ATOM     51  F   UNL A   1      44.288  28.129  26.998  1.00  0.00    -0.203 F 
ATOM     52  C   UNL A   1      44.216  26.190  25.664  1.00  0.00     0.198 A 
ATOM     53  C   UNL A   1      42.722  24.402  26.235  1.00  0.00     0.198 A 
ATOM     54  F   UNL A   1      41.317  24.598  28.118  1.00  0.00    -0.203 F 
ATOM     55  F   UNL A   1      45.148  26.712  24.856  1.00  0.00    -0.200 F 
ATOM     56  C   UNL A   1      43.696  24.931  25.402  1.00  0.00     0.200 A 
ATOM     57  F   UNL A   1      42.231  23.178  25.995  1.00  0.00    -0.200 F 
ATOM     58  F   UNL A   1      44.133  24.231  24.347  1.00  0.00    -0.200 F 
ENDBRANCH  24  48
BRANCH  36  59
ATOM     59  C   UNL A   1      44.523  26.540  34.368  1.00  0.00     0.064 A 
ATOM     60  C   UNL A   1      44.140  25.319  34.939  1.00  0.00     0.173 A 
ATOM     61  C   UNL A   1      45.852  26.958  34.520  1.00  0.00     0.173 A 
ATOM     62  F   UNL A   1      42.874  24.888  34.830  1.00  0.00    -0.203 F 
ATOM     63  C   UNL A   1      45.054  24.552  35.655  1.00  0.00     0.198 A 
ATOM     64  C   UNL A   1      46.770  26.174  35.212  1.00  0.00     0.198 A 
ATOM     65  F   UNL A   1      46.263  28.117  33.984  1.00  0.00    -0.203 F 
ATOM     66  F   UNL A   1      44.659  23.408  36.228  1.00  0.00    -0.200 F 
ATOM     67  C   UNL A   1      46.369  24.976  35.783  1.00  0.00     0.200 A 
ATOM     68  F   UNL A   1      48.042  26.578  35.325  1.00  0.00    -0.200 F 
ATOM     69  F   UNL A   1      47.249  24.230  36.464  1.00  0.00    -0.200 F 
ENDBRANCH  36  59
ENDBRANCH  10  11
ENDBRANCH   3   5
ENDBRANCH   2   3
ENDBRANCH   1   2
BRANCH   1  70
ATOM     70  C   UNL A   1      32.114  27.775  27.004  1.00  0.00     0.274 C 
BRANCH  70  71
ATOM     71  O   UNL A   1      30.929  26.984  26.771  1.00  0.00    -0.462 OA
BRANCH  71  72
ATOM     72  C   UNL A   1      31.206  25.746  26.269  1.00  0.00     0.310 C 
ATOM     73  O   UNL A   1      31.691  24.839  26.941  1.00  0.00    -0.252 OA
BRANCH  72  74
ATOM     74  C   UNL A   1      30.827  25.541  24.804  1.00  0.00     0.119 C 
ATOM     75  C   UNL A   1      31.982  25.191  23.876  1.00  0.00     0.019 C 
ATOM     76  C   UNL A   1      29.907  26.660  24.302  1.00  0.00     0.134 C 
ATOM     77  C   UNL A   1      31.641  25.472  22.413  1.00  0.00     0.022 C 
ATOM     78  N   UNL A   1      30.461  27.542  23.259  1.00  0.00    -0.342 N 
ATOM     79  C   UNL A   1      31.074  26.872  22.118  1.00  0.00     0.119 C 
BRANCH  78  80
ATOM     80  C   UNL A   1      29.973  28.849  23.244  1.00  0.00     0.226 C 
ATOM     81  O   UNL A   1      30.680  29.737  23.754  1.00  0.00    -0.275 OA
BRANCH  80  82
ATOM     82  C   UNL A   1      28.603  29.330  22.684  1.00  0.00     0.083 C 
ATOM     83  C   UNL A   1      27.387  29.800  23.491  1.00  0.00     0.040 C 
ATOM     84  C   UNL A   1      28.783  30.245  21.466  1.00  0.00     0.018 C 
ATOM     85  C   UNL A   1      27.277  31.283  23.678  1.00  0.00    -0.030 C 
ATOM     86  C   UNL A   1      28.926  31.716  21.852  1.00  0.00     0.028 C 
ATOM     87  C   UNL A   1      27.987  32.148  22.943  1.00  0.00    -0.031 C 
ENDBRANCH  80  82
ENDBRANCH  78  80
ENDBRANCH  72  74
ENDBRANCH  71  72
ENDBRANCH  70  71
ENDBRANCH   1  70
TORSDOF 13
ENDMDL
MODEL 3
REMARK VINA RESULT:     -11.1      6.411     12.116
REMARK SMILES O=C(OCCOC(=O)[C@@H]1CCCN(C(=O)[C@H]2CC=CCC2)C1)c1ccc(-c2c3nc(c(-c4c(F)c(F)c(F)c(F)c4F)c4ccc([nH]4)c(-c4c(F)c(F)c(F)c(F)c4F)c4nc(c(-c5c(F)c(F)c(F)c(F)c5F)c5ccc2[nH]5)C=C4)C=C3)cc1
REMARK SMILES IDX 4 1 3 2 2 3 1 4 23 5 24 6 85 7 25 8 84 9 26 10 27 11 28 12
REMARK SMILES IDX 78 13 29 14 83 15 77 16 79 17 30 18 82 19 76 20 75 21 31 23
REMARK SMILES IDX 63 24 43 25 62 26 44 27 47 28 61 29 80 30 45 31 46 32 60 34
REMARK SMILES IDX 81 35 48 36 32 37 33 38 41 39 34 40 35 41 39 42 42 43 36 44
REMARK SMILES IDX 37 45 40 46 38 47 64 48 65 49 73 50 66 51 67 52 71 53 74 54
REMARK SMILES IDX 68 55 69 56 72 57 70 58 49 59 50 60 58 61 51 62 52 63 56 64
REMARK SMILES IDX 59 65 53 66 54 67 57 68 55 69 5 70 6 71 7 72 8 73 9 74 10 75
REMARK SMILES IDX 22 76 11 77 13 78 12 79 14 80 15 81 16 82 17 83 21 84 18 85
REMARK SMILES IDX 20 86 19 87
REMARK H PARENT 79 22 47 33
REMARK Flexibility Score: inf
ROOT
ATOM      1  C   UNL A   1      36.789  22.165  24.314  1.00  0.00     0.275 C 
ENDROOT
BRANCH   1   2
ATOM      2  O   UNL A   1      37.231  22.099  25.677  1.00  0.00    -0.458 OA
BRANCH   2   3
ATOM      3  C   UNL A   1      38.512  21.827  25.981  1.00  0.00     0.338 C 
ATOM      4  O   UNL A   1      38.991  20.709  25.786  1.00  0.00    -0.246 OA
BRANCH   3   5
ATOM      5  C   UNL A   1      39.369  22.921  26.514  1.00  0.00     0.060 A 
ATOM      6  C   UNL A   1      40.295  22.832  27.550  1.00  0.00     0.016 A 
ATOM      7  C   UNL A   1      39.171  24.159  25.917  1.00  0.00     0.016 A 
ATOM      8  C   UNL A   1      41.000  23.980  27.960  1.00  0.00     0.010 A 
ATOM      9  C   UNL A   1      39.832  25.303  26.327  1.00  0.00     0.010 A 
ATOM     10  C   UNL A   1      40.750  25.223  27.362  1.00  0.00    -0.014 A 
BRANCH  10  11
ATOM     11  C   UNL A   1      41.400  26.479  27.779  1.00  0.00     0.031 A 
ATOM     12  C   UNL A   1      42.843  26.711  27.433  1.00  0.00     0.074 A 
ATOM     13  C   UNL A   1      40.749  27.305  28.618  1.00  0.00     0.049 A 
ATOM     14  N   UNL A   1      43.586  27.766  27.644  1.00  0.00    -0.248 NA
ATOM     15  C   UNL A   1      43.569  25.582  26.823  1.00  0.00     0.031 C 
ATOM     16  C   UNL A   1      39.432  27.048  29.204  1.00  0.00     0.029 A 
ATOM     17  N   UNL A   1      41.116  28.515  29.141  1.00  0.00    -0.354 N 
ATOM     18  C   UNL A   1      44.851  27.431  27.180  1.00  0.00     0.074 A 
ATOM     19  C   UNL A   1      44.810  26.041  26.789  1.00  0.00     0.031 C 
ATOM     20  C   UNL A   1      39.086  28.090  29.978  1.00  0.00     0.029 A 
ATOM     21  C   UNL A   1      40.143  29.095  29.914  1.00  0.00     0.049 A 
ATOM     22  H   UNL A   1      41.994  28.929  28.978  1.00  0.00     0.167 HD
ATOM     23  C   UNL A   1      45.928  28.239  27.031  1.00  0.00     0.037 A 
ATOM     24  C   UNL A   1      40.097  30.329  30.448  1.00  0.00     0.037 A 
ATOM     25  C   UNL A   1      45.907  29.630  27.394  1.00  0.00     0.049 A 
ATOM     26  C   UNL A   1      41.228  31.271  30.134  1.00  0.00     0.074 A 
ATOM     27  C   UNL A   1      46.861  30.606  27.179  1.00  0.00     0.029 A 
ATOM     28  N   UNL A   1      44.847  30.241  28.055  1.00  0.00    -0.354 N 
ATOM     29  N   UNL A   1      42.356  31.027  29.508  1.00  0.00    -0.248 NA
ATOM     30  C   UNL A   1      41.059  32.671  30.541  1.00  0.00     0.031 C 
ATOM     31  C   UNL A   1      46.381  31.806  27.718  1.00  0.00     0.029 A 
ATOM     32  C   UNL A   1      45.115  31.584  28.242  1.00  0.00     0.049 A 
ATOM     33  H   UNL A   1      44.026  29.784  28.347  1.00  0.00     0.167 HD
ATOM     34  C   UNL A   1      43.012  32.245  29.409  1.00  0.00     0.074 A 
ATOM     35  C   UNL A   1      42.148  33.230  30.032  1.00  0.00     0.031 C 
ATOM     36  C   UNL A   1      44.216  32.531  28.854  1.00  0.00     0.037 A 
BRANCH  23  37
ATOM     37  C   UNL A   1      47.158  27.656  26.393  1.00  0.00     0.064 A 
ATOM     38  C   UNL A   1      47.315  27.639  24.995  1.00  0.00     0.173 A 
ATOM     39  C   UNL A   1      48.194  27.113  27.166  1.00  0.00     0.173 A 
ATOM     40  F   UNL A   1      46.356  28.143  24.202  1.00  0.00    -0.203 F 
ATOM     41  C   UNL A   1      48.428  27.053  24.399  1.00  0.00     0.198 A 
ATOM     42  C   UNL A   1      49.325  26.560  26.567  1.00  0.00     0.198 A 
ATOM     43  F   UNL A   1      48.109  27.110  28.505  1.00  0.00    -0.203 F 
ATOM     44  F   UNL A   1      48.514  26.988  23.063  1.00  0.00    -0.200 F 
ATOM     45  C   UNL A   1      49.435  26.518  25.185  1.00  0.00     0.200 A 
ATOM     46  F   UNL A   1      50.307  26.057  27.328  1.00  0.00    -0.200 F 
ATOM     47  F   UNL A   1      50.506  25.954  24.611  1.00  0.00    -0.200 F 
ENDBRANCH  23  37
BRANCH  24  48
ATOM     48  C   UNL A   1      38.880  30.777  31.173  1.00  0.00     0.064 A 
ATOM     49  C   UNL A   1      38.816  30.702  32.573  1.00  0.00     0.173 A 
ATOM     50  C   UNL A   1      37.779  31.322  30.499  1.00  0.00     0.173 A 
ATOM     51  F   UNL A   1      39.845  30.188  33.263  1.00  0.00    -0.203 F 
ATOM     52  C   UNL A   1      37.688  31.131  33.268  1.00  0.00     0.198 A 
ATOM     53  C   UNL A   1      36.658  31.771  31.199  1.00  0.00     0.198 A 
ATOM     54  F   UNL A   1      37.800  31.438  29.164  1.00  0.00    -0.203 F 
ATOM     55  F   UNL A   1      37.643  31.018  34.603  1.00  0.00    -0.200 F 
ATOM     56  C   UNL A   1      36.610  31.669  32.581  1.00  0.00     0.200 A 
ATOM     57  F   UNL A   1      35.626  32.308  30.533  1.00  0.00    -0.200 F 
ATOM     58  F   UNL A   1      35.528  32.088  33.251  1.00  0.00    -0.200 F 
ENDBRANCH  24  48
BRANCH  36  59
ATOM     59  C   UNL A   1      44.647  33.965  28.866  1.00  0.00     0.064 A 
ATOM     60  C   UNL A   1      45.436  34.481  29.903  1.00  0.00     0.173 A 
ATOM     61  C   UNL A   1      44.312  34.812  27.801  1.00  0.00     0.173 A 
ATOM     62  F   UNL A   1      45.768  33.708  30.949  1.00  0.00    -0.203 F 
ATOM     63  C   UNL A   1      45.859  35.805  29.882  1.00  0.00     0.198 A 
ATOM     64  C   UNL A   1      44.761  36.128  27.770  1.00  0.00     0.198 A 
ATOM     65  F   UNL A   1      43.563  34.358  26.784  1.00  0.00    -0.203 F 
ATOM     66  F   UNL A   1      46.580  36.292  30.901  1.00  0.00    -0.200 F 
ATOM     67  C   UNL A   1      45.529  36.625  28.812  1.00  0.00     0.200 A 
ATOM     68  F   UNL A   1      44.452  36.915  26.730  1.00  0.00    -0.200 F 
ATOM     69  F   UNL A   1      45.947  37.897  28.789  1.00  0.00    -0.200 F 
ENDBRANCH  36  59
ENDBRANCH  10  11
ENDBRANCH   3   5
ENDBRANCH   2   3
ENDBRANCH   1   2
BRANCH   1  70
ATOM     70  C   UNL A   1      35.895  23.355  23.929  1.00  0.00     0.274 C 
BRANCH  70  71
ATOM     71  O   UNL A   1      35.037  23.142  22.788  1.00  0.00    -0.462 OA
BRANCH  71  72
ATOM     72  C   UNL A   1      33.969  23.992  22.761  1.00  0.00     0.310 C 
ATOM     73  O   UNL A   1      34.028  25.136  22.315  1.00  0.00    -0.252 OA
BRANCH  72  74
ATOM     74  C   UNL A   1      32.661  23.406  23.286  1.00  0.00     0.119 C 
ATOM     75  C   UNL A   1      32.182  23.971  24.615  1.00  0.00     0.019 C 
ATOM     76  C   UNL A   1      32.656  21.875  23.193  1.00  0.00     0.134 C 
ATOM     77  C   UNL A   1      31.180  23.042  25.301  1.00  0.00     0.022 C 
ATOM     78  N   UNL A   1      32.628  21.143  24.472  1.00  0.00    -0.342 N 
ATOM     79  C   UNL A   1      31.616  21.572  25.429  1.00  0.00     0.119 C 
BRANCH  78  80
ATOM     80  C   UNL A   1      33.237  19.888  24.468  1.00  0.00     0.226 C 
ATOM     81  O   UNL A   1      34.406  19.808  24.887  1.00  0.00    -0.275 OA
BRANCH  80  82
ATOM     82  C   UNL A   1      32.623  18.552  23.956  1.00  0.00     0.083 C 
ATOM     83  C   UNL A   1      33.106  17.705  22.772  1.00  0.00     0.040 C 
ATOM     84  C   UNL A   1      32.246  17.625  25.117  1.00  0.00     0.018 C 
ATOM     85  C   UNL A   1      34.028  16.578  23.126  1.00  0.00    -0.030 C 
ATOM     86  C   UNL A   1      33.396  16.712  25.539  1.00  0.00     0.028 C 
ATOM     87  C   UNL A   1      34.167  16.140  24.384  1.00  0.00    -0.031 C 
ENDBRANCH  80  82
ENDBRANCH  78  80
ENDBRANCH  72  74
ENDBRANCH  71  72
ENDBRANCH  70  71
ENDBRANCH   1  70
TORSDOF 13
ENDMDL
