MODEL 1
REMARK VINA RESULT:     -12.9      0.000      0.000
REMARK SMILES O=C(OCCOC(=O)c1ccc(Cl)cc1-c1ccc(O)c(F)c1)c1ccc(-c2c3nc(c(-c4c(F)c(F)c(F)c(F)c4F)c4ccc([nH]4)c(-c4c(F)c(F)c(F)c(F)c4F)c4nc(c(-c5c(F)c(F)c(F)c(F)c5F)c5ccc2[nH]5)C=C4)C=C3)cc1
REMARK SMILES IDX 4 1 3 2 2 3 1 4 24 5 25 6 86 7 26 8 85 9 27 10 28 11 29 12
REMARK SMILES IDX 79 13 30 14 84 15 78 16 80 17 31 18 83 19 77 20 76 21 32 23
REMARK SMILES IDX 64 24 44 25 63 26 45 27 48 28 62 29 81 30 46 31 47 32 61 34
REMARK SMILES IDX 82 35 49 36 33 37 34 38 42 39 35 40 36 41 40 42 43 43 37 44
REMARK SMILES IDX 38 45 41 46 39 47 65 48 66 49 74 50 67 51 68 52 72 53 75 54
REMARK SMILES IDX 69 55 70 56 73 57 71 58 50 59 51 60 59 61 52 62 53 63 57 64
REMARK SMILES IDX 60 65 54 66 55 67 58 68 56 69 5 70 6 71 7 72 8 73 9 74 10 75
REMARK SMILES IDX 15 76 11 77 14 78 12 79 13 80 16 81 17 82 23 83 18 84 21 85
REMARK SMILES IDX 19 86 22 87 20 88
REMARK H PARENT 80 22 48 33 20 89
REMARK Flexibility Score: inf
ROOT
ATOM      1  C   UNL A   1      32.098  30.241  26.652  1.00  0.00     0.275 C 
ENDROOT
BRANCH   1   2
ATOM      2  O   UNL A   1      33.452  30.687  26.728  1.00  0.00    -0.458 OA
BRANCH   2   3
ATOM      3  C   UNL A   1      33.730  31.721  27.548  1.00  0.00     0.338 C 
ATOM      4  O   UNL A   1      33.126  32.772  27.614  1.00  0.00    -0.246 OA
BRANCH   3   5
ATOM      5  C   UNL A   1      35.030  31.402  28.199  1.00  0.00     0.060 A 
ATOM      6  C   UNL A   1      35.284  30.098  28.637  1.00  0.00     0.016 A 
ATOM      7  C   UNL A   1      36.056  32.351  28.230  1.00  0.00     0.016 A 
ATOM      8  C   UNL A   1      36.535  29.756  29.103  1.00  0.00     0.010 A 
ATOM      9  C   UNL A   1      37.341  31.989  28.597  1.00  0.00     0.010 A 
ATOM     10  C   UNL A   1      37.561  30.703  29.079  1.00  0.00    -0.014 A 
BRANCH  10  11
ATOM     11  C   UNL A   1      38.822  30.355  29.730  1.00  0.00     0.031 A 
ATOM     12  C   UNL A   1      39.046  30.866  31.116  1.00  0.00     0.074 A 
ATOM     13  C   UNL A   1      39.635  29.490  29.105  1.00  0.00     0.049 A 
ATOM     14  N   UNL A   1      39.925  30.483  31.998  1.00  0.00    -0.248 NA
ATOM     15  C   UNL A   1      38.149  31.938  31.589  1.00  0.00     0.031 C 
ATOM     16  C   UNL A   1      39.444  28.990  27.740  1.00  0.00     0.029 A 
ATOM     17  N   UNL A   1      40.755  28.848  29.542  1.00  0.00    -0.354 N 
ATOM     18  C   UNL A   1      39.650  31.225  33.136  1.00  0.00     0.074 A 
ATOM     19  C   UNL A   1      38.597  32.155  32.814  1.00  0.00     0.031 C 
ATOM     20  C   UNL A   1      40.415  28.109  27.455  1.00  0.00     0.029 A 
ATOM     21  C   UNL A   1      41.275  27.974  28.622  1.00  0.00     0.049 A 
ATOM     22  H   UNL A   1      41.151  28.998  30.432  1.00  0.00     0.167 HD
ATOM     23  C   UNL A   1      40.200  31.089  34.362  1.00  0.00     0.037 A 
ATOM     24  C   UNL A   1      42.319  27.138  28.747  1.00  0.00     0.037 A 
ATOM     25  C   UNL A   1      41.267  30.164  34.620  1.00  0.00     0.049 A 
ATOM     26  C   UNL A   1      42.950  27.041  30.110  1.00  0.00     0.074 A 
ATOM     27  C   UNL A   1      41.957  29.932  35.791  1.00  0.00     0.029 A 
ATOM     28  N   UNL A   1      41.801  29.314  33.655  1.00  0.00    -0.354 N 
ATOM     29  N   UNL A   1      42.643  27.694  31.209  1.00  0.00    -0.248 NA
ATOM     30  C   UNL A   1      44.031  26.067  30.270  1.00  0.00     0.031 C 
ATOM     31  C   UNL A   1      42.937  28.969  35.524  1.00  0.00     0.029 A 
ATOM     32  C   UNL A   1      42.824  28.563  34.200  1.00  0.00     0.049 A 
ATOM     33  H   UNL A   1      41.495  29.257  32.721  1.00  0.00     0.167 HD
ATOM     34  C   UNL A   1      43.478  27.200  32.198  1.00  0.00     0.074 A 
ATOM     35  C   UNL A   1      44.280  26.166  31.568  1.00  0.00     0.031 C 
ATOM     36  C   UNL A   1      43.589  27.558  33.502  1.00  0.00     0.037 A 
BRANCH  23  37
ATOM     37  C   UNL A   1      39.647  31.948  35.460  1.00  0.00     0.064 A 
ATOM     38  C   UNL A   1      40.158  33.236  35.707  1.00  0.00     0.173 A 
ATOM     39  C   UNL A   1      38.634  31.476  36.304  1.00  0.00     0.173 A 
ATOM     40  F   UNL A   1      41.152  33.725  34.951  1.00  0.00    -0.203 F 
ATOM     41  C   UNL A   1      39.694  34.002  36.774  1.00  0.00     0.198 A 
ATOM     42  C   UNL A   1      38.154  32.255  37.355  1.00  0.00     0.198 A 
ATOM     43  F   UNL A   1      38.123  30.249  36.125  1.00  0.00    -0.203 F 
ATOM     44  F   UNL A   1      40.240  35.199  37.026  1.00  0.00    -0.200 F 
ATOM     45  C   UNL A   1      38.689  33.513  37.595  1.00  0.00     0.200 A 
ATOM     46  F   UNL A   1      37.183  31.783  38.149  1.00  0.00    -0.200 F 
ATOM     47  F   UNL A   1      38.248  34.247  38.626  1.00  0.00    -0.200 F 
ENDBRANCH  23  37
BRANCH  24  48
ATOM     48  C   UNL A   1      42.771  26.325  27.588  1.00  0.00     0.064 A 
ATOM     49  C   UNL A   1      42.225  25.066  27.307  1.00  0.00     0.173 A 
ATOM     50  C   UNL A   1      43.757  26.812  26.713  1.00  0.00     0.173 A 
ATOM     51  F   UNL A   1      41.276  24.554  28.105  1.00  0.00    -0.203 F 
ATOM     52  C   UNL A   1      42.670  24.310  26.222  1.00  0.00     0.198 A 
ATOM     53  C   UNL A   1      44.180  26.069  25.612  1.00  0.00     0.198 A 
ATOM     54  F   UNL A   1      44.297  28.023  26.916  1.00  0.00    -0.203 F 
ATOM     55  F   UNL A   1      42.161  23.090  26.004  1.00  0.00    -0.200 F 
ATOM     56  C   UNL A   1      43.645  24.814  25.374  1.00  0.00     0.200 A 
ATOM     57  F   UNL A   1      45.103  26.573  24.781  1.00  0.00    -0.200 F 
ATOM     58  F   UNL A   1      44.068  24.090  24.329  1.00  0.00    -0.200 F 
ENDBRANCH  24  48
BRANCH  36  59
ATOM     59  C   UNL A   1      44.610  26.813  34.303  1.00  0.00     0.064 A 
ATOM     60  C   UNL A   1      45.924  27.289  34.427  1.00  0.00     0.173 A 
ATOM     61  C   UNL A   1      44.264  25.630  34.970  1.00  0.00     0.173 A 
ATOM     62  F   UNL A   1      46.299  28.409  33.793  1.00  0.00    -0.203 F 
ATOM     63  C   UNL A   1      46.867  26.580  35.160  1.00  0.00     0.198 A 
ATOM     64  C   UNL A   1      45.201  24.945  35.733  1.00  0.00     0.198 A 
ATOM     65  F   UNL A   1      43.015  25.146  34.887  1.00  0.00    -0.203 F 
ATOM     66  F   UNL A   1      48.134  27.015  35.214  1.00  0.00    -0.200 F 
ATOM     67  C   UNL A   1      46.503  25.413  35.818  1.00  0.00     0.200 A 
ATOM     68  F   UNL A   1      44.846  23.828  36.382  1.00  0.00    -0.200 F 
ATOM     69  F   UNL A   1      47.415  24.734  36.527  1.00  0.00    -0.200 F 
ENDBRANCH  36  59
ENDBRANCH  10  11
ENDBRANCH   3   5
ENDBRANCH   2   3
ENDBRANCH   1   2
BRANCH   1  70
ATOM     70  C   UNL A   1      31.776  28.778  27.039  1.00  0.00     0.275 C 
BRANCH  70  71
ATOM     71  O   UNL A   1      32.205  27.766  26.111  1.00  0.00    -0.458 OA
BRANCH  71  72
ATOM     72  C   UNL A   1      31.275  26.866  25.692  1.00  0.00     0.338 C 
ATOM     73  O   UNL A   1      30.387  26.363  26.359  1.00  0.00    -0.246 OA
BRANCH  72  74
ATOM     74  C   UNL A   1      31.563  26.508  24.280  1.00  0.00     0.068 A 
ATOM     75  C   UNL A   1      32.489  25.465  24.066  1.00  0.00     0.018 A 
ATOM     76  C   UNL A   1      30.932  27.146  23.187  1.00  0.00    -0.002 A 
ATOM     77  C   UNL A   1      32.832  25.075  22.770  1.00  0.00     0.021 A 
ATOM     78  C   UNL A   1      31.326  26.753  21.889  1.00  0.00     0.030 A 
ATOM     79  C   UNL A   1      32.267  25.738  21.688  1.00  0.00     0.041 A 
ATOM     80  Cl  UNL A   1      32.740  25.313  20.089  1.00  0.00    -0.084 Cl
BRANCH  76  81
ATOM     81  C   UNL A   1      29.900  28.195  23.309  1.00  0.00    -0.014 A 
ATOM     82  C   UNL A   1      30.237  29.550  23.431  1.00  0.00     0.013 A 
ATOM     83  C   UNL A   1      28.538  27.889  23.223  1.00  0.00     0.052 A 
ATOM     84  C   UNL A   1      29.287  30.567  23.533  1.00  0.00     0.050 A 
ATOM     85  C   UNL A   1      27.578  28.903  23.301  1.00  0.00     0.165 A 
ATOM     86  C   UNL A   1      27.948  30.234  23.477  1.00  0.00     0.151 A 
ATOM     87  F   UNL A   1      26.283  28.575  23.201  1.00  0.00    -0.203 F 
BRANCH  86  88
ATOM     88  O   UNL A   1      26.999  31.206  23.597  1.00  0.00    -0.505 OA
ATOM     89  H   UNL A   1      26.111  31.026  23.360  1.00  0.00     0.293 HD
ENDBRANCH  86  88
ENDBRANCH  76  81
ENDBRANCH  72  74
ENDBRANCH  71  72
ENDBRANCH  70  71
ENDBRANCH   1  70
TORSDOF 13
ENDMDL
MODEL 2
REMARK VINA RESULT:     -12.8      0.119      1.625
REMARK SMILES O=C(OCCOC(=O)c1ccc(Cl)cc1-c1ccc(O)c(F)c1)c1ccc(-c2c3nc(c(-c4c(F)c(F)c(F)c(F)c4F)c4ccc([nH]4)c(-c4c(F)c(F)c(F)c(F)c4F)c4nc(c(-c5c(F)c(F)c(F)c(F)c5F)c5ccc2[nH]5)C=C4)C=C3)cc1
REMARK SMILES IDX 4 1 3 2 2 3 1 4 24 5 25 6 86 7 26 8 85 9 27 10 28 11 29 12
REMARK SMILES IDX 79 13 30 14 84 15 78 16 80 17 31 18 83 19 77 20 76 21 32 23
REMARK SMILES IDX 64 24 44 25 63 26 45 27 48 28 62 29 81 30 46 31 47 32 61 34
REMARK SMILES IDX 82 35 49 36 33 37 34 38 42 39 35 40 36 41 40 42 43 43 37 44
REMARK SMILES IDX 38 45 41 46 39 47 65 48 66 49 74 50 67 51 68 52 72 53 75 54
REMARK SMILES IDX 69 55 70 56 73 57 71 58 50 59 51 60 59 61 52 62 53 63 57 64
REMARK SMILES IDX 60 65 54 66 55 67 58 68 56 69 5 70 6 71 7 72 8 73 9 74 10 75
REMARK SMILES IDX 15 76 11 77 14 78 12 79 13 80 16 81 17 82 23 83 18 84 21 85
REMARK SMILES IDX 19 86 22 87 20 88
REMARK H PARENT 80 22 48 33 20 89
REMARK Flexibility Score: inf
ROOT
ATOM      1  C   UNL A   1      32.128  30.390  26.729  1.00  0.00     0.275 C 
ENDROOT
BRANCH   1   2
ATOM      2  O   UNL A   1      33.501  30.770  26.817  1.00  0.00    -0.458 OA
BRANCH   2   3
ATOM      3  C   UNL A   1      33.817  31.811  27.613  1.00  0.00     0.338 C 
ATOM      4  O   UNL A   1      33.243  32.879  27.667  1.00  0.00    -0.246 OA
BRANCH   3   5
ATOM      5  C   UNL A   1      35.117  31.470  28.253  1.00  0.00     0.060 A 
ATOM      6  C   UNL A   1      35.367  30.153  28.655  1.00  0.00     0.016 A 
ATOM      7  C   UNL A   1      36.146  32.414  28.310  1.00  0.00     0.016 A 
ATOM      8  C   UNL A   1      36.617  29.794  29.109  1.00  0.00     0.010 A 
ATOM      9  C   UNL A   1      37.430  32.037  28.664  1.00  0.00     0.010 A 
ATOM     10  C   UNL A   1      37.647  30.738  29.110  1.00  0.00    -0.014 A 
BRANCH  10  11
ATOM     11  C   UNL A   1      38.907  30.367  29.749  1.00  0.00     0.031 A 
ATOM     12  C   UNL A   1      39.152  30.874  31.133  1.00  0.00     0.074 A 
ATOM     13  C   UNL A   1      39.699  29.488  29.117  1.00  0.00     0.049 A 
ATOM     14  N   UNL A   1      40.033  30.475  32.007  1.00  0.00    -0.248 NA
ATOM     15  C   UNL A   1      38.278  31.961  31.616  1.00  0.00     0.031 C 
ATOM     16  C   UNL A   1      39.487  28.993  27.753  1.00  0.00     0.029 A 
ATOM     17  N   UNL A   1      40.811  28.827  29.543  1.00  0.00    -0.354 N 
ATOM     18  C   UNL A   1      39.780  31.221  33.148  1.00  0.00     0.074 A 
ATOM     19  C   UNL A   1      38.741  32.169  32.836  1.00  0.00     0.031 C 
ATOM     20  C   UNL A   1      40.440  28.095  27.459  1.00  0.00     0.029 A 
ATOM     21  C   UNL A   1      41.308  27.944  28.619  1.00  0.00     0.049 A 
ATOM     22  H   UNL A   1      41.218  28.969  30.429  1.00  0.00     0.167 HD
ATOM     23  C   UNL A   1      40.340  31.074  34.369  1.00  0.00     0.037 A 
ATOM     24  C   UNL A   1      42.338  27.090  28.733  1.00  0.00     0.037 A 
ATOM     25  C   UNL A   1      41.392  30.131  34.617  1.00  0.00     0.049 A 
ATOM     26  C   UNL A   1      42.979  26.981  30.091  1.00  0.00     0.074 A 
ATOM     27  C   UNL A   1      42.089  29.886  35.781  1.00  0.00     0.029 A 
ATOM     28  N   UNL A   1      41.903  29.272  33.647  1.00  0.00    -0.354 N 
ATOM     29  N   UNL A   1      42.694  27.640  31.193  1.00  0.00    -0.248 NA
ATOM     30  C   UNL A   1      44.045  25.989  30.240  1.00  0.00     0.031 C 
ATOM     31  C   UNL A   1      43.049  28.906  35.505  1.00  0.00     0.029 A 
ATOM     32  C   UNL A   1      42.918  28.503  34.182  1.00  0.00     0.049 A 
ATOM     33  H   UNL A   1      41.587  29.221  32.716  1.00  0.00     0.167 HD
ATOM     34  C   UNL A   1      43.529  27.130  32.173  1.00  0.00     0.074 A 
ATOM     35  C   UNL A   1      44.308  26.082  31.535  1.00  0.00     0.031 C 
ATOM     36  C   UNL A   1      43.658  27.485  33.477  1.00  0.00     0.037 A 
BRANCH  23  37
ATOM     37  C   UNL A   1      39.812  31.942  35.473  1.00  0.00     0.064 A 
ATOM     38  C   UNL A   1      38.763  31.509  36.305  1.00  0.00     0.173 A 
ATOM     39  C   UNL A   1      40.318  33.232  35.680  1.00  0.00     0.173 A 
ATOM     40  F   UNL A   1      38.218  30.296  36.128  1.00  0.00    -0.203 F 
ATOM     41  C   UNL A   1      38.225  32.345  37.280  1.00  0.00     0.198 A 
ATOM     42  C   UNL A   1      39.794  34.057  36.674  1.00  0.00     0.198 A 
ATOM     43  F   UNL A   1      41.307  33.703  34.906  1.00  0.00    -0.203 F 
ATOM     44  F   UNL A   1      37.185  31.932  38.016  1.00  0.00    -0.200 F 
ATOM     45  C   UNL A   1      38.744  33.617  37.468  1.00  0.00     0.200 A 
ATOM     46  F   UNL A   1      40.296  35.287  36.856  1.00  0.00    -0.200 F 
ATOM     47  F   UNL A   1      38.222  34.425  38.401  1.00  0.00    -0.200 F 
ENDBRANCH  23  37
BRANCH  24  48
ATOM     48  C   UNL A   1      42.765  26.271  27.570  1.00  0.00     0.064 A 
ATOM     49  C   UNL A   1      42.180  25.031  27.281  1.00  0.00     0.173 A 
ATOM     50  C   UNL A   1      43.768  26.730  26.699  1.00  0.00     0.173 A 
ATOM     51  F   UNL A   1      41.214  24.545  28.074  1.00  0.00    -0.203 F 
ATOM     52  C   UNL A   1      42.602  24.268  26.192  1.00  0.00     0.198 A 
ATOM     53  C   UNL A   1      44.168  25.981  25.594  1.00  0.00     0.198 A 
ATOM     54  F   UNL A   1      44.346  27.922  26.910  1.00  0.00    -0.203 F 
ATOM     55  F   UNL A   1      42.054  23.066  25.965  1.00  0.00    -0.200 F 
ATOM     56  C   UNL A   1      43.594  24.745  25.348  1.00  0.00     0.200 A 
ATOM     57  F   UNL A   1      45.108  26.461  24.767  1.00  0.00    -0.200 F 
ATOM     58  F   UNL A   1      43.994  24.015  24.298  1.00  0.00    -0.200 F 
ENDBRANCH  24  48
BRANCH  36  59
ATOM     59  C   UNL A   1      44.674  26.722  34.268  1.00  0.00     0.064 A 
ATOM     60  C   UNL A   1      44.337  25.526  34.920  1.00  0.00     0.173 A 
ATOM     61  C   UNL A   1      45.996  27.178  34.352  1.00  0.00     0.173 A 
ATOM     62  F   UNL A   1      43.079  25.063  34.876  1.00  0.00    -0.203 F 
ATOM     63  C   UNL A   1      45.285  24.835  35.664  1.00  0.00     0.198 A 
ATOM     64  C   UNL A   1      46.949  26.463  35.067  1.00  0.00     0.198 A 
ATOM     65  F   UNL A   1      46.363  28.311  33.734  1.00  0.00    -0.203 F 
ATOM     66  F   UNL A   1      44.930  23.730  36.333  1.00  0.00    -0.200 F 
ATOM     67  C   UNL A   1      46.591  25.300  35.731  1.00  0.00     0.200 A 
ATOM     68  F   UNL A   1      48.213  26.903  35.118  1.00  0.00    -0.200 F 
ATOM     69  F   UNL A   1      47.503  24.629  36.447  1.00  0.00    -0.200 F 
ENDBRANCH  36  59
ENDBRANCH  10  11
ENDBRANCH   3   5
ENDBRANCH   2   3
ENDBRANCH   1   2
BRANCH   1  70
ATOM     70  C   UNL A   1      31.746  28.918  27.013  1.00  0.00     0.275 C 
BRANCH  70  71
ATOM     71  O   UNL A   1      32.207  27.946  26.058  1.00  0.00    -0.458 OA
BRANCH  71  72
ATOM     72  C   UNL A   1      31.338  26.963  25.697  1.00  0.00     0.338 C 
ATOM     73  O   UNL A   1      30.514  26.413  26.408  1.00  0.00    -0.246 OA
BRANCH  72  74
ATOM     74  C   UNL A   1      31.610  26.584  24.287  1.00  0.00     0.068 A 
ATOM     75  C   UNL A   1      32.543  25.547  24.077  1.00  0.00     0.018 A 
ATOM     76  C   UNL A   1      30.956  27.196  23.193  1.00  0.00    -0.002 A 
ATOM     77  C   UNL A   1      32.872  25.139  22.783  1.00  0.00     0.021 A 
ATOM     78  C   UNL A   1      31.335  26.785  21.896  1.00  0.00     0.030 A 
ATOM     79  C   UNL A   1      32.284  25.778  21.698  1.00  0.00     0.041 A 
ATOM     80  Cl  UNL A   1      32.739  25.330  20.100  1.00  0.00    -0.084 Cl
BRANCH  76  81
ATOM     81  C   UNL A   1      29.914  28.236  23.312  1.00  0.00    -0.014 A 
ATOM     82  C   UNL A   1      30.239  29.593  23.439  1.00  0.00     0.013 A 
ATOM     83  C   UNL A   1      28.555  27.919  23.219  1.00  0.00     0.052 A 
ATOM     84  C   UNL A   1      29.280  30.602  23.538  1.00  0.00     0.050 A 
ATOM     85  C   UNL A   1      27.586  28.924  23.294  1.00  0.00     0.165 A 
ATOM     86  C   UNL A   1      27.944  30.258  23.475  1.00  0.00     0.151 A 
ATOM     87  F   UNL A   1      26.294  28.585  23.188  1.00  0.00    -0.203 F 
BRANCH  86  88
ATOM     88  O   UNL A   1      26.986  31.222  23.593  1.00  0.00    -0.505 OA
ATOM     89  H   UNL A   1      26.084  31.003  23.469  1.00  0.00     0.293 HD
ENDBRANCH  86  88
ENDBRANCH  76  81
ENDBRANCH  72  74
ENDBRANCH  71  72
ENDBRANCH  70  71
ENDBRANCH   1  70
TORSDOF 13
ENDMDL
MODEL 3
REMARK VINA RESULT:     -12.8      0.157      1.156
REMARK SMILES O=C(OCCOC(=O)c1ccc(Cl)cc1-c1ccc(O)c(F)c1)c1ccc(-c2c3nc(c(-c4c(F)c(F)c(F)c(F)c4F)c4ccc([nH]4)c(-c4c(F)c(F)c(F)c(F)c4F)c4nc(c(-c5c(F)c(F)c(F)c(F)c5F)c5ccc2[nH]5)C=C4)C=C3)cc1
REMARK SMILES IDX 4 1 3 2 2 3 1 4 24 5 25 6 86 7 26 8 85 9 27 10 28 11 29 12
REMARK SMILES IDX 79 13 30 14 84 15 78 16 80 17 31 18 83 19 77 20 76 21 32 23
REMARK SMILES IDX 64 24 44 25 63 26 45 27 48 28 62 29 81 30 46 31 47 32 61 34
REMARK SMILES IDX 82 35 49 36 33 37 34 38 42 39 35 40 36 41 40 42 43 43 37 44
REMARK SMILES IDX 38 45 41 46 39 47 65 48 66 49 74 50 67 51 68 52 72 53 75 54
REMARK SMILES IDX 69 55 70 56 73 57 71 58 50 59 51 60 59 61 52 62 53 63 57 64
REMARK SMILES IDX 60 65 54 66 55 67 58 68 56 69 5 70 6 71 7 72 8 73 9 74 10 75
REMARK SMILES IDX 15 76 11 77 14 78 12 79 13 80 16 81 17 82 23 83 18 84 21 85
REMARK SMILES IDX 19 86 22 87 20 88
REMARK H PARENT 80 22 48 33 20 89
REMARK Flexibility Score: inf
ROOT
ATOM      1  C   UNL A   1      32.129  30.450  26.909  1.00  0.00     0.275 C 
ENDROOT
BRANCH   1   2
ATOM      2  O   UNL A   1      33.509  30.817  26.931  1.00  0.00    -0.458 OA
BRANCH   2   3
ATOM      3  C   UNL A   1      33.866  31.881  27.678  1.00  0.00     0.338 C 
ATOM      4  O   UNL A   1      33.325  32.967  27.692  1.00  0.00    -0.246 OA
BRANCH   3   5
ATOM      5  C   UNL A   1      35.163  31.528  28.318  1.00  0.00     0.060 A 
ATOM      6  C   UNL A   1      35.410  30.204  28.700  1.00  0.00     0.016 A 
ATOM      7  C   UNL A   1      36.193  32.469  28.393  1.00  0.00     0.016 A 
ATOM      8  C   UNL A   1      36.657  29.837  29.153  1.00  0.00     0.010 A 
ATOM      9  C   UNL A   1      37.476  32.085  28.747  1.00  0.00     0.010 A 
ATOM     10  C   UNL A   1      37.688  30.779  29.173  1.00  0.00    -0.014 A 
BRANCH  10  11
ATOM     11  C   UNL A   1      38.945  30.397  29.812  1.00  0.00     0.031 A 
ATOM     12  C   UNL A   1      39.190  30.889  31.201  1.00  0.00     0.074 A 
ATOM     13  C   UNL A   1      39.735  29.519  29.173  1.00  0.00     0.049 A 
ATOM     14  N   UNL A   1      40.067  30.479  32.073  1.00  0.00    -0.248 NA
ATOM     15  C   UNL A   1      38.321  31.977  31.691  1.00  0.00     0.031 C 
ATOM     16  C   UNL A   1      39.523  29.036  27.805  1.00  0.00     0.029 A 
ATOM     17  N   UNL A   1      40.843  28.849  29.596  1.00  0.00    -0.354 N 
ATOM     18  C   UNL A   1      39.816  31.216  33.220  1.00  0.00     0.074 A 
ATOM     19  C   UNL A   1      38.783  32.171  32.914  1.00  0.00     0.031 C 
ATOM     20  C   UNL A   1      40.472  28.137  27.504  1.00  0.00     0.029 A 
ATOM     21  C   UNL A   1      41.337  27.972  28.665  1.00  0.00     0.049 A 
ATOM     22  H   UNL A   1      41.248  28.981  30.484  1.00  0.00     0.167 HD
ATOM     23  C   UNL A   1      40.372  31.056  34.440  1.00  0.00     0.037 A 
ATOM     24  C   UNL A   1      42.363  27.112  28.774  1.00  0.00     0.037 A 
ATOM     25  C   UNL A   1      41.420  30.104  34.682  1.00  0.00     0.049 A 
ATOM     26  C   UNL A   1      43.001  26.987  30.132  1.00  0.00     0.074 A 
ATOM     27  C   UNL A   1      42.113  29.847  35.846  1.00  0.00     0.029 A 
ATOM     28  N   UNL A   1      41.928  29.252  33.706  1.00  0.00    -0.354 N 
ATOM     29  N   UNL A   1      42.717  27.637  31.239  1.00  0.00    -0.248 NA
ATOM     30  C   UNL A   1      44.061  25.989  30.274  1.00  0.00     0.031 C 
ATOM     31  C   UNL A   1      43.069  28.864  35.563  1.00  0.00     0.029 A 
ATOM     32  C   UNL A   1      42.938  28.473  34.236  1.00  0.00     0.049 A 
ATOM     33  H   UNL A   1      41.614  29.211  32.773  1.00  0.00     0.167 HD
ATOM     34  C   UNL A   1      43.547  27.115  32.216  1.00  0.00     0.074 A 
ATOM     35  C   UNL A   1      44.322  26.069  31.571  1.00  0.00     0.031 C 
ATOM     36  C   UNL A   1      43.675  27.458  33.523  1.00  0.00     0.037 A 
BRANCH  23  37
ATOM     37  C   UNL A   1      39.847  31.916  35.551  1.00  0.00     0.064 A 
ATOM     38  C   UNL A   1      38.783  31.488  36.366  1.00  0.00     0.173 A 
ATOM     39  C   UNL A   1      40.371  33.195  35.782  1.00  0.00     0.173 A 
ATOM     40  F   UNL A   1      38.221  30.287  36.166  1.00  0.00    -0.203 F 
ATOM     41  C   UNL A   1      38.247  32.319  37.347  1.00  0.00     0.198 A 
ATOM     42  C   UNL A   1      39.850  34.014  36.782  1.00  0.00     0.198 A 
ATOM     43  F   UNL A   1      41.374  33.660  35.024  1.00  0.00    -0.203 F 
ATOM     44  F   UNL A   1      37.194  31.912  38.067  1.00  0.00    -0.200 F 
ATOM     45  C   UNL A   1      38.784  33.580  37.558  1.00  0.00     0.200 A 
ATOM     46  F   UNL A   1      40.368  35.233  36.986  1.00  0.00    -0.200 F 
ATOM     47  F   UNL A   1      38.265  34.383  38.497  1.00  0.00    -0.200 F 
ENDBRANCH  23  37
BRANCH  24  48
ATOM     48  C   UNL A   1      42.788  26.300  27.604  1.00  0.00     0.064 A 
ATOM     49  C   UNL A   1      42.207  25.059  27.311  1.00  0.00     0.173 A 
ATOM     50  C   UNL A   1      43.784  26.769  26.731  1.00  0.00     0.173 A 
ATOM     51  F   UNL A   1      41.247  24.565  28.106  1.00  0.00    -0.203 F 
ATOM     52  C   UNL A   1      42.627  24.304  26.216  1.00  0.00     0.198 A 
ATOM     53  C   UNL A   1      44.183  26.028  25.620  1.00  0.00     0.198 A 
ATOM     54  F   UNL A   1      44.358  27.963  26.946  1.00  0.00    -0.203 F 
ATOM     55  F   UNL A   1      42.084  23.101  25.986  1.00  0.00    -0.200 F 
ATOM     56  C   UNL A   1      43.613  24.790  25.370  1.00  0.00     0.200 A 
ATOM     57  F   UNL A   1      45.117  26.516  24.792  1.00  0.00    -0.200 F 
ATOM     58  F   UNL A   1      44.012  24.068  24.315  1.00  0.00    -0.200 F 
ENDBRANCH  24  48
BRANCH  36  59
ATOM     59  C   UNL A   1      44.685  26.683  34.310  1.00  0.00     0.064 A 
ATOM     60  C   UNL A   1      46.008  27.133  34.436  1.00  0.00     0.173 A 
ATOM     61  C   UNL A   1      44.319  25.497  34.961  1.00  0.00     0.173 A 
ATOM     62  F   UNL A   1      46.402  28.256  33.817  1.00  0.00    -0.203 F 
ATOM     63  C   UNL A   1      46.940  26.396  35.156  1.00  0.00     0.198 A 
ATOM     64  C   UNL A   1      45.246  24.784  35.711  1.00  0.00     0.198 A 
ATOM     65  F   UNL A   1      43.061  25.037  34.875  1.00  0.00    -0.203 F 
ATOM     66  F   UNL A   1      48.214  26.807  35.212  1.00  0.00    -0.200 F 
ATOM     67  C   UNL A   1      46.557  25.227  35.798  1.00  0.00     0.200 A 
ATOM     68  F   UNL A   1      44.873  23.664  36.344  1.00  0.00    -0.200 F 
ATOM     69  F   UNL A   1      47.458  24.520  36.494  1.00  0.00    -0.200 F 
ENDBRANCH  36  59
ENDBRANCH  10  11
ENDBRANCH   3   5
ENDBRANCH   2   3
ENDBRANCH   1   2
BRANCH   1  70
ATOM     70  C   UNL A   1      31.756  28.956  27.057  1.00  0.00     0.275 C 
BRANCH  70  71
ATOM     71  O   UNL A   1      32.183  28.086  25.994  1.00  0.00    -0.458 OA
BRANCH  71  72
ATOM     72  C   UNL A   1      31.380  27.031  25.689  1.00  0.00     0.338 C 
ATOM     73  O   UNL A   1      30.622  26.442  26.441  1.00  0.00    -0.246 OA
BRANCH  72  74
ATOM     74  C   UNL A   1      31.635  26.633  24.281  1.00  0.00     0.068 A 
ATOM     75  C   UNL A   1      32.573  25.600  24.072  1.00  0.00     0.018 A 
ATOM     76  C   UNL A   1      30.961  27.225  23.187  1.00  0.00    -0.002 A 
ATOM     77  C   UNL A   1      32.886  25.176  22.780  1.00  0.00     0.021 A 
ATOM     78  C   UNL A   1      31.325  26.797  21.891  1.00  0.00     0.030 A 
ATOM     79  C   UNL A   1      32.278  25.794  21.694  1.00  0.00     0.041 A 
ATOM     80  Cl  UNL A   1      32.714  25.327  20.097  1.00  0.00    -0.084 Cl
BRANCH  76  81
ATOM     81  C   UNL A   1      29.913  28.259  23.306  1.00  0.00    -0.014 A 
ATOM     82  C   UNL A   1      30.230  29.619  23.425  1.00  0.00     0.013 A 
ATOM     83  C   UNL A   1      28.556  27.933  23.220  1.00  0.00     0.052 A 
ATOM     84  C   UNL A   1      29.266  30.622  23.524  1.00  0.00     0.050 A 
ATOM     85  C   UNL A   1      27.581  28.933  23.294  1.00  0.00     0.165 A 
ATOM     86  C   UNL A   1      27.932  30.270  23.468  1.00  0.00     0.151 A 
ATOM     87  F   UNL A   1      26.291  28.585  23.195  1.00  0.00    -0.203 F 
BRANCH  86  88
ATOM     88  O   UNL A   1      26.968  31.228  23.585  1.00  0.00    -0.505 OA
ATOM     89  H   UNL A   1      26.076  30.981  23.725  1.00  0.00     0.293 HD
ENDBRANCH  86  88
ENDBRANCH  76  81
ENDBRANCH  72  74
ENDBRANCH  71  72
ENDBRANCH  70  71
ENDBRANCH   1  70
TORSDOF 13
ENDMDL
