MODEL 1
REMARK VINA RESULT:     -12.2      0.000      0.000
REMARK SMILES O=C(OCCOC(=O)[C@H]1CC(=O)N(c2cccc(OC(F)(F)F)c2)C1)c1ccc(-c2c3nc(c(-c4c(F)c(F)c(F)c(F)c4F)c4ccc([nH]4)c(-c4c(F)c(F)c(F)c(F)c4F)c4nc(c(-c5c(F)c(F)c(F)c(F)c5F)c5ccc2[nH]5)C=C4)C=C3)cc1
REMARK SMILES IDX 5 1 4 2 3 3 2 4 1 5 26 6 27 7 88 8 28 9 87 10 29 11 30 12
REMARK SMILES IDX 31 13 81 14 32 15 86 16 80 17 82 18 33 19 85 20 79 21 78 22
REMARK SMILES IDX 34 24 66 25 46 26 65 27 47 28 50 29 64 30 83 31 48 32 49 33
REMARK SMILES IDX 63 35 84 36 51 37 35 38 36 39 44 40 37 41 38 42 42 43 45 44
REMARK SMILES IDX 39 45 40 46 43 47 41 48 67 49 68 50 76 51 69 52 70 53 74 54
REMARK SMILES IDX 77 55 71 56 72 57 75 58 73 59 52 60 53 61 61 62 54 63 55 64
REMARK SMILES IDX 59 65 62 66 56 67 57 68 60 69 58 70 6 71 7 72 8 73 9 74
REMARK SMILES IDX 10 75 25 76 11 77 13 78 12 79 14 80 15 81 24 82 16 83 18 84
REMARK SMILES IDX 17 85 19 86 20 87 21 88 22 89 23 90
REMARK H PARENT 82 23 50 34
REMARK Flexibility Score: inf
ROOT
ATOM      1  C   UNL A   1      42.183  18.916  26.236  1.00  0.00     0.274 C 
ENDROOT
BRANCH   1   2
ATOM      2  C   UNL A   1      43.594  18.368  25.988  1.00  0.00     0.275 C 
BRANCH   2   3
ATOM      3  O   UNL A   1      44.092  18.503  24.651  1.00  0.00    -0.458 OA
BRANCH   3   4
ATOM      4  C   UNL A   1      45.077  19.311  24.199  1.00  0.00     0.338 C 
ATOM      5  O   UNL A   1      46.093  18.813  23.720  1.00  0.00    -0.246 OA
BRANCH   4   6
ATOM      6  C   UNL A   1      45.062  20.786  24.435  1.00  0.00     0.060 A 
ATOM      7  C   UNL A   1      44.563  21.770  23.572  1.00  0.00     0.016 A 
ATOM      8  C   UNL A   1      45.601  21.201  25.653  1.00  0.00     0.016 A 
ATOM      9  C   UNL A   1      44.459  23.113  23.972  1.00  0.00     0.010 A 
ATOM     10  C   UNL A   1      45.519  22.535  26.043  1.00  0.00     0.010 A 
ATOM     11  C   UNL A   1      44.915  23.508  25.226  1.00  0.00    -0.014 A 
BRANCH  11  12
ATOM     12  C   UNL A   1      45.000  24.941  25.622  1.00  0.00     0.031 A 
ATOM     13  C   UNL A   1      46.389  25.525  25.664  1.00  0.00     0.074 A 
ATOM     14  C   UNL A   1      43.924  25.669  26.000  1.00  0.00     0.049 A 
ATOM     15  N   UNL A   1      46.805  26.671  26.132  1.00  0.00    -0.248 NA
ATOM     16  C   UNL A   1      47.467  24.672  25.126  1.00  0.00     0.031 C 
ATOM     17  C   UNL A   1      42.530  25.220  25.983  1.00  0.00     0.029 A 
ATOM     18  N   UNL A   1      43.842  26.933  26.545  1.00  0.00    -0.354 N 
ATOM     19  C   UNL A   1      48.183  26.665  25.943  1.00  0.00     0.074 A 
ATOM     20  C   UNL A   1      48.545  25.368  25.428  1.00  0.00     0.031 C 
ATOM     21  C   UNL A   1      41.749  26.150  26.571  1.00  0.00     0.029 A 
ATOM     22  C   UNL A   1      42.584  27.262  27.015  1.00  0.00     0.049 A 
ATOM     23  H   UNL A   1      44.611  27.547  26.594  1.00  0.00     0.167 HD
ATOM     24  C   UNL A   1      49.066  27.668  26.147  1.00  0.00     0.037 A 
ATOM     25  C   UNL A   1      42.187  28.311  27.772  1.00  0.00     0.037 A 
ATOM     26  C   UNL A   1      48.682  28.935  26.700  1.00  0.00     0.049 A 
ATOM     27  C   UNL A   1      43.219  29.340  28.144  1.00  0.00     0.074 A 
ATOM     28  C   UNL A   1      49.455  30.053  26.932  1.00  0.00     0.029 A 
ATOM     29  N   UNL A   1      47.399  29.224  27.148  1.00  0.00    -0.354 N 
ATOM     30  N   UNL A   1      44.503  29.362  27.885  1.00  0.00    -0.248 NA
ATOM     31  C   UNL A   1      42.733  30.507  28.893  1.00  0.00     0.031 C 
ATOM     32  C   UNL A   1      48.660  30.991  27.600  1.00  0.00     0.029 A 
ATOM     33  C   UNL A   1      47.372  30.485  27.710  1.00  0.00     0.049 A 
ATOM     34  H   UNL A   1      46.626  28.619  27.076  1.00  0.00     0.167 HD
ATOM     35  C   UNL A   1      44.970  30.571  28.378  1.00  0.00     0.074 A 
ATOM     36  C   UNL A   1      43.838  31.231  28.997  1.00  0.00     0.031 C 
ATOM     37  C   UNL A   1      46.211  31.110  28.290  1.00  0.00     0.037 A 
BRANCH  24  38
ATOM     38  C   UNL A   1      50.504  27.390  25.803  1.00  0.00     0.064 A 
ATOM     39  C   UNL A   1      51.439  27.001  26.780  1.00  0.00     0.173 A 
ATOM     40  C   UNL A   1      50.975  27.595  24.498  1.00  0.00     0.173 A 
ATOM     41  F   UNL A   1      51.050  26.807  28.049  1.00  0.00    -0.203 F 
ATOM     42  C   UNL A   1      52.795  26.898  26.478  1.00  0.00     0.198 A 
ATOM     43  C   UNL A   1      52.326  27.449  24.192  1.00  0.00     0.198 A 
ATOM     44  F   UNL A   1      50.132  27.966  23.524  1.00  0.00    -0.203 F 
ATOM     45  F   UNL A   1      53.677  26.627  27.451  1.00  0.00    -0.200 F 
ATOM     46  C   UNL A   1      53.237  27.121  25.185  1.00  0.00     0.200 A 
ATOM     47  F   UNL A   1      52.751  27.652  22.937  1.00  0.00    -0.200 F 
ATOM     48  F   UNL A   1      54.544  27.040  24.899  1.00  0.00    -0.200 F 
ENDBRANCH  24  38
BRANCH  25  49
ATOM     49  C   UNL A   1      40.792  28.447  28.293  1.00  0.00     0.064 A 
ATOM     50  C   UNL A   1      40.394  27.910  29.522  1.00  0.00     0.173 A 
ATOM     51  C   UNL A   1      39.785  29.037  27.514  1.00  0.00     0.173 A 
ATOM     52  F   UNL A   1      41.266  27.205  30.255  1.00  0.00    -0.203 F 
ATOM     53  C   UNL A   1      39.074  28.033  29.974  1.00  0.00     0.198 A 
ATOM     54  C   UNL A   1      38.490  29.230  27.992  1.00  0.00     0.198 A 
ATOM     55  F   UNL A   1      40.023  29.334  26.231  1.00  0.00    -0.203 F 
ATOM     56  F   UNL A   1      38.705  27.454  31.125  1.00  0.00    -0.200 F 
ATOM     57  C   UNL A   1      38.134  28.728  29.227  1.00  0.00     0.200 A 
ATOM     58  F   UNL A   1      37.587  29.869  27.235  1.00  0.00    -0.200 F 
ATOM     59  F   UNL A   1      36.879  28.872  29.674  1.00  0.00    -0.200 F 
ENDBRANCH  25  49
BRANCH  37  60
ATOM     60  C   UNL A   1      46.370  32.523  28.760  1.00  0.00     0.064 A 
ATOM     61  C   UNL A   1      46.782  32.839  30.060  1.00  0.00     0.173 A 
ATOM     62  C   UNL A   1      46.147  33.573  27.857  1.00  0.00     0.173 A 
ATOM     63  F   UNL A   1      46.983  31.867  30.962  1.00  0.00    -0.203 F 
ATOM     64  C   UNL A   1      46.946  34.166  30.446  1.00  0.00     0.198 A 
ATOM     65  C   UNL A   1      46.349  34.895  28.236  1.00  0.00     0.198 A 
ATOM     66  F   UNL A   1      45.752  33.315  26.601  1.00  0.00    -0.203 F 
ATOM     67  F   UNL A   1      47.292  34.455  31.708  1.00  0.00    -0.200 F 
ATOM     68  C   UNL A   1      46.741  35.190  29.532  1.00  0.00     0.200 A 
ATOM     69  F   UNL A   1      46.164  35.879  27.346  1.00  0.00    -0.200 F 
ATOM     70  F   UNL A   1      46.912  36.466  29.904  1.00  0.00    -0.200 F 
ENDBRANCH  37  60
ENDBRANCH  11  12
ENDBRANCH   4   6
ENDBRANCH   3   4
ENDBRANCH   2   3
ENDBRANCH   1   2
BRANCH   1  71
ATOM     71  O   UNL A   1      41.931  20.257  25.763  1.00  0.00    -0.462 OA
BRANCH  71  72
ATOM     72  C   UNL A   1      41.672  21.178  26.730  1.00  0.00     0.311 C 
ATOM     73  O   UNL A   1      42.541  21.704  27.415  1.00  0.00    -0.252 OA
BRANCH  72  74
ATOM     74  C   UNL A   1      40.204  21.510  26.923  1.00  0.00     0.128 C 
ATOM     75  C   UNL A   1      40.017  22.980  27.294  1.00  0.00     0.117 C 
ATOM     76  C   UNL A   1      39.261  21.278  25.759  1.00  0.00     0.141 C 
ATOM     77  C   UNL A   1      38.764  23.430  26.572  1.00  0.00     0.227 C 
ATOM     78  N   UNL A   1      38.298  22.358  25.823  1.00  0.00    -0.311 N 
ATOM     79  O   UNL A   1      38.263  24.532  26.693  1.00  0.00    -0.274 OA
BRANCH  78  80
ATOM     80  C   UNL A   1      37.051  22.318  25.152  1.00  0.00     0.047 A 
ATOM     81  C   UNL A   1      36.923  23.077  23.992  1.00  0.00     0.026 A 
ATOM     82  C   UNL A   1      35.952  21.546  25.591  1.00  0.00     0.073 A 
ATOM     83  C   UNL A   1      35.734  23.069  23.282  1.00  0.00     0.006 A 
ATOM     84  C   UNL A   1      34.707  21.673  24.965  1.00  0.00     0.131 A 
ATOM     85  C   UNL A   1      34.618  22.415  23.792  1.00  0.00     0.047 A 
BRANCH  84  86
ATOM     86  O   UNL A   1      33.494  21.251  25.424  1.00  0.00    -0.406 OA
BRANCH  86  87
ATOM     87  C   UNL A   1      33.075  19.929  25.158  1.00  0.00     0.573 C 
ATOM     88  F   UNL A   1      33.863  19.370  24.216  1.00  0.00    -0.132 F 
ATOM     89  F   UNL A   1      33.077  19.159  26.264  1.00  0.00    -0.132 F 
ATOM     90  F   UNL A   1      31.812  19.970  24.673  1.00  0.00    -0.132 F 
ENDBRANCH  86  87
ENDBRANCH  84  86
ENDBRANCH  78  80
ENDBRANCH  72  74
ENDBRANCH  71  72
ENDBRANCH   1  71
TORSDOF 14
ENDMDL
MODEL 2
REMARK VINA RESULT:     -12.0      5.089      7.553
REMARK SMILES O=C(OCCOC(=O)[C@H]1CC(=O)N(c2cccc(OC(F)(F)F)c2)C1)c1ccc(-c2c3nc(c(-c4c(F)c(F)c(F)c(F)c4F)c4ccc([nH]4)c(-c4c(F)c(F)c(F)c(F)c4F)c4nc(c(-c5c(F)c(F)c(F)c(F)c5F)c5ccc2[nH]5)C=C4)C=C3)cc1
REMARK SMILES IDX 5 1 4 2 3 3 2 4 1 5 26 6 27 7 88 8 28 9 87 10 29 11 30 12
REMARK SMILES IDX 31 13 81 14 32 15 86 16 80 17 82 18 33 19 85 20 79 21 78 22
REMARK SMILES IDX 34 24 66 25 46 26 65 27 47 28 50 29 64 30 83 31 48 32 49 33
REMARK SMILES IDX 63 35 84 36 51 37 35 38 36 39 44 40 37 41 38 42 42 43 45 44
REMARK SMILES IDX 39 45 40 46 43 47 41 48 67 49 68 50 76 51 69 52 70 53 74 54
REMARK SMILES IDX 77 55 71 56 72 57 75 58 73 59 52 60 53 61 61 62 54 63 55 64
REMARK SMILES IDX 59 65 62 66 56 67 57 68 60 69 58 70 6 71 7 72 8 73 9 74
REMARK SMILES IDX 10 75 25 76 11 77 13 78 12 79 14 80 15 81 24 82 16 83 18 84
REMARK SMILES IDX 17 85 19 86 20 87 21 88 22 89 23 90
REMARK H PARENT 82 23 50 34
REMARK Flexibility Score: inf
ROOT
ATOM      1  C   UNL A   1      43.832  20.365  25.361  1.00  0.00     0.274 C 
ENDROOT
BRANCH   1   2
ATOM      2  C   UNL A   1      44.273  21.639  24.630  1.00  0.00     0.275 C 
BRANCH   2   3
ATOM      3  O   UNL A   1      43.427  22.783  24.801  1.00  0.00    -0.458 OA
BRANCH   3   4
ATOM      4  C   UNL A   1      43.785  24.075  24.975  1.00  0.00     0.338 C 
ATOM      5  O   UNL A   1      44.731  24.529  24.334  1.00  0.00    -0.246 OA
BRANCH   4   6
ATOM      6  C   UNL A   1      43.200  24.920  26.058  1.00  0.00     0.060 A 
ATOM      7  C   UNL A   1      42.164  24.567  26.933  1.00  0.00     0.016 A 
ATOM      8  C   UNL A   1      43.766  26.187  26.199  1.00  0.00     0.016 A 
ATOM      9  C   UNL A   1      41.806  25.387  28.015  1.00  0.00     0.010 A 
ATOM     10  C   UNL A   1      43.397  27.011  27.258  1.00  0.00     0.010 A 
ATOM     11  C   UNL A   1      42.438  26.612  28.206  1.00  0.00    -0.014 A 
BRANCH  11  12
ATOM     12  C   UNL A   1      41.968  27.596  29.221  1.00  0.00     0.031 A 
ATOM     13  C   UNL A   1      42.625  27.503  30.573  1.00  0.00     0.074 A 
ATOM     14  C   UNL A   1      40.964  28.472  28.990  1.00  0.00     0.049 A 
ATOM     15  N   UNL A   1      42.317  28.089  31.699  1.00  0.00    -0.248 NA
ATOM     16  C   UNL A   1      43.778  26.587  30.672  1.00  0.00     0.031 C 
ATOM     17  C   UNL A   1      40.265  28.669  27.717  1.00  0.00     0.029 A 
ATOM     18  N   UNL A   1      40.301  29.325  29.848  1.00  0.00    -0.354 N 
ATOM     19  C   UNL A   1      43.237  27.608  32.625  1.00  0.00     0.074 A 
ATOM     20  C   UNL A   1      44.034  26.605  31.966  1.00  0.00     0.031 C 
ATOM     21  C   UNL A   1      39.225  29.509  27.898  1.00  0.00     0.029 A 
ATOM     22  C   UNL A   1      39.174  29.909  29.300  1.00  0.00     0.049 A 
ATOM     23  H   UNL A   1      40.604  29.502  30.768  1.00  0.00     0.167 HD
ATOM     24  C   UNL A   1      43.424  27.997  33.907  1.00  0.00     0.037 A 
ATOM     25  C   UNL A   1      38.192  30.624  29.895  1.00  0.00     0.037 A 
ATOM     26  C   UNL A   1      42.587  28.969  34.549  1.00  0.00     0.049 A 
ATOM     27  C   UNL A   1      38.319  30.907  31.367  1.00  0.00     0.074 A 
ATOM     28  C   UNL A   1      42.675  29.485  35.826  1.00  0.00     0.029 A 
ATOM     29  N   UNL A   1      41.469  29.539  33.953  1.00  0.00    -0.354 N 
ATOM     30  N   UNL A   1      39.241  30.515  32.212  1.00  0.00    -0.248 NA
ATOM     31  C   UNL A   1      37.279  31.758  31.959  1.00  0.00     0.031 C 
ATOM     32  C   UNL A   1      41.559  30.304  36.032  1.00  0.00     0.029 A 
ATOM     33  C   UNL A   1      40.823  30.360  34.856  1.00  0.00     0.049 A 
ATOM     34  H   UNL A   1      41.181  29.380  33.026  1.00  0.00     0.167 HD
ATOM     35  C   UNL A   1      38.932  31.123  33.420  1.00  0.00     0.074 A 
ATOM     36  C   UNL A   1      37.708  31.868  33.207  1.00  0.00     0.031 C 
ATOM     37  C   UNL A   1      39.620  31.104  34.589  1.00  0.00     0.037 A 
BRANCH  24  38
ATOM     38  C   UNL A   1      44.540  27.331  34.663  1.00  0.00     0.064 A 
ATOM     39  C   UNL A   1      44.331  26.164  35.421  1.00  0.00     0.173 A 
ATOM     40  C   UNL A   1      45.817  27.911  34.703  1.00  0.00     0.173 A 
ATOM     41  F   UNL A   1      43.125  25.576  35.438  1.00  0.00    -0.203 F 
ATOM     42  C   UNL A   1      45.333  25.648  36.240  1.00  0.00     0.198 A 
ATOM     43  C   UNL A   1      46.829  27.365  35.490  1.00  0.00     0.198 A 
ATOM     44  F   UNL A   1      46.079  29.022  34.001  1.00  0.00    -0.203 F 
ATOM     45  F   UNL A   1      45.073  24.596  37.030  1.00  0.00    -0.200 F 
ATOM     46  C   UNL A   1      46.580  26.248  36.273  1.00  0.00     0.200 A 
ATOM     47  F   UNL A   1      48.040  27.939  35.511  1.00  0.00    -0.200 F 
ATOM     48  F   UNL A   1      47.538  25.761  37.074  1.00  0.00    -0.200 F 
ENDBRANCH  24  38
BRANCH  25  49
ATOM     49  C   UNL A   1      36.972  31.085  29.162  1.00  0.00     0.064 A 
ATOM     50  C   UNL A   1      35.961  30.205  28.761  1.00  0.00     0.173 A 
ATOM     51  C   UNL A   1      36.839  32.419  28.749  1.00  0.00     0.173 A 
ATOM     52  F   UNL A   1      36.089  28.892  28.992  1.00  0.00    -0.203 F 
ATOM     53  C   UNL A   1      34.840  30.661  28.054  1.00  0.00     0.198 A 
ATOM     54  C   UNL A   1      35.692  32.892  28.115  1.00  0.00     0.198 A 
ATOM     55  F   UNL A   1      37.876  33.257  28.860  1.00  0.00    -0.203 F 
ATOM     56  F   UNL A   1      33.919  29.788  27.627  1.00  0.00    -0.200 F 
ATOM     57  C   UNL A   1      34.688  32.010  27.768  1.00  0.00     0.200 A 
ATOM     58  F   UNL A   1      35.585  34.193  27.811  1.00  0.00    -0.200 F 
ATOM     59  F   UNL A   1      33.601  32.451  27.120  1.00  0.00    -0.200 F 
ENDBRANCH  25  49
BRANCH  37  60
ATOM     60  C   UNL A   1      39.132  32.012  35.674  1.00  0.00     0.064 A 
ATOM     61  C   UNL A   1      38.264  31.577  36.683  1.00  0.00     0.173 A 
ATOM     62  C   UNL A   1      39.596  33.336  35.720  1.00  0.00     0.173 A 
ATOM     63  F   UNL A   1      37.778  30.327  36.665  1.00  0.00    -0.203 F 
ATOM     64  C   UNL A   1      37.860  32.446  37.691  1.00  0.00     0.198 A 
ATOM     65  C   UNL A   1      39.219  34.189  36.749  1.00  0.00     0.198 A 
ATOM     66  F   UNL A   1      40.430  33.794  34.773  1.00  0.00    -0.203 F 
ATOM     67  F   UNL A   1      36.989  32.030  38.621  1.00  0.00    -0.200 F 
ATOM     68  C   UNL A   1      38.346  33.746  37.730  1.00  0.00     0.200 A 
ATOM     69  F   UNL A   1      39.702  35.438  36.790  1.00  0.00    -0.200 F 
ATOM     70  F   UNL A   1      37.964  34.577  38.709  1.00  0.00    -0.200 F 
ENDBRANCH  37  60
ENDBRANCH  11  12
ENDBRANCH   4   6
ENDBRANCH   3   4
ENDBRANCH   2   3
ENDBRANCH   1   2
BRANCH   1  71
ATOM     71  O   UNL A   1      42.738  20.513  26.291  1.00  0.00    -0.462 OA
BRANCH  71  72
ATOM     72  C   UNL A   1      41.722  19.621  26.144  1.00  0.00     0.311 C 
ATOM     73  O   UNL A   1      41.881  18.471  25.751  1.00  0.00    -0.252 OA
BRANCH  72  74
ATOM     74  C   UNL A   1      40.344  20.154  26.491  1.00  0.00     0.128 C 
ATOM     75  C   UNL A   1      40.416  21.609  26.950  1.00  0.00     0.117 C 
ATOM     76  C   UNL A   1      39.280  20.137  25.412  1.00  0.00     0.141 C 
ATOM     77  C   UNL A   1      39.190  22.284  26.374  1.00  0.00     0.227 C 
ATOM     78  N   UNL A   1      38.502  21.341  25.620  1.00  0.00    -0.311 N 
ATOM     79  O   UNL A   1      38.876  23.438  26.596  1.00  0.00    -0.274 OA
BRANCH  78  80
ATOM     80  C   UNL A   1      37.211  21.529  25.070  1.00  0.00     0.047 A 
ATOM     81  C   UNL A   1      37.044  22.578  24.170  1.00  0.00     0.026 A 
ATOM     82  C   UNL A   1      36.104  20.705  25.376  1.00  0.00     0.073 A 
ATOM     83  C   UNL A   1      35.809  22.804  23.585  1.00  0.00     0.006 A 
ATOM     84  C   UNL A   1      34.827  21.042  24.913  1.00  0.00     0.131 A 
ATOM     85  C   UNL A   1      34.697  22.076  23.993  1.00  0.00     0.047 A 
BRANCH  84  86
ATOM     86  O   UNL A   1      33.628  20.553  25.342  1.00  0.00    -0.406 OA
BRANCH  86  87
ATOM     87  C   UNL A   1      33.169  19.312  24.849  1.00  0.00     0.573 C 
ATOM     88  F   UNL A   1      32.153  19.500  23.982  1.00  0.00    -0.132 F 
ATOM     89  F   UNL A   1      34.150  18.606  24.250  1.00  0.00    -0.132 F 
ATOM     90  F   UNL A   1      32.700  18.585  25.889  1.00  0.00    -0.132 F 
ENDBRANCH  86  87
ENDBRANCH  84  86
ENDBRANCH  78  80
ENDBRANCH  72  74
ENDBRANCH  71  72
ENDBRANCH   1  71
TORSDOF 14
ENDMDL
MODEL 3
REMARK VINA RESULT:     -11.9      5.198      7.495
REMARK SMILES O=C(OCCOC(=O)[C@H]1CC(=O)N(c2cccc(OC(F)(F)F)c2)C1)c1ccc(-c2c3nc(c(-c4c(F)c(F)c(F)c(F)c4F)c4ccc([nH]4)c(-c4c(F)c(F)c(F)c(F)c4F)c4nc(c(-c5c(F)c(F)c(F)c(F)c5F)c5ccc2[nH]5)C=C4)C=C3)cc1
REMARK SMILES IDX 5 1 4 2 3 3 2 4 1 5 26 6 27 7 88 8 28 9 87 10 29 11 30 12
REMARK SMILES IDX 31 13 81 14 32 15 86 16 80 17 82 18 33 19 85 20 79 21 78 22
REMARK SMILES IDX 34 24 66 25 46 26 65 27 47 28 50 29 64 30 83 31 48 32 49 33
REMARK SMILES IDX 63 35 84 36 51 37 35 38 36 39 44 40 37 41 38 42 42 43 45 44
REMARK SMILES IDX 39 45 40 46 43 47 41 48 67 49 68 50 76 51 69 52 70 53 74 54
REMARK SMILES IDX 77 55 71 56 72 57 75 58 73 59 52 60 53 61 61 62 54 63 55 64
REMARK SMILES IDX 59 65 62 66 56 67 57 68 60 69 58 70 6 71 7 72 8 73 9 74
REMARK SMILES IDX 10 75 25 76 11 77 13 78 12 79 14 80 15 81 24 82 16 83 18 84
REMARK SMILES IDX 17 85 19 86 20 87 21 88 22 89 23 90
REMARK H PARENT 82 23 50 34
REMARK Flexibility Score: inf
ROOT
ATOM      1  C   UNL A   1      41.254  20.728  27.036  1.00  0.00     0.274 C 
ENDROOT
BRANCH   1   2
ATOM      2  C   UNL A   1      42.429  21.029  26.096  1.00  0.00     0.275 C 
BRANCH   2   3
ATOM      3  O   UNL A   1      42.261  22.155  25.226  1.00  0.00    -0.458 OA
BRANCH   3   4
ATOM      4  C   UNL A   1      43.004  23.282  25.158  1.00  0.00     0.338 C 
ATOM      5  O   UNL A   1      43.986  23.313  24.419  1.00  0.00    -0.246 OA
BRANCH   4   6
ATOM      6  C   UNL A   1      42.792  24.428  26.092  1.00  0.00     0.060 A 
ATOM      7  C   UNL A   1      43.517  25.626  26.131  1.00  0.00     0.016 A 
ATOM      8  C   UNL A   1      41.750  24.269  27.006  1.00  0.00     0.016 A 
ATOM      9  C   UNL A   1      43.122  26.697  26.948  1.00  0.00     0.010 A 
ATOM     10  C   UNL A   1      41.371  25.321  27.834  1.00  0.00     0.010 A 
ATOM     11  C   UNL A   1      42.025  26.565  27.795  1.00  0.00    -0.014 A 
BRANCH  11  12
ATOM     12  C   UNL A   1      41.681  27.597  28.813  1.00  0.00     0.031 A 
ATOM     13  C   UNL A   1      42.435  27.506  30.115  1.00  0.00     0.074 A 
ATOM     14  C   UNL A   1      40.705  28.516  28.633  1.00  0.00     0.049 A 
ATOM     15  N   UNL A   1      42.242  28.134  31.243  1.00  0.00    -0.248 NA
ATOM     16  C   UNL A   1      43.547  26.536  30.152  1.00  0.00     0.031 C 
ATOM     17  C   UNL A   1      39.921  28.716  27.411  1.00  0.00     0.029 A 
ATOM     18  N   UNL A   1      40.152  29.422  29.514  1.00  0.00    -0.354 N 
ATOM     19  C   UNL A   1      43.206  27.633  32.111  1.00  0.00     0.074 A 
ATOM     20  C   UNL A   1      43.902  26.575  31.422  1.00  0.00     0.031 C 
ATOM     21  C   UNL A   1      38.939  29.611  27.646  1.00  0.00     0.029 A 
ATOM     22  C   UNL A   1      39.015  30.048  29.036  1.00  0.00     0.049 A 
ATOM     23  H   UNL A   1      40.533  29.607  30.403  1.00  0.00     0.167 HD
ATOM     24  C   UNL A   1      43.510  28.043  33.362  1.00  0.00     0.037 A 
ATOM     25  C   UNL A   1      38.117  30.826  29.682  1.00  0.00     0.037 A 
ATOM     26  C   UNL A   1      42.772  29.072  34.038  1.00  0.00     0.049 A 
ATOM     27  C   UNL A   1      38.370  31.140  31.131  1.00  0.00     0.074 A 
ATOM     28  C   UNL A   1      42.982  29.615  35.288  1.00  0.00     0.029 A 
ATOM     29  N   UNL A   1      41.641  29.682  33.511  1.00  0.00    -0.354 N 
ATOM     30  N   UNL A   1      39.334  30.723  31.916  1.00  0.00    -0.248 NA
ATOM     31  C   UNL A   1      37.420  32.056  31.775  1.00  0.00     0.031 C 
ATOM     32  C   UNL A   1      41.926  30.494  35.554  1.00  0.00     0.029 A 
ATOM     33  C   UNL A   1      41.106  30.556  34.436  1.00  0.00     0.049 A 
ATOM     34  H   UNL A   1      41.274  29.515  32.613  1.00  0.00     0.167 HD
ATOM     35  C   UNL A   1      39.148  31.376  33.125  1.00  0.00     0.074 A 
ATOM     36  C   UNL A   1      37.948  32.176  32.984  1.00  0.00     0.031 C 
ATOM     37  C   UNL A   1      39.923  31.353  34.238  1.00  0.00     0.037 A 
BRANCH  24  38
ATOM     38  C   UNL A   1      44.648  27.343  34.052  1.00  0.00     0.064 A 
ATOM     39  C   UNL A   1      45.976  27.793  33.935  1.00  0.00     0.173 A 
ATOM     40  C   UNL A   1      44.424  26.159  34.769  1.00  0.00     0.173 A 
ATOM     41  F   UNL A   1      46.254  28.909  33.244  1.00  0.00    -0.203 F 
ATOM     42  C   UNL A   1      47.037  27.049  34.447  1.00  0.00     0.198 A 
ATOM     43  C   UNL A   1      45.485  25.441  35.318  1.00  0.00     0.198 A 
ATOM     44  F   UNL A   1      43.181  25.680  34.917  1.00  0.00    -0.203 F 
ATOM     45  F   UNL A   1      48.298  27.447  34.231  1.00  0.00    -0.200 F 
ATOM     46  C   UNL A   1      46.790  25.874  35.139  1.00  0.00     0.200 A 
ATOM     47  F   UNL A   1      45.244  24.311  35.998  1.00  0.00    -0.200 F 
ATOM     48  F   UNL A   1      47.811  25.150  35.616  1.00  0.00    -0.200 F 
ENDBRANCH  24  38
BRANCH  25  49
ATOM     49  C   UNL A   1      36.868  31.328  29.030  1.00  0.00     0.064 A 
ATOM     50  C   UNL A   1      36.691  32.671  28.680  1.00  0.00     0.173 A 
ATOM     51  C   UNL A   1      35.766  30.482  28.834  1.00  0.00     0.173 A 
ATOM     52  F   UNL A   1      37.644  33.567  28.970  1.00  0.00    -0.203 F 
ATOM     53  C   UNL A   1      35.501  33.117  28.091  1.00  0.00     0.198 A 
ATOM     54  C   UNL A   1      34.610  30.902  28.179  1.00  0.00     0.198 A 
ATOM     55  F   UNL A   1      35.759  29.260  29.379  1.00  0.00    -0.203 F 
ATOM     56  F   UNL A   1      35.334  34.419  27.825  1.00  0.00    -0.200 F 
ATOM     57  C   UNL A   1      34.478  32.225  27.804  1.00  0.00     0.200 A 
ATOM     58  F   UNL A   1      33.618  30.032  27.949  1.00  0.00    -0.200 F 
ATOM     59  F   UNL A   1      33.352  32.646  27.213  1.00  0.00    -0.200 F 
ENDBRANCH  25  49
BRANCH  37  60
ATOM     60  C   UNL A   1      39.563  32.311  35.331  1.00  0.00     0.064 A 
ATOM     61  C   UNL A   1      40.031  33.630  35.358  1.00  0.00     0.173 A 
ATOM     62  C   UNL A   1      38.684  31.896  36.343  1.00  0.00     0.173 A 
ATOM     63  F   UNL A   1      40.892  34.062  34.423  1.00  0.00    -0.203 F 
ATOM     64  C   UNL A   1      39.647  34.497  36.376  1.00  0.00     0.198 A 
ATOM     65  C   UNL A   1      38.273  32.776  37.337  1.00  0.00     0.198 A 
ATOM     66  F   UNL A   1      38.210  30.641  36.355  1.00  0.00    -0.203 F 
ATOM     67  F   UNL A   1      40.144  35.740  36.416  1.00  0.00    -0.200 F 
ATOM     68  C   UNL A   1      38.761  34.073  37.357  1.00  0.00     0.200 A 
ATOM     69  F   UNL A   1      37.406  32.367  38.273  1.00  0.00    -0.200 F 
ATOM     70  F   UNL A   1      38.383  34.914  38.329  1.00  0.00    -0.200 F 
ENDBRANCH  37  60
ENDBRANCH  11  12
ENDBRANCH   4   6
ENDBRANCH   3   4
ENDBRANCH   2   3
ENDBRANCH   1   2
BRANCH   1  71
ATOM     71  O   UNL A   1      39.959  21.201  26.604  1.00  0.00    -0.462 OA
BRANCH  71  72
ATOM     72  C   UNL A   1      39.282  20.367  25.771  1.00  0.00     0.311 C 
ATOM     73  O   UNL A   1      39.614  19.208  25.554  1.00  0.00    -0.252 OA
BRANCH  72  74
ATOM     74  C   UNL A   1      38.067  20.980  25.097  1.00  0.00     0.128 C 
ATOM     75  C   UNL A   1      37.020  19.915  24.777  1.00  0.00     0.117 C 
ATOM     76  C   UNL A   1      37.309  22.062  25.841  1.00  0.00     0.141 C 
ATOM     77  C   UNL A   1      35.678  20.565  25.041  1.00  0.00     0.227 C 
ATOM     78  N   UNL A   1      35.915  21.850  25.511  1.00  0.00    -0.311 N 
ATOM     79  O   UNL A   1      34.606  20.034  24.821  1.00  0.00    -0.274 OA
BRANCH  78  80
ATOM     80  C   UNL A   1      34.920  22.841  25.699  1.00  0.00     0.047 A 
ATOM     81  C   UNL A   1      35.223  24.138  25.292  1.00  0.00     0.026 A 
ATOM     82  C   UNL A   1      33.651  22.577  26.260  1.00  0.00     0.073 A 
ATOM     83  C   UNL A   1      34.288  25.148  25.435  1.00  0.00     0.006 A 
ATOM     84  C   UNL A   1      32.778  23.631  26.555  1.00  0.00     0.131 A 
ATOM     85  C   UNL A   1      33.095  24.910  26.109  1.00  0.00     0.047 A 
BRANCH  84  86
ATOM     86  O   UNL A   1      31.670  23.601  27.350  1.00  0.00    -0.406 OA
BRANCH  86  87
ATOM     87  C   UNL A   1      30.404  23.380  26.766  1.00  0.00     0.573 C 
ATOM     88  F   UNL A   1      30.519  22.570  25.693  1.00  0.00    -0.132 F 
ATOM     89  F   UNL A   1      29.524  22.851  27.639  1.00  0.00    -0.132 F 
ATOM     90  F   UNL A   1      29.915  24.568  26.340  1.00  0.00    -0.132 F 
ENDBRANCH  86  87
ENDBRANCH  84  86
ENDBRANCH  78  80
ENDBRANCH  72  74
ENDBRANCH  71  72
ENDBRANCH   1  71
TORSDOF 14
ENDMDL
