MODEL 1
REMARK VINA RESULT:     -11.3      0.000      0.000
REMARK SMILES Cn1nccc1C[NH2+]Cc1ccc(C(=O)OCCOC(=O)c2ccc(-c3c4nc(c(-c5c(F)c(F)c(F)c(F)c5F)c5ccc([nH]5)c(-c5c(F)c(F)c(F)c(F)c5F)c5nc(c(-c6c(F)c(F)c(F)c(F)c6F)c6ccc3[nH]6)C=C5)C=C4)cc2)cn1
REMARK SMILES IDX 17 1 16 2 14 3 15 4 13 5 10 6 11 7 86 8 12 9 85 10 9 11 8 12
REMARK SMILES IDX 7 15 6 16 1 17 2 18 3 19 4 20 5 21 18 22 19 23 20 24 21 25
REMARK SMILES IDX 22 26 23 27 84 28 24 29 83 30 25 31 26 32 27 33 77 34 28 35
REMARK SMILES IDX 82 36 76 37 78 38 29 39 81 40 75 41 74 42 30 44 62 45 42 46
REMARK SMILES IDX 61 47 43 48 46 49 60 50 79 51 44 52 45 53 59 55 80 56 47 57
REMARK SMILES IDX 31 58 32 59 40 60 33 61 34 62 38 63 41 64 35 65 36 66 39 67
REMARK SMILES IDX 37 68 63 69 64 70 72 71 65 72 66 73 70 74 73 75 67 76 68 77
REMARK SMILES IDX 71 78 69 79 48 80 49 81 57 82 50 83 51 84 55 85 58 86 52 87
REMARK SMILES IDX 53 88 56 89 54 90
REMARK H PARENT 8 13 8 14 78 43 46 54
REMARK Flexibility Score: inf
ROOT
ATOM      1  C   UNL A   1      42.622  20.522  26.060  1.00  0.00     0.275 C 
ENDROOT
BRANCH   1   2
ATOM      2  O   UNL A   1      41.290  20.960  25.718  1.00  0.00    -0.458 OA
BRANCH   2   3
ATOM      3  C   UNL A   1      40.487  21.259  26.770  1.00  0.00     0.339 C 
ATOM      4  O   UNL A   1      40.733  21.069  27.945  1.00  0.00    -0.246 OA
BRANCH   3   5
ATOM      5  C   UNL A   1      39.277  21.983  26.327  1.00  0.00     0.078 A 
ATOM      6  C   UNL A   1      36.905  23.087  25.449  1.00  0.00     0.094 A 
ATOM      7  C   UNL A   1      37.808  23.882  26.159  1.00  0.00     0.031 A 
ATOM      8  N   UNL A   1      37.176  21.795  25.132  1.00  0.00    -0.254 NA
ATOM      9  C   UNL A   1      39.005  23.317  26.617  1.00  0.00     0.019 A 
ATOM     10  C   UNL A   1      38.354  21.287  25.559  1.00  0.00     0.127 A 
BRANCH   6  11
ATOM     11  C   UNL A   1      35.592  23.671  24.949  1.00  0.00     0.318 C 
BRANCH  11  12
ATOM     12  N   UNL A   1      34.540  22.670  24.712  1.00  0.00    -0.336 N 
ATOM     13  H   UNL A   1      34.881  21.989  24.033  1.00  0.00     0.346 HD
ATOM     14  H   UNL A   1      34.321  22.226  25.604  1.00  0.00     0.346 HD
BRANCH  12  15
ATOM     15  C   UNL A   1      33.313  23.272  24.198  1.00  0.00     0.317 C 
BRANCH  15  16
ATOM     16  C   UNL A   1      32.304  23.342  25.292  1.00  0.00     0.092 A 
ATOM     17  C   UNL A   1      32.691  25.733  26.078  1.00  0.00     0.174 C 
ATOM     18  N   UNL A   1      32.056  24.439  26.082  1.00  0.00    -0.267 N 
ATOM     19  N   UNL A   1      31.061  24.241  26.971  1.00  0.00    -0.181 NA
ATOM     20  C   UNL A   1      30.685  22.982  26.763  1.00  0.00     0.135 A 
ATOM     21  C   UNL A   1      31.422  22.373  25.737  1.00  0.00     0.051 A 
ENDBRANCH  15  16
ENDBRANCH  12  15
ENDBRANCH  11  12
ENDBRANCH   6  11
ENDBRANCH   3   5
ENDBRANCH   2   3
ENDBRANCH   1   2
BRANCH   1  22
ATOM     22  C   UNL A   1      43.682  21.489  25.528  1.00  0.00     0.275 C 
BRANCH  22  23
ATOM     23  O   UNL A   1      43.061  22.607  24.863  1.00  0.00    -0.458 OA
BRANCH  23  24
ATOM     24  C   UNL A   1      43.730  23.779  24.945  1.00  0.00     0.338 C 
ATOM     25  O   UNL A   1      44.725  24.115  24.325  1.00  0.00    -0.246 OA
BRANCH  24  26
ATOM     26  C   UNL A   1      43.045  24.689  25.875  1.00  0.00     0.060 A 
ATOM     27  C   UNL A   1      43.299  26.052  25.774  1.00  0.00     0.016 A 
ATOM     28  C   UNL A   1      42.307  24.194  26.949  1.00  0.00     0.016 A 
ATOM     29  C   UNL A   1      42.915  26.913  26.799  1.00  0.00     0.010 A 
ATOM     30  C   UNL A   1      41.828  25.081  27.924  1.00  0.00     0.010 A 
ATOM     31  C   UNL A   1      42.166  26.448  27.891  1.00  0.00    -0.014 A 
BRANCH  31  32
ATOM     32  C   UNL A   1      41.787  27.374  29.005  1.00  0.00     0.031 A 
ATOM     33  C   UNL A   1      42.638  27.466  30.251  1.00  0.00     0.074 A 
ATOM     34  C   UNL A   1      40.704  28.173  28.902  1.00  0.00     0.049 A 
ATOM     35  N   UNL A   1      42.392  28.082  31.382  1.00  0.00    -0.248 NA
ATOM     36  C   UNL A   1      43.933  26.769  30.224  1.00  0.00     0.031 C 
ATOM     37  C   UNL A   1      39.806  28.239  27.748  1.00  0.00     0.029 A 
ATOM     38  N   UNL A   1      40.180  29.097  29.776  1.00  0.00    -0.354 N 
ATOM     39  C   UNL A   1      43.470  27.802  32.215  1.00  0.00     0.074 A 
ATOM     40  C   UNL A   1      44.371  26.954  31.462  1.00  0.00     0.031 C 
ATOM     41  C   UNL A   1      38.883  29.188  27.959  1.00  0.00     0.029 A 
ATOM     42  C   UNL A   1      39.051  29.724  29.305  1.00  0.00     0.049 A 
ATOM     43  H   UNL A   1      40.578  29.292  30.656  1.00  0.00     0.167 HD
ATOM     44  C   UNL A   1      43.692  28.212  33.488  1.00  0.00     0.037 A 
ATOM     45  C   UNL A   1      38.208  30.591  29.899  1.00  0.00     0.037 A 
ATOM     46  C   UNL A   1      42.833  29.111  34.218  1.00  0.00     0.049 A 
ATOM     47  C   UNL A   1      38.449  30.996  31.326  1.00  0.00     0.074 A 
ATOM     48  C   UNL A   1      42.983  29.589  35.510  1.00  0.00     0.029 A 
ATOM     49  N   UNL A   1      41.677  29.687  33.714  1.00  0.00    -0.354 N 
ATOM     50  N   UNL A   1      39.428  30.658  32.128  1.00  0.00    -0.248 NA
ATOM     51  C   UNL A   1      37.449  31.881  31.940  1.00  0.00     0.031 C 
ATOM     52  C   UNL A   1      41.892  30.415  35.803  1.00  0.00     0.029 A 
ATOM     53  C   UNL A   1      41.090  30.493  34.677  1.00  0.00     0.049 A 
ATOM     54  H   UNL A   1      41.325  29.543  32.805  1.00  0.00     0.167 HD
ATOM     55  C   UNL A   1      39.171  31.297  33.333  1.00  0.00     0.074 A 
ATOM     56  C   UNL A   1      37.955  32.060  33.153  1.00  0.00     0.031 C 
ATOM     57  C   UNL A   1      39.877  31.247  34.488  1.00  0.00     0.037 A 
BRANCH  44  58
ATOM     58  C   UNL A   1      44.894  27.662  34.203  1.00  0.00     0.064 A 
ATOM     59  C   UNL A   1      46.132  28.322  34.204  1.00  0.00     0.173 A 
ATOM     60  C   UNL A   1      44.787  26.471  34.939  1.00  0.00     0.173 A 
ATOM     61  F   UNL A   1      46.294  29.455  33.505  1.00  0.00    -0.203 F 
ATOM     62  C   UNL A   1      47.222  27.799  34.897  1.00  0.00     0.198 A 
ATOM     63  C   UNL A   1      45.870  25.967  35.655  1.00  0.00     0.198 A 
ATOM     64  F   UNL A   1      43.625  25.801  34.978  1.00  0.00    -0.203 F 
ATOM     65  F   UNL A   1      48.408  28.421  34.847  1.00  0.00    -0.200 F 
ATOM     66  C   UNL A   1      47.088  26.627  35.627  1.00  0.00     0.200 A 
ATOM     67  F   UNL A   1      45.734  24.842  36.372  1.00  0.00    -0.200 F 
ATOM     68  F   UNL A   1      48.136  26.130  36.300  1.00  0.00    -0.200 F 
ENDBRANCH  44  58
BRANCH  45  69
ATOM     69  C   UNL A   1      37.017  31.089  29.158  1.00  0.00     0.064 A 
ATOM     70  C   UNL A   1      36.959  32.406  28.681  1.00  0.00     0.173 A 
ATOM     71  C   UNL A   1      35.914  30.257  28.912  1.00  0.00     0.173 A 
ATOM     72  F   UNL A   1      37.973  33.250  28.919  1.00  0.00    -0.203 F 
ATOM     73  C   UNL A   1      35.841  32.871  27.991  1.00  0.00     0.198 A 
ATOM     74  C   UNL A   1      34.813  30.714  28.192  1.00  0.00     0.198 A 
ATOM     75  F   UNL A   1      35.915  28.991  29.353  1.00  0.00    -0.203 F 
ATOM     76  F   UNL A   1      35.791  34.146  27.583  1.00  0.00    -0.200 F 
ATOM     77  C   UNL A   1      34.774  32.022  27.737  1.00  0.00     0.200 A 
ATOM     78  F   UNL A   1      33.793  29.884  27.937  1.00  0.00    -0.200 F 
ATOM     79  F   UNL A   1      33.706  32.467  27.063  1.00  0.00    -0.200 F 
ENDBRANCH  45  69
BRANCH  57  80
ATOM     80  C   UNL A   1      39.364  32.057  35.641  1.00  0.00     0.064 A 
ATOM     81  C   UNL A   1      38.494  31.507  36.595  1.00  0.00     0.173 A 
ATOM     82  C   UNL A   1      39.763  33.391  35.808  1.00  0.00     0.173 A 
ATOM     83  F   UNL A   1      38.069  30.241  36.470  1.00  0.00    -0.203 F 
ATOM     84  C   UNL A   1      38.023  32.271  37.659  1.00  0.00     0.198 A 
ATOM     85  C   UNL A   1      39.312  34.145  36.889  1.00  0.00     0.198 A 
ATOM     86  F   UNL A   1      40.597  33.964  34.928  1.00  0.00    -0.203 F 
ATOM     87  F   UNL A   1      37.155  31.739  38.531  1.00  0.00    -0.200 F 
ATOM     88  C   UNL A   1      38.436  33.587  37.808  1.00  0.00     0.200 A 
ATOM     89  F   UNL A   1      39.721  35.412  37.039  1.00  0.00    -0.200 F 
ATOM     90  F   UNL A   1      37.984  34.320  38.835  1.00  0.00    -0.200 F 
ENDBRANCH  57  80
ENDBRANCH  31  32
ENDBRANCH  24  26
ENDBRANCH  23  24
ENDBRANCH  22  23
ENDBRANCH   1  22
TORSDOF 15
ENDMDL
MODEL 2
REMARK VINA RESULT:     -11.1      0.773      1.590
REMARK SMILES Cn1nccc1C[NH2+]Cc1ccc(C(=O)OCCOC(=O)c2ccc(-c3c4nc(c(-c5c(F)c(F)c(F)c(F)c5F)c5ccc([nH]5)c(-c5c(F)c(F)c(F)c(F)c5F)c5nc(c(-c6c(F)c(F)c(F)c(F)c6F)c6ccc3[nH]6)C=C5)C=C4)cc2)cn1
REMARK SMILES IDX 17 1 16 2 14 3 15 4 13 5 10 6 11 7 86 8 12 9 85 10 9 11 8 12
REMARK SMILES IDX 7 15 6 16 1 17 2 18 3 19 4 20 5 21 18 22 19 23 20 24 21 25
REMARK SMILES IDX 22 26 23 27 84 28 24 29 83 30 25 31 26 32 27 33 77 34 28 35
REMARK SMILES IDX 82 36 76 37 78 38 29 39 81 40 75 41 74 42 30 44 62 45 42 46
REMARK SMILES IDX 61 47 43 48 46 49 60 50 79 51 44 52 45 53 59 55 80 56 47 57
REMARK SMILES IDX 31 58 32 59 40 60 33 61 34 62 38 63 41 64 35 65 36 66 39 67
REMARK SMILES IDX 37 68 63 69 64 70 72 71 65 72 66 73 70 74 73 75 67 76 68 77
REMARK SMILES IDX 71 78 69 79 48 80 49 81 57 82 50 83 51 84 55 85 58 86 52 87
REMARK SMILES IDX 53 88 56 89 54 90
REMARK H PARENT 8 13 8 14 78 43 46 54
REMARK Flexibility Score: inf
ROOT
ATOM      1  C   UNL A   1      42.810  20.730  26.037  1.00  0.00     0.275 C 
ENDROOT
BRANCH   1   2
ATOM      2  O   UNL A   1      41.453  21.096  25.707  1.00  0.00    -0.458 OA
BRANCH   2   3
ATOM      3  C   UNL A   1      40.598  21.172  26.758  1.00  0.00     0.339 C 
ATOM      4  O   UNL A   1      40.771  20.705  27.867  1.00  0.00    -0.246 OA
BRANCH   3   5
ATOM      5  C   UNL A   1      39.435  22.024  26.437  1.00  0.00     0.078 A 
ATOM      6  C   UNL A   1      37.127  23.383  25.770  1.00  0.00     0.094 A 
ATOM      7  C   UNL A   1      38.119  24.038  26.505  1.00  0.00     0.031 A 
ATOM      8  N   UNL A   1      37.280  22.108  25.329  1.00  0.00    -0.254 NA
ATOM      9  C   UNL A   1      39.282  23.343  26.856  1.00  0.00     0.019 A 
ATOM     10  C   UNL A   1      38.430  21.474  25.654  1.00  0.00     0.127 A 
BRANCH   6  11
ATOM     11  C   UNL A   1      35.847  24.109  25.385  1.00  0.00     0.318 C 
BRANCH  11  12
ATOM     12  N   UNL A   1      34.896  23.287  24.619  1.00  0.00    -0.336 N 
ATOM     13  H   UNL A   1      35.159  23.312  23.633  1.00  0.00     0.346 HD
ATOM     14  H   UNL A   1      34.932  22.337  24.989  1.00  0.00     0.346 HD
BRANCH  12  15
ATOM     15  C   UNL A   1      33.524  23.767  24.750  1.00  0.00     0.317 C 
BRANCH  15  16
ATOM     16  C   UNL A   1      33.353  24.998  23.927  1.00  0.00     0.092 A 
ATOM     17  C   UNL A   1      32.380  26.558  25.690  1.00  0.00     0.174 C 
ATOM     18  N   UNL A   1      32.860  26.199  24.379  1.00  0.00    -0.267 N 
ATOM     19  N   UNL A   1      32.849  27.160  23.432  1.00  0.00    -0.181 NA
ATOM     20  C   UNL A   1      33.319  26.551  22.346  1.00  0.00     0.135 A 
ATOM     21  C   UNL A   1      33.645  25.209  22.591  1.00  0.00     0.051 A 
ENDBRANCH  15  16
ENDBRANCH  12  15
ENDBRANCH  11  12
ENDBRANCH   6  11
ENDBRANCH   3   5
ENDBRANCH   2   3
ENDBRANCH   1   2
BRANCH   1  22
ATOM     22  C   UNL A   1      43.822  21.568  25.252  1.00  0.00     0.275 C 
BRANCH  22  23
ATOM     23  O   UNL A   1      43.207  22.774  24.758  1.00  0.00    -0.458 OA
BRANCH  23  24
ATOM     24  C   UNL A   1      43.899  23.914  24.979  1.00  0.00     0.338 C 
ATOM     25  O   UNL A   1      44.943  24.266  24.456  1.00  0.00    -0.246 OA
BRANCH  24  26
ATOM     26  C   UNL A   1      43.177  24.769  25.933  1.00  0.00     0.060 A 
ATOM     27  C   UNL A   1      43.265  26.147  25.785  1.00  0.00     0.016 A 
ATOM     28  C   UNL A   1      42.573  24.226  27.066  1.00  0.00     0.016 A 
ATOM     29  C   UNL A   1      42.853  26.991  26.814  1.00  0.00     0.010 A 
ATOM     30  C   UNL A   1      42.060  25.082  28.052  1.00  0.00     0.010 A 
ATOM     31  C   UNL A   1      42.236  26.477  27.965  1.00  0.00    -0.014 A 
BRANCH  31  32
ATOM     32  C   UNL A   1      41.827  27.387  29.082  1.00  0.00     0.031 A 
ATOM     33  C   UNL A   1      42.649  27.468  30.348  1.00  0.00     0.074 A 
ATOM     34  C   UNL A   1      40.743  28.182  28.963  1.00  0.00     0.049 A 
ATOM     35  N   UNL A   1      42.375  28.069  31.480  1.00  0.00    -0.248 NA
ATOM     36  C   UNL A   1      43.947  26.778  30.342  1.00  0.00     0.031 C 
ATOM     37  C   UNL A   1      39.871  28.258  27.790  1.00  0.00     0.029 A 
ATOM     38  N   UNL A   1      40.195  29.093  29.836  1.00  0.00    -0.354 N 
ATOM     39  C   UNL A   1      43.435  27.784  32.333  1.00  0.00     0.074 A 
ATOM     40  C   UNL A   1      44.356  26.949  31.591  1.00  0.00     0.031 C 
ATOM     41  C   UNL A   1      38.938  29.200  27.991  1.00  0.00     0.029 A 
ATOM     42  C   UNL A   1      39.073  29.720  29.348  1.00  0.00     0.049 A 
ATOM     43  H   UNL A   1      40.571  29.278  30.727  1.00  0.00     0.167 HD
ATOM     44  C   UNL A   1      43.626  28.180  33.617  1.00  0.00     0.037 A 
ATOM     45  C   UNL A   1      38.212  30.575  29.933  1.00  0.00     0.037 A 
ATOM     46  C   UNL A   1      42.746  29.065  34.338  1.00  0.00     0.049 A 
ATOM     47  C   UNL A   1      38.418  30.965  31.369  1.00  0.00     0.074 A 
ATOM     48  C   UNL A   1      42.863  29.528  35.638  1.00  0.00     0.029 A 
ATOM     49  N   UNL A   1      41.598  29.641  33.814  1.00  0.00    -0.354 N 
ATOM     50  N   UNL A   1      39.381  30.622  32.189  1.00  0.00    -0.248 NA
ATOM     51  C   UNL A   1      37.401  31.837  31.971  1.00  0.00     0.031 C 
ATOM     52  C   UNL A   1      41.762  30.345  35.916  1.00  0.00     0.029 A 
ATOM     53  C   UNL A   1      40.985  30.433  34.773  1.00  0.00     0.049 A 
ATOM     54  H   UNL A   1      41.267  29.507  32.896  1.00  0.00     0.167 HD
ATOM     55  C   UNL A   1      39.094  31.244  33.395  1.00  0.00     0.074 A 
ATOM     56  C   UNL A   1      37.878  32.004  33.197  1.00  0.00     0.031 C 
ATOM     57  C   UNL A   1      39.774  31.184  34.566  1.00  0.00     0.037 A 
BRANCH  44  58
ATOM     58  C   UNL A   1      44.814  27.627  34.352  1.00  0.00     0.064 A 
ATOM     59  C   UNL A   1      46.002  28.355  34.511  1.00  0.00     0.173 A 
ATOM     60  C   UNL A   1      44.740  26.357  34.948  1.00  0.00     0.173 A 
ATOM     61  F   UNL A   1      46.132  29.566  33.950  1.00  0.00    -0.203 F 
ATOM     62  C   UNL A   1      47.078  27.824  35.219  1.00  0.00     0.198 A 
ATOM     63  C   UNL A   1      45.807  25.842  35.681  1.00  0.00     0.198 A 
ATOM     64  F   UNL A   1      43.626  25.618  34.833  1.00  0.00    -0.203 F 
ATOM     65  F   UNL A   1      48.220  28.518  35.320  1.00  0.00    -0.200 F 
ATOM     66  C   UNL A   1      46.977  26.573  35.809  1.00  0.00     0.200 A 
ATOM     67  F   UNL A   1      45.701  24.639  36.261  1.00  0.00    -0.200 F 
ATOM     68  F   UNL A   1      48.011  26.068  36.498  1.00  0.00    -0.200 F 
ENDBRANCH  44  58
BRANCH  45  69
ATOM     69  C   UNL A   1      37.036  31.077  29.171  1.00  0.00     0.064 A 
ATOM     70  C   UNL A   1      35.950  30.240  28.879  1.00  0.00     0.173 A 
ATOM     71  C   UNL A   1      36.974  32.405  28.722  1.00  0.00     0.173 A 
ATOM     72  F   UNL A   1      35.976  28.953  29.257  1.00  0.00    -0.203 F 
ATOM     73  C   UNL A   1      34.852  30.711  28.162  1.00  0.00     0.198 A 
ATOM     74  C   UNL A   1      35.859  32.884  28.037  1.00  0.00     0.198 A 
ATOM     75  F   UNL A   1      37.988  33.247  28.969  1.00  0.00    -0.203 F 
ATOM     76  F   UNL A   1      33.847  29.879  27.858  1.00  0.00    -0.200 F 
ATOM     77  C   UNL A   1      34.802  32.035  27.752  1.00  0.00     0.200 A 
ATOM     78  F   UNL A   1      35.811  34.168  27.658  1.00  0.00    -0.200 F 
ATOM     79  F   UNL A   1      33.740  32.490  27.075  1.00  0.00    -0.200 F 
ENDBRANCH  45  69
BRANCH  57  80
ATOM     80  C   UNL A   1      39.230  31.977  35.717  1.00  0.00     0.064 A 
ATOM     81  C   UNL A   1      38.328  31.416  36.633  1.00  0.00     0.173 A 
ATOM     82  C   UNL A   1      39.632  33.305  35.920  1.00  0.00     0.173 A 
ATOM     83  F   UNL A   1      37.898  30.155  36.473  1.00  0.00    -0.203 F 
ATOM     84  C   UNL A   1      37.829  32.165  37.696  1.00  0.00     0.198 A 
ATOM     85  C   UNL A   1      39.152  34.043  37.000  1.00  0.00     0.198 A 
ATOM     86  F   UNL A   1      40.497  33.887  35.076  1.00  0.00    -0.203 F 
ATOM     87  F   UNL A   1      36.931  31.624  38.532  1.00  0.00    -0.200 F 
ATOM     88  C   UNL A   1      38.245  33.475  37.881  1.00  0.00     0.200 A 
ATOM     89  F   UNL A   1      39.565  35.304  37.184  1.00  0.00    -0.200 F 
ATOM     90  F   UNL A   1      37.767  34.193  38.906  1.00  0.00    -0.200 F 
ENDBRANCH  57  80
ENDBRANCH  31  32
ENDBRANCH  24  26
ENDBRANCH  23  24
ENDBRANCH  22  23
ENDBRANCH   1  22
TORSDOF 15
ENDMDL
MODEL 3
REMARK VINA RESULT:     -11.0      5.382      7.714
REMARK SMILES Cn1nccc1C[NH2+]Cc1ccc(C(=O)OCCOC(=O)c2ccc(-c3c4nc(c(-c5c(F)c(F)c(F)c(F)c5F)c5ccc([nH]5)c(-c5c(F)c(F)c(F)c(F)c5F)c5nc(c(-c6c(F)c(F)c(F)c(F)c6F)c6ccc3[nH]6)C=C5)C=C4)cc2)cn1
REMARK SMILES IDX 17 1 16 2 14 3 15 4 13 5 10 6 11 7 86 8 12 9 85 10 9 11 8 12
REMARK SMILES IDX 7 15 6 16 1 17 2 18 3 19 4 20 5 21 18 22 19 23 20 24 21 25
REMARK SMILES IDX 22 26 23 27 84 28 24 29 83 30 25 31 26 32 27 33 77 34 28 35
REMARK SMILES IDX 82 36 76 37 78 38 29 39 81 40 75 41 74 42 30 44 62 45 42 46
REMARK SMILES IDX 61 47 43 48 46 49 60 50 79 51 44 52 45 53 59 55 80 56 47 57
REMARK SMILES IDX 31 58 32 59 40 60 33 61 34 62 38 63 41 64 35 65 36 66 39 67
REMARK SMILES IDX 37 68 63 69 64 70 72 71 65 72 66 73 70 74 73 75 67 76 68 77
REMARK SMILES IDX 71 78 69 79 48 80 49 81 57 82 50 83 51 84 55 85 58 86 52 87
REMARK SMILES IDX 53 88 56 89 54 90
REMARK H PARENT 8 13 8 14 78 43 46 54
REMARK Flexibility Score: inf
ROOT
ATOM      1  C   UNL A   1      42.242  19.166  26.951  1.00  0.00     0.275 C 
ENDROOT
BRANCH   1   2
ATOM      2  O   UNL A   1      41.274  20.080  26.393  1.00  0.00    -0.458 OA
BRANCH   2   3
ATOM      3  C   UNL A   1      41.401  21.373  26.785  1.00  0.00     0.339 C 
ATOM      4  O   UNL A   1      42.409  21.905  27.208  1.00  0.00    -0.246 OA
BRANCH   3   5
ATOM      5  C   UNL A   1      40.163  22.134  26.517  1.00  0.00     0.078 A 
ATOM      6  C   UNL A   1      37.729  23.312  25.965  1.00  0.00     0.094 A 
ATOM      7  C   UNL A   1      38.714  24.053  26.622  1.00  0.00     0.031 A 
ATOM      8  N   UNL A   1      37.945  22.039  25.543  1.00  0.00    -0.254 NA
ATOM      9  C   UNL A   1      39.944  23.449  26.916  1.00  0.00     0.019 A 
ATOM     10  C   UNL A   1      39.154  21.495  25.811  1.00  0.00     0.127 A 
BRANCH   6  11
ATOM     11  C   UNL A   1      36.380  23.937  25.643  1.00  0.00     0.318 C 
BRANCH  11  12
ATOM     12  N   UNL A   1      35.496  23.080  24.836  1.00  0.00    -0.336 N 
ATOM     13  H   UNL A   1      35.414  23.480  23.901  1.00  0.00     0.346 HD
ATOM     14  H   UNL A   1      35.907  22.146  24.805  1.00  0.00     0.346 HD
BRANCH  12  15
ATOM     15  C   UNL A   1      34.162  22.964  25.417  1.00  0.00     0.317 C 
BRANCH  15  16
ATOM     16  C   UNL A   1      33.654  21.578  25.209  1.00  0.00     0.092 A 
ATOM     17  C   UNL A   1      31.166  21.976  25.578  1.00  0.00     0.174 C 
ATOM     18  N   UNL A   1      32.337  21.191  25.277  1.00  0.00    -0.267 N 
ATOM     19  N   UNL A   1      32.152  19.883  25.008  1.00  0.00    -0.181 NA
ATOM     20  C   UNL A   1      33.381  19.419  24.790  1.00  0.00     0.135 A 
ATOM     21  C   UNL A   1      34.352  20.423  24.904  1.00  0.00     0.051 A 
ENDBRANCH  15  16
ENDBRANCH  12  15
ENDBRANCH  11  12
ENDBRANCH   6  11
ENDBRANCH   3   5
ENDBRANCH   2   3
ENDBRANCH   1   2
BRANCH   1  22
ATOM     22  C   UNL A   1      43.034  18.452  25.854  1.00  0.00     0.275 C 
BRANCH  22  23
ATOM     23  O   UNL A   1      43.246  19.328  24.730  1.00  0.00    -0.458 OA
BRANCH  23  24
ATOM     24  C   UNL A   1      44.533  19.486  24.348  1.00  0.00     0.338 C 
ATOM     25  O   UNL A   1      45.268  18.658  23.837  1.00  0.00    -0.246 OA
BRANCH  24  26
ATOM     26  C   UNL A   1      44.961  20.876  24.573  1.00  0.00     0.060 A 
ATOM     27  C   UNL A   1      45.650  21.175  25.742  1.00  0.00     0.016 A 
ATOM     28  C   UNL A   1      44.531  21.902  23.734  1.00  0.00     0.016 A 
ATOM     29  C   UNL A   1      45.816  22.500  26.138  1.00  0.00     0.010 A 
ATOM     30  C   UNL A   1      44.796  23.235  24.083  1.00  0.00     0.010 A 
ATOM     31  C   UNL A   1      45.399  23.557  25.314  1.00  0.00    -0.014 A 
BRANCH  31  32
ATOM     32  C   UNL A   1      45.550  24.978  25.762  1.00  0.00     0.031 A 
ATOM     33  C   UNL A   1      46.868  25.700  25.602  1.00  0.00     0.074 A 
ATOM     34  C   UNL A   1      44.502  25.653  26.279  1.00  0.00     0.049 A 
ATOM     35  N   UNL A   1      47.240  26.867  26.071  1.00  0.00    -0.248 NA
ATOM     36  C   UNL A   1      47.908  25.018  24.817  1.00  0.00     0.031 C 
ATOM     37  C   UNL A   1      43.152  25.117  26.457  1.00  0.00     0.029 A 
ATOM     38  N   UNL A   1      44.402  26.947  26.737  1.00  0.00    -0.354 N 
ATOM     39  C   UNL A   1      48.566  27.031  25.686  1.00  0.00     0.074 A 
ATOM     40  C   UNL A   1      48.939  25.841  24.950  1.00  0.00     0.031 C 
ATOM     41  C   UNL A   1      42.350  26.083  26.929  1.00  0.00     0.029 A 
ATOM     42  C   UNL A   1      43.147  27.276  27.192  1.00  0.00     0.049 A 
ATOM     43  H   UNL A   1      45.158  27.578  26.737  1.00  0.00     0.167 HD
ATOM     44  C   UNL A   1      49.398  28.076  25.921  1.00  0.00     0.037 A 
ATOM     45  C   UNL A   1      42.691  28.387  27.803  1.00  0.00     0.037 A 
ATOM     46  C   UNL A   1      49.012  29.291  26.594  1.00  0.00     0.049 A 
ATOM     47  C   UNL A   1      43.642  29.514  28.094  1.00  0.00     0.074 A 
ATOM     48  C   UNL A   1      49.786  30.407  26.870  1.00  0.00     0.029 A 
ATOM     49  N   UNL A   1      47.740  29.561  27.076  1.00  0.00    -0.354 N 
ATOM     50  N   UNL A   1      44.913  29.621  27.797  1.00  0.00    -0.248 NA
ATOM     51  C   UNL A   1      43.100  30.662  28.833  1.00  0.00     0.031 C 
ATOM     52  C   UNL A   1      48.994  31.331  27.561  1.00  0.00     0.029 A 
ATOM     53  C   UNL A   1      47.714  30.814  27.670  1.00  0.00     0.049 A 
ATOM     54  H   UNL A   1      46.969  28.952  27.006  1.00  0.00     0.167 HD
ATOM     55  C   UNL A   1      45.320  30.849  28.299  1.00  0.00     0.074 A 
ATOM     56  C   UNL A   1      44.155  31.462  28.903  1.00  0.00     0.031 C 
ATOM     57  C   UNL A   1      46.551  31.414  28.270  1.00  0.00     0.037 A 
BRANCH  44  58
ATOM     58  C   UNL A   1      50.831  27.943  25.488  1.00  0.00     0.064 A 
ATOM     59  C   UNL A   1      51.849  27.560  26.372  1.00  0.00     0.173 A 
ATOM     60  C   UNL A   1      51.179  28.162  24.144  1.00  0.00     0.173 A 
ATOM     61  F   UNL A   1      51.575  27.353  27.669  1.00  0.00    -0.203 F 
ATOM     62  C   UNL A   1      53.165  27.423  25.934  1.00  0.00     0.198 A 
ATOM     63  C   UNL A   1      52.489  27.993  23.704  1.00  0.00     0.198 A 
ATOM     64  F   UNL A   1      50.244  28.524  23.253  1.00  0.00    -0.203 F 
ATOM     65  F   UNL A   1      54.130  27.100  26.806  1.00  0.00    -0.200 F 
ATOM     66  C   UNL A   1      53.482  27.631  24.600  1.00  0.00     0.200 A 
ATOM     67  F   UNL A   1      52.790  28.182  22.411  1.00  0.00    -0.200 F 
ATOM     68  F   UNL A   1      54.747  27.489  24.179  1.00  0.00    -0.200 F 
ENDBRANCH  44  58
BRANCH  45  69
ATOM     69  C   UNL A   1      41.269  28.462  28.236  1.00  0.00     0.064 A 
ATOM     70  C   UNL A   1      40.880  28.060  29.521  1.00  0.00     0.173 A 
ATOM     71  C   UNL A   1      40.271  28.938  27.372  1.00  0.00     0.173 A 
ATOM     72  F   UNL A   1      41.791  27.567  30.373  1.00  0.00    -0.203 F 
ATOM     73  C   UNL A   1      39.548  28.128  29.923  1.00  0.00     0.198 A 
ATOM     74  C   UNL A   1      38.945  29.038  27.788  1.00  0.00     0.198 A 
ATOM     75  F   UNL A   1      40.588  29.329  26.129  1.00  0.00    -0.203 F 
ATOM     76  F   UNL A   1      39.195  27.697  31.141  1.00  0.00    -0.200 F 
ATOM     77  C   UNL A   1      38.583  28.627  29.060  1.00  0.00     0.200 A 
ATOM     78  F   UNL A   1      38.022  29.536  26.954  1.00  0.00    -0.200 F 
ATOM     79  F   UNL A   1      37.304  28.704  29.452  1.00  0.00    -0.200 F 
ENDBRANCH  45  69
BRANCH  57  80
ATOM     80  C   UNL A   1      46.697  32.772  28.889  1.00  0.00     0.064 A 
ATOM     81  C   UNL A   1      47.067  32.929  30.233  1.00  0.00     0.173 A 
ATOM     82  C   UNL A   1      46.489  33.930  28.125  1.00  0.00     0.173 A 
ATOM     83  F   UNL A   1      47.260  31.854  31.011  1.00  0.00    -0.203 F 
ATOM     84  C   UNL A   1      47.197  34.196  30.796  1.00  0.00     0.198 A 
ATOM     85  C   UNL A   1      46.647  35.196  28.684  1.00  0.00     0.198 A 
ATOM     86  F   UNL A   1      46.139  33.835  26.834  1.00  0.00    -0.203 F 
ATOM     87  F   UNL A   1      47.503  34.322  32.095  1.00  0.00    -0.200 F 
ATOM     88  C   UNL A   1      46.992  35.328  30.020  1.00  0.00     0.200 A 
ATOM     89  F   UNL A   1      46.460  36.288  27.930  1.00  0.00    -0.200 F 
ATOM     90  F   UNL A   1      47.121  36.546  30.562  1.00  0.00    -0.200 F 
ENDBRANCH  57  80
ENDBRANCH  31  32
ENDBRANCH  24  26
ENDBRANCH  23  24
ENDBRANCH  22  23
ENDBRANCH   1  22
TORSDOF 15
ENDMDL
