MODEL 1
REMARK VINA RESULT:     -12.2      0.000      0.000
REMARK SMILES O=C(OCCOC(=O)c1nccnc1C(=O)Nc1ccc2c(c1)OCO2)c1ccc(-c2c3nc(c(-c4c(F)c(F)c(F)c(F)c4F)c4ccc([nH]4)c(-c4c(F)c(F)c(F)c(F)c4F)c4nc(c(-c5c(F)c(F)c(F)c(F)c5F)c5ccc2[nH]5)C=C4)C=C3)cc1
REMARK SMILES IDX 4 1 3 2 2 3 1 4 27 5 28 6 89 7 29 8 88 9 30 10 31 11 32 12
REMARK SMILES IDX 82 13 33 14 87 15 81 16 83 17 34 18 86 19 80 20 79 21 35 23
REMARK SMILES IDX 67 24 47 25 66 26 48 27 51 28 65 29 84 30 49 31 50 32 64 34
REMARK SMILES IDX 85 35 52 36 36 37 37 38 45 39 38 40 39 41 43 42 46 43 40 44
REMARK SMILES IDX 41 45 44 46 42 47 68 48 69 49 77 50 70 51 71 52 75 53 78 54
REMARK SMILES IDX 72 55 73 56 76 57 74 58 53 59 54 60 62 61 55 62 56 63 60 64
REMARK SMILES IDX 63 65 57 66 58 67 61 68 59 69 5 70 6 71 7 72 8 73 9 74 10 75
REMARK SMILES IDX 14 76 11 77 13 78 12 79 15 80 16 81 17 82 18 84 19 85 23 86
REMARK SMILES IDX 20 87 22 88 21 89 24 90 26 91 25 92
REMARK H PARENT 83 22 51 33 17 83
REMARK Flexibility Score: inf
ROOT
ATOM      1  C   UNL A   1      34.158  32.975  27.880  1.00  0.00     0.275 C 
ENDROOT
BRANCH   1   2
ATOM      2  O   UNL A   1      34.132  31.618  28.402  1.00  0.00    -0.458 OA
BRANCH   2   3
ATOM      3  C   UNL A   1      34.662  30.503  27.815  1.00  0.00     0.338 C 
ATOM      4  O   UNL A   1      34.016  29.731  27.147  1.00  0.00    -0.246 OA
BRANCH   3   5
ATOM      5  C   UNL A   1      36.052  30.191  28.202  1.00  0.00     0.060 A 
ATOM      6  C   UNL A   1      36.318  29.661  29.461  1.00  0.00     0.016 A 
ATOM      7  C   UNL A   1      37.059  30.288  27.233  1.00  0.00     0.016 A 
ATOM      8  C   UNL A   1      37.529  29.022  29.671  1.00  0.00     0.010 A 
ATOM      9  C   UNL A   1      38.298  29.688  27.462  1.00  0.00     0.010 A 
ATOM     10  C   UNL A   1      38.511  29.009  28.667  1.00  0.00    -0.014 A 
BRANCH  10  11
ATOM     11  C   UNL A   1      39.829  28.479  29.058  1.00  0.00     0.031 A 
ATOM     12  C   UNL A   1      40.534  29.250  30.119  1.00  0.00     0.074 A 
ATOM     13  C   UNL A   1      40.264  27.269  28.670  1.00  0.00     0.049 A 
ATOM     14  N   UNL A   1      41.447  28.839  30.951  1.00  0.00    -0.248 NA
ATOM     15  C   UNL A   1      40.052  30.623  30.357  1.00  0.00     0.031 C 
ATOM     16  C   UNL A   1      39.579  26.384  27.739  1.00  0.00     0.029 A 
ATOM     17  N   UNL A   1      41.376  26.557  29.036  1.00  0.00    -0.354 N 
ATOM     18  C   UNL A   1      41.536  29.840  31.900  1.00  0.00     0.074 A 
ATOM     19  C   UNL A   1      40.654  30.913  31.499  1.00  0.00     0.031 C 
ATOM     20  C   UNL A   1      40.315  25.278  27.540  1.00  0.00     0.029 A 
ATOM     21  C   UNL A   1      41.497  25.350  28.388  1.00  0.00     0.049 A 
ATOM     22  H   UNL A   1      42.028  26.880  29.700  1.00  0.00     0.167 HD
ATOM     23  C   UNL A   1      42.261  29.829  33.036  1.00  0.00     0.037 A 
ATOM     24  C   UNL A   1      42.450  24.406  28.500  1.00  0.00     0.037 A 
ATOM     25  C   UNL A   1      43.246  28.829  33.326  1.00  0.00     0.049 A 
ATOM     26  C   UNL A   1      43.465  24.569  29.601  1.00  0.00     0.074 A 
ATOM     27  C   UNL A   1      44.177  28.801  34.344  1.00  0.00     0.029 A 
ATOM     28  N   UNL A   1      43.459  27.700  32.545  1.00  0.00    -0.354 N 
ATOM     29  N   UNL A   1      43.527  25.495  30.530  1.00  0.00    -0.248 NA
ATOM     30  C   UNL A   1      44.509  23.544  29.704  1.00  0.00     0.031 C 
ATOM     31  C   UNL A   1      44.996  27.684  34.143  1.00  0.00     0.029 A 
ATOM     32  C   UNL A   1      44.540  26.988  33.031  1.00  0.00     0.049 A 
ATOM     33  H   UNL A   1      42.922  27.445  31.761  1.00  0.00     0.167 HD
ATOM     34  C   UNL A   1      44.585  25.142  31.353  1.00  0.00     0.074 A 
ATOM     35  C   UNL A   1      45.133  23.912  30.814  1.00  0.00     0.031 C 
ATOM     36  C   UNL A   1      45.056  25.769  32.460  1.00  0.00     0.037 A 
BRANCH  23  37
ATOM     37  C   UNL A   1      42.026  30.967  33.971  1.00  0.00     0.064 A 
ATOM     38  C   UNL A   1      40.967  30.932  34.893  1.00  0.00     0.173 A 
ATOM     39  C   UNL A   1      42.787  32.137  33.879  1.00  0.00     0.173 A 
ATOM     40  F   UNL A   1      40.180  29.847  34.979  1.00  0.00    -0.203 F 
ATOM     41  C   UNL A   1      40.672  32.040  35.682  1.00  0.00     0.198 A 
ATOM     42  C   UNL A   1      42.497  33.237  34.679  1.00  0.00     0.198 A 
ATOM     43  F   UNL A   1      43.784  32.224  32.986  1.00  0.00    -0.203 F 
ATOM     44  F   UNL A   1      39.626  32.006  36.520  1.00  0.00    -0.200 F 
ATOM     45  C   UNL A   1      41.438  33.191  35.574  1.00  0.00     0.200 A 
ATOM     46  F   UNL A   1      43.226  34.357  34.562  1.00  0.00    -0.200 F 
ATOM     47  F   UNL A   1      41.140  34.266  36.317  1.00  0.00    -0.200 F 
ENDBRANCH  23  37
BRANCH  24  48
ATOM     48  C   UNL A   1      42.493  23.247  27.568  1.00  0.00     0.064 A 
ATOM     49  C   UNL A   1      41.761  22.074  27.801  1.00  0.00     0.173 A 
ATOM     50  C   UNL A   1      43.341  23.268  26.448  1.00  0.00     0.173 A 
ATOM     51  F   UNL A   1      40.953  21.990  28.867  1.00  0.00    -0.203 F 
ATOM     52  C   UNL A   1      41.904  20.959  26.974  1.00  0.00     0.198 A 
ATOM     53  C   UNL A   1      43.466  22.162  25.611  1.00  0.00     0.198 A 
ATOM     54  F   UNL A   1      44.072  24.362  26.180  1.00  0.00    -0.203 F 
ATOM     55  F   UNL A   1      41.241  19.828  27.258  1.00  0.00    -0.200 F 
ATOM     56  C   UNL A   1      42.757  21.002  25.881  1.00  0.00     0.200 A 
ATOM     57  F   UNL A   1      44.293  22.211  24.557  1.00  0.00    -0.200 F 
ATOM     58  F   UNL A   1      42.910  19.923  25.102  1.00  0.00    -0.200 F 
ENDBRANCH  24  48
BRANCH  36  59
ATOM     59  C   UNL A   1      46.210  25.121  33.161  1.00  0.00     0.064 A 
ATOM     60  C   UNL A   1      46.014  24.092  34.093  1.00  0.00     0.173 A 
ATOM     61  C   UNL A   1      47.525  25.506  32.862  1.00  0.00     0.173 A 
ATOM     62  F   UNL A   1      44.773  23.704  34.421  1.00  0.00    -0.203 F 
ATOM     63  C   UNL A   1      47.098  23.485  34.719  1.00  0.00     0.198 A 
ATOM     64  C   UNL A   1      48.606  24.875  33.468  1.00  0.00     0.198 A 
ATOM     65  F   UNL A   1      47.759  26.481  31.972  1.00  0.00    -0.203 F 
ATOM     66  F   UNL A   1      46.889  22.536  35.641  1.00  0.00    -0.200 F 
ATOM     67  C   UNL A   1      48.392  23.871  34.400  1.00  0.00     0.200 A 
ATOM     68  F   UNL A   1      49.856  25.237  33.147  1.00  0.00    -0.200 F 
ATOM     69  F   UNL A   1      49.434  23.277  34.997  1.00  0.00    -0.200 F 
ENDBRANCH  36  59
ENDBRANCH  10  11
ENDBRANCH   3   5
ENDBRANCH   2   3
ENDBRANCH   1   2
BRANCH   1  70
ATOM     70  C   UNL A   1      32.862  33.810  27.989  1.00  0.00     0.275 C 
BRANCH  70  71
ATOM     71  O   UNL A   1      32.753  34.441  29.280  1.00  0.00    -0.457 OA
BRANCH  71  72
ATOM     72  C   UNL A   1      33.372  35.634  29.449  1.00  0.00     0.359 C 
ATOM     73  O   UNL A   1      33.894  36.295  28.568  1.00  0.00    -0.244 OA
BRANCH  72  74
ATOM     74  C   UNL A   1      33.453  35.939  30.896  1.00  0.00     0.179 A 
ATOM     75  N   UNL A   1      33.107  37.248  31.141  1.00  0.00    -0.245 NA
ATOM     76  C   UNL A   1      33.992  35.122  31.881  1.00  0.00     0.161 A 
ATOM     77  C   UNL A   1      33.429  37.753  32.346  1.00  0.00     0.132 A 
ATOM     78  N   UNL A   1      34.291  35.665  33.114  1.00  0.00    -0.247 NA
ATOM     79  C   UNL A   1      34.032  36.978  33.309  1.00  0.00     0.132 A 
BRANCH  76  80
ATOM     80  C   UNL A   1      34.462  33.690  31.797  1.00  0.00     0.276 C 
ATOM     81  O   UNL A   1      33.761  32.833  32.340  1.00  0.00    -0.267 OA
ATOM     82  N   UNL A   1      35.375  33.276  30.834  1.00  0.00    -0.320 N 
ATOM     83  H   UNL A   1      35.018  32.670  30.145  1.00  0.00     0.170 HD
BRANCH  82  84
ATOM     84  C   UNL A   1      36.737  33.599  30.705  1.00  0.00     0.045 A 
ATOM     85  C   UNL A   1      37.259  33.907  29.456  1.00  0.00     0.030 A 
ATOM     86  C   UNL A   1      37.561  33.772  31.814  1.00  0.00     0.076 A 
ATOM     87  C   UNL A   1      38.608  34.131  29.210  1.00  0.00     0.053 A 
ATOM     88  C   UNL A   1      38.893  34.088  31.579  1.00  0.00     0.167 A 
ATOM     89  C   UNL A   1      39.407  34.213  30.308  1.00  0.00     0.165 A 
ATOM     90  O   UNL A   1      39.844  34.332  32.522  1.00  0.00    -0.454 OA
ATOM     91  O   UNL A   1      40.730  34.502  30.284  1.00  0.00    -0.454 OA
ATOM     92  C   UNL A   1      40.980  34.667  31.690  1.00  0.00     0.468 C 
ENDBRANCH  82  84
ENDBRANCH  76  80
ENDBRANCH  72  74
ENDBRANCH  71  72
ENDBRANCH  70  71
ENDBRANCH   1  70
TORSDOF 13
ENDMDL
MODEL 2
REMARK VINA RESULT:     -11.7      4.097      7.068
REMARK SMILES O=C(OCCOC(=O)c1nccnc1C(=O)Nc1ccc2c(c1)OCO2)c1ccc(-c2c3nc(c(-c4c(F)c(F)c(F)c(F)c4F)c4ccc([nH]4)c(-c4c(F)c(F)c(F)c(F)c4F)c4nc(c(-c5c(F)c(F)c(F)c(F)c5F)c5ccc2[nH]5)C=C4)C=C3)cc1
REMARK SMILES IDX 4 1 3 2 2 3 1 4 27 5 28 6 89 7 29 8 88 9 30 10 31 11 32 12
REMARK SMILES IDX 82 13 33 14 87 15 81 16 83 17 34 18 86 19 80 20 79 21 35 23
REMARK SMILES IDX 67 24 47 25 66 26 48 27 51 28 65 29 84 30 49 31 50 32 64 34
REMARK SMILES IDX 85 35 52 36 36 37 37 38 45 39 38 40 39 41 43 42 46 43 40 44
REMARK SMILES IDX 41 45 44 46 42 47 68 48 69 49 77 50 70 51 71 52 75 53 78 54
REMARK SMILES IDX 72 55 73 56 76 57 74 58 53 59 54 60 62 61 55 62 56 63 60 64
REMARK SMILES IDX 63 65 57 66 58 67 61 68 59 69 5 70 6 71 7 72 8 73 9 74 10 75
REMARK SMILES IDX 14 76 11 77 13 78 12 79 15 80 16 81 17 82 18 84 19 85 23 86
REMARK SMILES IDX 20 87 22 88 21 89 24 90 26 91 25 92
REMARK H PARENT 83 22 51 33 17 83
REMARK Flexibility Score: inf
ROOT
ATOM      1  C   UNL A   1      31.751  32.432  27.124  1.00  0.00     0.275 C 
ENDROOT
BRANCH   1   2
ATOM      2  O   UNL A   1      32.632  33.583  27.235  1.00  0.00    -0.458 OA
BRANCH   2   3
ATOM      3  C   UNL A   1      33.284  34.013  28.358  1.00  0.00     0.338 C 
ATOM      4  O   UNL A   1      33.001  35.031  28.943  1.00  0.00    -0.246 OA
BRANCH   3   5
ATOM      5  C   UNL A   1      34.492  33.244  28.714  1.00  0.00     0.060 A 
ATOM      6  C   UNL A   1      35.717  33.573  28.143  1.00  0.00     0.016 A 
ATOM      7  C   UNL A   1      34.408  32.297  29.744  1.00  0.00     0.016 A 
ATOM      8  C   UNL A   1      36.877  33.126  28.752  1.00  0.00     0.010 A 
ATOM      9  C   UNL A   1      35.577  31.806  30.327  1.00  0.00     0.010 A 
ATOM     10  C   UNL A   1      36.813  32.265  29.861  1.00  0.00    -0.014 A 
BRANCH  10  11
ATOM     11  C   UNL A   1      38.094  31.693  30.310  1.00  0.00     0.031 A 
ATOM     12  C   UNL A   1      38.547  32.131  31.659  1.00  0.00     0.074 A 
ATOM     13  C   UNL A   1      38.694  30.675  29.670  1.00  0.00     0.049 A 
ATOM     14  N   UNL A   1      39.348  31.523  32.485  1.00  0.00    -0.248 NA
ATOM     15  C   UNL A   1      37.910  33.347  32.198  1.00  0.00     0.031 C 
ATOM     16  C   UNL A   1      38.250  30.090  28.414  1.00  0.00     0.029 A 
ATOM     17  N   UNL A   1      39.794  29.930  30.006  1.00  0.00    -0.354 N 
ATOM     18  C   UNL A   1      39.192  32.190  33.685  1.00  0.00     0.074 A 
ATOM     19  C   UNL A   1      38.292  33.300  33.463  1.00  0.00     0.031 C 
ATOM     20  C   UNL A   1      39.107  29.125  28.036  1.00  0.00     0.029 A 
ATOM     21  C   UNL A   1      40.126  28.983  29.067  1.00  0.00     0.049 A 
ATOM     22  H   UNL A   1      40.298  30.061  30.842  1.00  0.00     0.167 HD
ATOM     23  C   UNL A   1      39.724  31.863  34.879  1.00  0.00     0.037 A 
ATOM     24  C   UNL A   1      41.132  28.087  29.067  1.00  0.00     0.037 A 
ATOM     25  C   UNL A   1      40.738  30.862  35.037  1.00  0.00     0.049 A 
ATOM     26  C   UNL A   1      41.938  27.947  30.331  1.00  0.00     0.074 A 
ATOM     27  C   UNL A   1      41.493  30.561  36.152  1.00  0.00     0.029 A 
ATOM     28  N   UNL A   1      41.175  30.032  34.011  1.00  0.00    -0.354 N 
ATOM     29  N   UNL A   1      41.766  28.548  31.486  1.00  0.00    -0.248 NA
ATOM     30  C   UNL A   1      43.041  26.981  30.316  1.00  0.00     0.031 C 
ATOM     31  C   UNL A   1      42.431  29.591  35.783  1.00  0.00     0.029 A 
ATOM     32  C   UNL A   1      42.225  29.249  34.454  1.00  0.00     0.049 A 
ATOM     33  H   UNL A   1      40.796  30.007  33.104  1.00  0.00     0.167 HD
ATOM     34  C   UNL A   1      42.706  28.004  32.346  1.00  0.00     0.074 A 
ATOM     35  C   UNL A   1      43.444  27.018  31.579  1.00  0.00     0.031 C 
ATOM     36  C   UNL A   1      42.935  28.282  33.654  1.00  0.00     0.037 A 
BRANCH  23  37
ATOM     37  C   UNL A   1      39.239  32.653  36.048  1.00  0.00     0.064 A 
ATOM     38  C   UNL A   1      39.821  33.891  36.368  1.00  0.00     0.173 A 
ATOM     39  C   UNL A   1      38.269  32.132  36.910  1.00  0.00     0.173 A 
ATOM     40  F   UNL A   1      40.791  34.403  35.594  1.00  0.00    -0.203 F 
ATOM     41  C   UNL A   1      39.453  34.573  37.524  1.00  0.00     0.198 A 
ATOM     42  C   UNL A   1      37.895  32.823  38.058  1.00  0.00     0.198 A 
ATOM     43  F   UNL A   1      37.715  30.937  36.659  1.00  0.00    -0.203 F 
ATOM     44  F   UNL A   1      40.056  35.728  37.841  1.00  0.00    -0.200 F 
ATOM     45  C   UNL A   1      38.491  34.038  38.368  1.00  0.00     0.200 A 
ATOM     46  F   UNL A   1      36.978  32.298  38.883  1.00  0.00    -0.200 F 
ATOM     47  F   UNL A   1      38.154  34.682  39.494  1.00  0.00    -0.200 F 
ENDBRANCH  23  37
BRANCH  24  48
ATOM     48  C   UNL A   1      41.428  27.269  27.861  1.00  0.00     0.064 A 
ATOM     49  C   UNL A   1      40.915  25.976  27.690  1.00  0.00     0.173 A 
ATOM     50  C   UNL A   1      42.308  27.750  26.876  1.00  0.00     0.173 A 
ATOM     51  F   UNL A   1      40.089  25.457  28.609  1.00  0.00    -0.203 F 
ATOM     52  C   UNL A   1      41.297  25.185  26.606  1.00  0.00     0.198 A 
ATOM     53  C   UNL A   1      42.671  26.967  25.782  1.00  0.00     0.198 A 
ATOM     54  F   UNL A   1      42.837  28.979  26.990  1.00  0.00    -0.203 F 
ATOM     55  F   UNL A   1      40.842  23.928  26.502  1.00  0.00    -0.200 F 
ATOM     56  C   UNL A   1      42.176  25.680  25.654  1.00  0.00     0.200 A 
ATOM     57  F   UNL A   1      43.522  27.453  24.866  1.00  0.00    -0.200 F 
ATOM     58  F   UNL A   1      42.561  24.911  24.626  1.00  0.00    -0.200 F 
ENDBRANCH  24  48
BRANCH  36  59
ATOM     59  C   UNL A   1      44.016  27.497  34.331  1.00  0.00     0.064 A 
ATOM     60  C   UNL A   1      43.755  26.253  34.921  1.00  0.00     0.173 A 
ATOM     61  C   UNL A   1      45.333  27.978  34.348  1.00  0.00     0.173 A 
ATOM     62  F   UNL A   1      42.507  25.763  34.942  1.00  0.00    -0.203 F 
ATOM     63  C   UNL A   1      44.775  25.526  35.526  1.00  0.00     0.198 A 
ATOM     64  C   UNL A   1      46.355  27.233  34.926  1.00  0.00     0.198 A 
ATOM     65  F   UNL A   1      45.629  29.160  33.789  1.00  0.00    -0.203 F 
ATOM     66  F   UNL A   1      44.497  24.361  36.126  1.00  0.00    -0.200 F 
ATOM     67  C   UNL A   1      46.074  26.012  35.521  1.00  0.00     0.200 A 
ATOM     68  F   UNL A   1      47.612  27.696  34.907  1.00  0.00    -0.200 F 
ATOM     69  F   UNL A   1      47.056  25.305  36.095  1.00  0.00    -0.200 F 
ENDBRANCH  36  59
ENDBRANCH  10  11
ENDBRANCH   3   5
ENDBRANCH   2   3
ENDBRANCH   1   2
BRANCH   1  70
ATOM     70  C   UNL A   1      32.405  31.044  26.937  1.00  0.00     0.275 C 
BRANCH  70  71
ATOM     71  O   UNL A   1      31.830  30.342  25.817  1.00  0.00    -0.457 OA
BRANCH  71  72
ATOM     72  C   UNL A   1      31.775  28.990  25.888  1.00  0.00     0.359 C 
ATOM     73  O   UNL A   1      31.459  28.342  26.870  1.00  0.00    -0.244 OA
BRANCH  72  74
ATOM     74  C   UNL A   1      32.308  28.417  24.631  1.00  0.00     0.179 A 
ATOM     75  N   UNL A   1      33.665  28.627  24.532  1.00  0.00    -0.245 NA
ATOM     76  C   UNL A   1      31.561  27.913  23.573  1.00  0.00     0.161 A 
ATOM     77  C   UNL A   1      34.228  28.446  23.324  1.00  0.00     0.132 A 
ATOM     78  N   UNL A   1      32.174  27.719  22.352  1.00  0.00    -0.247 NA
ATOM     79  C   UNL A   1      33.488  28.020  22.246  1.00  0.00     0.132 A 
BRANCH  76  80
ATOM     80  C   UNL A   1      30.078  27.653  23.477  1.00  0.00     0.276 C 
ATOM     81  O   UNL A   1      29.713  26.475  23.434  1.00  0.00    -0.267 OA
ATOM     82  N   UNL A   1      29.141  28.615  23.837  1.00  0.00    -0.320 N 
ATOM     83  H   UNL A   1      28.614  28.413  24.643  1.00  0.00     0.170 HD
BRANCH  82  84
ATOM     84  C   UNL A   1      28.840  29.837  23.210  1.00  0.00     0.045 A 
ATOM     85  C   UNL A   1      29.144  31.033  23.845  1.00  0.00     0.030 A 
ATOM     86  C   UNL A   1      28.380  29.898  21.897  1.00  0.00     0.076 A 
ATOM     87  C   UNL A   1      28.787  32.285  23.361  1.00  0.00     0.053 A 
ATOM     88  C   UNL A   1      28.109  31.155  21.370  1.00  0.00     0.167 A 
ATOM     89  C   UNL A   1      28.263  32.309  22.105  1.00  0.00     0.165 A 
ATOM     90  O   UNL A   1      27.691  31.427  20.104  1.00  0.00    -0.454 OA
ATOM     91  O   UNL A   1      27.926  33.432  21.427  1.00  0.00    -0.454 OA
ATOM     92  C   UNL A   1      27.653  32.874  20.130  1.00  0.00     0.468 C 
ENDBRANCH  82  84
ENDBRANCH  76  80
ENDBRANCH  72  74
ENDBRANCH  71  72
ENDBRANCH  70  71
ENDBRANCH   1  70
TORSDOF 13
ENDMDL
MODEL 3
REMARK VINA RESULT:     -11.7      3.951      7.013
REMARK SMILES O=C(OCCOC(=O)c1nccnc1C(=O)Nc1ccc2c(c1)OCO2)c1ccc(-c2c3nc(c(-c4c(F)c(F)c(F)c(F)c4F)c4ccc([nH]4)c(-c4c(F)c(F)c(F)c(F)c4F)c4nc(c(-c5c(F)c(F)c(F)c(F)c5F)c5ccc2[nH]5)C=C4)C=C3)cc1
REMARK SMILES IDX 4 1 3 2 2 3 1 4 27 5 28 6 89 7 29 8 88 9 30 10 31 11 32 12
REMARK SMILES IDX 82 13 33 14 87 15 81 16 83 17 34 18 86 19 80 20 79 21 35 23
REMARK SMILES IDX 67 24 47 25 66 26 48 27 51 28 65 29 84 30 49 31 50 32 64 34
REMARK SMILES IDX 85 35 52 36 36 37 37 38 45 39 38 40 39 41 43 42 46 43 40 44
REMARK SMILES IDX 41 45 44 46 42 47 68 48 69 49 77 50 70 51 71 52 75 53 78 54
REMARK SMILES IDX 72 55 73 56 76 57 74 58 53 59 54 60 62 61 55 62 56 63 60 64
REMARK SMILES IDX 63 65 57 66 58 67 61 68 59 69 5 70 6 71 7 72 8 73 9 74 10 75
REMARK SMILES IDX 14 76 11 77 13 78 12 79 15 80 16 81 17 82 18 84 19 85 23 86
REMARK SMILES IDX 20 87 22 88 21 89 24 90 26 91 25 92
REMARK H PARENT 83 22 51 33 17 83
REMARK Flexibility Score: inf
ROOT
ATOM      1  C   UNL A   1      33.619  31.122  26.948  1.00  0.00     0.275 C 
ENDROOT
BRANCH   1   2
ATOM      2  O   UNL A   1      33.010  32.245  27.642  1.00  0.00    -0.458 OA
BRANCH   2   3
ATOM      3  C   UNL A   1      33.660  33.265  28.279  1.00  0.00     0.338 C 
ATOM      4  O   UNL A   1      33.302  34.418  28.226  1.00  0.00    -0.246 OA
BRANCH   3   5
ATOM      5  C   UNL A   1      34.949  32.900  28.897  1.00  0.00     0.060 A 
ATOM      6  C   UNL A   1      34.999  31.892  29.854  1.00  0.00     0.016 A 
ATOM      7  C   UNL A   1      36.125  33.470  28.389  1.00  0.00     0.016 A 
ATOM      8  C   UNL A   1      36.219  31.299  30.135  1.00  0.00     0.010 A 
ATOM      9  C   UNL A   1      37.360  32.905  28.710  1.00  0.00     0.010 A 
ATOM     10  C   UNL A   1      37.398  31.784  29.545  1.00  0.00    -0.014 A 
BRANCH  10  11
ATOM     11  C   UNL A   1      38.658  31.217  30.057  1.00  0.00     0.031 A 
ATOM     12  C   UNL A   1      39.040  31.655  31.429  1.00  0.00     0.074 A 
ATOM     13  C   UNL A   1      39.294  30.204  29.446  1.00  0.00     0.049 A 
ATOM     14  N   UNL A   1      39.802  31.048  32.292  1.00  0.00    -0.248 NA
ATOM     15  C   UNL A   1      38.371  32.866  31.937  1.00  0.00     0.031 C 
ATOM     16  C   UNL A   1      38.917  29.619  28.168  1.00  0.00     0.029 A 
ATOM     17  N   UNL A   1      40.379  29.463  29.836  1.00  0.00    -0.354 N 
ATOM     18  C   UNL A   1      39.582  31.712  33.484  1.00  0.00     0.074 A 
ATOM     19  C   UNL A   1      38.689  32.818  33.220  1.00  0.00     0.031 C 
ATOM     20  C   UNL A   1      39.797  28.660  27.832  1.00  0.00     0.029 A 
ATOM     21  C   UNL A   1      40.763  28.520  28.912  1.00  0.00     0.049 A 
ATOM     22  H   UNL A   1      40.841  29.595  30.696  1.00  0.00     0.167 HD
ATOM     23  C   UNL A   1      40.055  31.384  34.703  1.00  0.00     0.037 A 
ATOM     24  C   UNL A   1      41.772  27.629  28.961  1.00  0.00     0.037 A 
ATOM     25  C   UNL A   1      41.064  30.387  34.909  1.00  0.00     0.049 A 
ATOM     26  C   UNL A   1      42.514  27.490  30.264  1.00  0.00     0.074 A 
ATOM     27  C   UNL A   1      41.763  30.088  36.060  1.00  0.00     0.029 A 
ATOM     28  N   UNL A   1      41.557  29.563  33.905  1.00  0.00    -0.354 N 
ATOM     29  N   UNL A   1      42.281  28.088  31.410  1.00  0.00    -0.248 NA
ATOM     30  C   UNL A   1      43.621  26.529  30.302  1.00  0.00     0.031 C 
ATOM     31  C   UNL A   1      42.724  29.123  35.737  1.00  0.00     0.029 A 
ATOM     32  C   UNL A   1      42.586  28.783  34.398  1.00  0.00     0.049 A 
ATOM     33  H   UNL A   1      41.224  29.538  32.979  1.00  0.00     0.167 HD
ATOM     34  C   UNL A   1      43.180  27.546  32.315  1.00  0.00     0.074 A 
ATOM     35  C   UNL A   1      43.960  26.565  31.583  1.00  0.00     0.031 C 
ATOM     36  C   UNL A   1      43.341  27.822  33.633  1.00  0.00     0.037 A 
BRANCH  23  37
ATOM     37  C   UNL A   1      39.508  32.169  35.847  1.00  0.00     0.064 A 
ATOM     38  C   UNL A   1      40.098  33.385  36.230  1.00  0.00     0.173 A 
ATOM     39  C   UNL A   1      38.465  31.662  36.628  1.00  0.00     0.173 A 
ATOM     40  F   UNL A   1      41.134  33.883  35.537  1.00  0.00    -0.203 F 
ATOM     41  C   UNL A   1      39.665  34.059  37.369  1.00  0.00     0.198 A 
ATOM     42  C   UNL A   1      38.028  32.345  37.758  1.00  0.00     0.198 A 
ATOM     43  F   UNL A   1      37.899  30.486  36.318  1.00  0.00    -0.203 F 
ATOM     44  F   UNL A   1      40.274  35.192  37.748  1.00  0.00    -0.200 F 
ATOM     45  C   UNL A   1      38.631  33.538  38.131  1.00  0.00     0.200 A 
ATOM     46  F   UNL A   1      37.040  31.833  38.507  1.00  0.00    -0.200 F 
ATOM     47  F   UNL A   1      38.231  34.174  39.241  1.00  0.00    -0.200 F 
ENDBRANCH  23  37
BRANCH  24  48
ATOM     48  C   UNL A   1      42.133  26.815  27.769  1.00  0.00     0.064 A 
ATOM     49  C   UNL A   1      41.595  25.541  27.544  1.00  0.00     0.173 A 
ATOM     50  C   UNL A   1      43.098  27.280  26.859  1.00  0.00     0.173 A 
ATOM     51  F   UNL A   1      40.688  25.037  28.393  1.00  0.00    -0.203 F 
ATOM     52  C   UNL A   1      42.033  24.750  26.481  1.00  0.00     0.198 A 
ATOM     53  C   UNL A   1      43.518  26.498  25.785  1.00  0.00     0.198 A 
ATOM     54  F   UNL A   1      43.653  28.490  27.028  1.00  0.00    -0.203 F 
ATOM     55  F   UNL A   1      41.549  23.509  26.327  1.00  0.00    -0.200 F 
ATOM     56  C   UNL A   1      42.995  25.228  25.603  1.00  0.00     0.200 A 
ATOM     57  F   UNL A   1      44.448  26.967  24.941  1.00  0.00    -0.200 F 
ATOM     58  F   UNL A   1      43.432  24.458  24.596  1.00  0.00    -0.200 F 
ENDBRANCH  24  48
BRANCH  36  59
ATOM     59  C   UNL A   1      44.390  27.041  34.362  1.00  0.00     0.064 A 
ATOM     60  C   UNL A   1      45.699  27.524  34.496  1.00  0.00     0.173 A 
ATOM     61  C   UNL A   1      44.067  25.819  34.970  1.00  0.00     0.173 A 
ATOM     62  F   UNL A   1      46.056  28.679  33.916  1.00  0.00    -0.203 F 
ATOM     63  C   UNL A   1      46.657  26.797  35.196  1.00  0.00     0.198 A 
ATOM     64  C   UNL A   1      45.019  25.111  35.695  1.00  0.00     0.198 A 
ATOM     65  F   UNL A   1      42.825  25.323  34.873  1.00  0.00    -0.203 F 
ATOM     66  F   UNL A   1      47.914  27.252  35.273  1.00  0.00    -0.200 F 
ATOM     67  C   UNL A   1      46.314  25.597  35.802  1.00  0.00     0.200 A 
ATOM     68  F   UNL A   1      44.683  23.961  36.293  1.00  0.00    -0.200 F 
ATOM     69  F   UNL A   1      47.235  24.904  36.484  1.00  0.00    -0.200 F 
ENDBRANCH  36  59
ENDBRANCH  10  11
ENDBRANCH   3   5
ENDBRANCH   2   3
ENDBRANCH   1   2
BRANCH   1  70
ATOM     70  C   UNL A   1      33.087  29.707  27.268  1.00  0.00     0.275 C 
BRANCH  70  71
ATOM     71  O   UNL A   1      33.345  28.793  26.184  1.00  0.00    -0.457 OA
BRANCH  71  72
ATOM     72  C   UNL A   1      32.275  28.267  25.540  1.00  0.00     0.359 C 
ATOM     73  O   UNL A   1      31.179  28.789  25.440  1.00  0.00    -0.244 OA
BRANCH  72  74
ATOM     74  C   UNL A   1      32.600  26.889  25.106  1.00  0.00     0.179 A 
ATOM     75  N   UNL A   1      32.805  26.068  26.192  1.00  0.00    -0.245 NA
ATOM     76  C   UNL A   1      32.875  26.476  23.808  1.00  0.00     0.161 A 
ATOM     77  C   UNL A   1      33.406  24.886  25.964  1.00  0.00     0.132 A 
ATOM     78  N   UNL A   1      33.472  25.248  23.607  1.00  0.00    -0.247 NA
ATOM     79  C   UNL A   1      33.754  24.494  24.693  1.00  0.00     0.132 A 
BRANCH  76  80
ATOM     80  C   UNL A   1      32.753  27.233  22.509  1.00  0.00     0.276 C 
ATOM     81  O   UNL A   1      33.780  27.379  21.842  1.00  0.00    -0.267 OA
ATOM     82  N   UNL A   1      31.529  27.397  21.870  1.00  0.00    -0.320 N 
ATOM     83  H   UNL A   1      31.428  26.916  21.017  1.00  0.00     0.170 HD
BRANCH  82  84
ATOM     84  C   UNL A   1      30.414  28.154  22.270  1.00  0.00     0.045 A 
ATOM     85  C   UNL A   1      29.385  27.548  22.979  1.00  0.00     0.030 A 
ATOM     86  C   UNL A   1      30.367  29.537  22.113  1.00  0.00     0.076 A 
ATOM     87  C   UNL A   1      28.197  28.181  23.321  1.00  0.00     0.053 A 
ATOM     88  C   UNL A   1      29.218  30.192  22.539  1.00  0.00     0.167 A 
ATOM     89  C   UNL A   1      28.146  29.520  23.082  1.00  0.00     0.165 A 
ATOM     90  O   UNL A   1      28.995  31.534  22.508  1.00  0.00    -0.454 OA
ATOM     91  O   UNL A   1      27.111  30.328  23.415  1.00  0.00    -0.454 OA
ATOM     92  C   UNL A   1      27.692  31.613  23.134  1.00  0.00     0.468 C 
ENDBRANCH  82  84
ENDBRANCH  76  80
ENDBRANCH  72  74
ENDBRANCH  71  72
ENDBRANCH  70  71
ENDBRANCH   1  70
TORSDOF 13
ENDMDL
