MODEL 1
REMARK VINA RESULT:     -13.0      0.000      0.000
REMARK SMILES COc1cccc([C@@H]2CC(c3cccc(C)c3)=NN2C(=O)CCC(=O)OCCOC(=O)c2ccc(-c3c4nc(c(-c5c(F)c(F)c(F)c(F)c5F)c5ccc([nH]5)c(-c5c(F)c(F)c(F)c(F)c5F)c5nc(c(-c6c(F)c(F)c(F)c(F)c6F)c6ccc3[nH]6)C=C5)C=C4)cc2)c1
REMARK SMILES IDX 26 1 24 2 25 3 23 4 22 5 20 6 21 7 19 8 8 9 9 10 10 11 18 12
REMARK SMILES IDX 7 13 3 14 4 15 95 16 5 17 6 18 2 19 1 20 11 21 12 22 17 23
REMARK SMILES IDX 13 24 15 25 14 26 16 27 27 28 28 29 29 30 30 31 31 32 32 33
REMARK SMILES IDX 33 34 94 35 34 36 93 37 35 38 36 39 37 40 87 41 38 42 92 43
REMARK SMILES IDX 86 44 88 45 39 46 91 47 85 48 84 49 40 51 72 52 52 53 71 54
REMARK SMILES IDX 53 55 56 56 70 57 89 58 54 59 55 60 69 62 90 63 57 64 41 65
REMARK SMILES IDX 42 66 50 67 43 68 44 69 48 70 51 71 45 72 46 73 49 74 47 75
REMARK SMILES IDX 73 76 74 77 82 78 75 79 76 80 80 81 83 82 77 83 78 84 81 85
REMARK SMILES IDX 79 86 58 87 59 88 67 89 60 90 61 91 65 92 68 93 62 94 63 95
REMARK SMILES IDX 66 96 64 97
REMARK H PARENT 88 50 56 61
REMARK Flexibility Score: inf
ROOT
ATOM      1  O   UNL A   1      41.549  21.188  25.665  1.00  0.00    -0.462 OA
ENDROOT
BRANCH   1   2
ATOM      2  C   UNL A   1      40.646  21.346  26.670  1.00  0.00     0.306 C 
ATOM      3  O   UNL A   1      40.674  20.724  27.727  1.00  0.00    -0.252 OA
BRANCH   2   4
ATOM      4  C   UNL A   1      39.552  22.328  26.334  1.00  0.00     0.132 C 
BRANCH   4   5
ATOM      5  C   UNL A   1      38.273  21.723  25.752  1.00  0.00     0.114 C 
BRANCH   5   6
ATOM      6  C   UNL A   1      37.149  22.737  25.794  1.00  0.00     0.243 C 
ATOM      7  O   UNL A   1      37.401  23.863  26.240  1.00  0.00    -0.273 OA
BRANCH   6   8
ATOM      8  N   UNL A   1      35.877  22.340  25.408  1.00  0.00    -0.225 N 
ATOM      9  C   UNL A   1      34.901  23.018  24.535  1.00  0.00     0.147 C 
ATOM     10  C   UNL A   1      33.962  21.910  24.077  1.00  0.00     0.091 C 
ATOM     11  C   UNL A   1      34.596  20.745  24.762  1.00  0.00     0.071 C 
ATOM     12  N   UNL A   1      35.588  21.000  25.551  1.00  0.00    -0.174 NA
BRANCH   9  13
ATOM     13  C   UNL A   1      34.130  24.184  25.135  1.00  0.00    -0.019 A 
ATOM     14  C   UNL A   1      32.074  24.962  26.230  1.00  0.00     0.119 A 
ATOM     15  C   UNL A   1      32.554  26.268  26.159  1.00  0.00     0.046 A 
ATOM     16  C   UNL A   1      32.886  23.929  25.763  1.00  0.00     0.052 A 
ATOM     17  C   UNL A   1      33.814  26.536  25.616  1.00  0.00     0.004 A 
ATOM     18  C   UNL A   1      34.595  25.502  25.097  1.00  0.00     0.006 A 
BRANCH  14  19
ATOM     19  O   UNL A   1      30.805  24.850  26.724  1.00  0.00    -0.497 OA
ATOM     20  C   UNL A   1      29.744  25.544  26.082  1.00  0.00     0.278 C 
ENDBRANCH  14  19
ENDBRANCH   9  13
BRANCH  11  21
ATOM     21  C   UNL A   1      34.143  19.386  24.480  1.00  0.00    -0.002 A 
ATOM     22  C   UNL A   1      32.895  19.176  23.902  1.00  0.00     0.010 A 
ATOM     23  C   UNL A   1      34.950  18.317  24.881  1.00  0.00     0.013 A 
ATOM     24  C   UNL A   1      32.463  17.870  23.692  1.00  0.00     0.001 A 
ATOM     25  C   UNL A   1      34.507  17.005  24.696  1.00  0.00    -0.050 A 
ATOM     26  C   UNL A   1      33.264  16.791  24.084  1.00  0.00     0.003 A 
ATOM     27  C   UNL A   1      35.331  15.842  25.161  1.00  0.00     0.044 C 
ENDBRANCH  11  21
ENDBRANCH   6   8
ENDBRANCH   5   6
ENDBRANCH   4   5
ENDBRANCH   2   4
ENDBRANCH   1   2
BRANCH   1  28
ATOM     28  C   UNL A   1      42.936  21.188  26.061  1.00  0.00     0.274 C 
BRANCH  28  29
ATOM     29  C   UNL A   1      43.825  22.027  25.137  1.00  0.00     0.275 C 
BRANCH  29  30
ATOM     30  O   UNL A   1      43.183  23.238  24.691  1.00  0.00    -0.458 OA
BRANCH  30  31
ATOM     31  C   UNL A   1      43.877  24.349  24.998  1.00  0.00     0.338 C 
ATOM     32  O   UNL A   1      44.983  24.652  24.573  1.00  0.00    -0.246 OA
BRANCH  31  33
ATOM     33  C   UNL A   1      43.265  25.171  26.020  1.00  0.00     0.060 A 
ATOM     34  C   UNL A   1      42.148  24.741  26.730  1.00  0.00     0.016 A 
ATOM     35  C   UNL A   1      43.760  26.470  26.145  1.00  0.00     0.016 A 
ATOM     36  C   UNL A   1      41.560  25.618  27.638  1.00  0.00     0.010 A 
ATOM     37  C   UNL A   1      43.208  27.324  27.080  1.00  0.00     0.010 A 
ATOM     38  C   UNL A   1      42.131  26.887  27.858  1.00  0.00    -0.014 A 
BRANCH  38  39
ATOM     39  C   UNL A   1      41.790  27.673  29.058  1.00  0.00     0.031 A 
ATOM     40  C   UNL A   1      42.528  27.502  30.347  1.00  0.00     0.074 A 
ATOM     41  C   UNL A   1      40.663  28.407  28.984  1.00  0.00     0.049 A 
ATOM     42  N   UNL A   1      42.273  28.036  31.513  1.00  0.00    -0.248 NA
ATOM     43  C   UNL A   1      43.669  26.575  30.343  1.00  0.00     0.031 C 
ATOM     44  C   UNL A   1      39.803  28.505  27.799  1.00  0.00     0.029 A 
ATOM     45  N   UNL A   1      40.035  29.188  29.912  1.00  0.00    -0.354 N 
ATOM     46  C   UNL A   1      43.196  27.486  32.391  1.00  0.00     0.074 A 
ATOM     47  C   UNL A   1      44.004  26.559  31.628  1.00  0.00     0.031 C 
ATOM     48  C   UNL A   1      38.789  29.340  28.055  1.00  0.00     0.029 A 
ATOM     49  C   UNL A   1      38.908  29.806  29.429  1.00  0.00     0.049 A 
ATOM     50  H   UNL A   1      40.357  29.298  30.836  1.00  0.00     0.167 HD
ATOM     51  C   UNL A   1      43.344  27.745  33.713  1.00  0.00     0.037 A 
ATOM     52  C   UNL A   1      38.072  30.668  30.028  1.00  0.00     0.037 A 
ATOM     53  C   UNL A   1      42.536  28.699  34.433  1.00  0.00     0.049 A 
ATOM     54  C   UNL A   1      38.355  31.052  31.446  1.00  0.00     0.074 A 
ATOM     55  C   UNL A   1      42.639  29.105  35.751  1.00  0.00     0.029 A 
ATOM     56  N   UNL A   1      41.472  29.402  33.881  1.00  0.00    -0.354 N 
ATOM     57  N   UNL A   1      39.282  30.593  32.250  1.00  0.00    -0.248 NA
ATOM     58  C   UNL A   1      37.490  32.077  32.037  1.00  0.00     0.031 C 
ATOM     59  C   UNL A   1      41.628  30.040  36.002  1.00  0.00     0.029 A 
ATOM     60  C   UNL A   1      40.914  30.242  34.831  1.00  0.00     0.049 A 
ATOM     61  H   UNL A   1      41.160  29.317  32.951  1.00  0.00     0.167 HD
ATOM     62  C   UNL A   1      39.123  31.277  33.442  1.00  0.00     0.074 A 
ATOM     63  C   UNL A   1      38.023  32.202  33.245  1.00  0.00     0.031 C 
ATOM     64  C   UNL A   1      39.816  31.146  34.599  1.00  0.00     0.037 A 
BRANCH  51  65
ATOM     65  C   UNL A   1      44.414  27.001  34.459  1.00  0.00     0.064 A 
ATOM     66  C   UNL A   1      44.160  25.764  35.070  1.00  0.00     0.173 A 
ATOM     67  C   UNL A   1      45.722  27.507  34.527  1.00  0.00     0.173 A 
ATOM     68  F   UNL A   1      42.927  25.238  35.042  1.00  0.00    -0.203 F 
ATOM     69  C   UNL A   1      45.167  25.075  35.745  1.00  0.00     0.198 A 
ATOM     70  C   UNL A   1      46.732  26.803  35.179  1.00  0.00     0.198 A 
ATOM     71  F   UNL A   1      46.024  28.682  33.955  1.00  0.00    -0.203 F 
ATOM     72  F   UNL A   1      44.888  23.916  36.357  1.00  0.00    -0.200 F 
ATOM     73  C   UNL A   1      46.453  25.591  35.794  1.00  0.00     0.200 A 
ATOM     74  F   UNL A   1      47.978  27.297  35.214  1.00  0.00    -0.200 F 
ATOM     75  F   UNL A   1      47.421  24.923  36.435  1.00  0.00    -0.200 F 
ENDBRANCH  51  65
BRANCH  52  76
ATOM     76  C   UNL A   1      36.975  31.278  29.241  1.00  0.00     0.064 A 
ATOM     77  C   UNL A   1      35.832  30.531  28.928  1.00  0.00     0.173 A 
ATOM     78  C   UNL A   1      36.998  32.630  28.868  1.00  0.00     0.173 A 
ATOM     79  F   UNL A   1      35.766  29.235  29.268  1.00  0.00    -0.203 F 
ATOM     80  C   UNL A   1      34.755  31.109  28.261  1.00  0.00     0.198 A 
ATOM     81  C   UNL A   1      35.911  33.213  28.221  1.00  0.00     0.198 A 
ATOM     82  F   UNL A   1      38.059  33.392  29.171  1.00  0.00    -0.203 F 
ATOM     83  F   UNL A   1      33.681  30.367  27.958  1.00  0.00    -0.200 F 
ATOM     84  C   UNL A   1      34.792  32.452  27.915  1.00  0.00     0.200 A 
ATOM     85  F   UNL A   1      35.939  34.516  27.911  1.00  0.00    -0.200 F 
ATOM     86  F   UNL A   1      33.748  33.013  27.291  1.00  0.00    -0.200 F 
ENDBRANCH  52  76
BRANCH  64  87
ATOM     87  C   UNL A   1      39.397  32.037  35.726  1.00  0.00     0.064 A 
ATOM     88  C   UNL A   1      38.436  31.625  36.659  1.00  0.00     0.173 A 
ATOM     89  C   UNL A   1      39.969  33.308  35.875  1.00  0.00     0.173 A 
ATOM     90  F   UNL A   1      37.851  30.423  36.540  1.00  0.00    -0.203 F 
ATOM     91  C   UNL A   1      38.041  32.468  37.693  1.00  0.00     0.198 A 
ATOM     92  C   UNL A   1      39.587  34.139  36.924  1.00  0.00     0.198 A 
ATOM     93  F   UNL A   1      40.891  33.742  35.004  1.00  0.00    -0.203 F 
ATOM     94  F   UNL A   1      37.088  32.074  38.547  1.00  0.00    -0.200 F 
ATOM     95  C   UNL A   1      38.620  33.721  37.826  1.00  0.00     0.200 A 
ATOM     96  F   UNL A   1      40.148  35.349  37.054  1.00  0.00    -0.200 F 
ATOM     97  F   UNL A   1      38.237  34.534  38.820  1.00  0.00    -0.200 F 
ENDBRANCH  64  87
ENDBRANCH  38  39
ENDBRANCH  31  33
ENDBRANCH  30  31
ENDBRANCH  29  30
ENDBRANCH  28  29
ENDBRANCH   1  28
TORSDOF 17
ENDMDL
MODEL 2
REMARK VINA RESULT:     -12.8      3.360      8.164
REMARK SMILES COc1cccc([C@@H]2CC(c3cccc(C)c3)=NN2C(=O)CCC(=O)OCCOC(=O)c2ccc(-c3c4nc(c(-c5c(F)c(F)c(F)c(F)c5F)c5ccc([nH]5)c(-c5c(F)c(F)c(F)c(F)c5F)c5nc(c(-c6c(F)c(F)c(F)c(F)c6F)c6ccc3[nH]6)C=C5)C=C4)cc2)c1
REMARK SMILES IDX 26 1 24 2 25 3 23 4 22 5 20 6 21 7 19 8 8 9 9 10 10 11 18 12
REMARK SMILES IDX 7 13 3 14 4 15 95 16 5 17 6 18 2 19 1 20 11 21 12 22 17 23
REMARK SMILES IDX 13 24 15 25 14 26 16 27 27 28 28 29 29 30 30 31 31 32 32 33
REMARK SMILES IDX 33 34 94 35 34 36 93 37 35 38 36 39 37 40 87 41 38 42 92 43
REMARK SMILES IDX 86 44 88 45 39 46 91 47 85 48 84 49 40 51 72 52 52 53 71 54
REMARK SMILES IDX 53 55 56 56 70 57 89 58 54 59 55 60 69 62 90 63 57 64 41 65
REMARK SMILES IDX 42 66 50 67 43 68 44 69 48 70 51 71 45 72 46 73 49 74 47 75
REMARK SMILES IDX 73 76 74 77 82 78 75 79 76 80 80 81 83 82 77 83 78 84 81 85
REMARK SMILES IDX 79 86 58 87 59 88 67 89 60 90 61 91 65 92 68 93 62 94 63 95
REMARK SMILES IDX 66 96 64 97
REMARK H PARENT 88 50 56 61
REMARK Flexibility Score: inf
ROOT
ATOM      1  O   UNL A   1      31.227  28.108  25.176  1.00  0.00    -0.462 OA
ENDROOT
BRANCH   1   2
ATOM      2  C   UNL A   1      30.577  26.918  25.072  1.00  0.00     0.306 C 
ATOM      3  O   UNL A   1      29.826  26.620  24.150  1.00  0.00    -0.252 OA
BRANCH   2   4
ATOM      4  C   UNL A   1      30.820  26.007  26.249  1.00  0.00     0.132 C 
BRANCH   4   5
ATOM      5  C   UNL A   1      30.243  24.596  26.127  1.00  0.00     0.114 C 
BRANCH   5   6
ATOM      6  C   UNL A   1      31.317  23.565  26.401  1.00  0.00     0.243 C 
ATOM      7  O   UNL A   1      31.530  23.249  27.579  1.00  0.00    -0.273 OA
BRANCH   6   8
ATOM      8  N   UNL A   1      32.065  23.081  25.338  1.00  0.00    -0.225 N 
ATOM      9  C   UNL A   1      33.352  23.556  24.795  1.00  0.00     0.147 C 
ATOM     10  C   UNL A   1      33.904  22.365  24.022  1.00  0.00     0.091 C 
ATOM     11  C   UNL A   1      32.820  21.371  24.285  1.00  0.00     0.071 C 
ATOM     12  N   UNL A   1      31.784  21.794  24.932  1.00  0.00    -0.174 NA
BRANCH   9  13
ATOM     13  C   UNL A   1      33.318  24.809  23.933  1.00  0.00    -0.019 A 
ATOM     14  C   UNL A   1      32.544  25.875  21.861  1.00  0.00     0.119 A 
ATOM     15  C   UNL A   1      33.282  27.009  22.193  1.00  0.00     0.046 A 
ATOM     16  C   UNL A   1      32.530  24.806  22.756  1.00  0.00     0.052 A 
ATOM     17  C   UNL A   1      34.004  27.066  23.388  1.00  0.00     0.004 A 
ATOM     18  C   UNL A   1      34.032  25.968  24.250  1.00  0.00     0.006 A 
BRANCH  14  19
ATOM     19  O   UNL A   1      31.939  25.930  20.637  1.00  0.00    -0.497 OA
ATOM     20  C   UNL A   1      32.529  25.249  19.537  1.00  0.00     0.278 C 
ENDBRANCH  14  19
ENDBRANCH   9  13
BRANCH  11  21
ATOM     21  C   UNL A   1      32.983  19.977  23.882  1.00  0.00    -0.002 A 
ATOM     22  C   UNL A   1      32.157  19.437  22.903  1.00  0.00     0.010 A 
ATOM     23  C   UNL A   1      33.921  19.192  24.561  1.00  0.00     0.013 A 
ATOM     24  C   UNL A   1      32.295  18.091  22.574  1.00  0.00     0.001 A 
ATOM     25  C   UNL A   1      34.043  17.836  24.252  1.00  0.00    -0.050 A 
ATOM     26  C   UNL A   1      33.234  17.296  23.242  1.00  0.00     0.003 A 
ATOM     27  C   UNL A   1      35.006  16.961  24.998  1.00  0.00     0.044 C 
ENDBRANCH  11  21
ENDBRANCH   6   8
ENDBRANCH   5   6
ENDBRANCH   4   5
ENDBRANCH   2   4
ENDBRANCH   1   2
BRANCH   1  28
ATOM     28  C   UNL A   1      31.811  28.394  26.464  1.00  0.00     0.274 C 
BRANCH  28  29
ATOM     29  C   UNL A   1      31.778  29.883  26.823  1.00  0.00     0.275 C 
BRANCH  29  30
ATOM     30  O   UNL A   1      32.940  30.596  26.358  1.00  0.00    -0.458 OA
BRANCH  30  31
ATOM     31  C   UNL A   1      33.415  31.479  27.256  1.00  0.00     0.338 C 
ATOM     32  O   UNL A   1      32.923  32.564  27.534  1.00  0.00    -0.246 OA
BRANCH  31  33
ATOM     33  C   UNL A   1      34.692  31.115  27.832  1.00  0.00     0.060 A 
ATOM     34  C   UNL A   1      35.639  32.076  28.173  1.00  0.00     0.016 A 
ATOM     35  C   UNL A   1      34.979  29.750  27.883  1.00  0.00     0.016 A 
ATOM     36  C   UNL A   1      36.879  31.650  28.642  1.00  0.00     0.010 A 
ATOM     37  C   UNL A   1      36.190  29.326  28.394  1.00  0.00     0.010 A 
ATOM     38  C   UNL A   1      37.130  30.274  28.812  1.00  0.00    -0.014 A 
BRANCH  38  39
ATOM     39  C   UNL A   1      38.248  29.806  29.652  1.00  0.00     0.031 A 
ATOM     40  C   UNL A   1      38.436  30.292  31.053  1.00  0.00     0.074 A 
ATOM     41  C   UNL A   1      39.189  29.072  29.029  1.00  0.00     0.049 A 
ATOM     42  N   UNL A   1      39.429  30.061  31.873  1.00  0.00    -0.248 NA
ATOM     43  C   UNL A   1      37.407  31.195  31.590  1.00  0.00     0.031 C 
ATOM     44  C   UNL A   1      39.147  28.681  27.615  1.00  0.00     0.029 A 
ATOM     45  N   UNL A   1      40.363  28.541  29.483  1.00  0.00    -0.354 N 
ATOM     46  C   UNL A   1      39.165  30.815  33.008  1.00  0.00     0.074 A 
ATOM     47  C   UNL A   1      37.930  31.529  32.764  1.00  0.00     0.031 C 
ATOM     48  C   UNL A   1      40.218  27.930  27.331  1.00  0.00     0.029 A 
ATOM     49  C   UNL A   1      41.036  27.818  28.529  1.00  0.00     0.049 A 
ATOM     50  H   UNL A   1      40.693  28.663  30.402  1.00  0.00     0.167 HD
ATOM     51  C   UNL A   1      39.898  30.890  34.146  1.00  0.00     0.037 A 
ATOM     52  C   UNL A   1      42.182  27.126  28.621  1.00  0.00     0.037 A 
ATOM     53  C   UNL A   1      41.110  30.139  34.363  1.00  0.00     0.049 A 
ATOM     54  C   UNL A   1      42.888  27.104  29.939  1.00  0.00     0.074 A 
ATOM     55  C   UNL A   1      41.898  30.071  35.498  1.00  0.00     0.029 A 
ATOM     56  N   UNL A   1      41.706  29.317  33.415  1.00  0.00    -0.354 N 
ATOM     57  N   UNL A   1      42.590  27.751  31.039  1.00  0.00    -0.248 NA
ATOM     58  C   UNL A   1      44.076  26.252  30.038  1.00  0.00     0.031 C 
ATOM     59  C   UNL A   1      42.979  29.222  35.231  1.00  0.00     0.029 A 
ATOM     60  C   UNL A   1      42.847  28.735  33.940  1.00  0.00     0.049 A 
ATOM     61  H   UNL A   1      41.367  29.169  32.502  1.00  0.00     0.167 HD
ATOM     62  C   UNL A   1      43.546  27.381  31.968  1.00  0.00     0.074 A 
ATOM     63  C   UNL A   1      44.420  26.431  31.306  1.00  0.00     0.031 C 
ATOM     64  C   UNL A   1      43.695  27.796  33.250  1.00  0.00     0.037 A 
BRANCH  51  65
ATOM     65  C   UNL A   1      39.410  31.799  35.236  1.00  0.00     0.064 A 
ATOM     66  C   UNL A   1      38.550  31.342  36.246  1.00  0.00     0.173 A 
ATOM     67  C   UNL A   1      39.841  33.134  35.302  1.00  0.00     0.173 A 
ATOM     68  F   UNL A   1      38.102  30.078  36.229  1.00  0.00    -0.203 F 
ATOM     69  C   UNL A   1      38.118  32.191  37.264  1.00  0.00     0.198 A 
ATOM     70  C   UNL A   1      39.429  33.973  36.335  1.00  0.00     0.198 A 
ATOM     71  F   UNL A   1      40.669  33.625  34.367  1.00  0.00    -0.203 F 
ATOM     72  F   UNL A   1      37.264  31.741  38.192  1.00  0.00    -0.200 F 
ATOM     73  C   UNL A   1      38.563  33.504  37.311  1.00  0.00     0.200 A 
ATOM     74  F   UNL A   1      39.870  35.238  36.387  1.00  0.00    -0.200 F 
ATOM     75  F   UNL A   1      38.154  34.316  38.294  1.00  0.00    -0.200 F 
ENDBRANCH  51  65
BRANCH  52  76
ATOM     76  C   UNL A   1      42.646  26.336  27.456  1.00  0.00     0.064 A 
ATOM     77  C   UNL A   1      43.628  26.851  26.600  1.00  0.00     0.173 A 
ATOM     78  C   UNL A   1      42.194  25.028  27.225  1.00  0.00     0.173 A 
ATOM     79  F   UNL A   1      44.089  28.096  26.786  1.00  0.00    -0.203 F 
ATOM     80  C   UNL A   1      44.136  26.092  25.549  1.00  0.00     0.198 A 
ATOM     81  C   UNL A   1      42.720  24.261  26.187  1.00  0.00     0.198 A 
ATOM     82  F   UNL A   1      41.276  24.482  28.035  1.00  0.00    -0.203 F 
ATOM     83  F   UNL A   1      45.062  26.616  24.735  1.00  0.00    -0.200 F 
ATOM     84  C   UNL A   1      43.688  24.795  25.349  1.00  0.00     0.200 A 
ATOM     85  F   UNL A   1      42.304  23.001  26.011  1.00  0.00    -0.200 F 
ATOM     86  F   UNL A   1      44.190  24.058  24.349  1.00  0.00    -0.200 F 
ENDBRANCH  52  76
BRANCH  64  87
ATOM     87  C   UNL A   1      44.845  27.208  34.006  1.00  0.00     0.064 A 
ATOM     88  C   UNL A   1      44.708  26.010  34.721  1.00  0.00     0.173 A 
ATOM     89  C   UNL A   1      46.094  27.844  34.005  1.00  0.00     0.173 A 
ATOM     90  F   UNL A   1      43.524  25.380  34.763  1.00  0.00    -0.203 F 
ATOM     91  C   UNL A   1      45.779  25.482  35.434  1.00  0.00     0.198 A 
ATOM     92  C   UNL A   1      47.167  27.300  34.702  1.00  0.00     0.198 A 
ATOM     93  F   UNL A   1      46.268  28.993  33.334  1.00  0.00    -0.203 F 
ATOM     94  F   UNL A   1      45.615  24.361  36.150  1.00  0.00    -0.200 F 
ATOM     95  C   UNL A   1      47.008  26.125  35.420  1.00  0.00     0.200 A 
ATOM     96  F   UNL A   1      48.356  27.920  34.687  1.00  0.00    -0.200 F 
ATOM     97  F   UNL A   1      48.037  25.617  36.110  1.00  0.00    -0.200 F 
ENDBRANCH  64  87
ENDBRANCH  38  39
ENDBRANCH  31  33
ENDBRANCH  30  31
ENDBRANCH  29  30
ENDBRANCH  28  29
ENDBRANCH   1  28
TORSDOF 17
ENDMDL
MODEL 3
REMARK VINA RESULT:     -12.7      3.287      7.813
REMARK SMILES COc1cccc([C@@H]2CC(c3cccc(C)c3)=NN2C(=O)CCC(=O)OCCOC(=O)c2ccc(-c3c4nc(c(-c5c(F)c(F)c(F)c(F)c5F)c5ccc([nH]5)c(-c5c(F)c(F)c(F)c(F)c5F)c5nc(c(-c6c(F)c(F)c(F)c(F)c6F)c6ccc3[nH]6)C=C5)C=C4)cc2)c1
REMARK SMILES IDX 26 1 24 2 25 3 23 4 22 5 20 6 21 7 19 8 8 9 9 10 10 11 18 12
REMARK SMILES IDX 7 13 3 14 4 15 95 16 5 17 6 18 2 19 1 20 11 21 12 22 17 23
REMARK SMILES IDX 13 24 15 25 14 26 16 27 27 28 28 29 29 30 30 31 31 32 32 33
REMARK SMILES IDX 33 34 94 35 34 36 93 37 35 38 36 39 37 40 87 41 38 42 92 43
REMARK SMILES IDX 86 44 88 45 39 46 91 47 85 48 84 49 40 51 72 52 52 53 71 54
REMARK SMILES IDX 53 55 56 56 70 57 89 58 54 59 55 60 69 62 90 63 57 64 41 65
REMARK SMILES IDX 42 66 50 67 43 68 44 69 48 70 51 71 45 72 46 73 49 74 47 75
REMARK SMILES IDX 73 76 74 77 82 78 75 79 76 80 80 81 83 82 77 83 78 84 81 85
REMARK SMILES IDX 79 86 58 87 59 88 67 89 60 90 61 91 65 92 68 93 62 94 63 95
REMARK SMILES IDX 66 96 64 97
REMARK H PARENT 88 50 56 61
REMARK Flexibility Score: inf
ROOT
ATOM      1  O   UNL A   1      30.941  28.263  25.310  1.00  0.00    -0.462 OA
ENDROOT
BRANCH   1   2
ATOM      2  C   UNL A   1      30.601  26.967  25.078  1.00  0.00     0.306 C 
ATOM      3  O   UNL A   1      30.110  26.558  24.031  1.00  0.00    -0.252 OA
BRANCH   2   4
ATOM      4  C   UNL A   1      30.827  26.074  26.272  1.00  0.00     0.132 C 
BRANCH   4   5
ATOM      5  C   UNL A   1      30.229  24.669  26.174  1.00  0.00     0.114 C 
BRANCH   5   6
ATOM      6  C   UNL A   1      31.282  23.628  26.489  1.00  0.00     0.243 C 
ATOM      7  O   UNL A   1      31.411  23.274  27.668  1.00  0.00    -0.273 OA
BRANCH   6   8
ATOM      8  N   UNL A   1      32.104  23.178  25.466  1.00  0.00    -0.225 N 
ATOM      9  C   UNL A   1      33.459  23.617  25.081  1.00  0.00     0.147 C 
ATOM     10  C   UNL A   1      34.023  22.454  24.276  1.00  0.00     0.091 C 
ATOM     11  C   UNL A   1      32.873  21.506  24.364  1.00  0.00     0.071 C 
ATOM     12  N   UNL A   1      31.801  21.940  24.942  1.00  0.00    -0.174 NA
BRANCH   9  13
ATOM     13  C   UNL A   1      33.570  24.926  24.316  1.00  0.00    -0.019 A 
ATOM     14  C   UNL A   1      33.410  26.079  22.153  1.00  0.00     0.119 A 
ATOM     15  C   UNL A   1      33.861  27.246  22.765  1.00  0.00     0.046 A 
ATOM     16  C   UNL A   1      33.223  24.945  22.942  1.00  0.00     0.052 A 
ATOM     17  C   UNL A   1      34.134  27.274  24.136  1.00  0.00     0.004 A 
ATOM     18  C   UNL A   1      33.999  26.118  24.907  1.00  0.00     0.006 A 
BRANCH  14  19
ATOM     19  O   UNL A   1      33.244  26.175  20.800  1.00  0.00    -0.497 OA
ATOM     20  C   UNL A   1      32.601  25.119  20.100  1.00  0.00     0.278 C 
ENDBRANCH  14  19
ENDBRANCH   9  13
BRANCH  11  21
ATOM     21  C   UNL A   1      33.005  20.136  23.876  1.00  0.00    -0.002 A 
ATOM     22  C   UNL A   1      32.196  19.689  22.837  1.00  0.00     0.010 A 
ATOM     23  C   UNL A   1      33.893  19.278  24.531  1.00  0.00     0.013 A 
ATOM     24  C   UNL A   1      32.303  18.363  22.425  1.00  0.00     0.001 A 
ATOM     25  C   UNL A   1      33.983  17.940  24.137  1.00  0.00    -0.050 A 
ATOM     26  C   UNL A   1      33.192  17.495  23.068  1.00  0.00     0.003 A 
ATOM     27  C   UNL A   1      34.891  16.987  24.854  1.00  0.00     0.044 C 
ENDBRANCH  11  21
ENDBRANCH   6   8
ENDBRANCH   5   6
ENDBRANCH   4   5
ENDBRANCH   2   4
ENDBRANCH   1   2
BRANCH   1  28
ATOM     28  C   UNL A   1      31.728  28.503  26.496  1.00  0.00     0.274 C 
BRANCH  28  29
ATOM     29  C   UNL A   1      31.869  29.991  26.833  1.00  0.00     0.275 C 
BRANCH  29  30
ATOM     30  O   UNL A   1      33.156  30.527  26.468  1.00  0.00    -0.458 OA
BRANCH  30  31
ATOM     31  C   UNL A   1      33.630  31.419  27.356  1.00  0.00     0.338 C 
ATOM     32  O   UNL A   1      33.095  32.469  27.683  1.00  0.00    -0.246 OA
BRANCH  31  33
ATOM     33  C   UNL A   1      34.956  31.119  27.853  1.00  0.00     0.060 A 
ATOM     34  C   UNL A   1      35.904  32.118  28.052  1.00  0.00     0.016 A 
ATOM     35  C   UNL A   1      35.278  29.765  27.974  1.00  0.00     0.016 A 
ATOM     36  C   UNL A   1      37.186  31.747  28.449  1.00  0.00     0.010 A 
ATOM     37  C   UNL A   1      36.534  29.399  28.416  1.00  0.00     0.010 A 
ATOM     38  C   UNL A   1      37.481  30.391  28.692  1.00  0.00    -0.014 A 
BRANCH  38  39
ATOM     39  C   UNL A   1      38.671  30.003  29.472  1.00  0.00     0.031 A 
ATOM     40  C   UNL A   1      39.662  29.011  28.953  1.00  0.00     0.074 A 
ATOM     41  C   UNL A   1      38.713  30.440  30.745  1.00  0.00     0.049 A 
ATOM     42  N   UNL A   1      40.692  28.486  29.565  1.00  0.00    -0.248 NA
ATOM     43  C   UNL A   1      39.445  28.502  27.591  1.00  0.00     0.031 C 
ATOM     44  C   UNL A   1      37.698  31.295  31.372  1.00  0.00     0.029 A 
ATOM     45  N   UNL A   1      39.620  30.220  31.743  1.00  0.00    -0.354 N 
ATOM     46  C   UNL A   1      41.226  27.559  28.680  1.00  0.00     0.074 A 
ATOM     47  C   UNL A   1      40.393  27.578  27.496  1.00  0.00     0.031 C 
ATOM     48  C   UNL A   1      38.064  31.568  32.629  1.00  0.00     0.029 A 
ATOM     49  C   UNL A   1      39.317  30.881  32.907  1.00  0.00     0.049 A 
ATOM     50  H   UNL A   1      40.412  29.645  31.638  1.00  0.00     0.167 HD
ATOM     51  C   UNL A   1      42.316  26.775  28.856  1.00  0.00     0.037 A 
ATOM     52  C   UNL A   1      39.989  30.938  34.067  1.00  0.00     0.037 A 
ATOM     53  C   UNL A   1      43.138  26.806  30.041  1.00  0.00     0.049 A 
ATOM     54  C   UNL A   1      41.273  30.179  34.175  1.00  0.00     0.074 A 
ATOM     55  C   UNL A   1      44.309  26.118  30.305  1.00  0.00     0.029 A 
ATOM     56  N   UNL A   1      42.870  27.581  31.162  1.00  0.00    -0.354 N 
ATOM     57  N   UNL A   1      41.822  29.369  33.302  1.00  0.00    -0.248 NA
ATOM     58  C   UNL A   1      42.038  30.348  35.413  1.00  0.00     0.031 C 
ATOM     59  C   UNL A   1      44.739  26.462  31.591  1.00  0.00     0.029 A 
ATOM     60  C   UNL A   1      43.854  27.391  32.118  1.00  0.00     0.049 A 
ATOM     61  H   UNL A   1      42.094  28.178  31.264  1.00  0.00     0.167 HD
ATOM     62  C   UNL A   1      43.003  28.935  33.878  1.00  0.00     0.074 A 
ATOM     63  C   UNL A   1      43.101  29.594  35.167  1.00  0.00     0.031 C 
ATOM     64  C   UNL A   1      43.918  28.062  33.391  1.00  0.00     0.037 A 
BRANCH  51  65
ATOM     65  C   UNL A   1      42.687  25.830  27.749  1.00  0.00     0.064 A 
ATOM     66  C   UNL A   1      42.110  24.555  27.645  1.00  0.00     0.173 A 
ATOM     67  C   UNL A   1      43.596  26.218  26.752  1.00  0.00     0.173 A 
ATOM     68  F   UNL A   1      41.241  24.131  28.574  1.00  0.00    -0.203 F 
ATOM     69  C   UNL A   1      42.450  23.694  26.603  1.00  0.00     0.198 A 
ATOM     70  C   UNL A   1      43.913  25.366  25.696  1.00  0.00     0.198 A 
ATOM     71  F   UNL A   1      44.173  27.428  26.795  1.00  0.00    -0.203 F 
ATOM     72  F   UNL A   1      41.917  22.466  26.551  1.00  0.00    -0.200 F 
ATOM     73  C   UNL A   1      43.345  24.102  25.626  1.00  0.00     0.200 A 
ATOM     74  F   UNL A   1      44.768  25.766  24.745  1.00  0.00    -0.200 F 
ATOM     75  F   UNL A   1      43.663  23.277  24.620  1.00  0.00    -0.200 F 
ENDBRANCH  51  65
BRANCH  52  76
ATOM     76  C   UNL A   1      39.492  31.820  35.149  1.00  0.00     0.064 A 
ATOM     77  C   UNL A   1      39.780  33.191  35.128  1.00  0.00     0.173 A 
ATOM     78  C   UNL A   1      38.653  31.341  36.166  1.00  0.00     0.173 A 
ATOM     79  F   UNL A   1      40.576  33.692  34.173  1.00  0.00    -0.203 F 
ATOM     80  C   UNL A   1      39.255  34.050  36.090  1.00  0.00     0.198 A 
ATOM     81  C   UNL A   1      38.110  32.205  37.114  1.00  0.00     0.198 A 
ATOM     82  F   UNL A   1      38.327  30.041  36.210  1.00  0.00    -0.203 F 
ATOM     83  F   UNL A   1      39.560  35.355  36.057  1.00  0.00    -0.200 F 
ATOM     84  C   UNL A   1      38.414  33.559  37.077  1.00  0.00     0.200 A 
ATOM     85  F   UNL A   1      37.278  31.732  38.050  1.00  0.00    -0.200 F 
ATOM     86  F   UNL A   1      37.893  34.388  37.991  1.00  0.00    -0.200 F 
ENDBRANCH  52  76
BRANCH  64  87
ATOM     87  C   UNL A   1      45.102  27.790  34.265  1.00  0.00     0.064 A 
ATOM     88  C   UNL A   1      46.274  28.552  34.158  1.00  0.00     0.173 A 
ATOM     89  C   UNL A   1      45.058  26.765  35.220  1.00  0.00     0.173 A 
ATOM     90  F   UNL A   1      46.364  29.529  33.243  1.00  0.00    -0.203 F 
ATOM     91  C   UNL A   1      47.375  28.278  34.964  1.00  0.00     0.198 A 
ATOM     92  C   UNL A   1      46.153  26.510  36.038  1.00  0.00     0.198 A 
ATOM     93  F   UNL A   1      43.956  26.012  35.354  1.00  0.00    -0.203 F 
ATOM     94  F   UNL A   1      48.502  28.986  34.815  1.00  0.00    -0.200 F 
ATOM     95  C   UNL A   1      47.311  27.262  35.905  1.00  0.00     0.200 A 
ATOM     96  F   UNL A   1      46.092  25.530  36.950  1.00  0.00    -0.200 F 
ATOM     97  F   UNL A   1      48.374  26.997  36.678  1.00  0.00    -0.200 F 
ENDBRANCH  64  87
ENDBRANCH  38  39
ENDBRANCH  31  33
ENDBRANCH  30  31
ENDBRANCH  29  30
ENDBRANCH  28  29
ENDBRANCH   1  28
TORSDOF 17
ENDMDL
