MODEL 1
REMARK VINA RESULT:      -9.7      0.000      0.000
REMARK SMILES C[C@H](C[N@@H+](C)[C@@H](C)[C@@H](C)O)C(=O)OCCOC(=O)c1ccc(-c2c3nc(c(-c4c(F)c(F)c(F)c(F)c4F)c4ccc([nH]4)c(-c4c(F)c(F)c(F)c(F)c4F)c4nc(c(-c5c(F)c(F)c(F)c(F)c5F)c5ccc2[nH]5)C=C4)C=C3)cc1
REMARK SMILES IDX 13 1 11 2 12 3 2 4 1 5 3 6 4 7 5 8 6 10 7 11 8 12 9 13 10 14
REMARK SMILES IDX 14 16 15 17 16 18 17 19 18 20 19 21 20 22 81 23 21 24 80 25
REMARK SMILES IDX 22 26 23 27 24 28 74 29 25 30 79 31 73 32 75 33 26 34 78 35
REMARK SMILES IDX 72 36 71 37 27 39 59 40 39 41 58 42 40 43 43 44 57 45 76 46
REMARK SMILES IDX 41 47 42 48 56 50 77 51 44 52 28 53 29 54 37 55 30 56 31 57
REMARK SMILES IDX 35 58 38 59 32 60 33 61 36 62 34 63 60 64 61 65 69 66 62 67
REMARK SMILES IDX 63 68 67 69 70 70 64 71 65 72 68 73 66 74 45 75 46 76 54 77
REMARK SMILES IDX 47 78 48 79 52 80 55 81 49 82 50 83 53 84 51 85
REMARK H PARENT 4 9 10 15 75 38 43 49
REMARK Flexibility Score: inf
ROOT
ATOM      1  O   UNL A   1      36.061  23.542  24.431  1.00  0.00    -0.462 OA
ENDROOT
BRANCH   1   2
ATOM      2  C   UNL A   1      34.923  24.101  24.902  1.00  0.00     0.314 C 
ATOM      3  O   UNL A   1      34.729  24.395  26.076  1.00  0.00    -0.252 OA
BRANCH   2   4
ATOM      4  C   UNL A   1      33.897  24.353  23.801  1.00  0.00     0.151 C 
ATOM      5  C   UNL A   1      33.652  25.848  23.612  1.00  0.00     0.026 C 
BRANCH   4   6
ATOM      6  C   UNL A   1      32.605  23.499  23.827  1.00  0.00     0.277 C 
BRANCH   6   7
ATOM      7  N   UNL A   1      32.302  22.593  24.964  1.00  0.00    -0.332 N 
ATOM      8  C   UNL A   1      31.018  23.018  25.559  1.00  0.00     0.333 C 
ATOM      9  H   UNL A   1      33.095  22.686  25.597  1.00  0.00     0.348 HD
BRANCH   7  10
ATOM     10  C   UNL A   1      32.249  21.131  24.674  1.00  0.00     0.209 C 
ATOM     11  C   UNL A   1      32.272  20.764  23.177  1.00  0.00     0.078 C 
BRANCH  10  12
ATOM     12  C   UNL A   1      33.211  20.274  25.555  1.00  0.00     0.169 C 
ATOM     13  C   UNL A   1      33.834  21.077  26.696  1.00  0.00     0.045 C 
BRANCH  12  14
ATOM     14  O   UNL A   1      32.542  19.144  26.126  1.00  0.00    -0.387 OA
ATOM     15  H   UNL A   1      32.574  19.205  27.094  1.00  0.00     0.211 HD
ENDBRANCH  12  14
ENDBRANCH  10  12
ENDBRANCH   7  10
ENDBRANCH   6   7
ENDBRANCH   4   6
ENDBRANCH   2   4
ENDBRANCH   1   2
BRANCH   1  16
ATOM     16  C   UNL A   1      35.999  22.208  23.884  1.00  0.00     0.274 C 
BRANCH  16  17
ATOM     17  C   UNL A   1      37.032  21.324  24.585  1.00  0.00     0.275 C 
BRANCH  17  18
ATOM     18  O   UNL A   1      37.551  22.027  25.726  1.00  0.00    -0.458 OA
BRANCH  18  19
ATOM     19  C   UNL A   1      38.777  21.618  26.130  1.00  0.00     0.338 C 
ATOM     20  O   UNL A   1      39.313  20.540  25.952  1.00  0.00    -0.246 OA
BRANCH  19  21
ATOM     21  C   UNL A   1      39.496  22.801  26.613  1.00  0.00     0.060 A 
ATOM     22  C   UNL A   1      39.120  24.038  26.082  1.00  0.00     0.016 A 
ATOM     23  C   UNL A   1      40.511  22.704  27.561  1.00  0.00     0.016 A 
ATOM     24  C   UNL A   1      39.753  25.198  26.500  1.00  0.00     0.010 A 
ATOM     25  C   UNL A   1      41.161  23.867  27.970  1.00  0.00     0.010 A 
ATOM     26  C   UNL A   1      40.788  25.115  27.436  1.00  0.00    -0.014 A 
BRANCH  26  27
ATOM     27  C   UNL A   1      41.556  26.327  27.784  1.00  0.00     0.031 A 
ATOM     28  C   UNL A   1      40.883  27.396  28.588  1.00  0.00     0.074 A 
ATOM     29  C   UNL A   1      42.835  26.448  27.387  1.00  0.00     0.049 A 
ATOM     30  N   UNL A   1      41.289  28.605  28.869  1.00  0.00    -0.248 NA
ATOM     31  C   UNL A   1      39.562  27.058  29.146  1.00  0.00     0.031 C 
ATOM     32  C   UNL A   1      43.593  25.429  26.661  1.00  0.00     0.029 A 
ATOM     33  N   UNL A   1      43.716  27.488  27.529  1.00  0.00    -0.354 N 
ATOM     34  C   UNL A   1      40.266  29.182  29.608  1.00  0.00     0.074 A 
ATOM     35  C   UNL A   1      39.214  28.196  29.726  1.00  0.00     0.031 C 
ATOM     36  C   UNL A   1      44.825  25.902  26.406  1.00  0.00     0.029 A 
ATOM     37  C   UNL A   1      44.918  27.271  26.902  1.00  0.00     0.049 A 
ATOM     38  H   UNL A   1      43.509  28.308  28.031  1.00  0.00     0.167 HD
ATOM     39  C   UNL A   1      40.218  30.427  30.135  1.00  0.00     0.037 A 
ATOM     40  C   UNL A   1      45.956  28.108  26.716  1.00  0.00     0.037 A 
ATOM     41  C   UNL A   1      41.286  31.384  30.011  1.00  0.00     0.049 A 
ATOM     42  C   UNL A   1      45.854  29.506  27.269  1.00  0.00     0.074 A 
ATOM     43  C   UNL A   1      41.349  32.680  30.486  1.00  0.00     0.029 A 
ATOM     44  N   UNL A   1      42.489  31.134  29.362  1.00  0.00    -0.354 N 
ATOM     45  N   UNL A   1      44.871  30.064  27.934  1.00  0.00    -0.248 NA
ATOM     46  C   UNL A   1      47.002  30.392  27.038  1.00  0.00     0.031 C 
ATOM     47  C   UNL A   1      42.576  33.229  30.095  1.00  0.00     0.029 A 
ATOM     48  C   UNL A   1      43.298  32.257  29.416  1.00  0.00     0.049 A 
ATOM     49  H   UNL A   1      42.731  30.285  28.929  1.00  0.00     0.167 HD
ATOM     50  C   UNL A   1      45.285  31.357  28.217  1.00  0.00     0.074 A 
ATOM     51  C   UNL A   1      46.621  31.491  27.672  1.00  0.00     0.031 C 
ATOM     52  C   UNL A   1      44.624  32.349  28.863  1.00  0.00     0.037 A 
BRANCH  39  53
ATOM     53  C   UNL A   1      38.965  30.831  30.855  1.00  0.00     0.064 A 
ATOM     54  C   UNL A   1      38.825  30.678  32.242  1.00  0.00     0.173 A 
ATOM     55  C   UNL A   1      37.893  31.399  30.148  1.00  0.00     0.173 A 
ATOM     56  F   UNL A   1      39.811  30.121  32.962  1.00  0.00    -0.203 F 
ATOM     57  C   UNL A   1      37.653  31.060  32.891  1.00  0.00     0.198 A 
ATOM     58  C   UNL A   1      36.734  31.804  30.804  1.00  0.00     0.198 A 
ATOM     59  F   UNL A   1      37.973  31.565  28.819  1.00  0.00    -0.203 F 
ATOM     60  F   UNL A   1      37.525  30.863  34.211  1.00  0.00    -0.200 F 
ATOM     61  C   UNL A   1      36.612  31.629  32.173  1.00  0.00     0.200 A 
ATOM     62  F   UNL A   1      35.732  32.361  30.108  1.00  0.00    -0.200 F 
ATOM     63  F   UNL A   1      35.488  32.002  32.800  1.00  0.00    -0.200 F 
ENDBRANCH  39  53
BRANCH  40  64
ATOM     64  C   UNL A   1      47.151  27.664  25.951  1.00  0.00     0.064 A 
ATOM     65  C   UNL A   1      47.185  27.738  24.552  1.00  0.00     0.173 A 
ATOM     66  C   UNL A   1      48.281  27.143  26.602  1.00  0.00     0.173 A 
ATOM     67  F   UNL A   1      46.122  28.205  23.880  1.00  0.00    -0.203 F 
ATOM     68  C   UNL A   1      48.293  27.292  23.834  1.00  0.00     0.198 A 
ATOM     69  C   UNL A   1      49.401  26.727  25.884  1.00  0.00     0.198 A 
ATOM     70  F   UNL A   1      48.302  27.048  27.940  1.00  0.00    -0.203 F 
ATOM     71  F   UNL A   1      48.278  27.327  22.493  1.00  0.00    -0.200 F 
ATOM     72  C   UNL A   1      49.402  26.793  24.500  1.00  0.00     0.200 A 
ATOM     73  F   UNL A   1      50.474  26.257  26.534  1.00  0.00    -0.200 F 
ATOM     74  F   UNL A   1      50.468  26.366  23.808  1.00  0.00    -0.200 F 
ENDBRANCH  40  64
BRANCH  52  75
ATOM     75  C   UNL A   1      45.358  33.647  29.033  1.00  0.00     0.064 A 
ATOM     76  C   UNL A   1      46.185  33.883  30.140  1.00  0.00     0.173 A 
ATOM     77  C   UNL A   1      45.244  34.657  28.066  1.00  0.00     0.173 A 
ATOM     78  F   UNL A   1      46.312  32.952  31.098  1.00  0.00    -0.203 F 
ATOM     79  C   UNL A   1      46.847  35.097  30.290  1.00  0.00     0.198 A 
ATOM     80  C   UNL A   1      45.931  35.858  28.204  1.00  0.00     0.198 A 
ATOM     81  F   UNL A   1      44.469  34.475  26.986  1.00  0.00    -0.203 F 
ATOM     82  F   UNL A   1      47.589  35.323  31.382  1.00  0.00    -0.200 F 
ATOM     83  C   UNL A   1      46.724  36.081  29.319  1.00  0.00     0.200 A 
ATOM     84  F   UNL A   1      45.822  36.803  27.260  1.00  0.00    -0.200 F 
ATOM     85  F   UNL A   1      47.362  37.250  29.466  1.00  0.00    -0.200 F 
ENDBRANCH  52  75
ENDBRANCH  26  27
ENDBRANCH  19  21
ENDBRANCH  18  19
ENDBRANCH  17  18
ENDBRANCH  16  17
ENDBRANCH   1  16
TORSDOF 16
ENDMDL
MODEL 2
REMARK VINA RESULT:      -9.7      4.456      9.720
REMARK SMILES C[C@H](C[N@@H+](C)[C@@H](C)[C@@H](C)O)C(=O)OCCOC(=O)c1ccc(-c2c3nc(c(-c4c(F)c(F)c(F)c(F)c4F)c4ccc([nH]4)c(-c4c(F)c(F)c(F)c(F)c4F)c4nc(c(-c5c(F)c(F)c(F)c(F)c5F)c5ccc2[nH]5)C=C4)C=C3)cc1
REMARK SMILES IDX 13 1 11 2 12 3 2 4 1 5 3 6 4 7 5 8 6 10 7 11 8 12 9 13 10 14
REMARK SMILES IDX 14 16 15 17 16 18 17 19 18 20 19 21 20 22 81 23 21 24 80 25
REMARK SMILES IDX 22 26 23 27 24 28 74 29 25 30 79 31 73 32 75 33 26 34 78 35
REMARK SMILES IDX 72 36 71 37 27 39 59 40 39 41 58 42 40 43 43 44 57 45 76 46
REMARK SMILES IDX 41 47 42 48 56 50 77 51 44 52 28 53 29 54 37 55 30 56 31 57
REMARK SMILES IDX 35 58 38 59 32 60 33 61 36 62 34 63 60 64 61 65 69 66 62 67
REMARK SMILES IDX 63 68 67 69 70 70 64 71 65 72 68 73 66 74 45 75 46 76 54 77
REMARK SMILES IDX 47 78 48 79 52 80 55 81 49 82 50 83 53 84 51 85
REMARK H PARENT 4 9 10 15 75 38 43 49
REMARK Flexibility Score: inf
ROOT
ATOM      1  O   UNL A   1      31.483  27.748  26.118  1.00  0.00    -0.462 OA
ENDROOT
BRANCH   1   2
ATOM      2  C   UNL A   1      31.310  26.426  25.890  1.00  0.00     0.314 C 
ATOM      3  O   UNL A   1      30.288  25.930  25.428  1.00  0.00    -0.252 OA
BRANCH   2   4
ATOM      4  C   UNL A   1      32.543  25.604  26.252  1.00  0.00     0.151 C 
ATOM      5  C   UNL A   1      33.769  26.087  25.480  1.00  0.00     0.026 C 
BRANCH   4   6
ATOM      6  C   UNL A   1      32.384  24.064  26.287  1.00  0.00     0.277 C 
BRANCH   6   7
ATOM      7  N   UNL A   1      33.565  23.165  26.222  1.00  0.00    -0.332 N 
ATOM      8  C   UNL A   1      33.671  22.454  27.511  1.00  0.00     0.333 C 
ATOM      9  H   UNL A   1      34.356  23.779  26.028  1.00  0.00     0.348 HD
BRANCH   7  10
ATOM     10  C   UNL A   1      33.604  22.174  25.108  1.00  0.00     0.209 C 
ATOM     11  C   UNL A   1      34.645  21.049  25.275  1.00  0.00     0.078 C 
BRANCH  10  12
ATOM     12  C   UNL A   1      32.197  21.678  24.650  1.00  0.00     0.169 C 
ATOM     13  C   UNL A   1      32.154  21.320  23.165  1.00  0.00     0.045 C 
BRANCH  12  14
ATOM     14  O   UNL A   1      31.771  20.531  25.392  1.00  0.00    -0.387 OA
ATOM     15  H   UNL A   1      32.481  20.252  25.992  1.00  0.00     0.211 HD
ENDBRANCH  12  14
ENDBRANCH  10  12
ENDBRANCH   7  10
ENDBRANCH   6   7
ENDBRANCH   4   6
ENDBRANCH   2   4
ENDBRANCH   1   2
BRANCH   1  16
ATOM     16  C   UNL A   1      31.440  28.652  24.993  1.00  0.00     0.274 C 
BRANCH  16  17
ATOM     17  C   UNL A   1      31.747  30.072  25.473  1.00  0.00     0.275 C 
BRANCH  17  18
ATOM     18  O   UNL A   1      33.028  30.078  26.125  1.00  0.00    -0.458 OA
BRANCH  18  19
ATOM     19  C   UNL A   1      33.246  31.147  26.927  1.00  0.00     0.338 C 
ATOM     20  O   UNL A   1      32.476  32.041  27.224  1.00  0.00    -0.246 OA
BRANCH  19  21
ATOM     21  C   UNL A   1      34.520  30.922  27.619  1.00  0.00     0.060 A 
ATOM     22  C   UNL A   1      34.810  29.614  28.015  1.00  0.00     0.016 A 
ATOM     23  C   UNL A   1      35.408  31.964  27.873  1.00  0.00     0.016 A 
ATOM     24  C   UNL A   1      36.000  29.329  28.667  1.00  0.00     0.010 A 
ATOM     25  C   UNL A   1      36.598  31.683  28.543  1.00  0.00     0.010 A 
ATOM     26  C   UNL A   1      36.892  30.368  28.947  1.00  0.00    -0.014 A 
BRANCH  26  27
ATOM     27  C   UNL A   1      38.096  30.096  29.758  1.00  0.00     0.031 A 
ATOM     28  C   UNL A   1      39.150  29.192  29.196  1.00  0.00     0.074 A 
ATOM     29  C   UNL A   1      38.230  30.662  30.969  1.00  0.00     0.049 A 
ATOM     30  N   UNL A   1      40.200  28.677  29.778  1.00  0.00    -0.248 NA
ATOM     31  C   UNL A   1      38.994  28.809  27.783  1.00  0.00     0.031 C 
ATOM     32  C   UNL A   1      37.289  31.609  31.568  1.00  0.00     0.029 A 
ATOM     33  N   UNL A   1      39.209  30.514  31.918  1.00  0.00    -0.354 N 
ATOM     34  C   UNL A   1      40.812  27.886  28.816  1.00  0.00     0.074 A 
ATOM     35  C   UNL A   1      40.013  27.980  27.613  1.00  0.00     0.031 C 
ATOM     36  C   UNL A   1      37.727  31.945  32.793  1.00  0.00     0.029 A 
ATOM     37  C   UNL A   1      38.947  31.196  33.081  1.00  0.00     0.049 A 
ATOM     38  H   UNL A   1      40.018  29.971  31.781  1.00  0.00     0.167 HD
ATOM     39  C   UNL A   1      41.940  27.149  28.937  1.00  0.00     0.037 A 
ATOM     40  C   UNL A   1      39.601  31.177  34.257  1.00  0.00     0.037 A 
ATOM     41  C   UNL A   1      42.721  27.084  30.144  1.00  0.00     0.049 A 
ATOM     42  C   UNL A   1      40.824  30.306  34.380  1.00  0.00     0.074 A 
ATOM     43  C   UNL A   1      43.872  26.361  30.394  1.00  0.00     0.029 A 
ATOM     44  N   UNL A   1      42.423  27.783  31.307  1.00  0.00    -0.354 N 
ATOM     45  N   UNL A   1      41.381  29.528  33.481  1.00  0.00    -0.248 NA
ATOM     46  C   UNL A   1      41.505  30.304  35.680  1.00  0.00     0.031 C 
ATOM     47  C   UNL A   1      44.252  26.594  31.721  1.00  0.00     0.029 A 
ATOM     48  C   UNL A   1      43.364  27.500  32.283  1.00  0.00     0.049 A 
ATOM     49  H   UNL A   1      41.657  28.390  31.421  1.00  0.00     0.167 HD
ATOM     50  C   UNL A   1      42.485  28.959  34.099  1.00  0.00     0.074 A 
ATOM     51  C   UNL A   1      42.532  29.502  35.442  1.00  0.00     0.031 C 
ATOM     52  C   UNL A   1      43.378  28.064  33.608  1.00  0.00     0.037 A 
BRANCH  39  53
ATOM     53  C   UNL A   1      42.369  26.333  27.752  1.00  0.00     0.064 A 
ATOM     54  C   UNL A   1      43.328  26.798  26.841  1.00  0.00     0.173 A 
ATOM     55  C   UNL A   1      41.825  25.057  27.537  1.00  0.00     0.173 A 
ATOM     56  F   UNL A   1      43.863  28.020  26.989  1.00  0.00    -0.203 F 
ATOM     57  C   UNL A   1      43.713  26.025  25.748  1.00  0.00     0.198 A 
ATOM     58  C   UNL A   1      42.232  24.276  26.459  1.00  0.00     0.198 A 
ATOM     59  F   UNL A   1      40.901  24.566  28.376  1.00  0.00    -0.203 F 
ATOM     60  F   UNL A   1      44.599  26.509  24.865  1.00  0.00    -0.200 F 
ATOM     61  C   UNL A   1      43.171  24.762  25.562  1.00  0.00     0.200 A 
ATOM     62  F   UNL A   1      41.712  23.053  26.285  1.00  0.00    -0.200 F 
ATOM     63  F   UNL A   1      43.547  24.017  24.513  1.00  0.00    -0.200 F 
ENDBRANCH  39  53
BRANCH  40  64
ATOM     64  C   UNL A   1      39.097  31.969  35.410  1.00  0.00     0.064 A 
ATOM     65  C   UNL A   1      39.417  33.327  35.552  1.00  0.00     0.173 A 
ATOM     66  C   UNL A   1      38.296  31.383  36.402  1.00  0.00     0.173 A 
ATOM     67  F   UNL A   1      40.200  33.928  34.644  1.00  0.00    -0.203 F 
ATOM     68  C   UNL A   1      38.972  34.060  36.650  1.00  0.00     0.198 A 
ATOM     69  C   UNL A   1      37.825  32.126  37.482  1.00  0.00     0.198 A 
ATOM     70  F   UNL A   1      37.961  30.087  36.317  1.00  0.00    -0.203 F 
ATOM     71  F   UNL A   1      39.335  35.344  36.786  1.00  0.00    -0.200 F 
ATOM     72  C   UNL A   1      38.171  33.462  37.611  1.00  0.00     0.200 A 
ATOM     73  F   UNL A   1      37.042  31.546  38.402  1.00  0.00    -0.200 F 
ATOM     74  F   UNL A   1      37.741  34.169  38.665  1.00  0.00    -0.200 F 
ENDBRANCH  40  64
BRANCH  52  75
ATOM     75  C   UNL A   1      44.490  27.650  34.526  1.00  0.00     0.064 A 
ATOM     76  C   UNL A   1      44.374  26.530  35.361  1.00  0.00     0.173 A 
ATOM     77  C   UNL A   1      45.691  28.375  34.553  1.00  0.00     0.173 A 
ATOM     78  F   UNL A   1      43.238  25.817  35.380  1.00  0.00    -0.203 F 
ATOM     79  C   UNL A   1      45.410  26.168  36.217  1.00  0.00     0.198 A 
ATOM     80  C   UNL A   1      46.736  27.991  35.388  1.00  0.00     0.198 A 
ATOM     81  F   UNL A   1      45.852  29.449  33.768  1.00  0.00    -0.203 F 
ATOM     82  F   UNL A   1      45.258  25.128  37.047  1.00  0.00    -0.200 F 
ATOM     83  C   UNL A   1      46.591  26.896  36.225  1.00  0.00     0.200 A 
ATOM     84  F   UNL A   1      47.881  28.687  35.387  1.00  0.00    -0.200 F 
ATOM     85  F   UNL A   1      47.588  26.545  37.050  1.00  0.00    -0.200 F 
ENDBRANCH  52  75
ENDBRANCH  26  27
ENDBRANCH  19  21
ENDBRANCH  18  19
ENDBRANCH  17  18
ENDBRANCH  16  17
ENDBRANCH   1  16
TORSDOF 16
ENDMDL
MODEL 3
REMARK VINA RESULT:      -9.7      1.217      2.710
REMARK SMILES C[C@H](C[N@@H+](C)[C@@H](C)[C@@H](C)O)C(=O)OCCOC(=O)c1ccc(-c2c3nc(c(-c4c(F)c(F)c(F)c(F)c4F)c4ccc([nH]4)c(-c4c(F)c(F)c(F)c(F)c4F)c4nc(c(-c5c(F)c(F)c(F)c(F)c5F)c5ccc2[nH]5)C=C4)C=C3)cc1
REMARK SMILES IDX 13 1 11 2 12 3 2 4 1 5 3 6 4 7 5 8 6 10 7 11 8 12 9 13 10 14
REMARK SMILES IDX 14 16 15 17 16 18 17 19 18 20 19 21 20 22 81 23 21 24 80 25
REMARK SMILES IDX 22 26 23 27 24 28 74 29 25 30 79 31 73 32 75 33 26 34 78 35
REMARK SMILES IDX 72 36 71 37 27 39 59 40 39 41 58 42 40 43 43 44 57 45 76 46
REMARK SMILES IDX 41 47 42 48 56 50 77 51 44 52 28 53 29 54 37 55 30 56 31 57
REMARK SMILES IDX 35 58 38 59 32 60 33 61 36 62 34 63 60 64 61 65 69 66 62 67
REMARK SMILES IDX 63 68 67 69 70 70 64 71 65 72 68 73 66 74 45 75 46 76 54 77
REMARK SMILES IDX 47 78 48 79 52 80 55 81 49 82 50 83 53 84 51 85
REMARK H PARENT 4 9 10 15 75 38 43 49
REMARK Flexibility Score: inf
ROOT
ATOM      1  O   UNL A   1      36.289  23.684  24.281  1.00  0.00    -0.462 OA
ENDROOT
BRANCH   1   2
ATOM      2  C   UNL A   1      34.998  24.082  24.219  1.00  0.00     0.314 C 
ATOM      3  O   UNL A   1      34.293  23.996  23.220  1.00  0.00    -0.252 OA
BRANCH   2   4
ATOM      4  C   UNL A   1      34.494  24.638  25.547  1.00  0.00     0.151 C 
ATOM      5  C   UNL A   1      34.042  23.514  26.476  1.00  0.00     0.026 C 
BRANCH   4   6
ATOM      6  C   UNL A   1      33.518  25.840  25.489  1.00  0.00     0.277 C 
BRANCH   6   7
ATOM      7  N   UNL A   1      32.403  25.881  24.509  1.00  0.00    -0.332 N 
ATOM      8  C   UNL A   1      31.148  25.588  25.231  1.00  0.00     0.333 C 
ATOM      9  H   UNL A   1      32.641  25.183  23.805  1.00  0.00     0.348 HD
BRANCH   7  10
ATOM     10  C   UNL A   1      32.236  27.136  23.721  1.00  0.00     0.209 C 
ATOM     11  C   UNL A   1      33.488  27.588  22.945  1.00  0.00     0.078 C 
BRANCH  10  12
ATOM     12  C   UNL A   1      30.916  27.193  22.891  1.00  0.00     0.169 C 
ATOM     13  C   UNL A   1      30.105  28.460  23.161  1.00  0.00     0.045 C 
BRANCH  12  14
ATOM     14  O   UNL A   1      31.170  27.126  21.484  1.00  0.00    -0.387 OA
ATOM     15  H   UNL A   1      30.618  26.432  21.089  1.00  0.00     0.211 HD
ENDBRANCH  12  14
ENDBRANCH  10  12
ENDBRANCH   7  10
ENDBRANCH   6   7
ENDBRANCH   4   6
ENDBRANCH   2   4
ENDBRANCH   1   2
BRANCH   1  16
ATOM     16  C   UNL A   1      36.631  22.373  23.783  1.00  0.00     0.274 C 
BRANCH  16  17
ATOM     17  C   UNL A   1      36.693  21.387  24.950  1.00  0.00     0.275 C 
BRANCH  17  18
ATOM     18  O   UNL A   1      37.413  21.993  26.037  1.00  0.00    -0.458 OA
BRANCH  18  19
ATOM     19  C   UNL A   1      38.718  21.643  26.113  1.00  0.00     0.338 C 
ATOM     20  O   UNL A   1      39.263  20.650  25.667  1.00  0.00    -0.246 OA
BRANCH  19  21
ATOM     21  C   UNL A   1      39.456  22.808  26.611  1.00  0.00     0.060 A 
ATOM     22  C   UNL A   1      39.086  24.060  26.112  1.00  0.00     0.016 A 
ATOM     23  C   UNL A   1      40.482  22.680  27.543  1.00  0.00     0.016 A 
ATOM     24  C   UNL A   1      39.737  25.204  26.546  1.00  0.00     0.010 A 
ATOM     25  C   UNL A   1      41.149  23.828  27.969  1.00  0.00     0.010 A 
ATOM     26  C   UNL A   1      40.783  25.090  27.465  1.00  0.00    -0.014 A 
BRANCH  26  27
ATOM     27  C   UNL A   1      41.568  26.287  27.829  1.00  0.00     0.031 A 
ATOM     28  C   UNL A   1      40.912  27.351  28.654  1.00  0.00     0.074 A 
ATOM     29  C   UNL A   1      42.846  26.398  27.427  1.00  0.00     0.049 A 
ATOM     30  N   UNL A   1      41.336  28.550  28.953  1.00  0.00    -0.248 NA
ATOM     31  C   UNL A   1      39.591  27.020  29.213  1.00  0.00     0.031 C 
ATOM     32  C   UNL A   1      43.588  25.382  26.680  1.00  0.00     0.029 A 
ATOM     33  N   UNL A   1      43.742  27.425  27.581  1.00  0.00    -0.354 N 
ATOM     34  C   UNL A   1      40.324  29.128  29.706  1.00  0.00     0.074 A 
ATOM     35  C   UNL A   1      39.260  28.154  29.814  1.00  0.00     0.031 C 
ATOM     36  C   UNL A   1      44.824  25.843  26.426  1.00  0.00     0.029 A 
ATOM     37  C   UNL A   1      44.937  27.203  26.944  1.00  0.00     0.049 A 
ATOM     38  H   UNL A   1      43.547  28.239  28.097  1.00  0.00     0.167 HD
ATOM     39  C   UNL A   1      40.295  30.365  30.254  1.00  0.00     0.037 A 
ATOM     40  C   UNL A   1      45.985  28.029  26.766  1.00  0.00     0.037 A 
ATOM     41  C   UNL A   1      41.374  31.310  30.139  1.00  0.00     0.049 A 
ATOM     42  C   UNL A   1      45.904  29.419  27.341  1.00  0.00     0.074 A 
ATOM     43  C   UNL A   1      41.456  32.598  30.635  1.00  0.00     0.029 A 
ATOM     44  N   UNL A   1      42.571  31.056  29.480  1.00  0.00    -0.354 N 
ATOM     45  N   UNL A   1      44.931  29.979  28.021  1.00  0.00    -0.248 NA
ATOM     46  C   UNL A   1      47.061  30.294  27.118  1.00  0.00     0.031 C 
ATOM     47  C   UNL A   1      42.688  33.137  30.245  1.00  0.00     0.029 A 
ATOM     48  C   UNL A   1      43.393  32.167  29.547  1.00  0.00     0.049 A 
ATOM     49  H   UNL A   1      42.799  30.210  29.031  1.00  0.00     0.167 HD
ATOM     50  C   UNL A   1      45.363  31.262  28.323  1.00  0.00     0.074 A 
ATOM     51  C   UNL A   1      46.698  31.388  27.772  1.00  0.00     0.031 C 
ATOM     52  C   UNL A   1      44.718  32.252  28.988  1.00  0.00     0.037 A 
BRANCH  39  53
ATOM     53  C   UNL A   1      39.051  30.773  30.987  1.00  0.00     0.064 A 
ATOM     54  C   UNL A   1      37.937  31.301  30.318  1.00  0.00     0.173 A 
ATOM     55  C   UNL A   1      38.964  30.616  32.379  1.00  0.00     0.173 A 
ATOM     56  F   UNL A   1      37.974  31.492  28.990  1.00  0.00    -0.203 F 
ATOM     57  C   UNL A   1      36.790  31.673  31.017  1.00  0.00     0.198 A 
ATOM     58  C   UNL A   1      37.808  30.964  33.071  1.00  0.00     0.198 A 
ATOM     59  F   UNL A   1      40.003  30.119  33.068  1.00  0.00    -0.203 F 
ATOM     60  F   UNL A   1      35.755  32.217  30.362  1.00  0.00    -0.200 F 
ATOM     61  C   UNL A   1      36.724  31.498  32.391  1.00  0.00     0.200 A 
ATOM     62  F   UNL A   1      37.743  30.787  34.398  1.00  0.00    -0.200 F 
ATOM     63  F   UNL A   1      35.619  31.851  33.061  1.00  0.00    -0.200 F 
ENDBRANCH  39  53
BRANCH  40  64
ATOM     64  C   UNL A   1      47.170  27.583  25.986  1.00  0.00     0.064 A 
ATOM     65  C   UNL A   1      48.291  27.034  26.623  1.00  0.00     0.173 A 
ATOM     66  C   UNL A   1      47.212  27.708  24.589  1.00  0.00     0.173 A 
ATOM     67  F   UNL A   1      48.312  26.916  27.958  1.00  0.00    -0.203 F 
ATOM     68  C   UNL A   1      49.415  26.646  25.894  1.00  0.00     0.198 A 
ATOM     69  C   UNL A   1      48.323  27.290  23.859  1.00  0.00     0.198 A 
ATOM     70  F   UNL A   1      46.166  28.229  23.929  1.00  0.00    -0.203 F 
ATOM     71  F   UNL A   1      50.494  26.172  26.534  1.00  0.00    -0.200 F 
ATOM     72  C   UNL A   1      49.428  26.769  24.513  1.00  0.00     0.200 A 
ATOM     73  F   UNL A   1      48.325  27.400  22.524  1.00  0.00    -0.200 F 
ATOM     74  F   UNL A   1      50.507  26.393  23.814  1.00  0.00    -0.200 F 
ENDBRANCH  40  64
BRANCH  52  75
ATOM     75  C   UNL A   1      45.469  33.537  29.175  1.00  0.00     0.064 A 
ATOM     76  C   UNL A   1      46.304  33.745  30.282  1.00  0.00     0.173 A 
ATOM     77  C   UNL A   1      45.364  34.563  28.223  1.00  0.00     0.173 A 
ATOM     78  F   UNL A   1      46.422  32.799  31.225  1.00  0.00    -0.203 F 
ATOM     79  C   UNL A   1      46.982  34.949  30.448  1.00  0.00     0.198 A 
ATOM     80  C   UNL A   1      46.068  35.753  28.377  1.00  0.00     0.198 A 
ATOM     81  F   UNL A   1      44.584  34.408  27.144  1.00  0.00    -0.203 F 
ATOM     82  F   UNL A   1      47.730  35.149  31.541  1.00  0.00    -0.200 F 
ATOM     83  C   UNL A   1      46.868  35.948  29.493  1.00  0.00     0.200 A 
ATOM     84  F   UNL A   1      45.967  36.713  27.448  1.00  0.00    -0.200 F 
ATOM     85  F   UNL A   1      47.522  37.107  29.655  1.00  0.00    -0.200 F 
ENDBRANCH  52  75
ENDBRANCH  26  27
ENDBRANCH  19  21
ENDBRANCH  18  19
ENDBRANCH  17  18
ENDBRANCH  16  17
ENDBRANCH   1  16
TORSDOF 16
ENDMDL
