MODEL 1
REMARK VINA RESULT:     -11.5      0.000      0.000
REMARK SMILES CCN(CC)c1ccc([C@@H]2[NH2+][C@H](C(=O)OCCOC(=O)c3ccc(-c4c5nc(c(-c6c(F)c(F)c(F)c(F)c6F)c6ccc([nH]6)c(-c6c(F)c(F)c(F)c(F)c6F)c6nc(c(-c7c(F)c(F)c(F)c(F)c7F)c7ccc4[nH]7)C=C6)C=C5)cc3)Cc3c2[nH]c2ccccc32)cc1
REMARK SMILES IDX 16 1 15 2 13 3 14 4 12 5 10 6 11 7 86 8 85 11 87 12 84 13
REMARK SMILES IDX 93 14 88 15 92 17 89 18 91 19 90 20 9 21 6 22 7 23 95 24
REMARK SMILES IDX 8 25 94 26 3 27 2 28 1 29 4 30 5 31 17 32 18 33 19 34 20 35
REMARK SMILES IDX 21 36 22 37 83 38 23 39 82 40 24 41 25 42 26 43 76 44 27 45
REMARK SMILES IDX 81 46 75 47 77 48 28 49 80 50 74 51 73 52 29 54 61 55 41 56
REMARK SMILES IDX 60 57 42 58 45 59 59 60 78 61 43 62 44 63 58 65 79 66 46 67
REMARK SMILES IDX 30 68 31 69 39 70 32 71 33 72 37 73 40 74 34 75 35 76 38 77
REMARK SMILES IDX 36 78 62 79 63 80 71 81 64 82 65 83 69 84 72 85 66 86 67 87
REMARK SMILES IDX 70 88 68 89 47 90 48 91 56 92 49 93 50 94 54 95 57 96 51 97
REMARK SMILES IDX 52 98 55 99 53 100
REMARK H PARENT 11 9 11 10 87 16 77 53 45 64
REMARK Flexibility Score: inf
ROOT
ATOM      1  C   UNL A   1      32.591  26.821  26.100  1.00  0.00     0.274 C 
ENDROOT
BRANCH   1   2
ATOM      2  O   UNL A   1      32.446  25.533  26.724  1.00  0.00    -0.458 OA
BRANCH   2   3
ATOM      3  C   UNL A   1      31.173  25.029  26.728  1.00  0.00     0.365 C 
ATOM      4  O   UNL A   1      30.166  25.695  26.521  1.00  0.00    -0.245 OA
BRANCH   3   5
ATOM      5  C   UNL A   1      31.217  23.502  26.817  1.00  0.00     0.298 C 
ATOM      6  C   UNL A   1      31.605  22.542  24.509  1.00  0.00     0.262 C 
ATOM      7  N   UNL A   1      30.670  22.762  25.637  1.00  0.00    -0.323 N 
ATOM      8  C   UNL A   1      32.897  22.054  25.104  1.00  0.00     0.083 A 
ATOM      9  H   UNL A   1      30.355  21.847  25.962  1.00  0.00     0.347 HD
ATOM     10  H   UNL A   1      29.928  23.354  25.264  1.00  0.00     0.347 HD
ATOM     11  C   UNL A   1      33.465  22.571  26.247  1.00  0.00    -0.006 A 
ATOM     12  N   UNL A   1      33.860  21.243  24.555  1.00  0.00    -0.353 N 
ATOM     13  C   UNL A   1      32.615  23.090  27.333  1.00  0.00     0.115 C 
ATOM     14  C   UNL A   1      34.807  22.780  25.864  1.00  0.00     0.003 A 
ATOM     15  C   UNL A   1      35.086  21.778  24.928  1.00  0.00     0.046 A 
ATOM     16  H   UNL A   1      33.711  20.441  24.005  1.00  0.00     0.166 HD
ATOM     17  C   UNL A   1      35.785  23.754  26.132  1.00  0.00     0.010 A 
ATOM     18  C   UNL A   1      36.371  21.551  24.432  1.00  0.00     0.026 A 
ATOM     19  C   UNL A   1      37.026  23.646  25.494  1.00  0.00     0.001 A 
ATOM     20  C   UNL A   1      37.334  22.528  24.717  1.00  0.00     0.002 A 
BRANCH   6  21
ATOM     21  C   UNL A   1      31.796  23.824  23.666  1.00  0.00     0.016 A 
ATOM     22  C   UNL A   1      32.202  26.435  22.512  1.00  0.00     0.037 A 
ATOM     23  C   UNL A   1      33.258  25.549  22.706  1.00  0.00     0.026 A 
ATOM     24  C   UNL A   1      30.926  25.900  22.726  1.00  0.00     0.026 A 
ATOM     25  C   UNL A   1      33.061  24.277  23.261  1.00  0.00     0.012 A 
ATOM     26  C   UNL A   1      30.717  24.622  23.277  1.00  0.00     0.012 A 
BRANCH  22  27
ATOM     27  N   UNL A   1      32.392  27.766  22.153  1.00  0.00    -0.372 N 
BRANCH  27  28
ATOM     28  C   UNL A   1      31.290  28.715  22.404  1.00  0.00     0.113 C 
ATOM     29  C   UNL A   1      31.163  29.128  23.862  1.00  0.00     0.027 C 
ENDBRANCH  27  28
BRANCH  27  30
ATOM     30  C   UNL A   1      33.740  28.343  22.040  1.00  0.00     0.113 C 
ATOM     31  C   UNL A   1      34.361  28.735  23.379  1.00  0.00     0.027 C 
ENDBRANCH  27  30
ENDBRANCH  22  27
ENDBRANCH   6  21
ENDBRANCH   3   5
ENDBRANCH   2   3
ENDBRANCH   1   2
BRANCH   1  32
ATOM     32  C   UNL A   1      32.983  27.891  27.130  1.00  0.00     0.275 C 
BRANCH  32  33
ATOM     33  O   UNL A   1      33.634  29.027  26.523  1.00  0.00    -0.458 OA
BRANCH  33  34
ATOM     34  C   UNL A   1      34.019  30.001  27.388  1.00  0.00     0.338 C 
ATOM     35  O   UNL A   1      33.323  30.880  27.862  1.00  0.00    -0.246 OA
BRANCH  34  36
ATOM     36  C   UNL A   1      35.409  29.771  27.834  1.00  0.00     0.060 A 
ATOM     37  C   UNL A   1      36.406  29.798  26.855  1.00  0.00     0.016 A 
ATOM     38  C   UNL A   1      35.740  29.485  29.160  1.00  0.00     0.016 A 
ATOM     39  C   UNL A   1      37.744  29.616  27.203  1.00  0.00     0.010 A 
ATOM     40  C   UNL A   1      37.083  29.259  29.504  1.00  0.00     0.010 A 
ATOM     41  C   UNL A   1      38.094  29.341  28.529  1.00  0.00    -0.014 A 
BRANCH  41  42
ATOM     42  C   UNL A   1      39.519  29.095  28.863  1.00  0.00     0.031 A 
ATOM     43  C   UNL A   1      40.292  30.114  29.647  1.00  0.00     0.074 A 
ATOM     44  C   UNL A   1      40.100  27.929  28.521  1.00  0.00     0.049 A 
ATOM     45  N   UNL A   1      41.549  30.102  30.013  1.00  0.00    -0.248 NA
ATOM     46  C   UNL A   1      39.546  31.301  30.089  1.00  0.00     0.031 C 
ATOM     47  C   UNL A   1      39.434  26.827  27.830  1.00  0.00     0.029 A 
ATOM     48  N   UNL A   1      41.383  27.480  28.717  1.00  0.00    -0.354 N 
ATOM     49  C   UNL A   1      41.748  31.278  30.722  1.00  0.00     0.074 A 
ATOM     50  C   UNL A   1      40.485  31.988  30.725  1.00  0.00     0.031 C 
ATOM     51  C   UNL A   1      40.317  25.829  27.653  1.00  0.00     0.029 A 
ATOM     52  C   UNL A   1      41.617  26.239  28.178  1.00  0.00     0.049 A 
ATOM     53  H   UNL A   1      42.068  27.997  29.199  1.00  0.00     0.167 HD
ATOM     54  C   UNL A   1      42.881  31.723  31.317  1.00  0.00     0.037 A 
ATOM     55  C   UNL A   1      42.760  25.529  28.091  1.00  0.00     0.037 A 
ATOM     56  C   UNL A   1      44.136  31.016  31.316  1.00  0.00     0.049 A 
ATOM     57  C   UNL A   1      44.029  26.093  28.676  1.00  0.00     0.074 A 
ATOM     58  C   UNL A   1      45.337  31.389  31.896  1.00  0.00     0.029 A 
ATOM     59  N   UNL A   1      44.354  29.793  30.700  1.00  0.00    -0.354 N 
ATOM     60  N   UNL A   1      44.212  27.210  29.338  1.00  0.00    -0.248 NA
ATOM     61  C   UNL A   1      45.254  25.299  28.493  1.00  0.00     0.031 C 
ATOM     62  C   UNL A   1      46.295  30.417  31.587  1.00  0.00     0.029 A 
ATOM     63  C   UNL A   1      45.678  29.412  30.858  1.00  0.00     0.049 A 
ATOM     64  H   UNL A   1      43.670  29.272  30.221  1.00  0.00     0.167 HD
ATOM     65  C   UNL A   1      45.562  27.243  29.668  1.00  0.00     0.074 A 
ATOM     66  C   UNL A   1      46.148  26.026  29.149  1.00  0.00     0.031 C 
ATOM     67  C   UNL A   1      46.252  28.197  30.338  1.00  0.00     0.037 A 
BRANCH  54  68
ATOM     68  C   UNL A   1      42.829  33.063  31.988  1.00  0.00     0.064 A 
ATOM     69  C   UNL A   1      42.514  33.198  33.348  1.00  0.00     0.173 A 
ATOM     70  C   UNL A   1      43.142  34.226  31.267  1.00  0.00     0.173 A 
ATOM     71  F   UNL A   1      42.194  32.119  34.078  1.00  0.00    -0.203 F 
ATOM     72  C   UNL A   1      42.493  34.452  33.956  1.00  0.00     0.198 A 
ATOM     73  C   UNL A   1      43.147  35.473  31.883  1.00  0.00     0.198 A 
ATOM     74  F   UNL A   1      43.457  34.149  29.964  1.00  0.00    -0.203 F 
ATOM     75  F   UNL A   1      42.150  34.563  35.247  1.00  0.00    -0.200 F 
ATOM     76  C   UNL A   1      42.817  35.585  33.226  1.00  0.00     0.200 A 
ATOM     77  F   UNL A   1      43.470  36.567  31.180  1.00  0.00    -0.200 F 
ATOM     78  F   UNL A   1      42.803  36.790  33.814  1.00  0.00    -0.200 F 
ENDBRANCH  54  68
BRANCH  55  79
ATOM     79  C   UNL A   1      42.771  24.223  27.381  1.00  0.00     0.064 A 
ATOM     80  C   UNL A   1      42.480  23.027  28.052  1.00  0.00     0.173 A 
ATOM     81  C   UNL A   1      43.111  24.142  26.022  1.00  0.00     0.173 A 
ATOM     82  F   UNL A   1      42.186  23.047  29.360  1.00  0.00    -0.203 F 
ATOM     83  C   UNL A   1      42.548  21.799  27.394  1.00  0.00     0.198 A 
ATOM     84  C   UNL A   1      43.149  22.918  25.359  1.00  0.00     0.198 A 
ATOM     85  F   UNL A   1      43.413  25.256  25.337  1.00  0.00    -0.203 F 
ATOM     86  F   UNL A   1      42.322  20.666  28.072  1.00  0.00    -0.200 F 
ATOM     87  C   UNL A   1      42.876  21.747  26.048  1.00  0.00     0.200 A 
ATOM     88  F   UNL A   1      43.464  22.873  24.057  1.00  0.00    -0.200 F 
ATOM     89  F   UNL A   1      42.945  20.566  25.418  1.00  0.00    -0.200 F 
ENDBRANCH  55  79
BRANCH  67  90
ATOM     90  C   UNL A   1      47.716  27.957  30.571  1.00  0.00     0.064 A 
ATOM     91  C   UNL A   1      48.177  27.256  31.695  1.00  0.00     0.173 A 
ATOM     92  C   UNL A   1      48.668  28.398  29.637  1.00  0.00     0.173 A 
ATOM     93  F   UNL A   1      47.309  26.826  32.625  1.00  0.00    -0.203 F 
ATOM     94  C   UNL A   1      49.536  27.025  31.888  1.00  0.00     0.198 A 
ATOM     95  C   UNL A   1      50.025  28.139  29.819  1.00  0.00     0.198 A 
ATOM     96  F   UNL A   1      48.281  29.067  28.541  1.00  0.00    -0.203 F 
ATOM     97  F   UNL A   1      49.957  26.393  32.993  1.00  0.00    -0.200 F 
ATOM     98  C   UNL A   1      50.458  27.461  30.947  1.00  0.00     0.200 A 
ATOM     99  F   UNL A   1      50.911  28.550  28.902  1.00  0.00    -0.200 F 
ATOM    100  F   UNL A   1      51.766  27.230  31.132  1.00  0.00    -0.200 F 
ENDBRANCH  67  90
ENDBRANCH  41  42
ENDBRANCH  34  36
ENDBRANCH  33  34
ENDBRANCH  32  33
ENDBRANCH   1  32
TORSDOF 15
ENDMDL
MODEL 2
REMARK VINA RESULT:     -11.2      0.634      7.093
REMARK SMILES CCN(CC)c1ccc([C@@H]2[NH2+][C@H](C(=O)OCCOC(=O)c3ccc(-c4c5nc(c(-c6c(F)c(F)c(F)c(F)c6F)c6ccc([nH]6)c(-c6c(F)c(F)c(F)c(F)c6F)c6nc(c(-c7c(F)c(F)c(F)c(F)c7F)c7ccc4[nH]7)C=C6)C=C5)cc3)Cc3c2[nH]c2ccccc32)cc1
REMARK SMILES IDX 16 1 15 2 13 3 14 4 12 5 10 6 11 7 86 8 85 11 87 12 84 13
REMARK SMILES IDX 93 14 88 15 92 17 89 18 91 19 90 20 9 21 6 22 7 23 95 24
REMARK SMILES IDX 8 25 94 26 3 27 2 28 1 29 4 30 5 31 17 32 18 33 19 34 20 35
REMARK SMILES IDX 21 36 22 37 83 38 23 39 82 40 24 41 25 42 26 43 76 44 27 45
REMARK SMILES IDX 81 46 75 47 77 48 28 49 80 50 74 51 73 52 29 54 61 55 41 56
REMARK SMILES IDX 60 57 42 58 45 59 59 60 78 61 43 62 44 63 58 65 79 66 46 67
REMARK SMILES IDX 30 68 31 69 39 70 32 71 33 72 37 73 40 74 34 75 35 76 38 77
REMARK SMILES IDX 36 78 62 79 63 80 71 81 64 82 65 83 69 84 72 85 66 86 67 87
REMARK SMILES IDX 70 88 68 89 47 90 48 91 56 92 49 93 50 94 54 95 57 96 51 97
REMARK SMILES IDX 52 98 55 99 53 100
REMARK H PARENT 11 9 11 10 87 16 77 53 45 64
REMARK Flexibility Score: inf
ROOT
ATOM      1  C   UNL A   1      32.558  26.517  26.072  1.00  0.00     0.274 C 
ENDROOT
BRANCH   1   2
ATOM      2  O   UNL A   1      32.621  25.187  26.618  1.00  0.00    -0.458 OA
BRANCH   2   3
ATOM      3  C   UNL A   1      31.408  24.597  26.855  1.00  0.00     0.365 C 
ATOM      4  O   UNL A   1      30.331  25.174  26.764  1.00  0.00    -0.245 OA
BRANCH   3   5
ATOM      5  C   UNL A   1      31.589  23.089  27.035  1.00  0.00     0.298 C 
ATOM      6  C   UNL A   1      31.991  22.019  24.779  1.00  0.00     0.262 C 
ATOM      7  N   UNL A   1      31.074  22.230  25.923  1.00  0.00    -0.323 N 
ATOM      8  C   UNL A   1      33.338  21.683  25.358  1.00  0.00     0.083 A 
ATOM      9  H   UNL A   1      30.850  21.315  26.314  1.00  0.00     0.347 HD
ATOM     10  H   UNL A   1      30.272  22.731  25.540  1.00  0.00     0.347 HD
ATOM     11  C   UNL A   1      33.892  22.319  26.446  1.00  0.00    -0.006 A 
ATOM     12  N   UNL A   1      34.352  20.924  24.826  1.00  0.00    -0.353 N 
ATOM     13  C   UNL A   1      33.032  22.832  27.527  1.00  0.00     0.115 C 
ATOM     14  C   UNL A   1      35.198  22.617  26.004  1.00  0.00     0.003 A 
ATOM     15  C   UNL A   1      35.537  21.585  25.123  1.00  0.00     0.046 A 
ATOM     16  H   UNL A   1      34.257  20.078  24.332  1.00  0.00     0.166 HD
ATOM     17  C   UNL A   1      36.095  23.686  26.177  1.00  0.00     0.010 A 
ATOM     18  C   UNL A   1      36.822  21.438  24.597  1.00  0.00     0.026 A 
ATOM     19  C   UNL A   1      37.321  23.644  25.505  1.00  0.00     0.001 A 
ATOM     20  C   UNL A   1      37.702  22.510  24.788  1.00  0.00     0.002 A 
BRANCH   6  21
ATOM     21  C   UNL A   1      32.045  23.257  23.852  1.00  0.00     0.016 A 
ATOM     22  C   UNL A   1      32.180  25.813  22.527  1.00  0.00     0.037 A 
ATOM     23  C   UNL A   1      33.318  25.043  22.749  1.00  0.00     0.026 A 
ATOM     24  C   UNL A   1      30.964  25.177  22.806  1.00  0.00     0.026 A 
ATOM     25  C   UNL A   1      33.253  23.797  23.388  1.00  0.00     0.012 A 
ATOM     26  C   UNL A   1      30.888  23.924  23.441  1.00  0.00     0.012 A 
BRANCH  22  27
ATOM     27  N   UNL A   1      32.237  27.129  22.080  1.00  0.00    -0.372 N 
BRANCH  27  28
ATOM     28  C   UNL A   1      31.024  27.959  22.214  1.00  0.00     0.113 C 
ATOM     29  C   UNL A   1      30.609  28.204  23.656  1.00  0.00     0.027 C 
ENDBRANCH  27  28
BRANCH  27  30
ATOM     30  C   UNL A   1      33.515  27.851  21.983  1.00  0.00     0.113 C 
ATOM     31  C   UNL A   1      33.762  28.832  23.128  1.00  0.00     0.027 C 
ENDBRANCH  27  30
ENDBRANCH  22  27
ENDBRANCH   6  21
ENDBRANCH   3   5
ENDBRANCH   2   3
ENDBRANCH   1   2
BRANCH   1  32
ATOM     32  C   UNL A   1      33.763  27.355  26.522  1.00  0.00     0.275 C 
BRANCH  32  33
ATOM     33  O   UNL A   1      33.398  28.378  27.473  1.00  0.00    -0.458 OA
BRANCH  33  34
ATOM     34  C   UNL A   1      34.034  29.567  27.312  1.00  0.00     0.338 C 
ATOM     35  O   UNL A   1      33.543  30.620  26.946  1.00  0.00    -0.246 OA
BRANCH  34  36
ATOM     36  C   UNL A   1      35.425  29.476  27.804  1.00  0.00     0.060 A 
ATOM     37  C   UNL A   1      36.446  29.600  26.857  1.00  0.00     0.016 A 
ATOM     38  C   UNL A   1      35.739  29.225  29.141  1.00  0.00     0.016 A 
ATOM     39  C   UNL A   1      37.783  29.551  27.249  1.00  0.00     0.010 A 
ATOM     40  C   UNL A   1      37.085  29.133  29.530  1.00  0.00     0.010 A 
ATOM     41  C   UNL A   1      38.115  29.313  28.588  1.00  0.00    -0.014 A 
BRANCH  41  42
ATOM     42  C   UNL A   1      39.545  29.209  28.968  1.00  0.00     0.031 A 
ATOM     43  C   UNL A   1      40.343  28.005  28.562  1.00  0.00     0.074 A 
ATOM     44  C   UNL A   1      40.145  30.223  29.620  1.00  0.00     0.049 A 
ATOM     45  N   UNL A   1      41.593  27.710  28.821  1.00  0.00    -0.248 NA
ATOM     46  C   UNL A   1      39.644  27.004  27.744  1.00  0.00     0.031 C 
ATOM     47  C   UNL A   1      39.502  31.479  29.999  1.00  0.00     0.029 A 
ATOM     48  N   UNL A   1      41.436  30.356  30.070  1.00  0.00    -0.354 N 
ATOM     49  C   UNL A   1      41.829  26.490  28.205  1.00  0.00     0.074 A 
ATOM     50  C   UNL A   1      40.590  26.091  27.569  1.00  0.00     0.031 C 
ATOM     51  C   UNL A   1      40.399  32.254  30.633  1.00  0.00     0.029 A 
ATOM     52  C   UNL A   1      41.665  31.532  30.741  1.00  0.00     0.049 A 
ATOM     53  H   UNL A   1      42.131  29.673  29.926  1.00  0.00     0.167 HD
ATOM     54  C   UNL A   1      42.976  25.769  28.172  1.00  0.00     0.037 A 
ATOM     55  C   UNL A   1      42.761  31.962  31.396  1.00  0.00     0.037 A 
ATOM     56  C   UNL A   1      44.209  26.167  28.801  1.00  0.00     0.049 A 
ATOM     57  C   UNL A   1      43.994  31.095  31.426  1.00  0.00     0.074 A 
ATOM     58  C   UNL A   1      45.423  25.501  28.818  1.00  0.00     0.029 A 
ATOM     59  N   UNL A   1      44.383  27.333  29.531  1.00  0.00    -0.354 N 
ATOM     60  N   UNL A   1      44.208  29.938  30.848  1.00  0.00    -0.248 NA
ATOM     61  C   UNL A   1      45.136  31.592  32.208  1.00  0.00     0.031 C 
ATOM     62  C   UNL A   1      46.317  26.240  29.601  1.00  0.00     0.029 A 
ATOM     63  C   UNL A   1      45.676  27.391  30.029  1.00  0.00     0.049 A 
ATOM     64  H   UNL A   1      43.692  28.019  29.675  1.00  0.00     0.167 HD
ATOM     65  C   UNL A   1      45.510  29.580  31.178  1.00  0.00     0.074 A 
ATOM     66  C   UNL A   1      46.044  30.650  31.992  1.00  0.00     0.031 C 
ATOM     67  C   UNL A   1      46.198  28.463  30.839  1.00  0.00     0.037 A 
BRANCH  54  68
ATOM     68  C   UNL A   1      42.943  24.449  27.462  1.00  0.00     0.064 A 
ATOM     69  C   UNL A   1      42.554  23.268  28.113  1.00  0.00     0.173 A 
ATOM     70  C   UNL A   1      43.263  24.373  26.098  1.00  0.00     0.173 A 
ATOM     71  F   UNL A   1      42.251  23.286  29.420  1.00  0.00    -0.203 F 
ATOM     72  C   UNL A   1      42.510  22.056  27.428  1.00  0.00     0.198 A 
ATOM     73  C   UNL A   1      43.192  23.165  25.410  1.00  0.00     0.198 A 
ATOM     74  F   UNL A   1      43.635  25.475  25.429  1.00  0.00    -0.203 F 
ATOM     75  F   UNL A   1      42.175  20.933  28.078  1.00  0.00    -0.200 F 
ATOM     76  C   UNL A   1      42.821  22.007  26.077  1.00  0.00     0.200 A 
ATOM     77  F   UNL A   1      43.482  23.121  24.103  1.00  0.00    -0.200 F 
ATOM     78  F   UNL A   1      42.770  20.841  25.418  1.00  0.00    -0.200 F 
ENDBRANCH  54  68
BRANCH  55  79
ATOM     79  C   UNL A   1      42.734  33.261  32.118  1.00  0.00     0.064 A 
ATOM     80  C   UNL A   1      42.255  33.354  33.432  1.00  0.00     0.173 A 
ATOM     81  C   UNL A   1      43.154  34.444  31.491  1.00  0.00     0.173 A 
ATOM     82  F   UNL A   1      41.807  32.258  34.061  1.00  0.00    -0.203 F 
ATOM     83  C   UNL A   1      42.180  34.585  34.083  1.00  0.00     0.198 A 
ATOM     84  C   UNL A   1      43.106  35.668  32.154  1.00  0.00     0.198 A 
ATOM     85  F   UNL A   1      43.607  34.412  30.228  1.00  0.00    -0.203 F 
ATOM     86  F   UNL A   1      41.664  34.655  35.318  1.00  0.00    -0.200 F 
ATOM     87  C   UNL A   1      42.611  35.739  33.447  1.00  0.00     0.200 A 
ATOM     88  F   UNL A   1      43.527  36.780  31.535  1.00  0.00    -0.200 F 
ATOM     89  F   UNL A   1      42.533  36.921  34.072  1.00  0.00    -0.200 F 
ENDBRANCH  55  79
BRANCH  67  90
ATOM     90  C   UNL A   1      47.614  28.348  31.326  1.00  0.00     0.064 A 
ATOM     91  C   UNL A   1      48.692  28.841  30.577  1.00  0.00     0.173 A 
ATOM     92  C   UNL A   1      47.893  27.775  32.578  1.00  0.00     0.173 A 
ATOM     93  F   UNL A   1      48.482  29.384  29.368  1.00  0.00    -0.203 F 
ATOM     94  C   UNL A   1      49.998  28.744  31.050  1.00  0.00     0.198 A 
ATOM     95  C   UNL A   1      49.198  27.706  33.060  1.00  0.00     0.198 A 
ATOM     96  F   UNL A   1      46.898  27.294  33.338  1.00  0.00    -0.203 F 
ATOM     97  F   UNL A   1      51.017  29.180  30.296  1.00  0.00    -0.200 F 
ATOM     98  C   UNL A   1      50.249  28.183  32.294  1.00  0.00     0.200 A 
ATOM     99  F   UNL A   1      49.435  27.176  34.268  1.00  0.00    -0.200 F 
ATOM    100  F   UNL A   1      51.507  28.098  32.751  1.00  0.00    -0.200 F 
ENDBRANCH  67  90
ENDBRANCH  41  42
ENDBRANCH  34  36
ENDBRANCH  33  34
ENDBRANCH  32  33
ENDBRANCH   1  32
TORSDOF 15
ENDMDL
MODEL 3
REMARK VINA RESULT:     -11.1      2.794      8.345
REMARK SMILES CCN(CC)c1ccc([C@@H]2[NH2+][C@H](C(=O)OCCOC(=O)c3ccc(-c4c5nc(c(-c6c(F)c(F)c(F)c(F)c6F)c6ccc([nH]6)c(-c6c(F)c(F)c(F)c(F)c6F)c6nc(c(-c7c(F)c(F)c(F)c(F)c7F)c7ccc4[nH]7)C=C6)C=C5)cc3)Cc3c2[nH]c2ccccc32)cc1
REMARK SMILES IDX 16 1 15 2 13 3 14 4 12 5 10 6 11 7 86 8 85 11 87 12 84 13
REMARK SMILES IDX 93 14 88 15 92 17 89 18 91 19 90 20 9 21 6 22 7 23 95 24
REMARK SMILES IDX 8 25 94 26 3 27 2 28 1 29 4 30 5 31 17 32 18 33 19 34 20 35
REMARK SMILES IDX 21 36 22 37 83 38 23 39 82 40 24 41 25 42 26 43 76 44 27 45
REMARK SMILES IDX 81 46 75 47 77 48 28 49 80 50 74 51 73 52 29 54 61 55 41 56
REMARK SMILES IDX 60 57 42 58 45 59 59 60 78 61 43 62 44 63 58 65 79 66 46 67
REMARK SMILES IDX 30 68 31 69 39 70 32 71 33 72 37 73 40 74 34 75 35 76 38 77
REMARK SMILES IDX 36 78 62 79 63 80 71 81 64 82 65 83 69 84 72 85 66 86 67 87
REMARK SMILES IDX 70 88 68 89 47 90 48 91 56 92 49 93 50 94 54 95 57 96 51 97
REMARK SMILES IDX 52 98 55 99 53 100
REMARK H PARENT 11 9 11 10 87 16 77 53 45 64
REMARK Flexibility Score: inf
ROOT
ATOM      1  C   UNL A   1      34.735  24.171  24.541  1.00  0.00     0.274 C 
ENDROOT
BRANCH   1   2
ATOM      2  O   UNL A   1      34.403  25.355  23.795  1.00  0.00    -0.458 OA
BRANCH   2   3
ATOM      3  C   UNL A   1      33.980  25.134  22.511  1.00  0.00     0.365 C 
ATOM      4  O   UNL A   1      33.792  24.025  22.028  1.00  0.00    -0.245 OA
BRANCH   3   5
ATOM      5  C   UNL A   1      33.582  26.460  21.859  1.00  0.00     0.298 C 
ATOM      6  C   UNL A   1      31.237  27.075  22.578  1.00  0.00     0.262 C 
ATOM      7  N   UNL A   1      32.137  26.604  21.500  1.00  0.00    -0.323 N 
ATOM      8  C   UNL A   1      31.917  28.246  23.232  1.00  0.00     0.083 A 
ATOM      9  H   UNL A   1      32.072  27.270  20.729  1.00  0.00     0.347 HD
ATOM     10  H   UNL A   1      31.817  25.663  21.269  1.00  0.00     0.347 HD
ATOM     11  C   UNL A   1      33.262  28.294  23.525  1.00  0.00    -0.006 A 
ATOM     12  N   UNL A   1      31.367  29.327  23.876  1.00  0.00    -0.353 N 
ATOM     13  C   UNL A   1      34.238  27.607  22.661  1.00  0.00     0.115 C 
ATOM     14  C   UNL A   1      33.275  28.736  24.865  1.00  0.00     0.003 A 
ATOM     15  C   UNL A   1      32.156  29.565  24.994  1.00  0.00     0.046 A 
ATOM     16  H   UNL A   1      30.570  29.834  23.599  1.00  0.00     0.166 HD
ATOM     17  C   UNL A   1      34.053  28.459  26.003  1.00  0.00     0.010 A 
ATOM     18  C   UNL A   1      31.914  30.327  26.139  1.00  0.00     0.026 A 
ATOM     19  C   UNL A   1      33.709  29.075  27.212  1.00  0.00     0.001 A 
ATOM     20  C   UNL A   1      32.704  30.042  27.259  1.00  0.00     0.002 A 
BRANCH   6  21
ATOM     21  C   UNL A   1      30.914  25.947  23.588  1.00  0.00     0.016 A 
ATOM     22  C   UNL A   1      30.785  23.792  25.497  1.00  0.00     0.037 A 
ATOM     23  C   UNL A   1      30.781  25.125  25.898  1.00  0.00     0.026 A 
ATOM     24  C   UNL A   1      30.653  23.581  24.119  1.00  0.00     0.026 A 
ATOM     25  C   UNL A   1      30.838  26.174  24.970  1.00  0.00     0.012 A 
ATOM     26  C   UNL A   1      30.703  24.628  23.180  1.00  0.00     0.012 A 
BRANCH  22  27
ATOM     27  N   UNL A   1      30.930  22.737  26.392  1.00  0.00    -0.372 N 
BRANCH  27  28
ATOM     28  C   UNL A   1      32.243  22.067  26.466  1.00  0.00     0.113 C 
ATOM     29  C   UNL A   1      33.124  22.578  27.596  1.00  0.00     0.027 C 
ENDBRANCH  27  28
BRANCH  27  30
ATOM     30  C   UNL A   1      30.064  22.611  27.574  1.00  0.00     0.113 C 
ATOM     31  C   UNL A   1      28.628  22.203  27.251  1.00  0.00     0.027 C 
ENDBRANCH  27  30
ENDBRANCH  22  27
ENDBRANCH   6  21
ENDBRANCH   3   5
ENDBRANCH   2   3
ENDBRANCH   1   2
BRANCH   1  32
ATOM     32  C   UNL A   1      36.009  24.383  25.373  1.00  0.00     0.275 C 
BRANCH  32  33
ATOM     33  O   UNL A   1      37.145  23.678  24.829  1.00  0.00    -0.458 OA
BRANCH  33  34
ATOM     34  C   UNL A   1      38.016  23.192  25.751  1.00  0.00     0.338 C 
ATOM     35  O   UNL A   1      38.385  22.039  25.879  1.00  0.00    -0.246 OA
BRANCH  34  36
ATOM     36  C   UNL A   1      38.618  24.300  26.522  1.00  0.00     0.060 A 
ATOM     37  C   UNL A   1      38.204  24.453  27.849  1.00  0.00     0.016 A 
ATOM     38  C   UNL A   1      39.522  25.206  25.964  1.00  0.00     0.016 A 
ATOM     39  C   UNL A   1      38.746  25.460  28.647  1.00  0.00     0.010 A 
ATOM     40  C   UNL A   1      40.037  26.246  26.756  1.00  0.00     0.010 A 
ATOM     41  C   UNL A   1      39.664  26.367  28.107  1.00  0.00    -0.014 A 
BRANCH  41  42
ATOM     42  C   UNL A   1      40.182  27.463  28.962  1.00  0.00     0.031 A 
ATOM     43  C   UNL A   1      41.582  27.398  29.500  1.00  0.00     0.074 A 
ATOM     44  C   UNL A   1      39.422  28.549  29.202  1.00  0.00     0.049 A 
ATOM     45  N   UNL A   1      42.210  28.234  30.286  1.00  0.00    -0.248 NA
ATOM     46  C   UNL A   1      42.386  26.239  29.085  1.00  0.00     0.031 C 
ATOM     47  C   UNL A   1      38.078  28.770  28.672  1.00  0.00     0.029 A 
ATOM     48  N   UNL A   1      39.680  29.672  29.950  1.00  0.00    -0.354 N 
ATOM     49  C   UNL A   1      43.479  27.704  30.467  1.00  0.00     0.074 A 
ATOM     50  C   UNL A   1      43.529  26.465  29.718  1.00  0.00     0.031 C 
ATOM     51  C   UNL A   1      37.625  29.954  29.117  1.00  0.00     0.029 A 
ATOM     52  C   UNL A   1      38.627  30.552  29.997  1.00  0.00     0.049 A 
ATOM     53  H   UNL A   1      40.536  29.831  30.408  1.00  0.00     0.167 HD
ATOM     54  C   UNL A   1      44.509  28.206  31.191  1.00  0.00     0.037 A 
ATOM     55  C   UNL A   1      38.478  31.695  30.695  1.00  0.00     0.037 A 
ATOM     56  C   UNL A   1      44.460  29.440  31.933  1.00  0.00     0.049 A 
ATOM     57  C   UNL A   1      39.605  32.181  31.571  1.00  0.00     0.074 A 
ATOM     58  C   UNL A   1      45.457  30.029  32.693  1.00  0.00     0.029 A 
ATOM     59  N   UNL A   1      43.353  30.271  32.013  1.00  0.00    -0.354 N 
ATOM     60  N   UNL A   1      40.800  31.669  31.744  1.00  0.00    -0.248 NA
ATOM     61  C   UNL A   1      39.357  33.400  32.356  1.00  0.00     0.031 C 
ATOM     62  C   UNL A   1      44.935  31.190  33.275  1.00  0.00     0.029 A 
ATOM     63  C   UNL A   1      43.631  31.352  32.836  1.00  0.00     0.049 A 
ATOM     64  H   UNL A   1      42.496  30.117  31.554  1.00  0.00     0.167 HD
ATOM     65  C   UNL A   1      41.452  32.512  32.637  1.00  0.00     0.074 A 
ATOM     66  C   UNL A   1      40.526  33.577  32.956  1.00  0.00     0.031 C 
ATOM     67  C   UNL A   1      42.703  32.409  33.147  1.00  0.00     0.037 A 
BRANCH  54  68
ATOM     68  C   UNL A   1      45.771  27.398  31.251  1.00  0.00     0.064 A 
ATOM     69  C   UNL A   1      46.819  27.594  30.339  1.00  0.00     0.173 A 
ATOM     70  C   UNL A   1      45.950  26.444  32.264  1.00  0.00     0.173 A 
ATOM     71  F   UNL A   1      46.692  28.485  29.344  1.00  0.00    -0.203 F 
ATOM     72  C   UNL A   1      47.992  26.846  30.427  1.00  0.00     0.198 A 
ATOM     73  C   UNL A   1      47.133  25.719  32.365  1.00  0.00     0.198 A 
ATOM     74  F   UNL A   1      44.979  26.225  33.164  1.00  0.00    -0.203 F 
ATOM     75  F   UNL A   1      48.964  27.021  29.522  1.00  0.00    -0.200 F 
ATOM     76  C   UNL A   1      48.150  25.916  31.444  1.00  0.00     0.200 A 
ATOM     77  F   UNL A   1      47.289  24.828  33.354  1.00  0.00    -0.200 F 
ATOM     78  F   UNL A   1      49.282  25.204  31.531  1.00  0.00    -0.200 F 
ENDBRANCH  54  68
BRANCH  55  79
ATOM     79  C   UNL A   1      37.194  32.441  30.635  1.00  0.00     0.064 A 
ATOM     80  C   UNL A   1      36.204  32.269  31.612  1.00  0.00     0.173 A 
ATOM     81  C   UNL A   1      36.917  33.316  29.573  1.00  0.00     0.173 A 
ATOM     82  F   UNL A   1      36.405  31.415  32.626  1.00  0.00    -0.203 F 
ATOM     83  C   UNL A   1      34.980  32.929  31.518  1.00  0.00     0.198 A 
ATOM     84  C   UNL A   1      35.705  33.998  29.497  1.00  0.00     0.198 A 
ATOM     85  F   UNL A   1      37.825  33.505  28.603  1.00  0.00    -0.203 F 
ATOM     86  F   UNL A   1      34.028  32.703  32.434  1.00  0.00    -0.200 F 
ATOM     87  C   UNL A   1      34.734  33.798  30.465  1.00  0.00     0.200 A 
ATOM     88  F   UNL A   1      35.474  34.838  28.479  1.00  0.00    -0.200 F 
ATOM     89  F   UNL A   1      33.555  34.428  30.374  1.00  0.00    -0.200 F 
ENDBRANCH  55  79
BRANCH  67  90
ATOM     90  C   UNL A   1      43.157  33.487  34.088  1.00  0.00     0.064 A 
ATOM     91  C   UNL A   1      43.781  34.654  33.623  1.00  0.00     0.173 A 
ATOM     92  C   UNL A   1      42.928  33.372  35.468  1.00  0.00     0.173 A 
ATOM     93  F   UNL A   1      44.036  34.807  32.314  1.00  0.00    -0.203 F 
ATOM     94  C   UNL A   1      44.180  35.654  34.506  1.00  0.00     0.198 A 
ATOM     95  C   UNL A   1      43.303  34.387  36.345  1.00  0.00     0.198 A 
ATOM     96  F   UNL A   1      42.329  32.280  35.966  1.00  0.00    -0.203 F 
ATOM     97  F   UNL A   1      44.817  36.740  34.043  1.00  0.00    -0.200 F 
ATOM     98  C   UNL A   1      43.935  35.523  35.865  1.00  0.00     0.200 A 
ATOM     99  F   UNL A   1      43.052  34.264  37.656  1.00  0.00    -0.200 F 
ATOM    100  F   UNL A   1      44.313  36.491  36.712  1.00  0.00    -0.200 F 
ENDBRANCH  67  90
ENDBRANCH  41  42
ENDBRANCH  34  36
ENDBRANCH  33  34
ENDBRANCH  32  33
ENDBRANCH   1  32
TORSDOF 15
ENDMDL
