MODEL 1
REMARK VINA RESULT:     -12.5      0.000      0.000
REMARK SMILES O=C(OCCOC(=O)c1sccc1S(=O)(=O)N1CCO[C@@H]2CCCC[C@@H]21)c1ccc(-c2c3nc(c(-c4c(F)c(F)c(F)c(F)c4F)c4ccc([nH]4)c(-c4c(F)c(F)c(F)c(F)c4F)c4nc(c(-c5c(F)c(F)c(F)c(F)c5F)c5ccc2[nH]5)C=C4)C=C3)cc1
REMARK SMILES IDX 4 1 3 2 2 3 1 4 27 5 28 6 89 7 29 8 88 9 30 10 31 11 32 12
REMARK SMILES IDX 82 13 33 14 87 15 81 16 83 17 34 18 86 19 80 20 79 21 35 23
REMARK SMILES IDX 67 24 47 25 66 26 48 27 51 28 65 29 84 30 49 31 50 32 64 34
REMARK SMILES IDX 85 35 52 36 36 37 37 38 45 39 38 40 39 41 43 42 46 43 40 44
REMARK SMILES IDX 41 45 44 46 42 47 68 48 69 49 77 50 70 51 71 52 75 53 78 54
REMARK SMILES IDX 72 55 73 56 76 57 74 58 53 59 54 60 62 61 55 62 56 63 60 64
REMARK SMILES IDX 63 65 57 66 58 67 61 68 59 69 5 70 6 71 7 72 8 73 9 74 10 75
REMARK SMILES IDX 13 76 11 77 12 78 14 79 15 80 16 81 17 82 18 83 26 84 19 85
REMARK SMILES IDX 21 86 25 87 20 88 22 89 24 90 23 91
REMARK H PARENT 83 22 51 33
REMARK Flexibility Score: inf
ROOT
ATOM      1  C   UNL A   1      31.770  29.673  25.758  1.00  0.00     0.275 C 
ENDROOT
BRANCH   1   2
ATOM      2  O   UNL A   1      33.085  30.254  25.852  1.00  0.00    -0.458 OA
BRANCH   2   3
ATOM      3  C   UNL A   1      33.241  31.128  26.876  1.00  0.00     0.338 C 
ATOM      4  O   UNL A   1      32.461  32.023  27.150  1.00  0.00    -0.246 OA
BRANCH   3   5
ATOM      5  C   UNL A   1      34.510  30.867  27.612  1.00  0.00     0.060 A 
ATOM      6  C   UNL A   1      34.841  29.573  28.007  1.00  0.00     0.016 A 
ATOM      7  C   UNL A   1      35.342  31.922  28.001  1.00  0.00     0.016 A 
ATOM      8  C   UNL A   1      35.967  29.333  28.786  1.00  0.00     0.010 A 
ATOM      9  C   UNL A   1      36.511  31.670  28.745  1.00  0.00     0.010 A 
ATOM     10  C   UNL A   1      36.834  30.364  29.142  1.00  0.00    -0.014 A 
BRANCH  10  11
ATOM     11  C   UNL A   1      38.031  30.014  29.953  1.00  0.00     0.031 A 
ATOM     12  C   UNL A   1      39.157  29.250  29.340  1.00  0.00     0.074 A 
ATOM     13  C   UNL A   1      38.194  30.524  31.190  1.00  0.00     0.049 A 
ATOM     14  N   UNL A   1      40.215  28.746  29.918  1.00  0.00    -0.248 NA
ATOM     15  C   UNL A   1      39.102  29.042  27.886  1.00  0.00     0.031 C 
ATOM     16  C   UNL A   1      37.256  31.435  31.833  1.00  0.00     0.029 A 
ATOM     17  N   UNL A   1      39.213  30.413  32.105  1.00  0.00    -0.354 N 
ATOM     18  C   UNL A   1      40.913  28.093  28.917  1.00  0.00     0.074 A 
ATOM     19  C   UNL A   1      40.193  28.316  27.681  1.00  0.00     0.031 C 
ATOM     20  C   UNL A   1      37.771  31.866  32.992  1.00  0.00     0.029 A 
ATOM     21  C   UNL A   1      39.012  31.154  33.246  1.00  0.00     0.049 A 
ATOM     22  H   UNL A   1      40.011  29.855  31.957  1.00  0.00     0.167 HD
ATOM     23  C   UNL A   1      42.029  27.339  29.044  1.00  0.00     0.037 A 
ATOM     24  C   UNL A   1      39.713  31.213  34.397  1.00  0.00     0.037 A 
ATOM     25  C   UNL A   1      42.749  27.161  30.277  1.00  0.00     0.049 A 
ATOM     26  C   UNL A   1      40.906  30.310  34.538  1.00  0.00     0.074 A 
ATOM     27  C   UNL A   1      43.837  26.346  30.535  1.00  0.00     0.029 A 
ATOM     28  N   UNL A   1      42.460  27.828  31.459  1.00  0.00    -0.354 N 
ATOM     29  N   UNL A   1      41.472  29.548  33.634  1.00  0.00    -0.248 NA
ATOM     30  C   UNL A   1      41.521  30.225  35.869  1.00  0.00     0.031 C 
ATOM     31  C   UNL A   1      44.184  26.494  31.883  1.00  0.00     0.029 A 
ATOM     32  C   UNL A   1      43.335  27.428  32.456  1.00  0.00     0.049 A 
ATOM     33  H   UNL A   1      41.739  28.489  31.573  1.00  0.00     0.167 HD
ATOM     34  C   UNL A   1      42.490  28.875  34.288  1.00  0.00     0.074 A 
ATOM     35  C   UNL A   1      42.502  29.359  35.654  1.00  0.00     0.031 C 
ATOM     36  C   UNL A   1      43.319  27.917  33.810  1.00  0.00     0.037 A 
BRANCH  23  37
ATOM     37  C   UNL A   1      42.451  26.556  27.843  1.00  0.00     0.064 A 
ATOM     38  C   UNL A   1      41.944  25.284  27.555  1.00  0.00     0.173 A 
ATOM     39  C   UNL A   1      43.406  27.103  26.970  1.00  0.00     0.173 A 
ATOM     40  F   UNL A   1      41.053  24.710  28.377  1.00  0.00    -0.203 F 
ATOM     41  C   UNL A   1      42.389  24.577  26.441  1.00  0.00     0.198 A 
ATOM     42  C   UNL A   1      43.834  26.402  25.848  1.00  0.00     0.198 A 
ATOM     43  F   UNL A   1      43.928  28.314  27.213  1.00  0.00    -0.203 F 
ATOM     44  F   UNL A   1      41.924  23.342  26.202  1.00  0.00    -0.200 F 
ATOM     45  C   UNL A   1      43.329  25.137  25.587  1.00  0.00     0.200 A 
ATOM     46  F   UNL A   1      44.742  26.947  25.027  1.00  0.00    -0.200 F 
ATOM     47  F   UNL A   1      43.759  24.453  24.518  1.00  0.00    -0.200 F 
ENDBRANCH  23  37
BRANCH  24  48
ATOM     48  C   UNL A   1      39.246  32.052  35.537  1.00  0.00     0.064 A 
ATOM     49  C   UNL A   1      39.683  33.375  35.695  1.00  0.00     0.173 A 
ATOM     50  C   UNL A   1      38.382  31.539  36.519  1.00  0.00     0.173 A 
ATOM     51  F   UNL A   1      40.539  33.908  34.811  1.00  0.00    -0.203 F 
ATOM     52  C   UNL A   1      39.285  34.144  36.790  1.00  0.00     0.198 A 
ATOM     53  C   UNL A   1      37.952  32.319  37.590  1.00  0.00     0.198 A 
ATOM     54  F   UNL A   1      37.942  30.274  36.437  1.00  0.00    -0.203 F 
ATOM     55  F   UNL A   1      39.766  35.385  36.946  1.00  0.00    -0.200 F 
ATOM     56  C   UNL A   1      38.412  33.618  37.731  1.00  0.00     0.200 A 
ATOM     57  F   UNL A   1      37.098  31.808  38.488  1.00  0.00    -0.200 F 
ATOM     58  F   UNL A   1      38.028  34.357  38.782  1.00  0.00    -0.200 F 
ENDBRANCH  24  48
BRANCH  36  59
ATOM     59  C   UNL A   1      44.288  27.322  34.783  1.00  0.00     0.064 A 
ATOM     60  C   UNL A   1      45.543  27.909  35.004  1.00  0.00     0.173 A 
ATOM     61  C   UNL A   1      43.956  26.172  35.513  1.00  0.00     0.173 A 
ATOM     62  F   UNL A   1      45.911  28.996  34.311  1.00  0.00    -0.203 F 
ATOM     63  C   UNL A   1      46.439  27.353  35.912  1.00  0.00     0.198 A 
ATOM     64  C   UNL A   1      44.846  25.633  36.436  1.00  0.00     0.198 A 
ATOM     65  F   UNL A   1      42.768  25.576  35.332  1.00  0.00    -0.203 F 
ATOM     66  F   UNL A   1      47.648  27.905  36.080  1.00  0.00    -0.200 F 
ATOM     67  C   UNL A   1      46.088  26.220  36.632  1.00  0.00     0.200 A 
ATOM     68  F   UNL A   1      44.505  24.542  37.134  1.00  0.00    -0.200 F 
ATOM     69  F   UNL A   1      46.952  25.687  37.507  1.00  0.00    -0.200 F 
ENDBRANCH  36  59
ENDBRANCH  10  11
ENDBRANCH   3   5
ENDBRANCH   2   3
ENDBRANCH   1   2
BRANCH   1  70
ATOM     70  C   UNL A   1      31.728  28.395  26.607  1.00  0.00     0.275 C 
BRANCH  70  71
ATOM     71  O   UNL A   1      31.670  27.257  25.728  1.00  0.00    -0.458 OA
BRANCH  71  72
ATOM     72  C   UNL A   1      32.883  26.751  25.370  1.00  0.00     0.349 C 
ATOM     73  O   UNL A   1      33.828  26.614  26.126  1.00  0.00    -0.245 OA
BRANCH  72  74
ATOM     74  C   UNL A   1      32.834  26.270  24.011  1.00  0.00     0.132 A 
ATOM     75  S   UNL A   1      33.278  27.425  22.803  1.00  0.00    -0.136 S 
ATOM     76  C   UNL A   1      32.515  25.054  23.443  1.00  0.00     0.108 A 
ATOM     77  C   UNL A   1      32.995  26.329  21.533  1.00  0.00     0.067 A 
ATOM     78  C   UNL A   1      32.523  25.128  22.007  1.00  0.00     0.034 A 
BRANCH  76  79
ATOM     79  S   UNL A   1      32.063  23.571  24.233  1.00  0.00     0.245 S 
ATOM     80  O   UNL A   1      31.002  24.000  25.120  1.00  0.00    -0.207 OA
ATOM     81  O   UNL A   1      31.772  22.706  23.113  1.00  0.00    -0.207 OA
BRANCH  79  82
ATOM     82  N   UNL A   1      33.332  22.895  25.171  1.00  0.00    -0.190 NA
ATOM     83  C   UNL A   1      32.788  22.266  26.424  1.00  0.00     0.131 C 
ATOM     84  C   UNL A   1      34.311  21.980  24.441  1.00  0.00     0.102 C 
ATOM     85  C   UNL A   1      33.847  21.612  27.307  1.00  0.00     0.177 C 
ATOM     86  C   UNL A   1      35.137  21.089  25.414  1.00  0.00     0.136 C 
ATOM     87  C   UNL A   1      35.235  22.742  23.471  1.00  0.00     0.023 C 
ATOM     88  O   UNL A   1      35.150  21.627  26.742  1.00  0.00    -0.375 OA
ATOM     89  C   UNL A   1      36.603  20.924  24.999  1.00  0.00     0.034 C 
ATOM     90  C   UNL A   1      36.581  23.234  23.996  1.00  0.00     0.002 C 
ATOM     91  C   UNL A   1      37.300  22.273  24.925  1.00  0.00     0.003 C 
ENDBRANCH  79  82
ENDBRANCH  76  79
ENDBRANCH  72  74
ENDBRANCH  71  72
ENDBRANCH  70  71
ENDBRANCH   1  70
TORSDOF 13
ENDMDL
MODEL 2
REMARK VINA RESULT:     -12.3      0.271      1.614
REMARK SMILES O=C(OCCOC(=O)c1sccc1S(=O)(=O)N1CCO[C@@H]2CCCC[C@@H]21)c1ccc(-c2c3nc(c(-c4c(F)c(F)c(F)c(F)c4F)c4ccc([nH]4)c(-c4c(F)c(F)c(F)c(F)c4F)c4nc(c(-c5c(F)c(F)c(F)c(F)c5F)c5ccc2[nH]5)C=C4)C=C3)cc1
REMARK SMILES IDX 4 1 3 2 2 3 1 4 27 5 28 6 89 7 29 8 88 9 30 10 31 11 32 12
REMARK SMILES IDX 82 13 33 14 87 15 81 16 83 17 34 18 86 19 80 20 79 21 35 23
REMARK SMILES IDX 67 24 47 25 66 26 48 27 51 28 65 29 84 30 49 31 50 32 64 34
REMARK SMILES IDX 85 35 52 36 36 37 37 38 45 39 38 40 39 41 43 42 46 43 40 44
REMARK SMILES IDX 41 45 44 46 42 47 68 48 69 49 77 50 70 51 71 52 75 53 78 54
REMARK SMILES IDX 72 55 73 56 76 57 74 58 53 59 54 60 62 61 55 62 56 63 60 64
REMARK SMILES IDX 63 65 57 66 58 67 61 68 59 69 5 70 6 71 7 72 8 73 9 74 10 75
REMARK SMILES IDX 13 76 11 77 12 78 14 79 15 80 16 81 17 82 18 83 26 84 19 85
REMARK SMILES IDX 21 86 25 87 20 88 22 89 24 90 23 91
REMARK H PARENT 83 22 51 33
REMARK Flexibility Score: inf
ROOT
ATOM      1  C   UNL A   1      31.743  29.817  25.723  1.00  0.00     0.275 C 
ENDROOT
BRANCH   1   2
ATOM      2  O   UNL A   1      33.068  30.369  25.854  1.00  0.00    -0.458 OA
BRANCH   2   3
ATOM      3  C   UNL A   1      33.223  31.218  26.899  1.00  0.00     0.338 C 
ATOM      4  O   UNL A   1      32.440  32.102  27.197  1.00  0.00    -0.246 OA
BRANCH   3   5
ATOM      5  C   UNL A   1      34.493  30.942  27.628  1.00  0.00     0.060 A 
ATOM      6  C   UNL A   1      34.808  29.645  28.028  1.00  0.00     0.016 A 
ATOM      7  C   UNL A   1      35.345  31.986  28.003  1.00  0.00     0.016 A 
ATOM      8  C   UNL A   1      35.936  29.392  28.799  1.00  0.00     0.010 A 
ATOM      9  C   UNL A   1      36.516  31.720  28.739  1.00  0.00     0.010 A 
ATOM     10  C   UNL A   1      36.821  30.412  29.142  1.00  0.00    -0.014 A 
BRANCH  10  11
ATOM     11  C   UNL A   1      38.020  30.049  29.946  1.00  0.00     0.031 A 
ATOM     12  C   UNL A   1      39.136  29.277  29.324  1.00  0.00     0.074 A 
ATOM     13  C   UNL A   1      38.193  30.554  31.184  1.00  0.00     0.049 A 
ATOM     14  N   UNL A   1      40.192  28.762  29.896  1.00  0.00    -0.248 NA
ATOM     15  C   UNL A   1      39.071  29.073  27.871  1.00  0.00     0.031 C 
ATOM     16  C   UNL A   1      37.266  31.471  31.834  1.00  0.00     0.029 A 
ATOM     17  N   UNL A   1      39.215  30.430  32.093  1.00  0.00    -0.354 N 
ATOM     18  C   UNL A   1      40.879  28.106  28.889  1.00  0.00     0.074 A 
ATOM     19  C   UNL A   1      40.154  28.339  27.657  1.00  0.00     0.031 C 
ATOM     20  C   UNL A   1      37.791  31.894  32.992  1.00  0.00     0.029 A 
ATOM     21  C   UNL A   1      39.028  31.170  33.238  1.00  0.00     0.049 A 
ATOM     22  H   UNL A   1      40.008  29.866  31.939  1.00  0.00     0.167 HD
ATOM     23  C   UNL A   1      41.988  27.341  29.008  1.00  0.00     0.037 A 
ATOM     24  C   UNL A   1      39.734  31.219  34.385  1.00  0.00     0.037 A 
ATOM     25  C   UNL A   1      42.714  27.153  30.237  1.00  0.00     0.049 A 
ATOM     26  C   UNL A   1      40.920  30.305  34.517  1.00  0.00     0.074 A 
ATOM     27  C   UNL A   1      43.795  26.327  30.487  1.00  0.00     0.029 A 
ATOM     28  N   UNL A   1      42.437  27.819  31.423  1.00  0.00    -0.354 N 
ATOM     29  N   UNL A   1      41.474  29.541  33.608  1.00  0.00    -0.248 NA
ATOM     30  C   UNL A   1      41.541  30.211  35.845  1.00  0.00     0.031 C 
ATOM     31  C   UNL A   1      44.150  26.468  31.834  1.00  0.00     0.029 A 
ATOM     32  C   UNL A   1      43.313  27.408  32.414  1.00  0.00     0.049 A 
ATOM     33  H   UNL A   1      41.721  28.485  31.542  1.00  0.00     0.167 HD
ATOM     34  C   UNL A   1      42.490  28.857  34.255  1.00  0.00     0.074 A 
ATOM     35  C   UNL A   1      42.514  29.336  35.622  1.00  0.00     0.031 C 
ATOM     36  C   UNL A   1      43.308  27.893  33.770  1.00  0.00     0.037 A 
BRANCH  23  37
ATOM     37  C   UNL A   1      42.397  26.559  27.803  1.00  0.00     0.064 A 
ATOM     38  C   UNL A   1      43.373  27.009  26.906  1.00  0.00     0.173 A 
ATOM     39  C   UNL A   1      41.773  25.328  27.541  1.00  0.00     0.173 A 
ATOM     40  F   UNL A   1      43.973  28.192  27.099  1.00  0.00    -0.203 F 
ATOM     41  C   UNL A   1      43.700  26.260  25.777  1.00  0.00     0.198 A 
ATOM     42  C   UNL A   1      42.116  24.574  26.424  1.00  0.00     0.198 A 
ATOM     43  F   UNL A   1      40.824  24.863  28.368  1.00  0.00    -0.203 F 
ATOM     44  F   UNL A   1      44.607  26.725  24.906  1.00  0.00    -0.200 F 
ATOM     45  C   UNL A   1      43.076  25.043  25.540  1.00  0.00     0.200 A 
ATOM     46  F   UNL A   1      41.510  23.400  26.199  1.00  0.00    -0.200 F 
ATOM     47  F   UNL A   1      43.389  24.327  24.452  1.00  0.00    -0.200 F 
ENDBRANCH  23  37
BRANCH  24  48
ATOM     48  C   UNL A   1      39.281  32.059  35.530  1.00  0.00     0.064 A 
ATOM     49  C   UNL A   1      38.406  31.555  36.503  1.00  0.00     0.173 A 
ATOM     50  C   UNL A   1      39.682  33.400  35.659  1.00  0.00     0.173 A 
ATOM     51  F   UNL A   1      37.958  30.294  36.412  1.00  0.00    -0.203 F 
ATOM     52  C   UNL A   1      37.943  32.357  37.547  1.00  0.00     0.198 A 
ATOM     53  C   UNL A   1      39.253  34.188  36.724  1.00  0.00     0.198 A 
ATOM     54  F   UNL A   1      40.503  33.948  34.752  1.00  0.00    -0.203 F 
ATOM     55  F   UNL A   1      37.061  31.865  38.427  1.00  0.00    -0.200 F 
ATOM     56  C   UNL A   1      38.374  33.670  37.661  1.00  0.00     0.200 A 
ATOM     57  F   UNL A   1      39.684  35.452  36.834  1.00  0.00    -0.200 F 
ATOM     58  F   UNL A   1      37.931  34.441  38.665  1.00  0.00    -0.200 F 
ENDBRANCH  24  48
BRANCH  36  59
ATOM     59  C   UNL A   1      44.276  27.286  34.736  1.00  0.00     0.064 A 
ATOM     60  C   UNL A   1      45.536  27.864  34.957  1.00  0.00     0.173 A 
ATOM     61  C   UNL A   1      43.940  26.133  35.460  1.00  0.00     0.173 A 
ATOM     62  F   UNL A   1      45.907  28.953  34.269  1.00  0.00    -0.203 F 
ATOM     63  C   UNL A   1      46.431  27.297  35.858  1.00  0.00     0.198 A 
ATOM     64  C   UNL A   1      44.830  25.584  36.376  1.00  0.00     0.198 A 
ATOM     65  F   UNL A   1      42.747  25.546  35.279  1.00  0.00    -0.203 F 
ATOM     66  F   UNL A   1      47.644  27.841  36.025  1.00  0.00    -0.200 F 
ATOM     67  C   UNL A   1      46.076  26.162  36.572  1.00  0.00     0.200 A 
ATOM     68  F   UNL A   1      44.485  24.490  37.069  1.00  0.00    -0.200 F 
ATOM     69  F   UNL A   1      46.939  25.619  37.441  1.00  0.00    -0.200 F 
ENDBRANCH  36  59
ENDBRANCH  10  11
ENDBRANCH   3   5
ENDBRANCH   2   3
ENDBRANCH   1   2
BRANCH   1  70
ATOM     70  C   UNL A   1      31.837  28.286  25.755  1.00  0.00     0.275 C 
BRANCH  70  71
ATOM     71  O   UNL A   1      33.050  27.883  25.094  1.00  0.00    -0.458 OA
BRANCH  71  72
ATOM     72  C   UNL A   1      33.268  26.538  25.073  1.00  0.00     0.349 C 
ATOM     73  O   UNL A   1      33.507  25.859  26.056  1.00  0.00    -0.245 OA
BRANCH  72  74
ATOM     74  C   UNL A   1      33.028  26.021  23.748  1.00  0.00     0.132 A 
ATOM     75  S   UNL A   1      33.408  27.103  22.454  1.00  0.00    -0.136 S 
ATOM     76  C   UNL A   1      32.561  24.815  23.268  1.00  0.00     0.108 A 
ATOM     77  C   UNL A   1      32.904  25.992  21.268  1.00  0.00     0.067 A 
ATOM     78  C   UNL A   1      32.408  24.845  21.838  1.00  0.00     0.034 A 
BRANCH  76  79
ATOM     79  S   UNL A   1      32.101  23.395  24.160  1.00  0.00     0.245 S 
ATOM     80  O   UNL A   1      31.062  23.897  25.035  1.00  0.00    -0.207 OA
ATOM     81  O   UNL A   1      31.777  22.463  23.104  1.00  0.00    -0.207 OA
BRANCH  79  82
ATOM     82  N   UNL A   1      33.376  22.761  25.119  1.00  0.00    -0.190 NA
ATOM     83  C   UNL A   1      32.832  22.092  26.352  1.00  0.00     0.131 C 
ATOM     84  C   UNL A   1      34.410  21.897  24.400  1.00  0.00     0.102 C 
ATOM     85  C   UNL A   1      33.898  21.472  27.250  1.00  0.00     0.177 C 
ATOM     86  C   UNL A   1      35.251  21.029  25.380  1.00  0.00     0.136 C 
ATOM     87  C   UNL A   1      35.322  22.711  23.461  1.00  0.00     0.023 C 
ATOM     88  O   UNL A   1      35.212  21.550  26.715  1.00  0.00    -0.375 OA
ATOM     89  C   UNL A   1      36.732  20.932  24.998  1.00  0.00     0.034 C 
ATOM     90  C   UNL A   1      36.634  23.253  24.023  1.00  0.00     0.002 C 
ATOM     91  C   UNL A   1      37.372  22.311  24.956  1.00  0.00     0.003 C 
ENDBRANCH  79  82
ENDBRANCH  76  79
ENDBRANCH  72  74
ENDBRANCH  71  72
ENDBRANCH  70  71
ENDBRANCH   1  70
TORSDOF 13
ENDMDL
MODEL 3
REMARK VINA RESULT:     -12.1      0.898      1.410
REMARK SMILES O=C(OCCOC(=O)c1sccc1S(=O)(=O)N1CCO[C@@H]2CCCC[C@@H]21)c1ccc(-c2c3nc(c(-c4c(F)c(F)c(F)c(F)c4F)c4ccc([nH]4)c(-c4c(F)c(F)c(F)c(F)c4F)c4nc(c(-c5c(F)c(F)c(F)c(F)c5F)c5ccc2[nH]5)C=C4)C=C3)cc1
REMARK SMILES IDX 4 1 3 2 2 3 1 4 27 5 28 6 89 7 29 8 88 9 30 10 31 11 32 12
REMARK SMILES IDX 82 13 33 14 87 15 81 16 83 17 34 18 86 19 80 20 79 21 35 23
REMARK SMILES IDX 67 24 47 25 66 26 48 27 51 28 65 29 84 30 49 31 50 32 64 34
REMARK SMILES IDX 85 35 52 36 36 37 37 38 45 39 38 40 39 41 43 42 46 43 40 44
REMARK SMILES IDX 41 45 44 46 42 47 68 48 69 49 77 50 70 51 71 52 75 53 78 54
REMARK SMILES IDX 72 55 73 56 76 57 74 58 53 59 54 60 62 61 55 62 56 63 60 64
REMARK SMILES IDX 63 65 57 66 58 67 61 68 59 69 5 70 6 71 7 72 8 73 9 74 10 75
REMARK SMILES IDX 13 76 11 77 12 78 14 79 15 80 16 81 17 82 18 83 26 84 19 85
REMARK SMILES IDX 21 86 25 87 20 88 22 89 24 90 23 91
REMARK H PARENT 83 22 51 33
REMARK Flexibility Score: inf
ROOT
ATOM      1  C   UNL A   1      31.676  30.087  25.735  1.00  0.00     0.275 C 
ENDROOT
BRANCH   1   2
ATOM      2  O   UNL A   1      33.072  30.378  25.941  1.00  0.00    -0.458 OA
BRANCH   2   3
ATOM      3  C   UNL A   1      33.316  31.306  26.899  1.00  0.00     0.338 C 
ATOM      4  O   UNL A   1      32.605  32.268  27.131  1.00  0.00    -0.246 OA
BRANCH   3   5
ATOM      5  C   UNL A   1      34.588  31.010  27.618  1.00  0.00     0.060 A 
ATOM      6  C   UNL A   1      34.836  29.730  28.109  1.00  0.00     0.016 A 
ATOM      7  C   UNL A   1      35.509  32.027  27.893  1.00  0.00     0.016 A 
ATOM      8  C   UNL A   1      35.968  29.469  28.873  1.00  0.00     0.010 A 
ATOM      9  C   UNL A   1      36.681  31.747  28.621  1.00  0.00     0.010 A 
ATOM     10  C   UNL A   1      36.920  30.457  29.116  1.00  0.00    -0.014 A 
BRANCH  10  11
ATOM     11  C   UNL A   1      38.117  30.084  29.919  1.00  0.00     0.031 A 
ATOM     12  C   UNL A   1      39.230  29.312  29.293  1.00  0.00     0.074 A 
ATOM     13  C   UNL A   1      38.290  30.579  31.161  1.00  0.00     0.049 A 
ATOM     14  N   UNL A   1      40.284  28.789  29.863  1.00  0.00    -0.248 NA
ATOM     15  C   UNL A   1      39.166  29.119  27.838  1.00  0.00     0.031 C 
ATOM     16  C   UNL A   1      37.366  31.495  31.816  1.00  0.00     0.029 A 
ATOM     17  N   UNL A   1      39.311  30.445  32.070  1.00  0.00    -0.354 N 
ATOM     18  C   UNL A   1      40.970  28.138  28.852  1.00  0.00     0.074 A 
ATOM     19  C   UNL A   1      40.247  28.382  27.621  1.00  0.00     0.031 C 
ATOM     20  C   UNL A   1      37.891  31.908  32.978  1.00  0.00     0.029 A 
ATOM     21  C   UNL A   1      39.125  31.177  33.220  1.00  0.00     0.049 A 
ATOM     22  H   UNL A   1      40.102  29.879  31.913  1.00  0.00     0.167 HD
ATOM     23  C   UNL A   1      42.077  27.369  28.967  1.00  0.00     0.037 A 
ATOM     24  C   UNL A   1      39.830  31.216  34.369  1.00  0.00     0.037 A 
ATOM     25  C   UNL A   1      42.800  27.169  30.195  1.00  0.00     0.049 A 
ATOM     26  C   UNL A   1      41.012  30.297  34.495  1.00  0.00     0.074 A 
ATOM     27  C   UNL A   1      43.878  26.337  30.441  1.00  0.00     0.029 A 
ATOM     28  N   UNL A   1      42.524  27.827  31.385  1.00  0.00    -0.354 N 
ATOM     29  N   UNL A   1      41.565  29.538  33.582  1.00  0.00    -0.248 NA
ATOM     30  C   UNL A   1      41.632  30.191  35.823  1.00  0.00     0.031 C 
ATOM     31  C   UNL A   1      44.232  26.468  31.789  1.00  0.00     0.029 A 
ATOM     32  C   UNL A   1      43.397  27.406  32.375  1.00  0.00     0.049 A 
ATOM     33  H   UNL A   1      41.811  28.496  31.508  1.00  0.00     0.167 HD
ATOM     34  C   UNL A   1      42.577  28.845  34.225  1.00  0.00     0.074 A 
ATOM     35  C   UNL A   1      42.601  29.314  35.595  1.00  0.00     0.031 C 
ATOM     36  C   UNL A   1      43.393  27.881  33.734  1.00  0.00     0.037 A 
BRANCH  23  37
ATOM     37  C   UNL A   1      42.484  26.593  27.756  1.00  0.00     0.064 A 
ATOM     38  C   UNL A   1      41.950  25.335  27.451  1.00  0.00     0.173 A 
ATOM     39  C   UNL A   1      43.452  27.130  26.893  1.00  0.00     0.173 A 
ATOM     40  F   UNL A   1      41.045  24.770  28.264  1.00  0.00    -0.203 F 
ATOM     41  C   UNL A   1      42.382  24.634  26.328  1.00  0.00     0.198 A 
ATOM     42  C   UNL A   1      43.868  26.435  25.762  1.00  0.00     0.198 A 
ATOM     43  F   UNL A   1      44.000  28.327  27.152  1.00  0.00    -0.203 F 
ATOM     44  F   UNL A   1      41.891  23.413  26.072  1.00  0.00    -0.200 F 
ATOM     45  C   UNL A   1      43.336  25.185  25.483  1.00  0.00     0.200 A 
ATOM     46  F   UNL A   1      44.789  26.970  24.950  1.00  0.00    -0.200 F 
ATOM     47  F   UNL A   1      43.754  24.505  24.406  1.00  0.00    -0.200 F 
ENDBRANCH  23  37
BRANCH  24  48
ATOM     48  C   UNL A   1      39.379  32.049  35.519  1.00  0.00     0.064 A 
ATOM     49  C   UNL A   1      39.862  33.351  35.710  1.00  0.00     0.173 A 
ATOM     50  C   UNL A   1      38.481  31.549  36.478  1.00  0.00     0.173 A 
ATOM     51  F   UNL A   1      40.750  33.869  34.849  1.00  0.00    -0.203 F 
ATOM     52  C   UNL A   1      39.477  34.113  36.814  1.00  0.00     0.198 A 
ATOM     53  C   UNL A   1      38.065  32.324  37.558  1.00  0.00     0.198 A 
ATOM     54  F   UNL A   1      37.996  30.304  36.364  1.00  0.00    -0.203 F 
ATOM     55  F   UNL A   1      40.001  35.331  37.002  1.00  0.00    -0.200 F 
ATOM     56  C   UNL A   1      38.571  33.601  37.733  1.00  0.00     0.200 A 
ATOM     57  F   UNL A   1      37.180  31.827  38.434  1.00  0.00    -0.200 F 
ATOM     58  F   UNL A   1      38.200  34.333  38.793  1.00  0.00    -0.200 F 
ENDBRANCH  24  48
BRANCH  36  59
ATOM     59  C   UNL A   1      44.358  27.264  34.697  1.00  0.00     0.064 A 
ATOM     60  C   UNL A   1      45.623  27.829  34.914  1.00  0.00     0.173 A 
ATOM     61  C   UNL A   1      44.012  26.115  35.420  1.00  0.00     0.173 A 
ATOM     62  F   UNL A   1      46.004  28.916  34.227  1.00  0.00    -0.203 F 
ATOM     63  C   UNL A   1      46.515  27.254  35.813  1.00  0.00     0.198 A 
ATOM     64  C   UNL A   1      44.899  25.555  36.334  1.00  0.00     0.198 A 
ATOM     65  F   UNL A   1      42.813  25.539  35.243  1.00  0.00    -0.203 F 
ATOM     66  F   UNL A   1      47.734  27.786  35.977  1.00  0.00    -0.200 F 
ATOM     67  C   UNL A   1      46.151  26.121  36.526  1.00  0.00     0.200 A 
ATOM     68  F   UNL A   1      44.545  24.464  37.027  1.00  0.00    -0.200 F 
ATOM     69  F   UNL A   1      47.011  25.569  37.393  1.00  0.00    -0.200 F 
ENDBRANCH  36  59
ENDBRANCH  10  11
ENDBRANCH   3   5
ENDBRANCH   2   3
ENDBRANCH   1   2
BRANCH   1  70
ATOM     70  C   UNL A   1      31.547  29.025  24.635  1.00  0.00     0.275 C 
BRANCH  70  71
ATOM     71  O   UNL A   1      31.327  27.744  25.253  1.00  0.00    -0.458 OA
BRANCH  71  72
ATOM     72  C   UNL A   1      30.701  26.830  24.460  1.00  0.00     0.349 C 
ATOM     73  O   UNL A   1      29.494  26.682  24.392  1.00  0.00    -0.245 OA
BRANCH  72  74
ATOM     74  C   UNL A   1      31.665  26.170  23.613  1.00  0.00     0.132 A 
ATOM     75  S   UNL A   1      31.527  26.523  21.926  1.00  0.00    -0.136 S 
ATOM     76  C   UNL A   1      32.711  25.304  23.857  1.00  0.00     0.108 A 
ATOM     77  C   UNL A   1      32.817  25.490  21.521  1.00  0.00     0.067 A 
ATOM     78  C   UNL A   1      33.309  24.848  22.632  1.00  0.00     0.034 A 
BRANCH  76  79
ATOM     79  S   UNL A   1      33.285  24.697  25.383  1.00  0.00     0.245 S 
ATOM     80  O   UNL A   1      34.361  25.612  25.700  1.00  0.00    -0.207 OA
ATOM     81  O   UNL A   1      32.079  24.686  26.179  1.00  0.00    -0.207 OA
BRANCH  79  82
ATOM     82  N   UNL A   1      33.921  23.106  25.276  1.00  0.00    -0.190 NA
ATOM     83  C   UNL A   1      35.199  22.991  26.060  1.00  0.00     0.131 C 
ATOM     84  C   UNL A   1      32.955  21.961  25.572  1.00  0.00     0.102 C 
ATOM     85  C   UNL A   1      35.820  21.599  26.045  1.00  0.00     0.177 C 
ATOM     86  C   UNL A   1      33.689  20.623  25.878  1.00  0.00     0.136 C 
ATOM     87  C   UNL A   1      31.896  21.769  24.469  1.00  0.00     0.023 C 
ATOM     88  O   UNL A   1      35.031  20.628  25.373  1.00  0.00    -0.375 OA
ATOM     89  C   UNL A   1      33.004  19.394  25.271  1.00  0.00     0.034 C 
ATOM     90  C   UNL A   1      32.203  20.794  23.336  1.00  0.00     0.002 C 
ATOM     91  C   UNL A   1      32.908  19.519  23.758  1.00  0.00     0.003 C 
ENDBRANCH  79  82
ENDBRANCH  76  79
ENDBRANCH  72  74
ENDBRANCH  71  72
ENDBRANCH  70  71
ENDBRANCH   1  70
TORSDOF 13
ENDMDL
