MODEL 1
REMARK VINA RESULT:     -11.7      0.000      0.000
REMARK SMILES O=C(OCCOC(=O)[C@H]1Cc2cc(Cl)ccc2O1)c1ccc(-c2c3nc(c(-c4c(F)c(F)c(F)c(F)c4F)c4ccc([nH]4)c(-c4c(F)c(F)c(F)c(F)c4F)c4nc(c(-c5c(F)c(F)c(F)c(F)c5F)c5ccc2[nH]5)C=C4)C=C3)cc1
REMARK SMILES IDX 4 1 3 2 2 3 1 4 19 5 20 6 81 7 21 8 80 9 22 10 23 11 24 12
REMARK SMILES IDX 74 13 25 14 79 15 73 16 75 17 26 18 78 19 72 20 71 21 27 23
REMARK SMILES IDX 59 24 39 25 58 26 40 27 43 28 57 29 76 30 41 31 42 32 56 34
REMARK SMILES IDX 77 35 44 36 28 37 29 38 37 39 30 40 31 41 35 42 38 43 32 44
REMARK SMILES IDX 33 45 36 46 34 47 60 48 61 49 69 50 62 51 63 52 67 53 70 54
REMARK SMILES IDX 64 55 65 56 68 57 66 58 45 59 46 60 54 61 47 62 48 63 52 64
REMARK SMILES IDX 55 65 49 66 50 67 53 68 51 69 5 70 6 71 7 72 8 73 9 74 10 75
REMARK SMILES IDX 18 76 11 77 17 78 12 79 16 80 13 81 15 82 14 83
REMARK H PARENT 75 22 43 33
REMARK Flexibility Score: inf
ROOT
ATOM      1  C   UNL A   1      44.672  21.803  25.719  1.00  0.00     0.275 C 
ENDROOT
BRANCH   1   2
ATOM      2  O   UNL A   1      43.641  22.757  25.399  1.00  0.00    -0.458 OA
BRANCH   2   3
ATOM      3  C   UNL A   1      43.802  24.093  25.231  1.00  0.00     0.338 C 
ATOM      4  O   UNL A   1      44.525  24.523  24.338  1.00  0.00    -0.246 OA
BRANCH   3   5
ATOM      5  C   UNL A   1      43.332  25.049  26.276  1.00  0.00     0.060 A 
ATOM      6  C   UNL A   1      42.453  24.533  27.242  1.00  0.00     0.016 A 
ATOM      7  C   UNL A   1      43.738  26.381  26.394  1.00  0.00     0.016 A 
ATOM      8  C   UNL A   1      41.906  25.355  28.232  1.00  0.00     0.010 A 
ATOM      9  C   UNL A   1      43.201  27.206  27.391  1.00  0.00     0.010 A 
ATOM     10  C   UNL A   1      42.267  26.706  28.305  1.00  0.00    -0.014 A 
BRANCH  10  11
ATOM     11  C   UNL A   1      41.773  27.554  29.414  1.00  0.00     0.031 A 
ATOM     12  C   UNL A   1      40.552  28.412  29.269  1.00  0.00     0.074 A 
ATOM     13  C   UNL A   1      42.466  27.550  30.566  1.00  0.00     0.049 A 
ATOM     14  N   UNL A   1      39.936  29.129  30.175  1.00  0.00    -0.248 NA
ATOM     15  C   UNL A   1      39.941  28.482  27.935  1.00  0.00     0.031 C 
ATOM     16  C   UNL A   1      43.688  26.781  30.799  1.00  0.00     0.029 A 
ATOM     17  N   UNL A   1      42.249  28.205  31.749  1.00  0.00    -0.354 N 
ATOM     18  C   UNL A   1      38.848  29.705  29.533  1.00  0.00     0.074 A 
ATOM     19  C   UNL A   1      38.911  29.292  28.147  1.00  0.00     0.031 C 
ATOM     20  C   UNL A   1      44.102  26.987  32.056  1.00  0.00     0.029 A 
ATOM     21  C   UNL A   1      43.190  27.923  32.708  1.00  0.00     0.049 A 
ATOM     22  H   UNL A   1      41.493  28.818  31.898  1.00  0.00     0.167 HD
ATOM     23  C   UNL A   1      37.886  30.498  30.062  1.00  0.00     0.037 A 
ATOM     24  C   UNL A   1      43.304  28.367  33.973  1.00  0.00     0.037 A 
ATOM     25  C   UNL A   1      37.867  30.941  31.433  1.00  0.00     0.049 A 
ATOM     26  C   UNL A   1      42.265  29.303  34.516  1.00  0.00     0.074 A 
ATOM     27  C   UNL A   1      36.912  31.702  32.082  1.00  0.00     0.029 A 
ATOM     28  N   UNL A   1      38.871  30.687  32.357  1.00  0.00    -0.354 N 
ATOM     29  N   UNL A   1      41.185  29.758  33.930  1.00  0.00    -0.248 NA
ATOM     30  C   UNL A   1      42.460  29.790  35.886  1.00  0.00     0.031 C 
ATOM     31  C   UNL A   1      37.369  31.966  33.378  1.00  0.00     0.029 A 
ATOM     32  C   UNL A   1      38.586  31.326  33.554  1.00  0.00     0.049 A 
ATOM     33  H   UNL A   1      39.669  30.136  32.189  1.00  0.00     0.167 HD
ATOM     34  C   UNL A   1      40.568  30.585  34.856  1.00  0.00     0.074 A 
ATOM     35  C   UNL A   1      41.385  30.552  36.053  1.00  0.00     0.031 C 
ATOM     36  C   UNL A   1      39.428  31.308  34.724  1.00  0.00     0.037 A 
BRANCH  23  37
ATOM     37  C   UNL A   1      36.773  30.952  29.161  1.00  0.00     0.064 A 
ATOM     38  C   UNL A   1      35.725  30.090  28.802  1.00  0.00     0.173 A 
ATOM     39  C   UNL A   1      36.708  32.281  28.713  1.00  0.00     0.173 A 
ATOM     40  F   UNL A   1      35.742  28.807  29.195  1.00  0.00    -0.203 F 
ATOM     41  C   UNL A   1      34.663  30.537  28.019  1.00  0.00     0.198 A 
ATOM     42  C   UNL A   1      35.633  32.730  27.949  1.00  0.00     0.198 A 
ATOM     43  F   UNL A   1      37.682  33.148  29.028  1.00  0.00    -0.203 F 
ATOM     44  F   UNL A   1      33.690  29.686  27.663  1.00  0.00    -0.200 F 
ATOM     45  C   UNL A   1      34.613  31.857  27.600  1.00  0.00     0.200 A 
ATOM     46  F   UNL A   1      35.584  34.009  27.552  1.00  0.00    -0.200 F 
ATOM     47  F   UNL A   1      33.587  32.288  26.855  1.00  0.00    -0.200 F 
ENDBRANCH  23  37
BRANCH  24  48
ATOM     48  C   UNL A   1      44.438  27.882  34.797  1.00  0.00     0.064 A 
ATOM     49  C   UNL A   1      45.620  28.627  34.897  1.00  0.00     0.173 A 
ATOM     50  C   UNL A   1      44.322  26.726  35.584  1.00  0.00     0.173 A 
ATOM     51  F   UNL A   1      45.780  29.731  34.154  1.00  0.00    -0.203 F 
ATOM     52  C   UNL A   1      46.638  28.243  35.768  1.00  0.00     0.198 A 
ATOM     53  C   UNL A   1      45.330  26.356  36.471  1.00  0.00     0.198 A 
ATOM     54  F   UNL A   1      43.204  25.985  35.528  1.00  0.00    -0.203 F 
ATOM     55  F   UNL A   1      47.759  28.971  35.845  1.00  0.00    -0.200 F 
ATOM     56  C   UNL A   1      46.486  27.117  36.564  1.00  0.00     0.200 A 
ATOM     57  F   UNL A   1      45.170  25.279  37.253  1.00  0.00    -0.200 F 
ATOM     58  F   UNL A   1      47.451  26.767  37.425  1.00  0.00    -0.200 F 
ENDBRANCH  24  48
BRANCH  36  59
ATOM     59  C   UNL A   1      39.014  32.158  35.887  1.00  0.00     0.064 A 
ATOM     60  C   UNL A   1      38.239  31.629  36.928  1.00  0.00     0.173 A 
ATOM     61  C   UNL A   1      39.461  33.482  36.004  1.00  0.00     0.173 A 
ATOM     62  F   UNL A   1      37.778  30.371  36.855  1.00  0.00    -0.203 F 
ATOM     63  C   UNL A   1      37.924  32.397  38.046  1.00  0.00     0.198 A 
ATOM     64  C   UNL A   1      39.163  34.240  37.133  1.00  0.00     0.198 A 
ATOM     65  F   UNL A   1      40.210  34.031  35.036  1.00  0.00    -0.203 F 
ATOM     66  F   UNL A   1      37.162  31.879  39.019  1.00  0.00    -0.200 F 
ATOM     67  C   UNL A   1      38.394  33.697  38.152  1.00  0.00     0.200 A 
ATOM     68  F   UNL A   1      39.631  35.491  37.242  1.00  0.00    -0.200 F 
ATOM     69  F   UNL A   1      38.107  34.429  39.237  1.00  0.00    -0.200 F 
ENDBRANCH  36  59
ENDBRANCH  10  11
ENDBRANCH   3   5
ENDBRANCH   2   3
ENDBRANCH   1   2
BRANCH   1  70
ATOM     70  C   UNL A   1      44.454  20.449  25.046  1.00  0.00     0.274 C 
BRANCH  70  71
ATOM     71  O   UNL A   1      43.062  20.102  25.001  1.00  0.00    -0.459 OA
BRANCH  71  72
ATOM     72  C   UNL A   1      42.671  19.121  25.876  1.00  0.00     0.347 C 
ATOM     73  O   UNL A   1      43.309  18.114  26.127  1.00  0.00    -0.248 OA
BRANCH  72  74
ATOM     74  C   UNL A   1      41.335  19.485  26.506  1.00  0.00     0.287 C 
ATOM     75  C   UNL A   1      41.193  20.994  26.726  1.00  0.00     0.097 C 
ATOM     76  O   UNL A   1      40.285  19.016  25.630  1.00  0.00    -0.478 OA
ATOM     77  C   UNL A   1      39.822  21.194  26.202  1.00  0.00    -0.000 A 
ATOM     78  C   UNL A   1      39.375  20.030  25.604  1.00  0.00     0.124 A 
ATOM     79  C   UNL A   1      39.033  22.331  26.205  1.00  0.00     0.028 A 
ATOM     80  C   UNL A   1      38.133  19.931  25.009  1.00  0.00     0.048 A 
ATOM     81  C   UNL A   1      37.776  22.257  25.599  1.00  0.00     0.041 A 
ATOM     82  C   UNL A   1      37.321  21.066  25.010  1.00  0.00     0.024 A 
ATOM     83  Cl  UNL A   1      36.773  23.656  25.556  1.00  0.00    -0.084 Cl
ENDBRANCH  72  74
ENDBRANCH  71  72
ENDBRANCH  70  71
ENDBRANCH   1  70
TORSDOF 11
ENDMDL
MODEL 2
REMARK VINA RESULT:     -11.7      4.146      9.324
REMARK SMILES O=C(OCCOC(=O)[C@H]1Cc2cc(Cl)ccc2O1)c1ccc(-c2c3nc(c(-c4c(F)c(F)c(F)c(F)c4F)c4ccc([nH]4)c(-c4c(F)c(F)c(F)c(F)c4F)c4nc(c(-c5c(F)c(F)c(F)c(F)c5F)c5ccc2[nH]5)C=C4)C=C3)cc1
REMARK SMILES IDX 4 1 3 2 2 3 1 4 19 5 20 6 81 7 21 8 80 9 22 10 23 11 24 12
REMARK SMILES IDX 74 13 25 14 79 15 73 16 75 17 26 18 78 19 72 20 71 21 27 23
REMARK SMILES IDX 59 24 39 25 58 26 40 27 43 28 57 29 76 30 41 31 42 32 56 34
REMARK SMILES IDX 77 35 44 36 28 37 29 38 37 39 30 40 31 41 35 42 38 43 32 44
REMARK SMILES IDX 33 45 36 46 34 47 60 48 61 49 69 50 62 51 63 52 67 53 70 54
REMARK SMILES IDX 64 55 65 56 68 57 66 58 45 59 46 60 54 61 47 62 48 63 52 64
REMARK SMILES IDX 55 65 49 66 50 67 53 68 51 69 5 70 6 71 7 72 8 73 9 74 10 75
REMARK SMILES IDX 18 76 11 77 17 78 12 79 16 80 13 81 15 82 14 83
REMARK H PARENT 75 22 43 33
REMARK Flexibility Score: inf
ROOT
ATOM      1  C   UNL A   1      43.074  18.693  25.968  1.00  0.00     0.275 C 
ENDROOT
BRANCH   1   2
ATOM      2  O   UNL A   1      41.776  19.101  25.495  1.00  0.00    -0.458 OA
BRANCH   2   3
ATOM      3  C   UNL A   1      40.891  19.894  26.150  1.00  0.00     0.338 C 
ATOM      4  O   UNL A   1      39.685  19.690  26.051  1.00  0.00    -0.246 OA
BRANCH   3   5
ATOM      5  C   UNL A   1      41.339  21.173  26.775  1.00  0.00     0.060 A 
ATOM      6  C   UNL A   1      41.328  22.306  25.947  1.00  0.00     0.016 A 
ATOM      7  C   UNL A   1      41.708  21.332  28.113  1.00  0.00     0.016 A 
ATOM      8  C   UNL A   1      41.782  23.544  26.413  1.00  0.00     0.010 A 
ATOM      9  C   UNL A   1      42.154  22.572  28.588  1.00  0.00     0.010 A 
ATOM     10  C   UNL A   1      42.213  23.683  27.738  1.00  0.00    -0.014 A 
BRANCH  10  11
ATOM     11  C   UNL A   1      42.595  25.013  28.265  1.00  0.00     0.031 A 
ATOM     12  C   UNL A   1      44.018  25.357  28.587  1.00  0.00     0.074 A 
ATOM     13  C   UNL A   1      41.617  25.912  28.471  1.00  0.00     0.049 A 
ATOM     14  N   UNL A   1      44.525  26.506  28.957  1.00  0.00    -0.248 NA
ATOM     15  C   UNL A   1      45.006  24.274  28.484  1.00  0.00     0.031 C 
ATOM     16  C   UNL A   1      40.196  25.667  28.227  1.00  0.00     0.029 A 
ATOM     17  N   UNL A   1      41.663  27.204  28.924  1.00  0.00    -0.354 N 
ATOM     18  C   UNL A   1      45.890  26.295  29.097  1.00  0.00     0.074 A 
ATOM     19  C   UNL A   1      46.130  24.895  28.816  1.00  0.00     0.031 C 
ATOM     20  C   UNL A   1      39.505  26.779  28.511  1.00  0.00     0.029 A 
ATOM     21  C   UNL A   1      40.431  27.805  28.980  1.00  0.00     0.049 A 
ATOM     22  H   UNL A   1      42.497  27.657  29.185  1.00  0.00     0.167 HD
ATOM     23  C   UNL A   1      46.849  27.195  29.423  1.00  0.00     0.037 A 
ATOM     24  C   UNL A   1      40.084  29.047  29.365  1.00  0.00     0.037 A 
ATOM     25  C   UNL A   1      46.585  28.573  29.750  1.00  0.00     0.049 A 
ATOM     26  C   UNL A   1      41.157  30.006  29.792  1.00  0.00     0.074 A 
ATOM     27  C   UNL A   1      47.488  29.580  30.042  1.00  0.00     0.029 A 
ATOM     28  N   UNL A   1      45.318  29.130  29.858  1.00  0.00    -0.354 N 
ATOM     29  N   UNL A   1      42.454  29.825  29.821  1.00  0.00    -0.248 NA
ATOM     30  C   UNL A   1      40.721  31.333  30.242  1.00  0.00     0.031 C 
ATOM     31  C   UNL A   1      46.767  30.726  30.393  1.00  0.00     0.029 A 
ATOM     32  C   UNL A   1      45.414  30.450  30.269  1.00  0.00     0.049 A 
ATOM     33  H   UNL A   1      44.476  28.658  29.671  1.00  0.00     0.167 HD
ATOM     34  C   UNL A   1      42.994  31.013  30.291  1.00  0.00     0.074 A 
ATOM     35  C   UNL A   1      41.883  31.916  30.515  1.00  0.00     0.031 C 
ATOM     36  C   UNL A   1      44.295  31.323  30.519  1.00  0.00     0.037 A 
BRANCH  23  37
ATOM     37  C   UNL A   1      48.275  26.725  29.454  1.00  0.00     0.064 A 
ATOM     38  C   UNL A   1      49.169  27.030  28.416  1.00  0.00     0.173 A 
ATOM     39  C   UNL A   1      48.778  26.029  30.565  1.00  0.00     0.173 A 
ATOM     40  F   UNL A   1      48.739  27.684  27.326  1.00  0.00    -0.203 F 
ATOM     41  C   UNL A   1      50.507  26.646  28.483  1.00  0.00     0.198 A 
ATOM     42  C   UNL A   1      50.121  25.666  30.639  1.00  0.00     0.198 A 
ATOM     43  F   UNL A   1      47.968  25.713  31.587  1.00  0.00    -0.203 F 
ATOM     44  F   UNL A   1      51.333  26.921  27.464  1.00  0.00    -0.200 F 
ATOM     45  C   UNL A   1      50.983  25.972  29.597  1.00  0.00     0.200 A 
ATOM     46  F   UNL A   1      50.581  25.022  31.720  1.00  0.00    -0.200 F 
ATOM     47  F   UNL A   1      52.272  25.612  29.664  1.00  0.00    -0.200 F 
ENDBRANCH  23  37
BRANCH  24  48
ATOM     48  C   UNL A   1      38.653  29.434  29.317  1.00  0.00     0.064 A 
ATOM     49  C   UNL A   1      37.905  29.556  30.495  1.00  0.00     0.173 A 
ATOM     50  C   UNL A   1      38.038  29.794  28.109  1.00  0.00     0.173 A 
ATOM     51  F   UNL A   1      38.448  29.210  31.671  1.00  0.00    -0.203 F 
ATOM     52  C   UNL A   1      36.599  30.040  30.468  1.00  0.00     0.198 A 
ATOM     53  C   UNL A   1      36.741  30.300  28.086  1.00  0.00     0.198 A 
ATOM     54  F   UNL A   1      38.719  29.703  26.956  1.00  0.00    -0.203 F 
ATOM     55  F   UNL A   1      35.903  30.147  31.607  1.00  0.00    -0.200 F 
ATOM     56  C   UNL A   1      36.024  30.426  29.266  1.00  0.00     0.200 A 
ATOM     57  F   UNL A   1      36.197  30.691  26.924  1.00  0.00    -0.200 F 
ATOM     58  F   UNL A   1      34.780  30.923  29.244  1.00  0.00    -0.200 F 
ENDBRANCH  24  48
BRANCH  36  59
ATOM     59  C   UNL A   1      44.590  32.683  31.076  1.00  0.00     0.064 A 
ATOM     60  C   UNL A   1      44.827  33.775  30.230  1.00  0.00     0.173 A 
ATOM     61  C   UNL A   1      44.553  32.915  32.459  1.00  0.00     0.173 A 
ATOM     62  F   UNL A   1      44.884  33.599  28.901  1.00  0.00    -0.203 F 
ATOM     63  C   UNL A   1      45.021  35.052  30.748  1.00  0.00     0.198 A 
ATOM     64  C   UNL A   1      44.724  34.198  32.973  1.00  0.00     0.198 A 
ATOM     65  F   UNL A   1      44.323  31.903  33.309  1.00  0.00    -0.203 F 
ATOM     66  F   UNL A   1      45.269  36.077  29.922  1.00  0.00    -0.200 F 
ATOM     67  C   UNL A   1      44.959  35.264  32.117  1.00  0.00     0.200 A 
ATOM     68  F   UNL A   1      44.649  34.404  34.295  1.00  0.00    -0.200 F 
ATOM     69  F   UNL A   1      45.125  36.498  32.614  1.00  0.00    -0.200 F 
ENDBRANCH  36  59
ENDBRANCH  10  11
ENDBRANCH   3   5
ENDBRANCH   2   3
ENDBRANCH   1   2
BRANCH   1  70
ATOM     70  C   UNL A   1      44.134  18.703  24.869  1.00  0.00     0.274 C 
BRANCH  70  71
ATOM     71  O   UNL A   1      44.330  20.024  24.339  1.00  0.00    -0.459 OA
BRANCH  71  72
ATOM     72  C   UNL A   1      45.514  20.625  24.681  1.00  0.00     0.347 C 
ATOM     73  O   UNL A   1      46.378  20.123  25.376  1.00  0.00    -0.248 OA
BRANCH  72  74
ATOM     74  C   UNL A   1      45.601  22.004  24.045  1.00  0.00     0.287 C 
ATOM     75  C   UNL A   1      44.362  22.855  24.341  1.00  0.00     0.097 C 
ATOM     76  O   UNL A   1      46.781  22.661  24.561  1.00  0.00    -0.478 OA
ATOM     77  C   UNL A   1      45.018  24.129  24.716  1.00  0.00    -0.000 A 
ATOM     78  C   UNL A   1      46.385  23.940  24.814  1.00  0.00     0.124 A 
ATOM     79  C   UNL A   1      44.456  25.361  25.001  1.00  0.00     0.028 A 
ATOM     80  C   UNL A   1      47.250  24.955  25.170  1.00  0.00     0.048 A 
ATOM     81  C   UNL A   1      45.313  26.401  25.374  1.00  0.00     0.041 A 
ATOM     82  C   UNL A   1      46.701  26.207  25.452  1.00  0.00     0.024 A 
ATOM     83  Cl  UNL A   1      44.653  27.942  25.764  1.00  0.00    -0.084 Cl
ENDBRANCH  72  74
ENDBRANCH  71  72
ENDBRANCH  70  71
ENDBRANCH   1  70
TORSDOF 11
ENDMDL
MODEL 3
REMARK VINA RESULT:     -11.5      0.469      7.759
REMARK SMILES O=C(OCCOC(=O)[C@H]1Cc2cc(Cl)ccc2O1)c1ccc(-c2c3nc(c(-c4c(F)c(F)c(F)c(F)c4F)c4ccc([nH]4)c(-c4c(F)c(F)c(F)c(F)c4F)c4nc(c(-c5c(F)c(F)c(F)c(F)c5F)c5ccc2[nH]5)C=C4)C=C3)cc1
REMARK SMILES IDX 4 1 3 2 2 3 1 4 19 5 20 6 81 7 21 8 80 9 22 10 23 11 24 12
REMARK SMILES IDX 74 13 25 14 79 15 73 16 75 17 26 18 78 19 72 20 71 21 27 23
REMARK SMILES IDX 59 24 39 25 58 26 40 27 43 28 57 29 76 30 41 31 42 32 56 34
REMARK SMILES IDX 77 35 44 36 28 37 29 38 37 39 30 40 31 41 35 42 38 43 32 44
REMARK SMILES IDX 33 45 36 46 34 47 60 48 61 49 69 50 62 51 63 52 67 53 70 54
REMARK SMILES IDX 64 55 65 56 68 57 66 58 45 59 46 60 54 61 47 62 48 63 52 64
REMARK SMILES IDX 55 65 49 66 50 67 53 68 51 69 5 70 6 71 7 72 8 73 9 74 10 75
REMARK SMILES IDX 18 76 11 77 17 78 12 79 16 80 13 81 15 82 14 83
REMARK H PARENT 75 22 43 33
REMARK Flexibility Score: inf
ROOT
ATOM      1  C   UNL A   1      45.038  21.796  25.108  1.00  0.00     0.275 C 
ENDROOT
BRANCH   1   2
ATOM      2  O   UNL A   1      43.987  22.725  25.435  1.00  0.00    -0.458 OA
BRANCH   2   3
ATOM      3  C   UNL A   1      44.019  24.070  25.265  1.00  0.00     0.338 C 
ATOM      4  O   UNL A   1      44.624  24.561  24.316  1.00  0.00    -0.246 OA
BRANCH   3   5
ATOM      5  C   UNL A   1      43.560  24.982  26.354  1.00  0.00     0.060 A 
ATOM      6  C   UNL A   1      42.670  24.434  27.290  1.00  0.00     0.016 A 
ATOM      7  C   UNL A   1      43.988  26.299  26.538  1.00  0.00     0.016 A 
ATOM      8  C   UNL A   1      42.132  25.216  28.318  1.00  0.00     0.010 A 
ATOM      9  C   UNL A   1      43.461  27.084  27.572  1.00  0.00     0.010 A 
ATOM     10  C   UNL A   1      42.515  26.555  28.458  1.00  0.00    -0.014 A 
BRANCH  10  11
ATOM     11  C   UNL A   1      42.030  27.355  29.605  1.00  0.00     0.031 A 
ATOM     12  C   UNL A   1      42.700  27.302  30.946  1.00  0.00     0.074 A 
ATOM     13  C   UNL A   1      40.946  28.128  29.420  1.00  0.00     0.049 A 
ATOM     14  N   UNL A   1      42.460  28.016  32.017  1.00  0.00    -0.248 NA
ATOM     15  C   UNL A   1      43.780  26.319  31.113  1.00  0.00     0.031 C 
ATOM     16  C   UNL A   1      40.196  28.223  28.167  1.00  0.00     0.029 A 
ATOM     17  N   UNL A   1      40.288  28.976  30.271  1.00  0.00    -0.354 N 
ATOM     18  C   UNL A   1      43.377  27.597  32.970  1.00  0.00     0.074 A 
ATOM     19  C   UNL A   1      44.152  26.532  32.369  1.00  0.00     0.031 C 
ATOM     20  C   UNL A   1      39.195  29.099  28.322  1.00  0.00     0.029 A 
ATOM     21  C   UNL A   1      39.216  29.606  29.691  1.00  0.00     0.049 A 
ATOM     22  H   UNL A   1      40.557  29.118  31.208  1.00  0.00     0.167 HD
ATOM     23  C   UNL A   1      43.554  28.067  34.228  1.00  0.00     0.037 A 
ATOM     24  C   UNL A   1      38.347  30.496  30.204  1.00  0.00     0.037 A 
ATOM     25  C   UNL A   1      42.738  29.093  34.829  1.00  0.00     0.049 A 
ATOM     26  C   UNL A   1      38.519  30.950  31.624  1.00  0.00     0.074 A 
ATOM     27  C   UNL A   1      42.866  29.678  36.075  1.00  0.00     0.029 A 
ATOM     28  N   UNL A   1      41.622  29.662  34.233  1.00  0.00    -0.354 N 
ATOM     29  N   UNL A   1      39.453  30.622  32.483  1.00  0.00    -0.248 NA
ATOM     30  C   UNL A   1      37.520  31.889  32.147  1.00  0.00     0.031 C 
ATOM     31  C   UNL A   1      41.789  30.551  36.261  1.00  0.00     0.029 A 
ATOM     32  C   UNL A   1      41.018  30.550  35.109  1.00  0.00     0.049 A 
ATOM     33  H   UNL A   1      41.304  29.465  33.322  1.00  0.00     0.167 HD
ATOM     34  C   UNL A   1      39.158  31.312  33.649  1.00  0.00     0.074 A 
ATOM     35  C   UNL A   1      37.968  32.095  33.379  1.00  0.00     0.031 C 
ATOM     36  C   UNL A   1      39.815  31.295  34.835  1.00  0.00     0.037 A 
BRANCH  23  37
ATOM     37  C   UNL A   1      44.663  27.478  35.052  1.00  0.00     0.064 A 
ATOM     38  C   UNL A   1      45.940  28.061  35.084  1.00  0.00     0.173 A 
ATOM     39  C   UNL A   1      44.431  26.367  35.878  1.00  0.00     0.173 A 
ATOM     40  F   UNL A   1      46.217  29.118  34.306  1.00  0.00    -0.203 F 
ATOM     41  C   UNL A   1      46.944  27.546  35.900  1.00  0.00     0.198 A 
ATOM     42  C   UNL A   1      45.432  25.869  36.710  1.00  0.00     0.198 A 
ATOM     43  F   UNL A   1      43.229  25.772  35.889  1.00  0.00    -0.203 F 
ATOM     44  F   UNL A   1      48.164  28.101  35.889  1.00  0.00    -0.200 F 
ATOM     45  C   UNL A   1      46.688  26.457  36.718  1.00  0.00     0.200 A 
ATOM     46  F   UNL A   1      45.179  24.821  37.506  1.00  0.00    -0.200 F 
ATOM     47  F   UNL A   1      47.652  25.969  37.510  1.00  0.00    -0.200 F 
ENDBRANCH  23  37
BRANCH  24  48
ATOM     48  C   UNL A   1      37.271  31.024  29.331  1.00  0.00     0.064 A 
ATOM     49  C   UNL A   1      36.158  30.236  29.010  1.00  0.00     0.173 A 
ATOM     50  C   UNL A   1      37.279  32.357  28.893  1.00  0.00     0.173 A 
ATOM     51  F   UNL A   1      36.114  28.953  29.397  1.00  0.00    -0.203 F 
ATOM     52  C   UNL A   1      35.085  30.767  28.297  1.00  0.00     0.198 A 
ATOM     53  C   UNL A   1      36.197  32.893  28.201  1.00  0.00     0.198 A 
ATOM     54  F   UNL A   1      38.320  33.153  29.184  1.00  0.00    -0.203 F 
ATOM     55  F   UNL A   1      34.033  29.993  28.001  1.00  0.00    -0.200 F 
ATOM     56  C   UNL A   1      35.099  32.098  27.906  1.00  0.00     0.200 A 
ATOM     57  F   UNL A   1      36.205  34.185  27.843  1.00  0.00    -0.200 F 
ATOM     58  F   UNL A   1      34.053  32.617  27.250  1.00  0.00    -0.200 F 
ENDBRANCH  24  48
BRANCH  36  59
ATOM     59  C   UNL A   1      39.240  32.116  35.951  1.00  0.00     0.064 A 
ATOM     60  C   UNL A   1      38.282  31.579  36.822  1.00  0.00     0.173 A 
ATOM     61  C   UNL A   1      39.710  33.413  36.204  1.00  0.00     0.173 A 
ATOM     62  F   UNL A   1      37.794  30.347  36.613  1.00  0.00    -0.203 F 
ATOM     63  C   UNL A   1      37.810  32.315  37.905  1.00  0.00     0.198 A 
ATOM     64  C   UNL A   1      39.253  34.136  37.302  1.00  0.00     0.198 A 
ATOM     65  F   UNL A   1      40.632  33.966  35.402  1.00  0.00    -0.203 F 
ATOM     66  F   UNL A   1      36.876  31.792  38.712  1.00  0.00    -0.200 F 
ATOM     67  C   UNL A   1      38.303  33.588  38.150  1.00  0.00     0.200 A 
ATOM     68  F   UNL A   1      39.741  35.360  37.546  1.00  0.00    -0.200 F 
ATOM     69  F   UNL A   1      37.863  34.287  39.206  1.00  0.00    -0.200 F 
ENDBRANCH  36  59
ENDBRANCH  10  11
ENDBRANCH   3   5
ENDBRANCH   2   3
ENDBRANCH   1   2
BRANCH   1  70
ATOM     70  C   UNL A   1      44.556  20.347  25.072  1.00  0.00     0.274 C 
BRANCH  70  71
ATOM     71  O   UNL A   1      43.123  20.268  25.091  1.00  0.00    -0.459 OA
BRANCH  71  72
ATOM     72  C   UNL A   1      42.601  19.182  25.745  1.00  0.00     0.347 C 
ATOM     73  O   UNL A   1      43.124  18.084  25.804  1.00  0.00    -0.248 OA
BRANCH  72  74
ATOM     74  C   UNL A   1      41.284  19.556  26.408  1.00  0.00     0.287 C 
ATOM     75  C   UNL A   1      41.145  21.068  26.606  1.00  0.00     0.097 C 
ATOM     76  O   UNL A   1      40.209  19.070  25.572  1.00  0.00    -0.478 OA
ATOM     77  C   UNL A   1      39.759  21.258  26.120  1.00  0.00    -0.000 A 
ATOM     78  C   UNL A   1      39.296  20.082  25.555  1.00  0.00     0.124 A 
ATOM     79  C   UNL A   1      38.968  22.393  26.126  1.00  0.00     0.028 A 
ATOM     80  C   UNL A   1      38.037  19.971  25.000  1.00  0.00     0.048 A 
ATOM     81  C   UNL A   1      37.693  22.307  25.559  1.00  0.00     0.041 A 
ATOM     82  C   UNL A   1      37.223  21.105  25.006  1.00  0.00     0.024 A 
ATOM     83  Cl  UNL A   1      36.688  23.703  25.521  1.00  0.00    -0.084 Cl
ENDBRANCH  72  74
ENDBRANCH  71  72
ENDBRANCH  70  71
ENDBRANCH   1  70
TORSDOF 11
ENDMDL
