MODEL 1
REMARK VINA RESULT:     -12.0      0.000      0.000
REMARK SMILES Cc1cc2[nH]ccc2nc1C(=O)OCCOC(=O)c1ccc(-c2c3nc(c(-c4c(F)c(F)c(F)c(F)c4F)c4ccc([nH]4)c(-c4c(F)c(F)c(F)c(F)c4F)c4nc(c(-c5c(F)c(F)c(F)c(F)c5F)c5ccc2[nH]5)C=C4)C=C3)cc1
REMARK SMILES IDX 15 1 14 2 13 3 11 4 12 5 10 6 1 7 2 8 3 9 4 10 9 11 5 12
REMARK SMILES IDX 8 13 6 14 7 16 16 17 17 18 18 19 19 20 20 21 81 22 21 23
REMARK SMILES IDX 80 24 22 25 23 26 24 27 74 28 25 29 79 30 73 31 75 32 26 33
REMARK SMILES IDX 78 34 72 35 71 36 27 38 59 39 39 40 58 41 40 42 43 43 57 44
REMARK SMILES IDX 76 45 41 46 42 47 56 49 77 50 44 51 28 52 29 53 37 54 30 55
REMARK SMILES IDX 31 56 35 57 38 58 32 59 33 60 36 61 34 62 60 63 61 64 69 65
REMARK SMILES IDX 62 66 63 67 67 68 70 69 64 70 65 71 68 72 66 73 45 74 46 75
REMARK SMILES IDX 54 76 47 77 48 78 52 79 55 80 49 81 50 82 53 83 51 84
REMARK H PARENT 5 15 75 37 43 48
REMARK Flexibility Score: inf
ROOT
ATOM      1  C   UNL A   1      40.214  20.759  26.301  1.00  0.00     0.275 C 
ENDROOT
BRANCH   1   2
ATOM      2  C   UNL A   1      41.272  19.728  26.677  1.00  0.00     0.275 C 
BRANCH   2   3
ATOM      3  O   UNL A   1      42.580  20.330  26.690  1.00  0.00    -0.457 OA
BRANCH   3   4
ATOM      4  C   UNL A   1      43.312  20.244  25.548  1.00  0.00     0.357 C 
ATOM      5  O   UNL A   1      43.191  19.342  24.728  1.00  0.00    -0.244 OA
BRANCH   4   6
ATOM      6  C   UNL A   1      44.212  21.449  25.345  1.00  0.00     0.152 A 
ATOM      7  C   UNL A   1      46.350  20.096  24.860  1.00  0.00     0.047 C 
ATOM      8  C   UNL A   1      45.579  21.377  25.004  1.00  0.00    -0.016 A 
ATOM      9  C   UNL A   1      46.285  22.577  24.806  1.00  0.00     0.034 A 
ATOM     10  C   UNL A   1      45.582  23.761  25.002  1.00  0.00     0.064 A 
ATOM     11  N   UNL A   1      43.535  22.617  25.548  1.00  0.00    -0.239 NA
ATOM     12  N   UNL A   1      45.964  25.077  24.894  1.00  0.00    -0.360 N 
ATOM     13  C   UNL A   1      44.248  23.751  25.383  1.00  0.00     0.089 A 
ATOM     14  C   UNL A   1      44.918  25.897  25.236  1.00  0.00     0.085 A 
ATOM     15  H   UNL A   1      46.855  25.385  24.613  1.00  0.00     0.166 HD
ATOM     16  C   UNL A   1      43.842  25.096  25.552  1.00  0.00     0.048 A 
ENDBRANCH   4   6
ENDBRANCH   3   4
ENDBRANCH   2   3
ENDBRANCH   1   2
BRANCH   1  17
ATOM     17  O   UNL A   1      40.268  21.876  27.190  1.00  0.00    -0.458 OA
BRANCH  17  18
ATOM     18  C   UNL A   1      39.585  22.972  26.786  1.00  0.00     0.338 C 
ATOM     19  O   UNL A   1      38.502  22.997  26.225  1.00  0.00    -0.246 OA
BRANCH  18  20
ATOM     20  C   UNL A   1      40.421  24.164  26.982  1.00  0.00     0.060 A 
ATOM     21  C   UNL A   1      41.268  24.180  28.096  1.00  0.00     0.016 A 
ATOM     22  C   UNL A   1      40.141  25.325  26.251  1.00  0.00     0.016 A 
ATOM     23  C   UNL A   1      41.666  25.400  28.606  1.00  0.00     0.010 A 
ATOM     24  C   UNL A   1      40.530  26.540  26.763  1.00  0.00     0.010 A 
ATOM     25  C   UNL A   1      41.204  26.562  27.987  1.00  0.00    -0.014 A 
BRANCH  25  26
ATOM     26  C   UNL A   1      41.290  27.813  28.716  1.00  0.00     0.031 A 
ATOM     27  C   UNL A   1      42.409  28.724  28.377  1.00  0.00     0.074 A 
ATOM     28  C   UNL A   1      40.268  28.181  29.514  1.00  0.00     0.049 A 
ATOM     29  N   UNL A   1      43.234  29.324  29.174  1.00  0.00    -0.248 NA
ATOM     30  C   UNL A   1      42.659  28.974  26.949  1.00  0.00     0.031 C 
ATOM     31  C   UNL A   1      38.957  27.537  29.666  1.00  0.00     0.029 A 
ATOM     32  N   UNL A   1      40.143  29.309  30.256  1.00  0.00    -0.354 N 
ATOM     33  C   UNL A   1      44.045  30.113  28.362  1.00  0.00     0.074 A 
ATOM     34  C   UNL A   1      43.703  29.799  26.998  1.00  0.00     0.031 C 
ATOM     35  C   UNL A   1      38.106  28.407  30.253  1.00  0.00     0.029 A 
ATOM     36  C   UNL A   1      38.840  29.608  30.612  1.00  0.00     0.049 A 
ATOM     37  H   UNL A   1      40.912  29.866  30.517  1.00  0.00     0.167 HD
ATOM     38  C   UNL A   1      44.865  31.083  28.848  1.00  0.00     0.037 A 
ATOM     39  C   UNL A   1      38.398  30.813  31.045  1.00  0.00     0.037 A 
ATOM     40  C   UNL A   1      45.127  30.932  30.249  1.00  0.00     0.049 A 
ATOM     41  C   UNL A   1      39.584  31.584  31.512  1.00  0.00     0.074 A 
ATOM     42  C   UNL A   1      45.752  29.953  31.000  1.00  0.00     0.029 A 
ATOM     43  N   UNL A   1      44.421  31.687  31.152  1.00  0.00    -0.354 N 
ATOM     44  N   UNL A   1      40.301  31.270  32.558  1.00  0.00    -0.248 NA
ATOM     45  C   UNL A   1      40.241  32.454  30.547  1.00  0.00     0.031 C 
ATOM     46  C   UNL A   1      44.991  29.865  32.201  1.00  0.00     0.029 A 
ATOM     47  C   UNL A   1      43.974  30.817  32.119  1.00  0.00     0.049 A 
ATOM     48  H   UNL A   1      44.265  32.658  31.115  1.00  0.00     0.167 HD
ATOM     49  C   UNL A   1      41.611  31.565  32.198  1.00  0.00     0.074 A 
ATOM     50  C   UNL A   1      41.500  32.369  30.984  1.00  0.00     0.031 C 
ATOM     51  C   UNL A   1      42.674  30.903  32.744  1.00  0.00     0.037 A 
BRANCH  38  52
ATOM     52  C   UNL A   1      45.279  32.281  28.051  1.00  0.00     0.064 A 
ATOM     53  C   UNL A   1      44.367  33.308  27.760  1.00  0.00     0.173 A 
ATOM     54  C   UNL A   1      46.521  32.346  27.382  1.00  0.00     0.173 A 
ATOM     55  F   UNL A   1      43.140  33.304  28.302  1.00  0.00    -0.203 F 
ATOM     56  C   UNL A   1      44.682  34.332  26.863  1.00  0.00     0.198 A 
ATOM     57  C   UNL A   1      46.852  33.397  26.531  1.00  0.00     0.198 A 
ATOM     58  F   UNL A   1      47.413  31.349  27.470  1.00  0.00    -0.203 F 
ATOM     59  F   UNL A   1      43.758  35.252  26.552  1.00  0.00    -0.200 F 
ATOM     60  C   UNL A   1      45.926  34.382  26.258  1.00  0.00     0.200 A 
ATOM     61  F   UNL A   1      48.054  33.415  25.939  1.00  0.00    -0.200 F 
ATOM     62  F   UNL A   1      46.219  35.351  25.382  1.00  0.00    -0.200 F 
ENDBRANCH  38  52
BRANCH  39  63
ATOM     63  C   UNL A   1      37.098  31.443  30.705  1.00  0.00     0.064 A 
ATOM     64  C   UNL A   1      36.135  31.695  31.692  1.00  0.00     0.173 A 
ATOM     65  C   UNL A   1      36.864  32.027  29.441  1.00  0.00     0.173 A 
ATOM     66  F   UNL A   1      36.308  31.229  32.937  1.00  0.00    -0.203 F 
ATOM     67  C   UNL A   1      35.007  32.483  31.431  1.00  0.00     0.198 A 
ATOM     68  C   UNL A   1      35.731  32.795  29.176  1.00  0.00     0.198 A 
ATOM     69  F   UNL A   1      37.771  31.941  28.458  1.00  0.00    -0.203 F 
ATOM     70  F   UNL A   1      34.136  32.749  32.414  1.00  0.00    -0.200 F 
ATOM     71  C   UNL A   1      34.807  33.033  30.174  1.00  0.00     0.200 A 
ATOM     72  F   UNL A   1      35.573  33.349  27.966  1.00  0.00    -0.200 F 
ATOM     73  F   UNL A   1      33.751  33.822  29.937  1.00  0.00    -0.200 F 
ENDBRANCH  39  63
BRANCH  51  74
ATOM     74  C   UNL A   1      42.415  29.966  33.895  1.00  0.00     0.064 A 
ATOM     75  C   UNL A   1      41.984  28.637  33.728  1.00  0.00     0.173 A 
ATOM     76  C   UNL A   1      42.788  30.353  35.190  1.00  0.00     0.173 A 
ATOM     77  F   UNL A   1      41.725  28.147  32.512  1.00  0.00    -0.203 F 
ATOM     78  C   UNL A   1      41.881  27.760  34.805  1.00  0.00     0.198 A 
ATOM     79  C   UNL A   1      42.723  29.462  36.261  1.00  0.00     0.198 A 
ATOM     80  F   UNL A   1      43.275  31.585  35.409  1.00  0.00    -0.203 F 
ATOM     81  F   UNL A   1      41.458  26.502  34.608  1.00  0.00    -0.200 F 
ATOM     82  C   UNL A   1      42.259  28.171  36.069  1.00  0.00     0.200 A 
ATOM     83  F   UNL A   1      43.144  29.846  37.474  1.00  0.00    -0.200 F 
ATOM     84  F   UNL A   1      42.209  27.312  37.098  1.00  0.00    -0.200 F 
ENDBRANCH  51  74
ENDBRANCH  25  26
ENDBRANCH  18  20
ENDBRANCH  17  18
ENDBRANCH   1  17
TORSDOF 11
ENDMDL
MODEL 2
REMARK VINA RESULT:     -11.6      3.014      4.853
REMARK SMILES Cc1cc2[nH]ccc2nc1C(=O)OCCOC(=O)c1ccc(-c2c3nc(c(-c4c(F)c(F)c(F)c(F)c4F)c4ccc([nH]4)c(-c4c(F)c(F)c(F)c(F)c4F)c4nc(c(-c5c(F)c(F)c(F)c(F)c5F)c5ccc2[nH]5)C=C4)C=C3)cc1
REMARK SMILES IDX 15 1 14 2 13 3 11 4 12 5 10 6 1 7 2 8 3 9 4 10 9 11 5 12
REMARK SMILES IDX 8 13 6 14 7 16 16 17 17 18 18 19 19 20 20 21 81 22 21 23
REMARK SMILES IDX 80 24 22 25 23 26 24 27 74 28 25 29 79 30 73 31 75 32 26 33
REMARK SMILES IDX 78 34 72 35 71 36 27 38 59 39 39 40 58 41 40 42 43 43 57 44
REMARK SMILES IDX 76 45 41 46 42 47 56 49 77 50 44 51 28 52 29 53 37 54 30 55
REMARK SMILES IDX 31 56 35 57 38 58 32 59 33 60 36 61 34 62 60 63 61 64 69 65
REMARK SMILES IDX 62 66 63 67 67 68 70 69 64 70 65 71 68 72 66 73 45 74 46 75
REMARK SMILES IDX 54 76 47 77 48 78 52 79 55 80 49 81 50 82 53 83 51 84
REMARK H PARENT 5 15 75 37 43 48
REMARK Flexibility Score: inf
ROOT
ATOM      1  C   UNL A   1      37.981  21.845  25.614  1.00  0.00     0.275 C 
ENDROOT
BRANCH   1   2
ATOM      2  C   UNL A   1      37.106  22.229  24.426  1.00  0.00     0.275 C 
BRANCH   2   3
ATOM      3  O   UNL A   1      35.829  22.718  24.878  1.00  0.00    -0.457 OA
BRANCH   3   4
ATOM      4  C   UNL A   1      35.125  21.921  25.724  1.00  0.00     0.357 C 
ATOM      5  O   UNL A   1      35.105  22.070  26.940  1.00  0.00    -0.244 OA
BRANCH   4   6
ATOM      6  C   UNL A   1      34.275  20.902  24.988  1.00  0.00     0.152 A 
ATOM      7  C   UNL A   1      32.357  22.525  24.420  1.00  0.00     0.047 C 
ATOM      8  C   UNL A   1      33.038  21.186  24.374  1.00  0.00    -0.016 A 
ATOM      9  C   UNL A   1      32.375  20.152  23.690  1.00  0.00     0.034 A 
ATOM     10  C   UNL A   1      32.979  18.899  23.704  1.00  0.00     0.064 A 
ATOM     11  N   UNL A   1      34.853  19.665  25.008  1.00  0.00    -0.239 NA
ATOM     12  N   UNL A   1      32.605  17.700  23.147  1.00  0.00    -0.360 N 
ATOM     13  C   UNL A   1      34.176  18.686  24.372  1.00  0.00     0.089 A 
ATOM     14  C   UNL A   1      33.513  16.727  23.478  1.00  0.00     0.085 A 
ATOM     15  H   UNL A   1      31.804  17.561  22.592  1.00  0.00     0.166 HD
ATOM     16  C   UNL A   1      34.496  17.313  24.247  1.00  0.00     0.048 A 
ENDBRANCH   4   6
ENDBRANCH   3   4
ENDBRANCH   2   3
ENDBRANCH   1   2
BRANCH   1  17
ATOM     17  O   UNL A   1      38.600  23.005  26.172  1.00  0.00    -0.458 OA
BRANCH  17  18
ATOM     18  C   UNL A   1      39.732  22.775  26.878  1.00  0.00     0.338 C 
ATOM     19  O   UNL A   1      40.042  21.746  27.453  1.00  0.00    -0.246 OA
BRANCH  18  20
ATOM     20  C   UNL A   1      40.495  24.026  26.992  1.00  0.00     0.060 A 
ATOM     21  C   UNL A   1      41.469  24.097  27.994  1.00  0.00     0.016 A 
ATOM     22  C   UNL A   1      40.042  25.168  26.321  1.00  0.00     0.016 A 
ATOM     23  C   UNL A   1      41.835  25.339  28.474  1.00  0.00     0.010 A 
ATOM     24  C   UNL A   1      40.401  26.405  26.803  1.00  0.00     0.010 A 
ATOM     25  C   UNL A   1      41.215  26.467  27.936  1.00  0.00    -0.014 A 
BRANCH  25  26
ATOM     26  C   UNL A   1      41.297  27.715  28.672  1.00  0.00     0.031 A 
ATOM     27  C   UNL A   1      42.416  28.629  28.340  1.00  0.00     0.074 A 
ATOM     28  C   UNL A   1      40.272  28.078  29.467  1.00  0.00     0.049 A 
ATOM     29  N   UNL A   1      43.237  29.227  29.142  1.00  0.00    -0.248 NA
ATOM     30  C   UNL A   1      42.670  28.887  26.914  1.00  0.00     0.031 C 
ATOM     31  C   UNL A   1      38.962  27.432  29.613  1.00  0.00     0.029 A 
ATOM     32  N   UNL A   1      40.143  29.202  30.214  1.00  0.00    -0.354 N 
ATOM     33  C   UNL A   1      44.049  30.021  28.336  1.00  0.00     0.074 A 
ATOM     34  C   UNL A   1      43.712  29.713  26.969  1.00  0.00     0.031 C 
ATOM     35  C   UNL A   1      38.107  28.298  30.202  1.00  0.00     0.029 A 
ATOM     36  C   UNL A   1      38.838  29.498  30.568  1.00  0.00     0.049 A 
ATOM     37  H   UNL A   1      40.910  29.760  30.481  1.00  0.00     0.167 HD
ATOM     38  C   UNL A   1      44.866  30.990  28.829  1.00  0.00     0.037 A 
ATOM     39  C   UNL A   1      38.394  30.700  31.005  1.00  0.00     0.037 A 
ATOM     40  C   UNL A   1      45.125  30.833  30.230  1.00  0.00     0.049 A 
ATOM     41  C   UNL A   1      39.577  31.471  31.479  1.00  0.00     0.074 A 
ATOM     42  C   UNL A   1      45.749  29.852  30.978  1.00  0.00     0.029 A 
ATOM     43  N   UNL A   1      44.414  31.583  31.135  1.00  0.00    -0.354 N 
ATOM     44  N   UNL A   1      40.291  31.153  32.526  1.00  0.00    -0.248 NA
ATOM     45  C   UNL A   1      40.236  32.346  30.520  1.00  0.00     0.031 C 
ATOM     46  C   UNL A   1      44.985  29.757  32.177  1.00  0.00     0.029 A 
ATOM     47  C   UNL A   1      43.966  30.707  32.096  1.00  0.00     0.049 A 
ATOM     48  H   UNL A   1      44.257  32.554  31.101  1.00  0.00     0.167 HD
ATOM     49  C   UNL A   1      41.601  31.452  32.171  1.00  0.00     0.074 A 
ATOM     50  C   UNL A   1      41.494  32.261  30.961  1.00  0.00     0.031 C 
ATOM     51  C   UNL A   1      42.664  30.789  32.717  1.00  0.00     0.037 A 
BRANCH  38  52
ATOM     52  C   UNL A   1      45.281  32.193  28.039  1.00  0.00     0.064 A 
ATOM     53  C   UNL A   1      44.367  33.218  27.746  1.00  0.00     0.173 A 
ATOM     54  C   UNL A   1      46.526  32.264  27.377  1.00  0.00     0.173 A 
ATOM     55  F   UNL A   1      43.137  33.208  28.281  1.00  0.00    -0.203 F 
ATOM     56  C   UNL A   1      44.684  34.246  26.855  1.00  0.00     0.198 A 
ATOM     57  C   UNL A   1      46.859  33.319  26.532  1.00  0.00     0.198 A 
ATOM     58  F   UNL A   1      47.422  31.269  27.466  1.00  0.00    -0.203 F 
ATOM     59  F   UNL A   1      43.759  35.164  26.542  1.00  0.00    -0.200 F 
ATOM     60  C   UNL A   1      45.932  34.303  26.257  1.00  0.00     0.200 A 
ATOM     61  F   UNL A   1      48.065  33.343  25.946  1.00  0.00    -0.200 F 
ATOM     62  F   UNL A   1      46.226  35.275  25.386  1.00  0.00    -0.200 F 
ENDBRANCH  38  52
BRANCH  39  63
ATOM     63  C   UNL A   1      37.094  31.329  30.664  1.00  0.00     0.064 A 
ATOM     64  C   UNL A   1      36.137  31.597  31.652  1.00  0.00     0.173 A 
ATOM     65  C   UNL A   1      36.854  31.898  29.394  1.00  0.00     0.173 A 
ATOM     66  F   UNL A   1      36.315  31.147  32.903  1.00  0.00    -0.203 F 
ATOM     67  C   UNL A   1      35.010  32.385  31.388  1.00  0.00     0.198 A 
ATOM     68  C   UNL A   1      35.722  32.666  29.126  1.00  0.00     0.198 A 
ATOM     69  F   UNL A   1      37.756  31.796  28.407  1.00  0.00    -0.203 F 
ATOM     70  F   UNL A   1      34.144  32.666  32.372  1.00  0.00    -0.200 F 
ATOM     71  C   UNL A   1      34.804  32.919  30.125  1.00  0.00     0.200 A 
ATOM     72  F   UNL A   1      35.559  33.205  27.909  1.00  0.00    -0.200 F 
ATOM     73  F   UNL A   1      33.750  33.709  29.883  1.00  0.00    -0.200 F 
ENDBRANCH  39  63
BRANCH  51  74
ATOM     74  C   UNL A   1      42.403  29.846  33.864  1.00  0.00     0.064 A 
ATOM     75  C   UNL A   1      41.976  28.517  33.689  1.00  0.00     0.173 A 
ATOM     76  C   UNL A   1      42.769  30.229  35.161  1.00  0.00     0.173 A 
ATOM     77  F   UNL A   1      41.725  28.031  32.469  1.00  0.00    -0.203 F 
ATOM     78  C   UNL A   1      41.872  27.635  34.762  1.00  0.00     0.198 A 
ATOM     79  C   UNL A   1      42.702  29.333  36.228  1.00  0.00     0.198 A 
ATOM     80  F   UNL A   1      43.251  31.461  35.388  1.00  0.00    -0.203 F 
ATOM     81  F   UNL A   1      41.453  26.377  34.558  1.00  0.00    -0.200 F 
ATOM     82  C   UNL A   1      42.243  28.042  36.030  1.00  0.00     0.200 A 
ATOM     83  F   UNL A   1      43.117  29.713  37.445  1.00  0.00    -0.200 F 
ATOM     84  F   UNL A   1      42.192  27.178  37.055  1.00  0.00    -0.200 F 
ENDBRANCH  51  74
ENDBRANCH  25  26
ENDBRANCH  18  20
ENDBRANCH  17  18
ENDBRANCH   1  17
TORSDOF 11
ENDMDL
MODEL 3
REMARK VINA RESULT:     -11.5      3.025      4.896
REMARK SMILES Cc1cc2[nH]ccc2nc1C(=O)OCCOC(=O)c1ccc(-c2c3nc(c(-c4c(F)c(F)c(F)c(F)c4F)c4ccc([nH]4)c(-c4c(F)c(F)c(F)c(F)c4F)c4nc(c(-c5c(F)c(F)c(F)c(F)c5F)c5ccc2[nH]5)C=C4)C=C3)cc1
REMARK SMILES IDX 15 1 14 2 13 3 11 4 12 5 10 6 1 7 2 8 3 9 4 10 9 11 5 12
REMARK SMILES IDX 8 13 6 14 7 16 16 17 17 18 18 19 19 20 20 21 81 22 21 23
REMARK SMILES IDX 80 24 22 25 23 26 24 27 74 28 25 29 79 30 73 31 75 32 26 33
REMARK SMILES IDX 78 34 72 35 71 36 27 38 59 39 39 40 58 41 40 42 43 43 57 44
REMARK SMILES IDX 76 45 41 46 42 47 56 49 77 50 44 51 28 52 29 53 37 54 30 55
REMARK SMILES IDX 31 56 35 57 38 58 32 59 33 60 36 61 34 62 60 63 61 64 69 65
REMARK SMILES IDX 62 66 63 67 67 68 70 69 64 70 65 71 68 72 66 73 45 74 46 75
REMARK SMILES IDX 54 76 47 77 48 78 52 79 55 80 49 81 50 82 53 83 51 84
REMARK H PARENT 5 15 75 37 43 48
REMARK Flexibility Score: inf
ROOT
ATOM      1  C   UNL A   1      38.401  21.828  25.633  1.00  0.00     0.275 C 
ENDROOT
BRANCH   1   2
ATOM      2  C   UNL A   1      36.887  21.720  25.501  1.00  0.00     0.275 C 
BRANCH   2   3
ATOM      3  O   UNL A   1      36.253  22.927  25.965  1.00  0.00    -0.457 OA
BRANCH   3   4
ATOM      4  C   UNL A   1      34.900  22.905  26.097  1.00  0.00     0.357 C 
ATOM      5  O   UNL A   1      34.323  22.809  27.174  1.00  0.00    -0.244 OA
BRANCH   4   6
ATOM      6  C   UNL A   1      34.185  23.129  24.778  1.00  0.00     0.152 A 
ATOM      7  C   UNL A   1      33.502  20.670  24.432  1.00  0.00     0.047 C 
ATOM      8  C   UNL A   1      33.528  22.120  24.044  1.00  0.00    -0.016 A 
ATOM      9  C   UNL A   1      32.869  22.477  22.854  1.00  0.00     0.034 A 
ATOM     10  C   UNL A   1      32.950  23.811  22.465  1.00  0.00     0.064 A 
ATOM     11  N   UNL A   1      34.269  24.433  24.380  1.00  0.00    -0.239 NA
ATOM     12  N   UNL A   1      32.431  24.477  21.381  1.00  0.00    -0.360 N 
ATOM     13  C   UNL A   1      33.655  24.738  23.218  1.00  0.00     0.089 A 
ATOM     14  C   UNL A   1      32.825  25.791  21.408  1.00  0.00     0.085 A 
ATOM     15  H   UNL A   1      31.862  24.072  20.688  1.00  0.00     0.166 HD
ATOM     16  C   UNL A   1      33.594  25.977  22.537  1.00  0.00     0.048 A 
ENDBRANCH   4   6
ENDBRANCH   3   4
ENDBRANCH   2   3
ENDBRANCH   1   2
BRANCH   1  17
ATOM     17  O   UNL A   1      38.750  22.901  26.510  1.00  0.00    -0.458 OA
BRANCH  17  18
ATOM     18  C   UNL A   1      39.944  22.774  27.134  1.00  0.00     0.338 C 
ATOM     19  O   UNL A   1      40.363  21.794  27.726  1.00  0.00    -0.246 OA
BRANCH  18  20
ATOM     20  C   UNL A   1      40.631  24.073  27.135  1.00  0.00     0.060 A 
ATOM     21  C   UNL A   1      41.683  24.245  28.041  1.00  0.00     0.016 A 
ATOM     22  C   UNL A   1      40.048  25.157  26.467  1.00  0.00     0.016 A 
ATOM     23  C   UNL A   1      42.008  25.525  28.442  1.00  0.00     0.010 A 
ATOM     24  C   UNL A   1      40.366  26.432  26.871  1.00  0.00     0.010 A 
ATOM     25  C   UNL A   1      41.272  26.591  27.922  1.00  0.00    -0.014 A 
BRANCH  25  26
ATOM     26  C   UNL A   1      41.337  27.870  28.603  1.00  0.00     0.031 A 
ATOM     27  C   UNL A   1      42.406  28.809  28.188  1.00  0.00     0.074 A 
ATOM     28  C   UNL A   1      40.332  28.229  29.426  1.00  0.00     0.049 A 
ATOM     29  N   UNL A   1      43.237  29.469  28.930  1.00  0.00    -0.248 NA
ATOM     30  C   UNL A   1      42.592  29.015  26.743  1.00  0.00     0.031 C 
ATOM     31  C   UNL A   1      39.054  27.543  29.653  1.00  0.00     0.029 A 
ATOM     32  N   UNL A   1      40.192  29.378  30.132  1.00  0.00    -0.354 N 
ATOM     33  C   UNL A   1      43.985  30.256  28.060  1.00  0.00     0.074 A 
ATOM     34  C   UNL A   1      43.605  29.880  26.722  1.00  0.00     0.031 C 
ATOM     35  C   UNL A   1      38.192  28.402  30.241  1.00  0.00     0.029 A 
ATOM     36  C   UNL A   1      38.892  29.642  30.527  1.00  0.00     0.049 A 
ATOM     37  H   UNL A   1      40.948  29.973  30.343  1.00  0.00     0.167 HD
ATOM     38  C   UNL A   1      44.785  31.273  28.478  1.00  0.00     0.037 A 
ATOM     39  C   UNL A   1      38.421  30.845  30.934  1.00  0.00     0.037 A 
ATOM     40  C   UNL A   1      45.106  31.185  29.873  1.00  0.00     0.049 A 
ATOM     41  C   UNL A   1      39.593  31.676  31.327  1.00  0.00     0.074 A 
ATOM     42  C   UNL A   1      45.796  30.259  30.633  1.00  0.00     0.029 A 
ATOM     43  N   UNL A   1      44.405  31.946  30.775  1.00  0.00    -0.354 N 
ATOM     44  N   UNL A   1      40.361  31.428  32.354  1.00  0.00    -0.248 NA
ATOM     45  C   UNL A   1      40.179  32.534  30.306  1.00  0.00     0.031 C 
ATOM     46  C   UNL A   1      45.085  30.187  31.865  1.00  0.00     0.029 A 
ATOM     47  C   UNL A   1      44.029  31.096  31.789  1.00  0.00     0.049 A 
ATOM     48  H   UNL A   1      44.211  32.909  30.709  1.00  0.00     0.167 HD
ATOM     49  C   UNL A   1      41.643  31.758  31.933  1.00  0.00     0.074 A 
ATOM     50  C   UNL A   1      41.456  32.512  30.697  1.00  0.00     0.031 C 
ATOM     51  C   UNL A   1      42.752  31.157  32.461  1.00  0.00     0.037 A 
BRANCH  38  52
ATOM     52  C   UNL A   1      45.123  32.456  27.623  1.00  0.00     0.064 A 
ATOM     53  C   UNL A   1      46.368  32.554  26.981  1.00  0.00     0.173 A 
ATOM     54  C   UNL A   1      44.313  33.612  27.587  1.00  0.00     0.173 A 
ATOM     55  F   UNL A   1      47.232  31.529  27.009  1.00  0.00    -0.203 F 
ATOM     56  C   UNL A   1      46.769  33.730  26.342  1.00  0.00     0.198 A 
ATOM     57  C   UNL A   1      44.692  34.763  26.902  1.00  0.00     0.198 A 
ATOM     58  F   UNL A   1      43.170  33.686  28.284  1.00  0.00    -0.203 F 
ATOM     59  F   UNL A   1      47.995  33.811  25.805  1.00  0.00    -0.200 F 
ATOM     60  C   UNL A   1      45.928  34.829  26.292  1.00  0.00     0.200 A 
ATOM     61  F   UNL A   1      43.873  35.824  26.885  1.00  0.00    -0.200 F 
ATOM     62  F   UNL A   1      46.323  35.962  25.699  1.00  0.00    -0.200 F 
ENDBRANCH  38  52
BRANCH  39  63
ATOM     63  C   UNL A   1      37.086  31.412  30.623  1.00  0.00     0.064 A 
ATOM     64  C   UNL A   1      36.172  31.716  31.642  1.00  0.00     0.173 A 
ATOM     65  C   UNL A   1      36.764  31.890  29.334  1.00  0.00     0.173 A 
ATOM     66  F   UNL A   1      36.428  31.354  32.907  1.00  0.00    -0.203 F 
ATOM     67  C   UNL A   1      35.009  32.452  31.388  1.00  0.00     0.198 A 
ATOM     68  C   UNL A   1      35.595  32.606  29.078  1.00  0.00     0.198 A 
ATOM     69  F   UNL A   1      37.617  31.751  28.310  1.00  0.00    -0.203 F 
ATOM     70  F   UNL A   1      34.185  32.771  32.396  1.00  0.00    -0.200 F 
ATOM     71  C   UNL A   1      34.722  32.897  30.106  1.00  0.00     0.200 A 
ATOM     72  F   UNL A   1      35.353  33.060  27.840  1.00  0.00    -0.200 F 
ATOM     73  F   UNL A   1      33.631  33.638  29.871  1.00  0.00    -0.200 F 
ENDBRANCH  39  63
BRANCH  51  74
ATOM     74  C   UNL A   1      42.573  30.254  33.654  1.00  0.00     0.064 A 
ATOM     75  C   UNL A   1      42.595  30.718  34.982  1.00  0.00     0.173 A 
ATOM     76  C   UNL A   1      42.185  28.923  33.453  1.00  0.00     0.173 A 
ATOM     77  F   UNL A   1      42.834  32.003  35.258  1.00  0.00    -0.203 F 
ATOM     78  C   UNL A   1      42.295  29.880  36.054  1.00  0.00     0.198 A 
ATOM     79  C   UNL A   1      41.846  28.096  34.525  1.00  0.00     0.198 A 
ATOM     80  F   UNL A   1      42.075  28.435  32.207  1.00  0.00    -0.203 F 
ATOM     81  F   UNL A   1      42.334  30.354  37.309  1.00  0.00    -0.200 F 
ATOM     82  C   UNL A   1      41.913  28.572  35.823  1.00  0.00     0.200 A 
ATOM     83  F   UNL A   1      41.421  26.846  34.293  1.00  0.00    -0.200 F 
ATOM     84  F   UNL A   1      41.575  27.779  36.851  1.00  0.00    -0.200 F 
ENDBRANCH  51  74
ENDBRANCH  25  26
ENDBRANCH  18  20
ENDBRANCH  17  18
ENDBRANCH   1  17
TORSDOF 11
ENDMDL
