MODEL 1
REMARK VINA RESULT:     -11.5      0.000      0.000
REMARK SMILES C[C@@H](CCC(=O)OCCOC(=O)c1ccc(-c2c3nc(c(-c4c(F)c(F)c(F)c(F)c4F)c4ccc([nH]4)c(-c4c(F)c(F)c(F)c(F)c4F)c4nc(c(-c5c(F)c(F)c(F)c(F)c5F)c5ccc2[nH]5)C=C4)C=C3)cc1)NC(=O)Nc1ccc(Cl)c(Br)c1
REMARK SMILES IDX 8 1 7 2 5 3 6 4 4 5 3 6 2 7 1 8 76 9 77 10 78 12 79 13 80 15
REMARK SMILES IDX 81 16 87 17 82 18 85 19 83 20 86 21 84 22 9 23 10 24 11 25
REMARK SMILES IDX 12 26 13 27 14 28 75 29 15 30 74 31 16 32 17 33 18 34 68 35
REMARK SMILES IDX 19 36 73 37 67 38 69 39 20 40 72 41 66 42 65 43 21 45 53 46
REMARK SMILES IDX 33 47 52 48 34 49 37 50 51 51 70 52 35 53 36 54 50 56 71 57
REMARK SMILES IDX 38 58 22 59 23 60 31 61 24 62 25 63 29 64 32 65 26 66 27 67
REMARK SMILES IDX 30 68 28 69 54 70 55 71 63 72 56 73 57 74 61 75 64 76 58 77
REMARK SMILES IDX 59 78 62 79 60 80 39 81 40 82 48 83 41 84 42 85 46 86 49 87
REMARK SMILES IDX 43 88 44 89 47 90 45 91
REMARK H PARENT 76 11 79 14 69 44 37 55
REMARK Flexibility Score: inf
ROOT
ATOM      1  C   UNL A   1      31.522  28.984  24.215  1.00  0.00     0.274 C 
ENDROOT
BRANCH   1   2
ATOM      2  O   UNL A   1      31.677  27.606  23.814  1.00  0.00    -0.462 OA
BRANCH   2   3
ATOM      3  C   UNL A   1      31.282  27.270  22.562  1.00  0.00     0.305 C 
ATOM      4  O   UNL A   1      30.382  27.826  21.944  1.00  0.00    -0.252 OA
BRANCH   3   5
ATOM      5  C   UNL A   1      32.022  26.066  22.018  1.00  0.00     0.125 C 
BRANCH   5   6
ATOM      6  C   UNL A   1      33.171  25.496  22.856  1.00  0.00     0.036 C 
BRANCH   6   7
ATOM      7  C   UNL A   1      32.858  24.308  23.790  1.00  0.00     0.081 C 
ATOM      8  C   UNL A   1      32.096  23.181  23.097  1.00  0.00     0.031 C 
BRANCH   7   9
ATOM      9  N   UNL A   1      32.145  24.768  24.978  1.00  0.00    -0.335 N 
ATOM     10  C   UNL A   1      31.974  24.330  26.236  1.00  0.00     0.319 C 
ATOM     11  H   UNL A   1      31.667  25.613  24.815  1.00  0.00     0.165 HD
ATOM     12  O   UNL A   1      31.079  24.851  26.908  1.00  0.00    -0.248 OA
ATOM     13  N   UNL A   1      32.641  23.275  26.746  1.00  0.00    -0.308 N 
ATOM     14  H   UNL A   1      32.188  22.834  27.501  1.00  0.00     0.171 HD
BRANCH  13  15
ATOM     15  C   UNL A   1      33.860  22.700  26.390  1.00  0.00     0.044 A 
ATOM     16  C   UNL A   1      33.829  21.408  25.866  1.00  0.00     0.028 A 
ATOM     17  C   UNL A   1      35.075  23.378  26.516  1.00  0.00     0.043 A 
ATOM     18  C   UNL A   1      34.989  20.852  25.329  1.00  0.00     0.024 A 
ATOM     19  C   UNL A   1      36.244  22.814  25.993  1.00  0.00     0.038 A 
ATOM     20  C   UNL A   1      36.194  21.561  25.370  1.00  0.00     0.055 A 
ATOM     21  Br  UNL A   1      37.840  23.835  26.116  1.00  0.00    -0.049 Br
ATOM     22  Cl  UNL A   1      37.565  20.840  24.605  1.00  0.00    -0.083 Cl
ENDBRANCH  13  15
ENDBRANCH   7   9
ENDBRANCH   6   7
ENDBRANCH   5   6
ENDBRANCH   3   5
ENDBRANCH   2   3
ENDBRANCH   1   2
BRANCH   1  23
ATOM     23  C   UNL A   1      31.919  29.193  25.679  1.00  0.00     0.275 C 
BRANCH  23  24
ATOM     24  O   UNL A   1      33.149  29.932  25.778  1.00  0.00    -0.458 OA
BRANCH  24  25
ATOM     25  C   UNL A   1      33.199  30.866  26.754  1.00  0.00     0.338 C 
ATOM     26  O   UNL A   1      32.338  31.664  27.078  1.00  0.00    -0.246 OA
BRANCH  25  27
ATOM     27  C   UNL A   1      34.449  30.684  27.501  1.00  0.00     0.060 A 
ATOM     28  C   UNL A   1      35.290  31.787  27.679  1.00  0.00     0.016 A 
ATOM     29  C   UNL A   1      34.792  29.430  28.006  1.00  0.00     0.016 A 
ATOM     30  C   UNL A   1      36.478  31.646  28.390  1.00  0.00     0.010 A 
ATOM     31  C   UNL A   1      35.983  29.288  28.712  1.00  0.00     0.010 A 
ATOM     32  C   UNL A   1      36.829  30.394  28.910  1.00  0.00    -0.014 A 
BRANCH  32  33
ATOM     33  C   UNL A   1      38.101  30.207  29.640  1.00  0.00     0.031 A 
ATOM     34  C   UNL A   1      39.128  29.268  29.092  1.00  0.00     0.074 A 
ATOM     35  C   UNL A   1      38.288  30.819  30.821  1.00  0.00     0.049 A 
ATOM     36  N   UNL A   1      40.210  28.799  29.657  1.00  0.00    -0.248 NA
ATOM     37  C   UNL A   1      38.896  28.780  27.725  1.00  0.00     0.031 C 
ATOM     38  C   UNL A   1      37.361  31.772  31.430  1.00  0.00     0.029 A 
ATOM     39  N   UNL A   1      39.303  30.698  31.736  1.00  0.00    -0.354 N 
ATOM     40  C   UNL A   1      40.771  27.933  28.729  1.00  0.00     0.074 A 
ATOM     41  C   UNL A   1      39.906  27.937  27.567  1.00  0.00     0.031 C 
ATOM     42  C   UNL A   1      37.832  32.125  32.638  1.00  0.00     0.029 A 
ATOM     43  C   UNL A   1      39.064  31.384  32.902  1.00  0.00     0.049 A 
ATOM     44  H   UNL A   1      40.119  30.173  31.573  1.00  0.00     0.167 HD
ATOM     45  C   UNL A   1      41.903  27.200  28.846  1.00  0.00     0.037 A 
ATOM     46  C   UNL A   1      39.736  31.372  34.067  1.00  0.00     0.037 A 
ATOM     47  C   UNL A   1      42.754  27.218  30.008  1.00  0.00     0.049 A 
ATOM     48  C   UNL A   1      40.971  30.523  34.191  1.00  0.00     0.074 A 
ATOM     49  C   UNL A   1      43.945  26.546  30.216  1.00  0.00     0.029 A 
ATOM     50  N   UNL A   1      42.494  27.942  31.163  1.00  0.00    -0.354 N 
ATOM     51  N   UNL A   1      41.512  29.719  33.308  1.00  0.00    -0.248 NA
ATOM     52  C   UNL A   1      41.688  30.575  35.472  1.00  0.00     0.031 C 
ATOM     53  C   UNL A   1      44.380  26.825  31.516  1.00  0.00     0.029 A 
ATOM     54  C   UNL A   1      43.489  27.713  32.099  1.00  0.00     0.049 A 
ATOM     55  H   UNL A   1      41.717  28.532  31.297  1.00  0.00     0.167 HD
ATOM     56  C   UNL A   1      42.641  29.187  33.914  1.00  0.00     0.074 A 
ATOM     57  C   UNL A   1      42.711  29.764  35.242  1.00  0.00     0.031 C 
ATOM     58  C   UNL A   1      43.541  28.303  33.414  1.00  0.00     0.037 A 
BRANCH  45  59
ATOM     59  C   UNL A   1      42.251  26.286  27.709  1.00  0.00     0.064 A 
ATOM     60  C   UNL A   1      41.633  25.038  27.543  1.00  0.00     0.173 A 
ATOM     61  C   UNL A   1      43.225  26.666  26.773  1.00  0.00     0.173 A 
ATOM     62  F   UNL A   1      40.706  24.621  28.418  1.00  0.00    -0.203 F 
ATOM     63  C   UNL A   1      42.002  24.189  26.501  1.00  0.00     0.198 A 
ATOM     64  C   UNL A   1      43.570  25.828  25.716  1.00  0.00     0.198 A 
ATOM     65  F   UNL A   1      43.844  27.851  26.883  1.00  0.00    -0.203 F 
ATOM     66  F   UNL A   1      41.440  22.977  26.395  1.00  0.00    -0.200 F 
ATOM     67  C   UNL A   1      42.967  24.586  25.588  1.00  0.00     0.200 A 
ATOM     68  F   UNL A   1      44.495  26.218  24.828  1.00  0.00    -0.200 F 
ATOM     69  F   UNL A   1      43.324  23.767  24.589  1.00  0.00    -0.200 F 
ENDBRANCH  45  59
BRANCH  46  70
ATOM     70  C   UNL A   1      39.226  32.173  35.207  1.00  0.00     0.064 A 
ATOM     71  C   UNL A   1      38.477  31.580  36.231  1.00  0.00     0.173 A 
ATOM     72  C   UNL A   1      39.518  33.542  35.318  1.00  0.00     0.173 A 
ATOM     73  F   UNL A   1      38.155  30.281  36.158  1.00  0.00    -0.203 F 
ATOM     74  C   UNL A   1      38.038  32.325  37.324  1.00  0.00     0.198 A 
ATOM     75  C   UNL A   1      39.099  34.280  36.423  1.00  0.00     0.198 A 
ATOM     76  F   UNL A   1      40.233  34.155  34.364  1.00  0.00    -0.203 F 
ATOM     77  F   UNL A   1      37.302  31.740  38.278  1.00  0.00    -0.200 F 
ATOM     78  C   UNL A   1      38.358  33.671  37.424  1.00  0.00     0.200 A 
ATOM     79  F   UNL A   1      39.423  35.577  36.522  1.00  0.00    -0.200 F 
ATOM     80  F   UNL A   1      37.950  34.383  38.484  1.00  0.00    -0.200 F 
ENDBRANCH  46  70
BRANCH  58  81
ATOM     81  C   UNL A   1      44.699  27.928  34.290  1.00  0.00     0.064 A 
ATOM     82  C   UNL A   1      44.661  26.797  35.117  1.00  0.00     0.173 A 
ATOM     83  C   UNL A   1      45.886  28.676  34.248  1.00  0.00     0.173 A 
ATOM     84  F   UNL A   1      43.543  26.060  35.203  1.00  0.00    -0.203 F 
ATOM     85  C   UNL A   1      45.769  26.433  35.878  1.00  0.00     0.198 A 
ATOM     86  C   UNL A   1      46.999  28.294  34.990  1.00  0.00     0.198 A 
ATOM     87  F   UNL A   1      45.972  29.765  33.468  1.00  0.00    -0.203 F 
ATOM     88  F   UNL A   1      45.703  25.365  36.685  1.00  0.00    -0.200 F 
ATOM     89  C   UNL A   1      46.938  27.175  35.808  1.00  0.00     0.200 A 
ATOM     90  F   UNL A   1      48.132  29.005  34.911  1.00  0.00    -0.200 F 
ATOM     91  F   UNL A   1      48.008  26.813  36.530  1.00  0.00    -0.200 F 
ENDBRANCH  58  81
ENDBRANCH  32  33
ENDBRANCH  25  27
ENDBRANCH  24  25
ENDBRANCH  23  24
ENDBRANCH   1  23
TORSDOF 15
ENDMDL
MODEL 2
REMARK VINA RESULT:     -11.5      4.381      9.380
REMARK SMILES C[C@@H](CCC(=O)OCCOC(=O)c1ccc(-c2c3nc(c(-c4c(F)c(F)c(F)c(F)c4F)c4ccc([nH]4)c(-c4c(F)c(F)c(F)c(F)c4F)c4nc(c(-c5c(F)c(F)c(F)c(F)c5F)c5ccc2[nH]5)C=C4)C=C3)cc1)NC(=O)Nc1ccc(Cl)c(Br)c1
REMARK SMILES IDX 8 1 7 2 5 3 6 4 4 5 3 6 2 7 1 8 76 9 77 10 78 12 79 13 80 15
REMARK SMILES IDX 81 16 87 17 82 18 85 19 83 20 86 21 84 22 9 23 10 24 11 25
REMARK SMILES IDX 12 26 13 27 14 28 75 29 15 30 74 31 16 32 17 33 18 34 68 35
REMARK SMILES IDX 19 36 73 37 67 38 69 39 20 40 72 41 66 42 65 43 21 45 53 46
REMARK SMILES IDX 33 47 52 48 34 49 37 50 51 51 70 52 35 53 36 54 50 56 71 57
REMARK SMILES IDX 38 58 22 59 23 60 31 61 24 62 25 63 29 64 32 65 26 66 27 67
REMARK SMILES IDX 30 68 28 69 54 70 55 71 63 72 56 73 57 74 61 75 64 76 58 77
REMARK SMILES IDX 59 78 62 79 60 80 39 81 40 82 48 83 41 84 42 85 46 86 49 87
REMARK SMILES IDX 43 88 44 89 47 90 45 91
REMARK H PARENT 76 11 79 14 69 44 37 55
REMARK Flexibility Score: inf
ROOT
ATOM      1  C   UNL A   1      36.652  22.834  23.496  1.00  0.00     0.274 C 
ENDROOT
BRANCH   1   2
ATOM      2  O   UNL A   1      35.362  23.021  22.875  1.00  0.00    -0.462 OA
BRANCH   2   3
ATOM      3  C   UNL A   1      34.409  23.663  23.592  1.00  0.00     0.305 C 
ATOM      4  O   UNL A   1      34.615  24.635  24.309  1.00  0.00    -0.252 OA
BRANCH   3   5
ATOM      5  C   UNL A   1      33.050  23.004  23.483  1.00  0.00     0.125 C 
BRANCH   5   6
ATOM      6  C   UNL A   1      32.639  22.029  24.592  1.00  0.00     0.036 C 
BRANCH   6   7
ATOM      7  C   UNL A   1      32.492  22.589  26.021  1.00  0.00     0.081 C 
ATOM      8  C   UNL A   1      33.538  22.048  26.992  1.00  0.00     0.031 C 
BRANCH   7   9
ATOM      9  N   UNL A   1      31.142  22.354  26.525  1.00  0.00    -0.335 N 
ATOM     10  C   UNL A   1      30.090  23.114  26.873  1.00  0.00     0.319 C 
ATOM     11  H   UNL A   1      30.955  21.394  26.639  1.00  0.00     0.165 HD
ATOM     12  O   UNL A   1      29.180  22.577  27.511  1.00  0.00    -0.248 OA
ATOM     13  N   UNL A   1      30.045  24.446  26.671  1.00  0.00    -0.308 N 
ATOM     14  H   UNL A   1      29.432  24.928  27.271  1.00  0.00     0.171 HD
BRANCH  13  15
ATOM     15  C   UNL A   1      30.717  25.260  25.759  1.00  0.00     0.044 A 
ATOM     16  C   UNL A   1      30.281  25.232  24.435  1.00  0.00     0.028 A 
ATOM     17  C   UNL A   1      31.767  26.101  26.135  1.00  0.00     0.043 A 
ATOM     18  C   UNL A   1      30.791  26.151  23.520  1.00  0.00     0.024 A 
ATOM     19  C   UNL A   1      32.293  27.012  25.213  1.00  0.00     0.038 A 
ATOM     20  C   UNL A   1      31.782  27.058  23.910  1.00  0.00     0.055 A 
ATOM     21  Br  UNL A   1      33.654  28.188  25.822  1.00  0.00    -0.049 Br
ATOM     22  Cl  UNL A   1      32.298  28.220  22.741  1.00  0.00    -0.083 Cl
ENDBRANCH  13  15
ENDBRANCH   7   9
ENDBRANCH   6   7
ENDBRANCH   5   6
ENDBRANCH   3   5
ENDBRANCH   2   3
ENDBRANCH   1   2
BRANCH   1  23
ATOM     23  C   UNL A   1      36.637  21.663  24.484  1.00  0.00     0.275 C 
BRANCH  23  24
ATOM     24  O   UNL A   1      37.191  22.053  25.752  1.00  0.00    -0.458 OA
BRANCH  24  25
ATOM     25  C   UNL A   1      38.455  21.637  25.997  1.00  0.00     0.338 C 
ATOM     26  O   UNL A   1      38.943  20.545  25.774  1.00  0.00    -0.246 OA
BRANCH  25  27
ATOM     27  C   UNL A   1      39.234  22.787  26.468  1.00  0.00     0.060 A 
ATOM     28  C   UNL A   1      38.851  24.069  26.062  1.00  0.00     0.016 A 
ATOM     29  C   UNL A   1      40.343  22.595  27.292  1.00  0.00     0.016 A 
ATOM     30  C   UNL A   1      39.567  25.178  26.501  1.00  0.00     0.010 A 
ATOM     31  C   UNL A   1      41.063  23.706  27.726  1.00  0.00     0.010 A 
ATOM     32  C   UNL A   1      40.677  25.001  27.335  1.00  0.00    -0.014 A 
BRANCH  32  33
ATOM     33  C   UNL A   1      41.476  26.158  27.789  1.00  0.00     0.031 A 
ATOM     34  C   UNL A   1      40.815  27.240  28.582  1.00  0.00     0.074 A 
ATOM     35  C   UNL A   1      42.764  26.264  27.422  1.00  0.00     0.049 A 
ATOM     36  N   UNL A   1      41.261  28.425  28.904  1.00  0.00    -0.248 NA
ATOM     37  C   UNL A   1      39.456  26.951  29.065  1.00  0.00     0.031 C 
ATOM     38  C   UNL A   1      43.511  25.254  26.672  1.00  0.00     0.029 A 
ATOM     39  N   UNL A   1      43.660  27.288  27.597  1.00  0.00    -0.354 N 
ATOM     40  C   UNL A   1      40.228  29.039  29.598  1.00  0.00     0.074 A 
ATOM     41  C   UNL A   1      39.129  28.097  29.643  1.00  0.00     0.031 C 
ATOM     42  C   UNL A   1      44.744  25.724  26.419  1.00  0.00     0.029 A 
ATOM     43  C   UNL A   1      44.851  27.083  26.946  1.00  0.00     0.049 A 
ATOM     44  H   UNL A   1      43.467  28.090  28.135  1.00  0.00     0.167 HD
ATOM     45  C   UNL A   1      40.204  30.279  30.139  1.00  0.00     0.037 A 
ATOM     46  C   UNL A   1      45.888  27.918  26.752  1.00  0.00     0.037 A 
ATOM     47  C   UNL A   1      41.312  31.198  30.090  1.00  0.00     0.049 A 
ATOM     48  C   UNL A   1      45.829  29.305  27.330  1.00  0.00     0.074 A 
ATOM     49  C   UNL A   1      41.410  32.463  30.641  1.00  0.00     0.029 A 
ATOM     50  N   UNL A   1      42.514  30.948  29.442  1.00  0.00    -0.354 N 
ATOM     51  N   UNL A   1      44.860  29.879  28.002  1.00  0.00    -0.248 NA
ATOM     52  C   UNL A   1      47.003  30.163  27.122  1.00  0.00     0.031 C 
ATOM     53  C   UNL A   1      42.652  32.998  30.284  1.00  0.00     0.029 A 
ATOM     54  C   UNL A   1      43.350  32.046  29.555  1.00  0.00     0.049 A 
ATOM     55  H   UNL A   1      42.738  30.113  28.970  1.00  0.00     0.167 HD
ATOM     56  C   UNL A   1      45.311  31.152  28.316  1.00  0.00     0.074 A 
ATOM     57  C   UNL A   1      46.647  31.268  27.764  1.00  0.00     0.031 C 
ATOM     58  C   UNL A   1      44.678  32.137  29.002  1.00  0.00     0.037 A 
BRANCH  45  59
ATOM     59  C   UNL A   1      38.925  30.724  30.784  1.00  0.00     0.064 A 
ATOM     60  C   UNL A   1      37.887  31.314  30.046  1.00  0.00     0.173 A 
ATOM     61  C   UNL A   1      38.737  30.560  32.164  1.00  0.00     0.173 A 
ATOM     62  F   UNL A   1      38.021  31.506  28.726  1.00  0.00    -0.203 F 
ATOM     63  C   UNL A   1      36.724  31.755  30.673  1.00  0.00     0.198 A 
ATOM     64  C   UNL A   1      37.561  30.976  32.784  1.00  0.00     0.198 A 
ATOM     65  F   UNL A   1      39.696  29.998  32.915  1.00  0.00    -0.203 F 
ATOM     66  F   UNL A   1      35.770  32.369  29.959  1.00  0.00    -0.200 F 
ATOM     67  C   UNL A   1      36.561  31.583  32.040  1.00  0.00     0.200 A 
ATOM     68  F   UNL A   1      37.401  30.798  34.102  1.00  0.00    -0.200 F 
ATOM     69  F   UNL A   1      35.443  32.012  32.642  1.00  0.00    -0.200 F 
ENDBRANCH  45  59
BRANCH  46  70
ATOM     70  C   UNL A   1      47.050  27.459  25.951  1.00  0.00     0.064 A 
ATOM     71  C   UNL A   1      47.092  27.648  24.564  1.00  0.00     0.173 A 
ATOM     72  C   UNL A   1      48.162  26.861  26.565  1.00  0.00     0.173 A 
ATOM     73  F   UNL A   1      46.044  28.194  23.931  1.00  0.00    -0.203 F 
ATOM     74  C   UNL A   1      48.204  27.258  23.820  1.00  0.00     0.198 A 
ATOM     75  C   UNL A   1      49.283  26.494  25.823  1.00  0.00     0.198 A 
ATOM     76  F   UNL A   1      48.170  26.659  27.890  1.00  0.00    -0.203 F 
ATOM     77  F   UNL A   1      48.210  27.428  22.491  1.00  0.00    -0.200 F 
ATOM     78  C   UNL A   1      49.301  26.691  24.451  1.00  0.00     0.200 A 
ATOM     79  F   UNL A   1      50.346  25.959  26.439  1.00  0.00    -0.200 F 
ATOM     80  F   UNL A   1      50.377  26.332  23.736  1.00  0.00    -0.200 F 
ENDBRANCH  46  70
BRANCH  58  81
ATOM     81  C   UNL A   1      45.431  33.414  29.227  1.00  0.00     0.064 A 
ATOM     82  C   UNL A   1      46.280  33.583  30.329  1.00  0.00     0.173 A 
ATOM     83  C   UNL A   1      45.352  34.455  28.289  1.00  0.00     0.173 A 
ATOM     84  F   UNL A   1      46.378  32.622  31.261  1.00  0.00    -0.203 F 
ATOM     85  C   UNL A   1      47.016  34.754  30.489  1.00  0.00     0.198 A 
ATOM     86  C   UNL A   1      46.108  35.613  28.439  1.00  0.00     0.198 A 
ATOM     87  F   UNL A   1      44.556  34.338  27.215  1.00  0.00    -0.203 F 
ATOM     88  F   UNL A   1      47.800  34.909  31.566  1.00  0.00    -0.200 F 
ATOM     89  C   UNL A   1      46.937  35.763  29.541  1.00  0.00     0.200 A 
ATOM     90  F   UNL A   1      46.040  36.581  27.515  1.00  0.00    -0.200 F 
ATOM     91  F   UNL A   1      47.659  36.883  29.690  1.00  0.00    -0.200 F 
ENDBRANCH  58  81
ENDBRANCH  32  33
ENDBRANCH  25  27
ENDBRANCH  24  25
ENDBRANCH  23  24
ENDBRANCH   1  23
TORSDOF 15
ENDMDL
MODEL 3
REMARK VINA RESULT:     -11.4      4.418      9.263
REMARK SMILES C[C@@H](CCC(=O)OCCOC(=O)c1ccc(-c2c3nc(c(-c4c(F)c(F)c(F)c(F)c4F)c4ccc([nH]4)c(-c4c(F)c(F)c(F)c(F)c4F)c4nc(c(-c5c(F)c(F)c(F)c(F)c5F)c5ccc2[nH]5)C=C4)C=C3)cc1)NC(=O)Nc1ccc(Cl)c(Br)c1
REMARK SMILES IDX 8 1 7 2 5 3 6 4 4 5 3 6 2 7 1 8 76 9 77 10 78 12 79 13 80 15
REMARK SMILES IDX 81 16 87 17 82 18 85 19 83 20 86 21 84 22 9 23 10 24 11 25
REMARK SMILES IDX 12 26 13 27 14 28 75 29 15 30 74 31 16 32 17 33 18 34 68 35
REMARK SMILES IDX 19 36 73 37 67 38 69 39 20 40 72 41 66 42 65 43 21 45 53 46
REMARK SMILES IDX 33 47 52 48 34 49 37 50 51 51 70 52 35 53 36 54 50 56 71 57
REMARK SMILES IDX 38 58 22 59 23 60 31 61 24 62 25 63 29 64 32 65 26 66 27 67
REMARK SMILES IDX 30 68 28 69 54 70 55 71 63 72 56 73 57 74 61 75 64 76 58 77
REMARK SMILES IDX 59 78 62 79 60 80 39 81 40 82 48 83 41 84 42 85 46 86 49 87
REMARK SMILES IDX 43 88 44 89 47 90 45 91
REMARK H PARENT 76 11 79 14 69 44 37 55
REMARK Flexibility Score: inf
ROOT
ATOM      1  C   UNL A   1      36.802  22.718  23.506  1.00  0.00     0.274 C 
ENDROOT
BRANCH   1   2
ATOM      2  O   UNL A   1      35.476  22.953  22.985  1.00  0.00    -0.462 OA
BRANCH   2   3
ATOM      3  C   UNL A   1      34.555  23.477  23.830  1.00  0.00     0.305 C 
ATOM      4  O   UNL A   1      34.728  24.479  24.512  1.00  0.00    -0.252 OA
BRANCH   3   5
ATOM      5  C   UNL A   1      33.293  22.643  23.910  1.00  0.00     0.125 C 
BRANCH   5   6
ATOM      6  C   UNL A   1      33.047  21.844  25.195  1.00  0.00     0.036 C 
BRANCH   6   7
ATOM      7  C   UNL A   1      32.671  22.629  26.468  1.00  0.00     0.081 C 
ATOM      8  C   UNL A   1      33.606  22.358  27.643  1.00  0.00     0.031 C 
BRANCH   7   9
ATOM      9  N   UNL A   1      31.281  22.370  26.834  1.00  0.00    -0.335 N 
ATOM     10  C   UNL A   1      30.161  23.099  26.969  1.00  0.00     0.319 C 
ATOM     11  H   UNL A   1      31.126  21.418  27.036  1.00  0.00     0.165 HD
ATOM     12  O   UNL A   1      29.206  22.581  27.554  1.00  0.00    -0.248 OA
ATOM     13  N   UNL A   1      30.080  24.396  26.612  1.00  0.00    -0.308 N 
ATOM     14  H   UNL A   1      29.376  24.903  27.077  1.00  0.00     0.171 HD
BRANCH  13  15
ATOM     15  C   UNL A   1      30.819  25.146  25.696  1.00  0.00     0.044 A 
ATOM     16  C   UNL A   1      30.555  24.942  24.343  1.00  0.00     0.028 A 
ATOM     17  C   UNL A   1      31.770  26.088  26.093  1.00  0.00     0.043 A 
ATOM     18  C   UNL A   1      31.130  25.784  23.393  1.00  0.00     0.024 A 
ATOM     19  C   UNL A   1      32.362  26.924  25.139  1.00  0.00     0.038 A 
ATOM     20  C   UNL A   1      32.017  26.791  23.789  1.00  0.00     0.055 A 
ATOM     21  Br  UNL A   1      33.574  28.245  25.763  1.00  0.00    -0.049 Br
ATOM     22  Cl  UNL A   1      32.617  27.847  22.560  1.00  0.00    -0.083 Cl
ENDBRANCH  13  15
ENDBRANCH   7   9
ENDBRANCH   6   7
ENDBRANCH   5   6
ENDBRANCH   3   5
ENDBRANCH   2   3
ENDBRANCH   1   2
BRANCH   1  23
ATOM     23  C   UNL A   1      36.802  21.610  24.564  1.00  0.00     0.275 C 
BRANCH  23  24
ATOM     24  O   UNL A   1      37.359  22.083  25.803  1.00  0.00    -0.458 OA
BRANCH  24  25
ATOM     25  C   UNL A   1      38.631  21.704  26.061  1.00  0.00     0.338 C 
ATOM     26  O   UNL A   1      39.159  20.632  25.829  1.00  0.00    -0.246 OA
BRANCH  25  27
ATOM     27  C   UNL A   1      39.366  22.871  26.561  1.00  0.00     0.060 A 
ATOM     28  C   UNL A   1      39.022  24.138  26.079  1.00  0.00     0.016 A 
ATOM     29  C   UNL A   1      40.396  22.711  27.488  1.00  0.00     0.016 A 
ATOM     30  C   UNL A   1      39.696  25.264  26.542  1.00  0.00     0.010 A 
ATOM     31  C   UNL A   1      41.075  23.837  27.947  1.00  0.00     0.010 A 
ATOM     32  C   UNL A   1      40.726  25.117  27.479  1.00  0.00    -0.014 A 
BRANCH  32  33
ATOM     33  C   UNL A   1      41.482  26.291  27.963  1.00  0.00     0.031 A 
ATOM     34  C   UNL A   1      40.757  27.382  28.685  1.00  0.00     0.074 A 
ATOM     35  C   UNL A   1      42.792  26.402  27.685  1.00  0.00     0.049 A 
ATOM     36  N   UNL A   1      41.170  28.578  29.013  1.00  0.00    -0.248 NA
ATOM     37  C   UNL A   1      39.370  27.090  29.078  1.00  0.00     0.031 C 
ATOM     38  C   UNL A   1      43.597  25.384  27.011  1.00  0.00     0.029 A 
ATOM     39  N   UNL A   1      43.664  27.439  27.901  1.00  0.00    -0.354 N 
ATOM     40  C   UNL A   1      40.085  29.195  29.620  1.00  0.00     0.074 A 
ATOM     41  C   UNL A   1      38.994  28.244  29.608  1.00  0.00     0.031 C 
ATOM     42  C   UNL A   1      44.841  25.861  26.835  1.00  0.00     0.029 A 
ATOM     43  C   UNL A   1      44.899  27.232  27.339  1.00  0.00     0.049 A 
ATOM     44  H   UNL A   1      43.427  28.249  28.408  1.00  0.00     0.167 HD
ATOM     45  C   UNL A   1      40.013  30.446  30.132  1.00  0.00     0.037 A 
ATOM     46  C   UNL A   1      45.941  28.073  27.202  1.00  0.00     0.037 A 
ATOM     47  C   UNL A   1      41.114  31.375  30.142  1.00  0.00     0.049 A 
ATOM     48  C   UNL A   1      45.829  29.471  27.745  1.00  0.00     0.074 A 
ATOM     49  C   UNL A   1      41.163  32.651  30.672  1.00  0.00     0.029 A 
ATOM     50  N   UNL A   1      42.360  31.123  29.584  1.00  0.00    -0.354 N 
ATOM     51  N   UNL A   1      44.811  30.048  28.335  1.00  0.00    -0.248 NA
ATOM     52  C   UNL A   1      47.008  30.336  27.602  1.00  0.00     0.031 C 
ATOM     53  C   UNL A   1      42.423  33.191  30.391  1.00  0.00     0.029 A 
ATOM     54  C   UNL A   1      43.177  32.232  29.733  1.00  0.00     0.049 A 
ATOM     55  H   UNL A   1      42.624  30.281  29.147  1.00  0.00     0.167 HD
ATOM     56  C   UNL A   1      45.228  31.333  28.653  1.00  0.00     0.074 A 
ATOM     57  C   UNL A   1      46.598  31.449  28.194  1.00  0.00     0.031 C 
ATOM     58  C   UNL A   1      44.541  32.324  29.272  1.00  0.00     0.037 A 
BRANCH  45  59
ATOM     59  C   UNL A   1      38.688  30.891  30.676  1.00  0.00     0.064 A 
ATOM     60  C   UNL A   1      38.410  30.886  32.051  1.00  0.00     0.173 A 
ATOM     61  C   UNL A   1      37.679  31.327  29.804  1.00  0.00     0.173 A 
ATOM     62  F   UNL A   1      39.335  30.465  32.926  1.00  0.00    -0.203 F 
ATOM     63  C   UNL A   1      37.157  31.266  32.530  1.00  0.00     0.198 A 
ATOM     64  C   UNL A   1      36.438  31.734  30.288  1.00  0.00     0.198 A 
ATOM     65  F   UNL A   1      37.894  31.356  28.481  1.00  0.00    -0.203 F 
ATOM     66  F   UNL A   1      36.894  31.197  33.842  1.00  0.00    -0.200 F 
ATOM     67  C   UNL A   1      36.175  31.692  31.649  1.00  0.00     0.200 A 
ATOM     68  F   UNL A   1      35.494  32.156  29.436  1.00  0.00    -0.200 F 
ATOM     69  F   UNL A   1      34.970  32.054  32.110  1.00  0.00    -0.200 F 
ENDBRANCH  45  59
BRANCH  46  70
ATOM     70  C   UNL A   1      47.159  27.609  26.493  1.00  0.00     0.064 A 
ATOM     71  C   UNL A   1      48.221  27.020  27.190  1.00  0.00     0.173 A 
ATOM     72  C   UNL A   1      47.265  27.705  25.096  1.00  0.00     0.173 A 
ATOM     73  F   UNL A   1      48.175  26.927  28.527  1.00  0.00    -0.203 F 
ATOM     74  C   UNL A   1      49.345  26.543  26.517  1.00  0.00     0.198 A 
ATOM     75  C   UNL A   1      48.378  27.205  24.423  1.00  0.00     0.198 A 
ATOM     76  F   UNL A   1      46.274  28.259  24.385  1.00  0.00    -0.203 F 
ATOM     77  F   UNL A   1      50.359  26.005  27.209  1.00  0.00    -0.200 F 
ATOM     78  C   UNL A   1      49.418  26.627  25.135  1.00  0.00     0.200 A 
ATOM     79  F   UNL A   1      48.437  27.276  23.086  1.00  0.00    -0.200 F 
ATOM     80  F   UNL A   1      50.491  26.152  24.487  1.00  0.00    -0.200 F 
ENDBRANCH  46  70
BRANCH  58  81
ATOM     81  C   UNL A   1      45.265  33.613  29.523  1.00  0.00     0.064 A 
ATOM     82  C   UNL A   1      45.215  34.675  28.610  1.00  0.00     0.173 A 
ATOM     83  C   UNL A   1      45.963  33.808  30.725  1.00  0.00     0.173 A 
ATOM     84  F   UNL A   1      44.574  34.531  27.440  1.00  0.00    -0.203 F 
ATOM     85  C   UNL A   1      45.846  35.885  28.888  1.00  0.00     0.198 A 
ATOM     86  C   UNL A   1      46.570  35.027  31.011  1.00  0.00     0.198 A 
ATOM     87  F   UNL A   1      46.036  32.822  31.633  1.00  0.00    -0.203 F 
ATOM     88  F   UNL A   1      45.812  36.879  27.989  1.00  0.00    -0.200 F 
ATOM     89  C   UNL A   1      46.514  36.063  30.091  1.00  0.00     0.200 A 
ATOM     90  F   UNL A   1      47.205  35.201  32.178  1.00  0.00    -0.200 F 
ATOM     91  F   UNL A   1      47.108  37.234  30.362  1.00  0.00    -0.200 F 
ENDBRANCH  58  81
ENDBRANCH  32  33
ENDBRANCH  25  27
ENDBRANCH  24  25
ENDBRANCH  23  24
ENDBRANCH   1  23
TORSDOF 15
ENDMDL
