MODEL 1
REMARK VINA RESULT:     -10.9      0.000      0.000
REMARK SMILES CCN(c1ccnc(C(=O)OCCOC(=O)c2ccc(-c3c4nc(c(-c5c(F)c(F)c(F)c(F)c5F)c5ccc([nH]5)c(-c5c(F)c(F)c(F)c(F)c5F)c5nc(c(-c6c(F)c(F)c(F)c(F)c6F)c6ccc3[nH]6)C=C5)C=C4)cc2)c1)S(=O)(=O)c1ccccc1
REMARK SMILES IDX 12 1 11 2 9 3 10 4 8 5 4 6 5 7 80 8 6 9 7 10 3 11 2 12 1 13
REMARK SMILES IDX 81 14 82 15 83 16 84 17 85 18 89 19 86 20 88 21 87 22 13 23
REMARK SMILES IDX 14 24 15 25 16 26 17 27 18 28 79 29 19 30 78 31 20 32 21 33
REMARK SMILES IDX 22 34 72 35 23 36 77 37 71 38 73 39 24 40 76 41 70 42 69 43
REMARK SMILES IDX 25 45 57 46 37 47 56 48 38 49 41 50 55 51 74 52 39 53 40 54
REMARK SMILES IDX 54 56 75 57 42 58 26 59 27 60 35 61 28 62 29 63 33 64 36 65
REMARK SMILES IDX 30 66 31 67 34 68 32 69 58 70 59 71 67 72 60 73 61 74 65 75
REMARK SMILES IDX 68 76 62 77 63 78 66 79 64 80 43 81 44 82 52 83 45 84 46 85
REMARK SMILES IDX 50 86 53 87 47 88 48 89 51 90 49 91
REMARK H PARENT 73 44 41 55
REMARK Flexibility Score: inf
ROOT
ATOM      1  C   UNL A   1      33.413  33.957  27.869  1.00  0.00     0.275 C 
ENDROOT
BRANCH   1   2
ATOM      2  O   UNL A   1      32.728  34.292  29.090  1.00  0.00    -0.457 OA
BRANCH   2   3
ATOM      3  C   UNL A   1      32.765  35.606  29.454  1.00  0.00     0.357 C 
ATOM      4  O   UNL A   1      32.339  36.531  28.789  1.00  0.00    -0.244 OA
BRANCH   3   5
ATOM      5  C   UNL A   1      33.379  35.765  30.817  1.00  0.00     0.150 A 
ATOM      6  C   UNL A   1      35.002  35.192  32.461  1.00  0.00     0.056 A 
ATOM      7  C   UNL A   1      34.666  36.338  33.173  1.00  0.00     0.047 A 
ATOM      8  C   UNL A   1      34.305  34.862  31.302  1.00  0.00     0.063 A 
ATOM      9  C   UNL A   1      33.646  37.127  32.675  1.00  0.00     0.114 A 
ATOM     10  N   UNL A   1      33.023  36.885  31.504  1.00  0.00    -0.249 NA
BRANCH   6  11
ATOM     11  N   UNL A   1      36.186  34.417  32.747  1.00  0.00    -0.266 N 
BRANCH  11  12
ATOM     12  C   UNL A   1      37.175  34.322  31.623  1.00  0.00     0.132 C 
ATOM     13  C   UNL A   1      38.591  34.532  32.124  1.00  0.00     0.028 C 
ENDBRANCH  11  12
BRANCH  11  14
ATOM     14  S   UNL A   1      35.863  32.864  33.479  1.00  0.00     0.264 S 
ATOM     15  O   UNL A   1      34.636  32.997  34.240  1.00  0.00    -0.201 OA
ATOM     16  O   UNL A   1      35.986  31.854  32.448  1.00  0.00    -0.201 OA
BRANCH  14  17
ATOM     17  C   UNL A   1      37.184  32.586  34.649  1.00  0.00     0.088 A 
ATOM     18  C   UNL A   1      37.946  31.413  34.593  1.00  0.00     0.022 A 
ATOM     19  C   UNL A   1      37.463  33.567  35.609  1.00  0.00     0.022 A 
ATOM     20  C   UNL A   1      39.035  31.263  35.456  1.00  0.00     0.001 A 
ATOM     21  C   UNL A   1      38.538  33.398  36.480  1.00  0.00     0.001 A 
ATOM     22  C   UNL A   1      39.332  32.255  36.392  1.00  0.00     0.000 A 
ENDBRANCH  14  17
ENDBRANCH  11  14
ENDBRANCH   6  11
ENDBRANCH   3   5
ENDBRANCH   2   3
ENDBRANCH   1   2
BRANCH   1  23
ATOM     23  C   UNL A   1      34.642  33.079  28.128  1.00  0.00     0.275 C 
BRANCH  23  24
ATOM     24  O   UNL A   1      34.290  31.829  28.749  1.00  0.00    -0.458 OA
BRANCH  24  25
ATOM     25  C   UNL A   1      34.529  30.729  27.998  1.00  0.00     0.338 C 
ATOM     26  O   UNL A   1      33.829  30.276  27.104  1.00  0.00    -0.246 OA
BRANCH  25  27
ATOM     27  C   UNL A   1      35.875  30.216  28.288  1.00  0.00     0.060 A 
ATOM     28  C   UNL A   1      36.094  29.672  29.554  1.00  0.00     0.016 A 
ATOM     29  C   UNL A   1      36.924  30.322  27.375  1.00  0.00     0.016 A 
ATOM     30  C   UNL A   1      37.353  29.219  29.920  1.00  0.00     0.010 A 
ATOM     31  C   UNL A   1      38.197  29.870  27.743  1.00  0.00     0.010 A 
ATOM     32  C   UNL A   1      38.416  29.320  29.021  1.00  0.00    -0.014 A 
BRANCH  32  33
ATOM     33  C   UNL A   1      39.767  28.903  29.460  1.00  0.00     0.031 A 
ATOM     34  C   UNL A   1      40.522  29.750  30.440  1.00  0.00     0.074 A 
ATOM     35  C   UNL A   1      40.283  27.738  29.026  1.00  0.00     0.049 A 
ATOM     36  N   UNL A   1      41.744  29.613  30.886  1.00  0.00    -0.248 NA
ATOM     37  C   UNL A   1      39.802  30.907  30.995  1.00  0.00     0.031 C 
ATOM     38  C   UNL A   1      39.605  26.798  28.134  1.00  0.00     0.029 A 
ATOM     39  N   UNL A   1      41.493  27.147  29.282  1.00  0.00    -0.354 N 
ATOM     40  C   UNL A   1      41.951  30.680  31.748  1.00  0.00     0.074 A 
ATOM     41  C   UNL A   1      40.732  31.461  31.760  1.00  0.00     0.031 C 
ATOM     42  C   UNL A   1      40.409  25.743  27.921  1.00  0.00     0.029 A 
ATOM     43  C   UNL A   1      41.674  25.962  28.614  1.00  0.00     0.049 A 
ATOM     44  H   UNL A   1      42.166  27.534  29.888  1.00  0.00     0.167 HD
ATOM     45  C   UNL A   1      43.063  30.979  32.460  1.00  0.00     0.037 A 
ATOM     46  C   UNL A   1      42.756  25.163  28.541  1.00  0.00     0.037 A 
ATOM     47  C   UNL A   1      44.261  30.180  32.461  1.00  0.00     0.049 A 
ATOM     48  C   UNL A   1      44.000  25.551  29.293  1.00  0.00     0.074 A 
ATOM     49  C   UNL A   1      45.440  30.389  33.153  1.00  0.00     0.029 A 
ATOM     50  N   UNL A   1      44.428  29.012  31.730  1.00  0.00    -0.354 N 
ATOM     51  N   UNL A   1      44.205  26.580  30.080  1.00  0.00    -0.248 NA
ATOM     52  C   UNL A   1      45.170  24.675  29.134  1.00  0.00     0.031 C 
ATOM     53  C   UNL A   1      46.336  29.371  32.809  1.00  0.00     0.029 A 
ATOM     54  C   UNL A   1      45.700  28.501  31.937  1.00  0.00     0.049 A 
ATOM     55  H   UNL A   1      43.744  28.607  31.148  1.00  0.00     0.167 HD
ATOM     56  C   UNL A   1      45.517  26.471  30.518  1.00  0.00     0.074 A 
ATOM     57  C   UNL A   1      46.055  25.264  29.926  1.00  0.00     0.031 C 
ATOM     58  C   UNL A   1      46.215  27.299  31.334  1.00  0.00     0.037 A 
BRANCH  45  59
ATOM     59  C   UNL A   1      43.049  32.245  33.265  1.00  0.00     0.064 A 
ATOM     60  C   UNL A   1      42.712  32.256  34.626  1.00  0.00     0.173 A 
ATOM     61  C   UNL A   1      43.396  33.463  32.663  1.00  0.00     0.173 A 
ATOM     62  F   UNL A   1      42.356  31.119  35.243  1.00  0.00    -0.203 F 
ATOM     63  C   UNL A   1      42.700  33.447  35.349  1.00  0.00     0.198 A 
ATOM     64  C   UNL A   1      43.408  34.647  33.396  1.00  0.00     0.198 A 
ATOM     65  F   UNL A   1      43.728  33.506  31.364  1.00  0.00    -0.203 F 
ATOM     66  F   UNL A   1      42.330  33.442  36.638  1.00  0.00    -0.200 F 
ATOM     67  C   UNL A   1      43.054  34.639  34.736  1.00  0.00     0.200 A 
ATOM     68  F   UNL A   1      43.759  35.798  32.803  1.00  0.00    -0.200 F 
ATOM     69  F   UNL A   1      43.044  35.783  35.434  1.00  0.00    -0.200 F 
ENDBRANCH  45  59
BRANCH  46  70
ATOM     70  C   UNL A   1      42.716  23.942  27.697  1.00  0.00     0.064 A 
ATOM     71  C   UNL A   1      42.385  22.695  28.242  1.00  0.00     0.173 A 
ATOM     72  C   UNL A   1      43.003  24.000  26.324  1.00  0.00     0.173 A 
ATOM     73  F   UNL A   1      42.130  22.584  29.554  1.00  0.00    -0.203 F 
ATOM     74  C   UNL A   1      42.349  21.551  27.447  1.00  0.00     0.198 A 
ATOM     75  C   UNL A   1      42.940  22.861  25.526  1.00  0.00     0.198 A 
ATOM     76  F   UNL A   1      43.333  25.170  25.756  1.00  0.00    -0.203 F 
ATOM     77  F   UNL A   1      42.066  20.363  27.999  1.00  0.00    -0.200 F 
ATOM     78  C   UNL A   1      42.617  21.636  26.089  1.00  0.00     0.200 A 
ATOM     79  F   UNL A   1      43.190  22.951  24.213  1.00  0.00    -0.200 F 
ATOM     80  F   UNL A   1      42.575  20.536  25.324  1.00  0.00    -0.200 F 
ENDBRANCH  46  70
BRANCH  58  81
ATOM     81  C   UNL A   1      47.630  26.915  31.645  1.00  0.00     0.064 A 
ATOM     82  C   UNL A   1      47.937  26.037  32.694  1.00  0.00     0.173 A 
ATOM     83  C   UNL A   1      48.687  27.402  30.861  1.00  0.00     0.173 A 
ATOM     84  F   UNL A   1      46.961  25.560  33.481  1.00  0.00    -0.203 F 
ATOM     85  C   UNL A   1      49.255  25.674  32.959  1.00  0.00     0.198 A 
ATOM     86  C   UNL A   1      50.000  27.016  31.112  1.00  0.00     0.198 A 
ATOM     87  F   UNL A   1      48.443  28.240  29.843  1.00  0.00    -0.203 F 
ATOM     88  F   UNL A   1      49.530  24.866  33.992  1.00  0.00    -0.200 F 
ATOM     89  C   UNL A   1      50.284  26.158  32.165  1.00  0.00     0.200 A 
ATOM     90  F   UNL A   1      50.992  27.476  30.338  1.00  0.00    -0.200 F 
ATOM     91  F   UNL A   1      51.551  25.803  32.418  1.00  0.00    -0.200 F 
ENDBRANCH  58  81
ENDBRANCH  32  33
ENDBRANCH  25  27
ENDBRANCH  24  25
ENDBRANCH  23  24
ENDBRANCH   1  23
TORSDOF 15
ENDMDL
MODEL 2
REMARK VINA RESULT:     -10.8      0.402      2.055
REMARK SMILES CCN(c1ccnc(C(=O)OCCOC(=O)c2ccc(-c3c4nc(c(-c5c(F)c(F)c(F)c(F)c5F)c5ccc([nH]5)c(-c5c(F)c(F)c(F)c(F)c5F)c5nc(c(-c6c(F)c(F)c(F)c(F)c6F)c6ccc3[nH]6)C=C5)C=C4)cc2)c1)S(=O)(=O)c1ccccc1
REMARK SMILES IDX 12 1 11 2 9 3 10 4 8 5 4 6 5 7 80 8 6 9 7 10 3 11 2 12 1 13
REMARK SMILES IDX 81 14 82 15 83 16 84 17 85 18 89 19 86 20 88 21 87 22 13 23
REMARK SMILES IDX 14 24 15 25 16 26 17 27 18 28 79 29 19 30 78 31 20 32 21 33
REMARK SMILES IDX 22 34 72 35 23 36 77 37 71 38 73 39 24 40 76 41 70 42 69 43
REMARK SMILES IDX 25 45 57 46 37 47 56 48 38 49 41 50 55 51 74 52 39 53 40 54
REMARK SMILES IDX 54 56 75 57 42 58 26 59 27 60 35 61 28 62 29 63 33 64 36 65
REMARK SMILES IDX 30 66 31 67 34 68 32 69 58 70 59 71 67 72 60 73 61 74 65 75
REMARK SMILES IDX 68 76 62 77 63 78 66 79 64 80 43 81 44 82 52 83 45 84 46 85
REMARK SMILES IDX 50 86 53 87 47 88 48 89 51 90 49 91
REMARK H PARENT 73 44 41 55
REMARK Flexibility Score: inf
ROOT
ATOM      1  C   UNL A   1      33.333  34.111  27.971  1.00  0.00     0.275 C 
ENDROOT
BRANCH   1   2
ATOM      2  O   UNL A   1      32.528  34.767  28.967  1.00  0.00    -0.457 OA
BRANCH   2   3
ATOM      3  C   UNL A   1      32.917  36.027  29.315  1.00  0.00     0.357 C 
ATOM      4  O   UNL A   1      32.871  37.002  28.590  1.00  0.00    -0.244 OA
BRANCH   3   5
ATOM      5  C   UNL A   1      33.388  36.065  30.743  1.00  0.00     0.150 A 
ATOM      6  C   UNL A   1      34.857  35.370  32.481  1.00  0.00     0.056 A 
ATOM      7  C   UNL A   1      34.416  36.432  33.261  1.00  0.00     0.047 A 
ATOM      8  C   UNL A   1      34.289  35.139  31.231  1.00  0.00     0.063 A 
ATOM      9  C   UNL A   1      33.427  37.244  32.740  1.00  0.00     0.114 A 
ATOM     10  N   UNL A   1      32.930  37.105  31.493  1.00  0.00    -0.249 NA
BRANCH   6  11
ATOM     11  N   UNL A   1      36.030  34.595  32.811  1.00  0.00    -0.266 N 
BRANCH  11  12
ATOM     12  C   UNL A   1      37.100  34.575  31.758  1.00  0.00     0.132 C 
ATOM     13  C   UNL A   1      38.481  34.578  32.385  1.00  0.00     0.028 C 
ENDBRANCH  11  12
BRANCH  11  14
ATOM     14  S   UNL A   1      35.683  33.001  33.434  1.00  0.00     0.264 S 
ATOM     15  O   UNL A   1      34.404  33.077  34.113  1.00  0.00    -0.201 OA
ATOM     16  O   UNL A   1      35.892  32.051  32.360  1.00  0.00    -0.201 OA
BRANCH  14  17
ATOM     17  C   UNL A   1      36.925  32.675  34.675  1.00  0.00     0.088 A 
ATOM     18  C   UNL A   1      37.028  33.493  35.806  1.00  0.00     0.022 A 
ATOM     19  C   UNL A   1      37.780  31.578  34.513  1.00  0.00     0.022 A 
ATOM     20  C   UNL A   1      37.943  33.160  36.810  1.00  0.00     0.001 A 
ATOM     21  C   UNL A   1      38.704  31.267  35.508  1.00  0.00     0.001 A 
ATOM     22  C   UNL A   1      38.774  32.048  36.663  1.00  0.00     0.000 A 
ENDBRANCH  14  17
ENDBRANCH  11  14
ENDBRANCH   6  11
ENDBRANCH   3   5
ENDBRANCH   2   3
ENDBRANCH   1   2
BRANCH   1  23
ATOM     23  C   UNL A   1      34.031  32.868  28.533  1.00  0.00     0.275 C 
BRANCH  23  24
ATOM     24  O   UNL A   1      34.504  31.997  27.489  1.00  0.00    -0.458 OA
BRANCH  24  25
ATOM     25  C   UNL A   1      34.415  30.675  27.762  1.00  0.00     0.338 C 
ATOM     26  O   UNL A   1      33.438  29.954  27.623  1.00  0.00    -0.246 OA
BRANCH  25  27
ATOM     27  C   UNL A   1      35.745  30.151  28.108  1.00  0.00     0.060 A 
ATOM     28  C   UNL A   1      35.929  29.680  29.408  1.00  0.00     0.016 A 
ATOM     29  C   UNL A   1      36.811  30.180  27.210  1.00  0.00     0.016 A 
ATOM     30  C   UNL A   1      37.171  29.222  29.824  1.00  0.00     0.010 A 
ATOM     31  C   UNL A   1      38.067  29.723  27.628  1.00  0.00     0.010 A 
ATOM     32  C   UNL A   1      38.252  29.246  28.940  1.00  0.00    -0.014 A 
BRANCH  32  33
ATOM     33  C   UNL A   1      39.585  28.827  29.428  1.00  0.00     0.031 A 
ATOM     34  C   UNL A   1      40.295  29.661  30.451  1.00  0.00     0.074 A 
ATOM     35  C   UNL A   1      40.123  27.671  28.998  1.00  0.00     0.049 A 
ATOM     36  N   UNL A   1      41.498  29.522  30.946  1.00  0.00    -0.248 NA
ATOM     37  C   UNL A   1      39.548  30.807  30.994  1.00  0.00     0.031 C 
ATOM     38  C   UNL A   1      39.487  26.742  28.064  1.00  0.00     0.029 A 
ATOM     39  N   UNL A   1      41.324  27.080  29.295  1.00  0.00    -0.354 N 
ATOM     40  C   UNL A   1      41.665  30.577  31.831  1.00  0.00     0.074 A 
ATOM     41  C   UNL A   1      40.443  31.352  31.805  1.00  0.00     0.031 C 
ATOM     42  C   UNL A   1      40.303  25.694  27.869  1.00  0.00     0.029 A 
ATOM     43  C   UNL A   1      41.538  25.907  28.617  1.00  0.00     0.049 A 
ATOM     44  H   UNL A   1      41.970  27.460  29.934  1.00  0.00     0.167 HD
ATOM     45  C   UNL A   1      42.745  30.868  32.594  1.00  0.00     0.037 A 
ATOM     46  C   UNL A   1      42.625  25.113  28.577  1.00  0.00     0.037 A 
ATOM     47  C   UNL A   1      43.945  30.073  32.632  1.00  0.00     0.049 A 
ATOM     48  C   UNL A   1      43.836  25.493  29.385  1.00  0.00     0.074 A 
ATOM     49  C   UNL A   1      45.093  30.276  33.376  1.00  0.00     0.029 A 
ATOM     50  N   UNL A   1      44.147  28.918  31.891  1.00  0.00    -0.354 N 
ATOM     51  N   UNL A   1      44.003  26.510  30.195  1.00  0.00    -0.248 NA
ATOM     52  C   UNL A   1      45.014  24.624  29.261  1.00  0.00     0.031 C 
ATOM     53  C   UNL A   1      46.007  29.266  33.054  1.00  0.00     0.029 A 
ATOM     54  C   UNL A   1      45.411  28.408  32.142  1.00  0.00     0.049 A 
ATOM     55  H   UNL A   1      43.490  28.519  31.275  1.00  0.00     0.167 HD
ATOM     56  C   UNL A   1      45.296  26.400  30.686  1.00  0.00     0.074 A 
ATOM     57  C   UNL A   1      45.864  25.204  30.098  1.00  0.00     0.031 C 
ATOM     58  C   UNL A   1      45.956  27.217  31.543  1.00  0.00     0.037 A 
BRANCH  45  59
ATOM     59  C   UNL A   1      42.692  32.121  33.416  1.00  0.00     0.064 A 
ATOM     60  C   UNL A   1      42.998  33.378  32.876  1.00  0.00     0.173 A 
ATOM     61  C   UNL A   1      42.311  32.061  34.765  1.00  0.00     0.173 A 
ATOM     62  F   UNL A   1      43.385  33.487  31.596  1.00  0.00    -0.203 F 
ATOM     63  C   UNL A   1      42.947  34.527  33.663  1.00  0.00     0.198 A 
ATOM     64  C   UNL A   1      42.236  33.214  35.542  1.00  0.00     0.198 A 
ATOM     65  F   UNL A   1      42.007  30.882  35.330  1.00  0.00    -0.203 F 
ATOM     66  F   UNL A   1      43.288  35.712  33.138  1.00  0.00    -0.200 F 
ATOM     67  C   UNL A   1      42.561  34.444  34.992  1.00  0.00     0.200 A 
ATOM     68  F   UNL A   1      41.855  33.133  36.825  1.00  0.00    -0.200 F 
ATOM     69  F   UNL A   1      42.511  35.551  35.747  1.00  0.00    -0.200 F 
ENDBRANCH  45  59
BRANCH  46  70
ATOM     70  C   UNL A   1      42.625  23.905  27.713  1.00  0.00     0.064 A 
ATOM     71  C   UNL A   1      42.993  23.981  26.363  1.00  0.00     0.173 A 
ATOM     72  C   UNL A   1      42.263  22.648  28.221  1.00  0.00     0.173 A 
ATOM     73  F   UNL A   1      43.321  25.164  25.823  1.00  0.00    -0.203 F 
ATOM     74  C   UNL A   1      42.993  22.846  25.553  1.00  0.00     0.198 A 
ATOM     75  C   UNL A   1      42.289  21.511  27.419  1.00  0.00     0.198 A 
ATOM     76  F   UNL A   1      41.896  22.525  29.506  1.00  0.00    -0.203 F 
ATOM     77  F   UNL A   1      43.313  22.951  24.257  1.00  0.00    -0.200 F 
ATOM     78  C   UNL A   1      42.650  21.611  26.084  1.00  0.00     0.200 A 
ATOM     79  F   UNL A   1      41.967  20.319  27.939  1.00  0.00    -0.200 F 
ATOM     80  F   UNL A   1      42.657  20.520  25.306  1.00  0.00    -0.200 F 
ENDBRANCH  46  70
BRANCH  58  81
ATOM     81  C   UNL A   1      47.358  26.834  31.906  1.00  0.00     0.064 A 
ATOM     82  C   UNL A   1      48.461  27.331  31.196  1.00  0.00     0.173 A 
ATOM     83  C   UNL A   1      47.605  25.991  33.001  1.00  0.00     0.173 A 
ATOM     84  F   UNL A   1      48.274  28.127  30.132  1.00  0.00    -0.203 F 
ATOM     85  C   UNL A   1      49.760  26.981  31.556  1.00  0.00     0.198 A 
ATOM     86  C   UNL A   1      48.905  25.666  33.374  1.00  0.00     0.198 A 
ATOM     87  F   UNL A   1      46.584  25.495  33.714  1.00  0.00    -0.203 F 
ATOM     88  F   UNL A   1      50.797  27.435  30.838  1.00  0.00    -0.200 F 
ATOM     89  C   UNL A   1      49.981  26.156  32.649  1.00  0.00     0.200 A 
ATOM     90  F   UNL A   1      49.118  24.875  34.435  1.00  0.00    -0.200 F 
ATOM     91  F   UNL A   1      51.232  25.825  32.997  1.00  0.00    -0.200 F 
ENDBRANCH  58  81
ENDBRANCH  32  33
ENDBRANCH  25  27
ENDBRANCH  24  25
ENDBRANCH  23  24
ENDBRANCH   1  23
TORSDOF 15
ENDMDL
MODEL 3
REMARK VINA RESULT:     -10.7      0.869      2.384
REMARK SMILES CCN(c1ccnc(C(=O)OCCOC(=O)c2ccc(-c3c4nc(c(-c5c(F)c(F)c(F)c(F)c5F)c5ccc([nH]5)c(-c5c(F)c(F)c(F)c(F)c5F)c5nc(c(-c6c(F)c(F)c(F)c(F)c6F)c6ccc3[nH]6)C=C5)C=C4)cc2)c1)S(=O)(=O)c1ccccc1
REMARK SMILES IDX 12 1 11 2 9 3 10 4 8 5 4 6 5 7 80 8 6 9 7 10 3 11 2 12 1 13
REMARK SMILES IDX 81 14 82 15 83 16 84 17 85 18 89 19 86 20 88 21 87 22 13 23
REMARK SMILES IDX 14 24 15 25 16 26 17 27 18 28 79 29 19 30 78 31 20 32 21 33
REMARK SMILES IDX 22 34 72 35 23 36 77 37 71 38 73 39 24 40 76 41 70 42 69 43
REMARK SMILES IDX 25 45 57 46 37 47 56 48 38 49 41 50 55 51 74 52 39 53 40 54
REMARK SMILES IDX 54 56 75 57 42 58 26 59 27 60 35 61 28 62 29 63 33 64 36 65
REMARK SMILES IDX 30 66 31 67 34 68 32 69 58 70 59 71 67 72 60 73 61 74 65 75
REMARK SMILES IDX 68 76 62 77 63 78 66 79 64 80 43 81 44 82 52 83 45 84 46 85
REMARK SMILES IDX 50 86 53 87 47 88 48 89 51 90 49 91
REMARK H PARENT 73 44 41 55
REMARK Flexibility Score: inf
ROOT
ATOM      1  C   UNL A   1      33.365  33.933  28.028  1.00  0.00     0.275 C 
ENDROOT
BRANCH   1   2
ATOM      2  O   UNL A   1      32.605  34.502  29.110  1.00  0.00    -0.457 OA
BRANCH   2   3
ATOM      3  C   UNL A   1      32.904  35.791  29.438  1.00  0.00     0.357 C 
ATOM      4  O   UNL A   1      32.818  36.744  28.688  1.00  0.00    -0.244 OA
BRANCH   3   5
ATOM      5  C   UNL A   1      33.332  35.891  30.876  1.00  0.00     0.150 A 
ATOM      6  C   UNL A   1      34.399  35.002  32.809  1.00  0.00     0.056 A 
ATOM      7  C   UNL A   1      34.384  36.267  33.384  1.00  0.00     0.047 A 
ATOM      8  C   UNL A   1      33.805  34.793  31.567  1.00  0.00     0.063 A 
ATOM      9  C   UNL A   1      33.786  37.289  32.670  1.00  0.00     0.114 A 
ATOM     10  N   UNL A   1      33.293  37.137  31.423  1.00  0.00    -0.249 NA
BRANCH   6  11
ATOM     11  N   UNL A   1      35.184  33.914  33.342  1.00  0.00    -0.266 N 
BRANCH  11  12
ATOM     12  C   UNL A   1      36.369  34.324  34.166  1.00  0.00     0.132 C 
ATOM     13  C   UNL A   1      36.240  33.828  35.593  1.00  0.00     0.028 C 
ENDBRANCH  11  12
BRANCH  11  14
ATOM     14  S   UNL A   1      35.585  32.681  32.172  1.00  0.00     0.264 S 
ATOM     15  O   UNL A   1      36.226  31.599  32.895  1.00  0.00    -0.201 OA
ATOM     16  O   UNL A   1      34.405  32.433  31.368  1.00  0.00    -0.201 OA
BRANCH  14  17
ATOM     17  C   UNL A   1      36.814  33.403  31.096  1.00  0.00     0.088 A 
ATOM     18  C   UNL A   1      37.900  34.105  31.631  1.00  0.00     0.022 A 
ATOM     19  C   UNL A   1      36.688  33.238  29.711  1.00  0.00     0.022 A 
ATOM     20  C   UNL A   1      38.898  34.577  30.774  1.00  0.00     0.001 A 
ATOM     21  C   UNL A   1      37.678  33.731  28.862  1.00  0.00     0.001 A 
ATOM     22  C   UNL A   1      38.790  34.385  29.396  1.00  0.00     0.000 A 
ENDBRANCH  14  17
ENDBRANCH  11  14
ENDBRANCH   6  11
ENDBRANCH   3   5
ENDBRANCH   2   3
ENDBRANCH   1   2
BRANCH   1  23
ATOM     23  C   UNL A   1      33.261  32.404  28.002  1.00  0.00     0.275 C 
BRANCH  23  24
ATOM     24  O   UNL A   1      34.436  31.795  27.436  1.00  0.00    -0.458 OA
BRANCH  24  25
ATOM     25  C   UNL A   1      34.529  30.457  27.617  1.00  0.00     0.338 C 
ATOM     26  O   UNL A   1      33.733  29.603  27.255  1.00  0.00    -0.246 OA
BRANCH  25  27
ATOM     27  C   UNL A   1      35.845  30.125  28.181  1.00  0.00     0.060 A 
ATOM     28  C   UNL A   1      36.945  30.194  27.324  1.00  0.00     0.016 A 
ATOM     29  C   UNL A   1      36.003  29.690  29.496  1.00  0.00     0.016 A 
ATOM     30  C   UNL A   1      38.211  29.843  27.770  1.00  0.00     0.010 A 
ATOM     31  C   UNL A   1      37.278  29.329  29.948  1.00  0.00     0.010 A 
ATOM     32  C   UNL A   1      38.387  29.401  29.083  1.00  0.00    -0.014 A 
BRANCH  32  33
ATOM     33  C   UNL A   1      39.731  28.956  29.514  1.00  0.00     0.031 A 
ATOM     34  C   UNL A   1      40.505  29.783  30.496  1.00  0.00     0.074 A 
ATOM     35  C   UNL A   1      40.224  27.785  29.072  1.00  0.00     0.049 A 
ATOM     36  N   UNL A   1      41.726  29.622  30.937  1.00  0.00    -0.248 NA
ATOM     37  C   UNL A   1      39.809  30.950  31.061  1.00  0.00     0.031 C 
ATOM     38  C   UNL A   1      39.526  26.862  28.177  1.00  0.00     0.029 A 
ATOM     39  N   UNL A   1      41.424  27.170  29.320  1.00  0.00    -0.354 N 
ATOM     40  C   UNL A   1      41.956  30.680  31.804  1.00  0.00     0.074 A 
ATOM     41  C   UNL A   1      40.751  31.482  31.825  1.00  0.00     0.031 C 
ATOM     42  C   UNL A   1      40.309  25.794  27.955  1.00  0.00     0.029 A 
ATOM     43  C   UNL A   1      41.581  25.986  28.644  1.00  0.00     0.049 A 
ATOM     44  H   UNL A   1      42.106  27.541  29.925  1.00  0.00     0.167 HD
ATOM     45  C   UNL A   1      43.076  30.954  32.514  1.00  0.00     0.037 A 
ATOM     46  C   UNL A   1      42.648  25.167  28.563  1.00  0.00     0.037 A 
ATOM     47  C   UNL A   1      44.259  30.133  32.505  1.00  0.00     0.049 A 
ATOM     48  C   UNL A   1      43.902  25.528  29.311  1.00  0.00     0.074 A 
ATOM     49  C   UNL A   1      45.444  30.316  33.195  1.00  0.00     0.029 A 
ATOM     50  N   UNL A   1      44.401  28.967  31.767  1.00  0.00    -0.354 N 
ATOM     51  N   UNL A   1      44.128  26.548  30.104  1.00  0.00    -0.248 NA
ATOM     52  C   UNL A   1      45.054  24.632  29.143  1.00  0.00     0.031 C 
ATOM     53  C   UNL A   1      46.320  29.284  32.841  1.00  0.00     0.029 A 
ATOM     54  C   UNL A   1      45.664  28.431  31.966  1.00  0.00     0.049 A 
ATOM     55  H   UNL A   1      43.709  28.577  31.186  1.00  0.00     0.167 HD
ATOM     56  C   UNL A   1      45.439  26.413  30.536  1.00  0.00     0.074 A 
ATOM     57  C   UNL A   1      45.953  25.200  29.935  1.00  0.00     0.031 C 
ATOM     58  C   UNL A   1      46.155  27.223  31.354  1.00  0.00     0.037 A 
BRANCH  45  59
ATOM     59  C   UNL A   1      43.088  32.215  33.326  1.00  0.00     0.064 A 
ATOM     60  C   UNL A   1      43.511  33.439  32.790  1.00  0.00     0.173 A 
ATOM     61  C   UNL A   1      42.651  32.197  34.659  1.00  0.00     0.173 A 
ATOM     62  F   UNL A   1      43.954  33.506  31.525  1.00  0.00    -0.203 F 
ATOM     63  C   UNL A   1      43.518  34.596  33.567  1.00  0.00     0.198 A 
ATOM     64  C   UNL A   1      42.635  33.359  35.425  1.00  0.00     0.198 A 
ATOM     65  F   UNL A   1      42.235  31.050  35.219  1.00  0.00    -0.203 F 
ATOM     66  F   UNL A   1      43.969  35.747  33.048  1.00  0.00    -0.200 F 
ATOM     67  C   UNL A   1      43.075  34.556  34.880  1.00  0.00     0.200 A 
ATOM     68  F   UNL A   1      42.199  33.320  36.692  1.00  0.00    -0.200 F 
ATOM     69  F   UNL A   1      43.081  35.670  35.626  1.00  0.00    -0.200 F 
ENDBRANCH  45  59
BRANCH  46  70
ATOM     70  C   UNL A   1      42.582  23.953  27.711  1.00  0.00     0.064 A 
ATOM     71  C   UNL A   1      42.891  24.008  26.346  1.00  0.00     0.173 A 
ATOM     72  C   UNL A   1      42.214  22.709  28.247  1.00  0.00     0.173 A 
ATOM     73  F   UNL A   1      43.222  25.179  25.781  1.00  0.00    -0.203 F 
ATOM     74  C   UNL A   1      42.829  22.867  25.548  1.00  0.00     0.198 A 
ATOM     75  C   UNL A   1      42.179  21.565  27.456  1.00  0.00     0.198 A 
ATOM     76  F   UNL A   1      41.902  22.605  29.548  1.00  0.00    -0.203 F 
ATOM     77  F   UNL A   1      43.094  22.953  24.238  1.00  0.00    -0.200 F 
ATOM     78  C   UNL A   1      42.482  21.645  26.105  1.00  0.00     0.200 A 
ATOM     79  F   UNL A   1      41.853  20.385  28.001  1.00  0.00    -0.200 F 
ATOM     80  F   UNL A   1      42.430  20.546  25.339  1.00  0.00    -0.200 F 
ENDBRANCH  46  70
BRANCH  58  81
ATOM     81  C   UNL A   1      47.564  26.812  31.658  1.00  0.00     0.064 A 
ATOM     82  C   UNL A   1      47.856  25.893  32.675  1.00  0.00     0.173 A 
ATOM     83  C   UNL A   1      48.631  27.314  30.897  1.00  0.00     0.173 A 
ATOM     84  F   UNL A   1      46.871  25.398  33.440  1.00  0.00    -0.203 F 
ATOM     85  C   UNL A   1      49.168  25.505  32.933  1.00  0.00     0.198 A 
ATOM     86  C   UNL A   1      49.938  26.904  31.140  1.00  0.00     0.198 A 
ATOM     87  F   UNL A   1      48.402  28.192  29.909  1.00  0.00    -0.203 F 
ATOM     88  F   UNL A   1      49.428  24.656  33.937  1.00  0.00    -0.200 F 
ATOM     89  C   UNL A   1      50.206  26.005  32.162  1.00  0.00     0.200 A 
ATOM     90  F   UNL A   1      50.940  27.381  30.388  1.00  0.00    -0.200 F 
ATOM     91  F   UNL A   1      51.468  25.626  32.408  1.00  0.00    -0.200 F 
ENDBRANCH  58  81
ENDBRANCH  32  33
ENDBRANCH  25  27
ENDBRANCH  24  25
ENDBRANCH  23  24
ENDBRANCH   1  23
TORSDOF 15
ENDMDL
