MODEL 1
REMARK VINA RESULT:     -13.7      0.000      0.000
REMARK SMILES Cc1ccc(C(C)C)c(OCC(=O)Nc2nc(CC(=O)OCCOC(=O)c3ccc(-c4c5nc(c(-c6c(F)c(F)c(F)c(F)c6F)c6ccc([nH]6)c(-c6c(F)c(F)c(F)c(F)c6F)c6nc(c(-c7c(F)c(F)c(F)c(F)c7F)c7ccc4[nH]7)C=C6)C=C5)cc3)cs2)c1
REMARK SMILES IDX 19 1 20 2 18 3 17 4 15 5 16 6 91 7 90 8 14 9 12 10 13 11
REMARK SMILES IDX 11 13 10 14 9 15 1 16 2 17 3 18 92 19 4 20 5 21 6 22 7 23
REMARK SMILES IDX 8 24 21 25 22 26 23 27 24 28 25 29 26 30 27 31 28 32 89 33
REMARK SMILES IDX 29 34 88 35 30 36 31 37 32 38 82 39 33 40 87 41 81 42 83 43
REMARK SMILES IDX 34 44 86 45 80 46 79 47 35 49 67 50 47 51 66 52 48 53 51 54
REMARK SMILES IDX 65 55 84 56 49 57 50 58 64 60 85 61 52 62 36 63 37 64 45 65
REMARK SMILES IDX 38 66 39 67 43 68 46 69 40 70 41 71 44 72 42 73 68 74 69 75
REMARK SMILES IDX 77 76 70 77 71 78 75 79 78 80 72 81 73 82 76 83 74 84 53 85
REMARK SMILES IDX 54 86 62 87 55 88 56 89 60 90 63 91 57 92 58 93 61 94 59 95
REMARK H PARENT 14 12 83 48 51 59
REMARK Flexibility Score: inf
ROOT
ATOM      1  C   UNL A   1      33.257  35.441  29.165  1.00  0.00     0.312 C 
ATOM      2  O   UNL A   1      32.907  36.642  28.973  1.00  0.00    -0.252 OA
ENDROOT
BRANCH   1   3
ATOM      3  C   UNL A   1      34.578  34.140  28.015  1.00  0.00     0.179 C 
BRANCH   3   4
ATOM      4  C   UNL A   1      34.821  32.406  27.959  1.00  0.00     0.065 A 
ATOM      5  C   UNL A   1      34.053  30.326  27.729  1.00  0.00     0.189 A 
ATOM      6  N   UNL A   1      33.711  31.589  27.631  1.00  0.00    -0.224 NA
ATOM      7  S   UNL A   1      35.674  30.015  28.152  1.00  0.00    -0.105 S 
ATOM      8  C   UNL A   1      36.011  31.685  27.957  1.00  0.00     0.093 A 
BRANCH   5   9
ATOM      9  N   UNL A   1      33.312  29.187  27.635  1.00  0.00    -0.299 N 
ATOM     10  C   UNL A   1      32.319  28.889  26.755  1.00  0.00     0.264 C 
ATOM     11  O   UNL A   1      31.737  27.805  26.897  1.00  0.00    -0.271 OA
ATOM     12  H   UNL A   1      33.523  28.485  28.292  1.00  0.00     0.172 HD
BRANCH  10  13
ATOM     13  C   UNL A   1      32.075  29.728  25.492  1.00  0.00     0.329 C 
BRANCH  13  14
ATOM     14  O   UNL A   1      31.772  29.185  24.238  1.00  0.00    -0.483 OA
BRANCH  14  15
ATOM     15  C   UNL A   1      30.481  29.227  23.807  1.00  0.00     0.123 A 
ATOM     16  C   UNL A   1      27.559  31.501  22.942  1.00  0.00     0.044 C 
ATOM     17  C   UNL A   1      28.386  30.283  23.206  1.00  0.00    -0.047 A 
ATOM     18  C   UNL A   1      27.814  29.030  22.979  1.00  0.00     0.004 A 
ATOM     19  C   UNL A   1      29.708  30.376  23.673  1.00  0.00     0.050 A 
ATOM     20  C   UNL A   1      28.565  27.885  23.179  1.00  0.00     0.008 A 
ATOM     21  C   UNL A   1      29.922  27.981  23.525  1.00  0.00    -0.003 A 
BRANCH  21  22
ATOM     22  C   UNL A   1      30.827  26.784  23.425  1.00  0.00     0.017 C 
ATOM     23  C   UNL A   1      30.258  25.532  24.080  1.00  0.00     0.012 C 
ATOM     24  C   UNL A   1      31.238  26.648  21.973  1.00  0.00     0.012 C 
ENDBRANCH  21  22
ENDBRANCH  14  15
ENDBRANCH  13  14
ENDBRANCH  10  13
ENDBRANCH   5   9
ENDBRANCH   3   4
ENDBRANCH   1   3
BRANCH   1  25
ATOM     25  O   UNL A   1      32.604  35.068  30.392  1.00  0.00    -0.462 OA
BRANCH  25  26
ATOM     26  C   UNL A   1      32.524  36.078  31.414  1.00  0.00     0.274 C 
BRANCH  26  27
ATOM     27  C   UNL A   1      33.446  35.676  32.570  1.00  0.00     0.275 C 
BRANCH  27  28
ATOM     28  O   UNL A   1      34.871  35.743  32.269  1.00  0.00    -0.458 OA
BRANCH  28  29
ATOM     29  C   UNL A   1      35.794  34.849  32.720  1.00  0.00     0.338 C 
ATOM     30  O   UNL A   1      36.462  34.998  33.729  1.00  0.00    -0.246 OA
BRANCH  29  31
ATOM     31  C   UNL A   1      36.200  33.853  31.711  1.00  0.00     0.060 A 
ATOM     32  C   UNL A   1      36.024  32.115  32.185  1.00  0.00     0.016 A 
ATOM     33  C   UNL A   1      37.446  34.341  30.496  1.00  0.00     0.016 A 
ATOM     34  C   UNL A   1      37.274  30.909  31.611  1.00  0.00     0.010 A 
ATOM     35  C   UNL A   1      38.657  33.131  29.927  1.00  0.00     0.010 A 
ATOM     36  C   UNL A   1      38.633  31.447  30.570  1.00  0.00    -0.014 A 
BRANCH  36  37
ATOM     37  C   UNL A   1      39.997  30.871  30.641  1.00  0.00     0.031 A 
ATOM     38  C   UNL A   1      40.296  29.571  30.021  1.00  0.00     0.074 A 
ATOM     39  C   UNL A   1      41.011  31.608  31.124  1.00  0.00     0.049 A 
ATOM     40  N   UNL A   1      41.028  29.339  28.979  1.00  0.00    -0.248 NA
ATOM     41  C   UNL A   1      39.655  28.393  30.606  1.00  0.00     0.031 C 
ATOM     42  C   UNL A   1      42.442  31.362  31.031  1.00  0.00     0.029 A 
ATOM     43  N   UNL A   1      40.907  32.629  32.052  1.00  0.00    -0.354 N 
ATOM     44  C   UNL A   1      41.004  27.964  28.775  1.00  0.00     0.074 A 
ATOM     45  C   UNL A   1      39.991  27.464  29.713  1.00  0.00     0.031 C 
ATOM     46  C   UNL A   1      43.055  31.999  32.045  1.00  0.00     0.029 A 
ATOM     47  C   UNL A   1      42.026  32.605  32.878  1.00  0.00     0.049 A 
ATOM     48  H   UNL A   1      40.160  33.267  32.117  1.00  0.00     0.167 HD
ATOM     49  C   UNL A   1      42.155  27.238  28.800  1.00  0.00     0.037 A 
ATOM     50  C   UNL A   1      41.824  32.327  34.198  1.00  0.00     0.037 A 
ATOM     51  C   UNL A   1      43.034  27.588  29.891  1.00  0.00     0.049 A 
ATOM     52  C   UNL A   1      42.280  30.918  34.516  1.00  0.00     0.074 A 
ATOM     53  C   UNL A   1      44.177  28.353  29.999  1.00  0.00     0.029 A 
ATOM     54  N   UNL A   1      42.628  27.300  31.189  1.00  0.00    -0.354 N 
ATOM     55  N   UNL A   1      42.321  29.930  33.657  1.00  0.00    -0.248 NA
ATOM     56  C   UNL A   1      42.813  30.558  35.822  1.00  0.00     0.031 C 
ATOM     57  C   UNL A   1      44.415  28.574  31.386  1.00  0.00     0.029 A 
ATOM     58  C   UNL A   1      43.442  27.908  32.117  1.00  0.00     0.049 A 
ATOM     59  H   UNL A   1      41.855  26.733  31.415  1.00  0.00     0.167 HD
ATOM     60  C   UNL A   1      42.949  28.854  34.241  1.00  0.00     0.074 A 
ATOM     61  C   UNL A   1      43.223  29.299  35.596  1.00  0.00     0.031 C 
ATOM     62  C   UNL A   1      43.254  27.707  33.554  1.00  0.00     0.037 A 
BRANCH  49  63
ATOM     63  C   UNL A   1      42.392  26.294  27.658  1.00  0.00     0.064 A 
ATOM     64  C   UNL A   1      41.696  25.080  27.545  1.00  0.00     0.173 A 
ATOM     65  C   UNL A   1      43.345  26.554  26.644  1.00  0.00     0.173 A 
ATOM     66  F   UNL A   1      40.761  24.737  28.441  1.00  0.00    -0.203 F 
ATOM     67  C   UNL A   1      41.958  24.175  26.510  1.00  0.00     0.198 A 
ATOM     68  C   UNL A   1      43.604  25.648  25.613  1.00  0.00     0.198 A 
ATOM     69  F   UNL A   1      44.042  27.700  26.625  1.00  0.00    -0.203 F 
ATOM     70  F   UNL A   1      41.279  23.021  26.449  1.00  0.00    -0.200 F 
ATOM     71  C   UNL A   1      42.915  24.456  25.550  1.00  0.00     0.200 A 
ATOM     72  F   UNL A   1      44.525  25.943  24.683  1.00  0.00    -0.200 F 
ATOM     73  F   UNL A   1      43.167  23.581  24.565  1.00  0.00    -0.200 F 
ENDBRANCH  49  63
BRANCH  50  74
ATOM     74  C   UNL A   1      40.635  33.036  34.770  1.00  0.00     0.064 A 
ATOM     75  C   UNL A   1      39.440  32.292  34.919  1.00  0.00     0.173 A 
ATOM     76  C   UNL A   1      40.706  34.253  35.453  1.00  0.00     0.173 A 
ATOM     77  F   UNL A   1      39.293  31.129  34.263  1.00  0.00    -0.203 F 
ATOM     78  C   UNL A   1      38.440  32.668  35.815  1.00  0.00     0.198 A 
ATOM     79  C   UNL A   1      39.682  34.645  36.330  1.00  0.00     0.198 A 
ATOM     80  F   UNL A   1      41.810  35.010  35.385  1.00  0.00    -0.203 F 
ATOM     81  F   UNL A   1      37.389  31.862  36.024  1.00  0.00    -0.200 F 
ATOM     82  C   UNL A   1      38.575  33.835  36.540  1.00  0.00     0.200 A 
ATOM     83  F   UNL A   1      39.831  35.753  37.073  1.00  0.00    -0.200 F 
ATOM     84  F   UNL A   1      37.672  34.154  37.479  1.00  0.00    -0.200 F 
ENDBRANCH  50  74
BRANCH  62  85
ATOM     85  C   UNL A   1      43.591  26.347  34.161  1.00  0.00     0.064 A 
ATOM     86  C   UNL A   1      44.878  25.786  34.216  1.00  0.00     0.173 A 
ATOM     87  C   UNL A   1      42.599  25.579  34.830  1.00  0.00     0.173 A 
ATOM     88  F   UNL A   1      45.963  26.462  33.825  1.00  0.00    -0.203 F 
ATOM     89  C   UNL A   1      45.128  24.519  34.757  1.00  0.00     0.198 A 
ATOM     90  C   UNL A   1      42.863  24.347  35.433  1.00  0.00     0.198 A 
ATOM     91  F   UNL A   1      41.340  26.012  34.981  1.00  0.00    -0.203 F 
ATOM     92  F   UNL A   1      46.370  24.016  34.710  1.00  0.00    -0.200 F 
ATOM     93  C   UNL A   1      44.122  23.799  35.366  1.00  0.00     0.200 A 
ATOM     94  F   UNL A   1      41.888  23.713  36.100  1.00  0.00    -0.200 F 
ATOM     95  F   UNL A   1      44.375  22.607  35.920  1.00  0.00    -0.200 F 
ENDBRANCH  62  85
ENDBRANCH  36  37
ENDBRANCH  29  31
ENDBRANCH  28  29
ENDBRANCH  27  28
ENDBRANCH  26  27
ENDBRANCH  25  26
ENDBRANCH   1  25
TORSDOF 17
ENDMDL
MODEL 2
REMARK VINA RESULT:     -12.8      4.261      7.283
REMARK SMILES Cc1ccc(C(C)C)c(OCC(=O)Nc2nc(CC(=O)OCCOC(=O)c3ccc(-c4c5nc(c(-c6c(F)c(F)c(F)c(F)c6F)c6ccc([nH]6)c(-c6c(F)c(F)c(F)c(F)c6F)c6nc(c(-c7c(F)c(F)c(F)c(F)c7F)c7ccc4[nH]7)C=C6)C=C5)cc3)cs2)c1
REMARK SMILES IDX 19 1 20 2 18 3 17 4 15 5 16 6 91 7 90 8 14 9 12 10 13 11
REMARK SMILES IDX 11 13 10 14 9 15 1 16 2 17 3 18 92 19 4 20 5 21 6 22 7 23
REMARK SMILES IDX 8 24 21 25 22 26 23 27 24 28 25 29 26 30 27 31 28 32 89 33
REMARK SMILES IDX 29 34 88 35 30 36 31 37 32 38 82 39 33 40 87 41 81 42 83 43
REMARK SMILES IDX 34 44 86 45 80 46 79 47 35 49 67 50 47 51 66 52 48 53 51 54
REMARK SMILES IDX 65 55 84 56 49 57 50 58 64 60 85 61 52 62 36 63 37 64 45 65
REMARK SMILES IDX 38 66 39 67 43 68 46 69 40 70 41 71 44 72 42 73 68 74 69 75
REMARK SMILES IDX 77 76 70 77 71 78 75 79 78 80 72 81 73 82 76 83 74 84 53 85
REMARK SMILES IDX 54 86 62 87 55 88 56 89 60 90 63 91 57 92 58 93 61 94 59 95
REMARK H PARENT 14 12 83 48 51 59
REMARK Flexibility Score: inf
ROOT
ATOM      1  C   UNL A   1      34.645  29.651  27.566  1.00  0.00     0.312 C 
ATOM      2  O   UNL A   1      35.707  29.020  27.291  1.00  0.00    -0.252 OA
ENDROOT
BRANCH   1   3
ATOM      3  C   UNL A   1      32.550  29.109  27.287  1.00  0.00     0.179 C 
BRANCH   3   4
ATOM      4  C   UNL A   1      31.733  27.894  26.326  1.00  0.00     0.065 A 
ATOM      5  C   UNL A   1      30.685  25.937  26.118  1.00  0.00     0.189 A 
ATOM      6  N   UNL A   1      31.169  26.782  26.998  1.00  0.00    -0.224 NA
ATOM      7  S   UNL A   1      30.808  26.400  24.483  1.00  0.00    -0.105 S 
ATOM      8  C   UNL A   1      31.329  27.952  24.994  1.00  0.00     0.093 A 
BRANCH   5   9
ATOM      9  N   UNL A   1      30.165  24.687  26.268  1.00  0.00    -0.299 N 
ATOM     10  C   UNL A   1      30.777  23.486  26.097  1.00  0.00     0.264 C 
ATOM     11  O   UNL A   1      30.085  22.468  26.231  1.00  0.00    -0.271 OA
ATOM     12  H   UNL A   1      29.219  24.648  26.538  1.00  0.00     0.172 HD
BRANCH  10  13
ATOM     13  C   UNL A   1      32.304  23.362  25.982  1.00  0.00     0.329 C 
BRANCH  13  14
ATOM     14  O   UNL A   1      32.973  22.986  24.812  1.00  0.00    -0.483 OA
BRANCH  14  15
ATOM     15  C   UNL A   1      33.450  21.714  24.717  1.00  0.00     0.123 A 
ATOM     16  C   UNL A   1      32.507  18.060  24.251  1.00  0.00     0.044 C 
ATOM     17  C   UNL A   1      33.296  19.307  24.496  1.00  0.00    -0.047 A 
ATOM     18  C   UNL A   1      34.682  19.201  24.629  1.00  0.00     0.004 A 
ATOM     19  C   UNL A   1      32.676  20.564  24.595  1.00  0.00     0.050 A 
ATOM     20  C   UNL A   1      35.443  20.341  24.819  1.00  0.00     0.008 A 
ATOM     21  C   UNL A   1      34.839  21.607  24.793  1.00  0.00    -0.003 A 
BRANCH  21  22
ATOM     22  C   UNL A   1      35.672  22.854  24.667  1.00  0.00     0.017 C 
ATOM     23  C   UNL A   1      36.275  23.321  25.985  1.00  0.00     0.012 C 
ATOM     24  C   UNL A   1      36.648  22.632  23.529  1.00  0.00     0.012 C 
ENDBRANCH  21  22
ENDBRANCH  14  15
ENDBRANCH  13  14
ENDBRANCH  10  13
ENDBRANCH   5   9
ENDBRANCH   3   4
ENDBRANCH   1   3
BRANCH   1  25
ATOM     25  O   UNL A   1      35.101  30.873  28.176  1.00  0.00    -0.462 OA
BRANCH  25  26
ATOM     26  C   UNL A   1      36.484  30.919  28.574  1.00  0.00     0.274 C 
BRANCH  26  27
ATOM     27  C   UNL A   1      36.615  31.865  29.772  1.00  0.00     0.275 C 
BRANCH  27  28
ATOM     28  O   UNL A   1      37.775  31.621  30.620  1.00  0.00    -0.458 OA
BRANCH  28  29
ATOM     29  C   UNL A   1      37.742  30.907  31.778  1.00  0.00     0.338 C 
ATOM     30  O   UNL A   1      37.344  31.342  32.846  1.00  0.00    -0.246 OA
BRANCH  29  31
ATOM     31  C   UNL A   1      38.562  29.681  31.746  1.00  0.00     0.060 A 
ATOM     32  C   UNL A   1      40.305  29.872  32.195  1.00  0.00     0.016 A 
ATOM     33  C   UNL A   1      38.051  28.351  30.634  1.00  0.00     0.016 A 
ATOM     34  C   UNL A   1      41.560  28.866  31.323  1.00  0.00     0.010 A 
ATOM     35  C   UNL A   1      39.304  27.358  29.798  1.00  0.00     0.010 A 
ATOM     36  C   UNL A   1      41.056  27.692  30.063  1.00  0.00    -0.014 A 
BRANCH  36  37
ATOM     37  C   UNL A   1      41.856  27.396  28.850  1.00  0.00     0.031 A 
ATOM     38  C   UNL A   1      42.326  26.030  28.575  1.00  0.00     0.074 A 
ATOM     39  C   UNL A   1      42.016  28.341  27.907  1.00  0.00     0.049 A 
ATOM     40  N   UNL A   1      41.932  25.231  27.637  1.00  0.00    -0.248 NA
ATOM     41  C   UNL A   1      43.318  25.471  29.494  1.00  0.00     0.031 C 
ATOM     42  C   UNL A   1      42.507  28.194  26.546  1.00  0.00     0.029 A 
ATOM     43  N   UNL A   1      42.000  29.708  28.112  1.00  0.00    -0.354 N 
ATOM     44  C   UNL A   1      42.657  24.054  27.788  1.00  0.00     0.074 A 
ATOM     45  C   UNL A   1      43.365  24.211  29.065  1.00  0.00     0.031 C 
ATOM     46  C   UNL A   1      42.999  29.377  26.136  1.00  0.00     0.029 A 
ATOM     47  C   UNL A   1      42.921  30.304  27.256  1.00  0.00     0.049 A 
ATOM     48  H   UNL A   1      41.430  30.182  28.760  1.00  0.00     0.167 HD
ATOM     49  C   UNL A   1      43.461  23.600  26.787  1.00  0.00     0.037 A 
ATOM     50  C   UNL A   1      43.989  30.934  27.825  1.00  0.00     0.037 A 
ATOM     51  C   UNL A   1      44.265  24.634  26.180  1.00  0.00     0.049 A 
ATOM     52  C   UNL A   1      45.243  30.104  27.656  1.00  0.00     0.074 A 
ATOM     53  C   UNL A   1      44.175  25.365  25.014  1.00  0.00     0.029 A 
ATOM     54  N   UNL A   1      45.266  25.228  26.941  1.00  0.00    -0.354 N 
ATOM     55  N   UNL A   1      45.270  28.801  27.525  1.00  0.00    -0.248 NA
ATOM     56  C   UNL A   1      46.559  30.715  27.528  1.00  0.00     0.031 C 
ATOM     57  C   UNL A   1      45.094  26.448  25.114  1.00  0.00     0.029 A 
ATOM     58  C   UNL A   1      45.771  26.349  26.321  1.00  0.00     0.049 A 
ATOM     59  H   UNL A   1      45.574  24.891  27.813  1.00  0.00     0.167 HD
ATOM     60  C   UNL A   1      46.552  28.407  27.215  1.00  0.00     0.074 A 
ATOM     61  C   UNL A   1      47.315  29.643  27.242  1.00  0.00     0.031 C 
ATOM     62  C   UNL A   1      46.876  27.114  26.897  1.00  0.00     0.037 A 
BRANCH  49  63
ATOM     63  C   UNL A   1      43.311  22.161  26.391  1.00  0.00     0.064 A 
ATOM     64  C   UNL A   1      44.366  21.440  25.809  1.00  0.00     0.173 A 
ATOM     65  C   UNL A   1      42.096  21.452  26.550  1.00  0.00     0.173 A 
ATOM     66  F   UNL A   1      45.565  22.007  25.622  1.00  0.00    -0.203 F 
ATOM     67  C   UNL A   1      44.208  20.115  25.388  1.00  0.00     0.198 A 
ATOM     68  C   UNL A   1      41.941  20.130  26.129  1.00  0.00     0.198 A 
ATOM     69  F   UNL A   1      41.030  22.025  27.131  1.00  0.00    -0.203 F 
ATOM     70  F   UNL A   1      45.239  19.469  24.825  1.00  0.00    -0.200 F 
ATOM     71  C   UNL A   1      42.996  19.464  25.541  1.00  0.00     0.200 A 
ATOM     72  F   UNL A   1      40.764  19.510  26.298  1.00  0.00    -0.200 F 
ATOM     73  F   UNL A   1      42.848  18.196  25.128  1.00  0.00    -0.200 F 
ENDBRANCH  49  63
BRANCH  50  74
ATOM     74  C   UNL A   1      43.613  31.760  29.018  1.00  0.00     0.064 A 
ATOM     75  C   UNL A   1      43.898  31.226  30.298  1.00  0.00     0.173 A 
ATOM     76  C   UNL A   1      43.307  33.122  28.960  1.00  0.00     0.173 A 
ATOM     77  F   UNL A   1      44.168  29.916  30.429  1.00  0.00    -0.203 F 
ATOM     78  C   UNL A   1      44.020  32.034  31.427  1.00  0.00     0.198 A 
ATOM     79  C   UNL A   1      43.399  33.928  30.106  1.00  0.00     0.198 A 
ATOM     80  F   UNL A   1      43.046  33.712  27.786  1.00  0.00    -0.203 F 
ATOM     81  F   UNL A   1      44.427  31.505  32.590  1.00  0.00    -0.200 F 
ATOM     82  C   UNL A   1      43.794  33.392  31.324  1.00  0.00     0.200 A 
ATOM     83  F   UNL A   1      43.227  35.255  30.001  1.00  0.00    -0.200 F 
ATOM     84  F   UNL A   1      44.009  34.194  32.377  1.00  0.00    -0.200 F 
ENDBRANCH  50  74
BRANCH  62  85
ATOM     85  C   UNL A   1      48.274  26.499  26.909  1.00  0.00     0.064 A 
ATOM     86  C   UNL A   1      48.794  25.698  27.940  1.00  0.00     0.173 A 
ATOM     87  C   UNL A   1      49.135  26.617  25.783  1.00  0.00     0.173 A 
ATOM     88  F   UNL A   1      48.048  25.308  28.978  1.00  0.00    -0.203 F 
ATOM     89  C   UNL A   1      50.096  25.185  27.916  1.00  0.00     0.198 A 
ATOM     90  C   UNL A   1      50.408  26.044  25.729  1.00  0.00     0.198 A 
ATOM     91  F   UNL A   1      48.761  27.245  24.660  1.00  0.00    -0.203 F 
ATOM     92  F   UNL A   1      50.549  24.489  28.969  1.00  0.00    -0.200 F 
ATOM     93  C   UNL A   1      50.903  25.356  26.811  1.00  0.00     0.200 A 
ATOM     94  F   UNL A   1      51.134  26.146  24.607  1.00  0.00    -0.200 F 
ATOM     95  F   UNL A   1      52.132  24.826  26.775  1.00  0.00    -0.200 F 
ENDBRANCH  62  85
ENDBRANCH  36  37
ENDBRANCH  29  31
ENDBRANCH  28  29
ENDBRANCH  27  28
ENDBRANCH  26  27
ENDBRANCH  25  26
ENDBRANCH   1  25
TORSDOF 17
ENDMDL
MODEL 3
REMARK VINA RESULT:     -12.5      2.242      3.659
REMARK SMILES Cc1ccc(C(C)C)c(OCC(=O)Nc2nc(CC(=O)OCCOC(=O)c3ccc(-c4c5nc(c(-c6c(F)c(F)c(F)c(F)c6F)c6ccc([nH]6)c(-c6c(F)c(F)c(F)c(F)c6F)c6nc(c(-c7c(F)c(F)c(F)c(F)c7F)c7ccc4[nH]7)C=C6)C=C5)cc3)cs2)c1
REMARK SMILES IDX 19 1 20 2 18 3 17 4 15 5 16 6 91 7 90 8 14 9 12 10 13 11
REMARK SMILES IDX 11 13 10 14 9 15 1 16 2 17 3 18 92 19 4 20 5 21 6 22 7 23
REMARK SMILES IDX 8 24 21 25 22 26 23 27 24 28 25 29 26 30 27 31 28 32 89 33
REMARK SMILES IDX 29 34 88 35 30 36 31 37 32 38 82 39 33 40 87 41 81 42 83 43
REMARK SMILES IDX 34 44 86 45 80 46 79 47 35 49 67 50 47 51 66 52 48 53 51 54
REMARK SMILES IDX 65 55 84 56 49 57 50 58 64 60 85 61 52 62 36 63 37 64 45 65
REMARK SMILES IDX 38 66 39 67 43 68 46 69 40 70 41 71 44 72 42 73 68 74 69 75
REMARK SMILES IDX 77 76 70 77 71 78 75 79 78 80 72 81 73 82 76 83 74 84 53 85
REMARK SMILES IDX 54 86 62 87 55 88 56 89 60 90 63 91 57 92 58 93 61 94 59 95
REMARK H PARENT 14 12 83 48 51 59
REMARK Flexibility Score: inf
ROOT
ATOM      1  C   UNL A   1      32.776  32.533  27.497  1.00  0.00     0.312 C 
ATOM      2  O   UNL A   1      31.849  33.326  27.157  1.00  0.00    -0.252 OA
ENDROOT
BRANCH   1   3
ATOM      3  C   UNL A   1      33.205  30.489  26.869  1.00  0.00     0.179 C 
BRANCH   3   4
ATOM      4  C   UNL A   1      32.253  29.232  26.106  1.00  0.00     0.065 A 
ATOM      5  C   UNL A   1      31.093  27.330  26.188  1.00  0.00     0.189 A 
ATOM      6  N   UNL A   1      31.687  28.231  26.933  1.00  0.00    -0.224 NA
ATOM      7  S   UNL A   1      31.112  27.613  24.507  1.00  0.00    -0.105 S 
ATOM      8  C   UNL A   1      31.750  29.175  24.809  1.00  0.00     0.093 A 
BRANCH   5   9
ATOM      9  N   UNL A   1      30.523  26.136  26.509  1.00  0.00    -0.299 N 
ATOM     10  C   UNL A   1      31.082  24.897  26.498  1.00  0.00     0.264 C 
ATOM     11  O   UNL A   1      30.349  23.937  26.773  1.00  0.00    -0.271 OA
ATOM     12  H   UNL A   1      29.579  26.175  26.787  1.00  0.00     0.172 HD
BRANCH  10  13
ATOM     13  C   UNL A   1      32.600  24.692  26.391  1.00  0.00     0.329 C 
BRANCH  13  14
ATOM     14  O   UNL A   1      33.214  23.442  26.252  1.00  0.00    -0.483 OA
BRANCH  14  15
ATOM     15  C   UNL A   1      34.431  23.381  25.645  1.00  0.00     0.123 A 
ATOM     16  C   UNL A   1      38.165  23.944  26.089  1.00  0.00     0.044 C 
ATOM     17  C   UNL A   1      36.833  23.644  25.478  1.00  0.00    -0.047 A 
ATOM     18  C   UNL A   1      36.790  23.233  24.145  1.00  0.00     0.004 A 
ATOM     19  C   UNL A   1      35.641  23.769  26.212  1.00  0.00     0.050 A 
ATOM     20  C   UNL A   1      35.577  22.913  23.563  1.00  0.00     0.008 A 
ATOM     21  C   UNL A   1      34.402  22.917  24.330  1.00  0.00    -0.003 A 
BRANCH  21  22
ATOM     22  C   UNL A   1      33.147  22.265  23.816  1.00  0.00     0.017 C 
ATOM     23  C   UNL A   1      32.755  22.714  22.415  1.00  0.00     0.012 C 
ATOM     24  C   UNL A   1      33.297  20.771  24.020  1.00  0.00     0.012 C 
ENDBRANCH  21  22
ENDBRANCH  14  15
ENDBRANCH  13  14
ENDBRANCH  10  13
ENDBRANCH   5   9
ENDBRANCH   3   4
ENDBRANCH   1   3
BRANCH   1  25
ATOM     25  O   UNL A   1      33.578  33.294  28.419  1.00  0.00    -0.462 OA
BRANCH  25  26
ATOM     26  C   UNL A   1      33.106  34.613  28.751  1.00  0.00     0.274 C 
BRANCH  26  27
ATOM     27  C   UNL A   1      33.156  34.780  30.273  1.00  0.00     0.275 C 
BRANCH  27  28
ATOM     28  O   UNL A   1      34.420  35.286  30.791  1.00  0.00    -0.458 OA
BRANCH  28  29
ATOM     29  C   UNL A   1      35.300  34.548  31.524  1.00  0.00     0.338 C 
ATOM     30  O   UNL A   1      35.971  34.987  32.444  1.00  0.00    -0.246 OA
BRANCH  29  31
ATOM     31  C   UNL A   1      35.666  33.264  30.897  1.00  0.00     0.060 A 
ATOM     32  C   UNL A   1      35.806  31.842  32.009  1.00  0.00     0.016 A 
ATOM     33  C   UNL A   1      36.617  33.313  29.362  1.00  0.00     0.016 A 
ATOM     34  C   UNL A   1      37.095  30.585  31.682  1.00  0.00     0.010 A 
ATOM     35  C   UNL A   1      37.871  32.053  29.049  1.00  0.00     0.010 A 
ATOM     36  C   UNL A   1      38.180  30.756  30.263  1.00  0.00    -0.014 A 
BRANCH  36  37
ATOM     37  C   UNL A   1      39.602  30.337  30.263  1.00  0.00     0.031 A 
ATOM     38  C   UNL A   1      39.999  29.030  29.719  1.00  0.00     0.074 A 
ATOM     39  C   UNL A   1      40.558  31.217  30.605  1.00  0.00     0.049 A 
ATOM     40  N   UNL A   1      40.674  28.793  28.640  1.00  0.00    -0.248 NA
ATOM     41  C   UNL A   1      39.541  27.843  30.441  1.00  0.00     0.031 C 
ATOM     42  C   UNL A   1      41.997  31.119  30.413  1.00  0.00     0.029 A 
ATOM     43  N   UNL A   1      40.407  32.294  31.460  1.00  0.00    -0.354 N 
ATOM     44  C   UNL A   1      40.791  27.411  28.542  1.00  0.00     0.074 A 
ATOM     45  C   UNL A   1      39.913  26.884  29.595  1.00  0.00     0.031 C 
ATOM     46  C   UNL A   1      42.607  31.899  31.323  1.00  0.00     0.029 A 
ATOM     47  C   UNL A   1      41.580  32.459  32.190  1.00  0.00     0.049 A 
ATOM     48  H   UNL A   1      39.600  32.851  31.539  1.00  0.00     0.167 HD
ATOM     49  C   UNL A   1      42.016  26.817  28.525  1.00  0.00     0.037 A 
ATOM     50  C   UNL A   1      41.509  32.270  33.540  1.00  0.00     0.037 A 
ATOM     51  C   UNL A   1      42.927  27.348  29.511  1.00  0.00     0.049 A 
ATOM     52  C   UNL A   1      42.144  30.950  33.922  1.00  0.00     0.074 A 
ATOM     53  C   UNL A   1      43.981  28.238  29.467  1.00  0.00     0.029 A 
ATOM     54  N   UNL A   1      42.653  27.127  30.856  1.00  0.00    -0.354 N 
ATOM     55  N   UNL A   1      42.233  29.905  33.139  1.00  0.00    -0.248 NA
ATOM     56  C   UNL A   1      42.810  30.759  35.203  1.00  0.00     0.031 C 
ATOM     57  C   UNL A   1      44.294  28.597  30.810  1.00  0.00     0.029 A 
ATOM     58  C   UNL A   1      43.459  27.894  31.666  1.00  0.00     0.049 A 
ATOM     59  H   UNL A   1      41.969  26.501  31.186  1.00  0.00     0.167 HD
ATOM     60  C   UNL A   1      43.021  28.954  33.747  1.00  0.00     0.074 A 
ATOM     61  C   UNL A   1      43.342  29.537  35.038  1.00  0.00     0.031 C 
ATOM     62  C   UNL A   1      43.402  27.794  33.124  1.00  0.00     0.037 A 
BRANCH  49  63
ATOM     63  C   UNL A   1      42.273  25.813  27.441  1.00  0.00     0.064 A 
ATOM     64  C   UNL A   1      41.641  24.559  27.429  1.00  0.00     0.173 A 
ATOM     65  C   UNL A   1      43.183  26.053  26.383  1.00  0.00     0.173 A 
ATOM     66  F   UNL A   1      40.751  24.228  28.373  1.00  0.00    -0.203 F 
ATOM     67  C   UNL A   1      41.924  23.601  26.447  1.00  0.00     0.198 A 
ATOM     68  C   UNL A   1      43.464  25.096  25.407  1.00  0.00     0.198 A 
ATOM     69  F   UNL A   1      43.817  27.231  26.269  1.00  0.00    -0.203 F 
ATOM     70  F   UNL A   1      41.308  22.411  26.482  1.00  0.00    -0.200 F 
ATOM     71  C   UNL A   1      42.839  23.867  25.443  1.00  0.00     0.200 A 
ATOM     72  F   UNL A   1      44.343  25.375  24.432  1.00  0.00    -0.200 F 
ATOM     73  F   UNL A   1      43.112  22.943  24.510  1.00  0.00    -0.200 F 
ENDBRANCH  49  63
BRANCH  50  74
ATOM     74  C   UNL A   1      40.293  32.893  34.154  1.00  0.00     0.064 A 
ATOM     75  C   UNL A   1      39.294  32.023  34.652  1.00  0.00     0.173 A 
ATOM     76  C   UNL A   1      40.218  34.230  34.555  1.00  0.00     0.173 A 
ATOM     77  F   UNL A   1      39.288  30.732  34.279  1.00  0.00    -0.203 F 
ATOM     78  C   UNL A   1      38.370  32.429  35.613  1.00  0.00     0.198 A 
ATOM     79  C   UNL A   1      39.265  34.644  35.499  1.00  0.00     0.198 A 
ATOM     80  F   UNL A   1      41.136  35.116  34.147  1.00  0.00    -0.203 F 
ATOM     81  F   UNL A   1      37.531  31.535  36.158  1.00  0.00    -0.200 F 
ATOM     82  C   UNL A   1      38.372  33.737  36.055  1.00  0.00     0.200 A 
ATOM     83  F   UNL A   1      39.295  35.901  35.967  1.00  0.00    -0.200 F 
ATOM     84  F   UNL A   1      37.558  34.115  37.052  1.00  0.00    -0.200 F 
ENDBRANCH  50  74
BRANCH  62  85
ATOM     85  C   UNL A   1      43.935  26.533  33.800  1.00  0.00     0.064 A 
ATOM     86  C   UNL A   1      43.165  25.646  34.573  1.00  0.00     0.173 A 
ATOM     87  C   UNL A   1      45.274  26.103  33.595  1.00  0.00     0.173 A 
ATOM     88  F   UNL A   1      41.841  25.780  34.696  1.00  0.00    -0.203 F 
ATOM     89  C   UNL A   1      43.711  24.518  35.198  1.00  0.00     0.198 A 
ATOM     90  C   UNL A   1      45.800  24.938  34.161  1.00  0.00     0.198 A 
ATOM     91  F   UNL A   1      46.121  26.760  32.791  1.00  0.00    -0.203 F 
ATOM     92  F   UNL A   1      42.932  23.757  35.980  1.00  0.00    -0.200 F 
ATOM     93  C   UNL A   1      45.027  24.163  34.993  1.00  0.00     0.200 A 
ATOM     94  F   UNL A   1      47.054  24.567  33.868  1.00  0.00    -0.200 F 
ATOM     95  F   UNL A   1      45.533  23.060  35.558  1.00  0.00    -0.200 F 
ENDBRANCH  62  85
ENDBRANCH  36  37
ENDBRANCH  29  31
ENDBRANCH  28  29
ENDBRANCH  27  28
ENDBRANCH  26  27
ENDBRANCH  25  26
ENDBRANCH   1  25
TORSDOF 17
ENDMDL
