MODEL 1
REMARK VINA RESULT:     -11.8      0.000      0.000
REMARK SMILES CN1CCN(C(=O)N2CC[C@@H](CC(=O)OCCOC(=O)c3ccc(-c4c5nc(c(-c6c(F)c(F)c(F)c(F)c6F)c6ccc([nH]6)c(-c6c(F)c(F)c(F)c(F)c6F)c6nc(c(-c7c(F)c(F)c(F)c(F)c7F)c7ccc4[nH]7)C=C6)C=C5)cc3)C2)C(C)(C)C1=O
REMARK SMILES IDX 16 1 15 2 13 3 14 4 12 5 11 6 8 7 9 8 84 9 10 10 6 11 7 12
REMARK SMILES IDX 5 13 1 14 2 15 3 16 88 17 4 18 85 19 89 20 86 21 87 22 17 23
REMARK SMILES IDX 18 24 19 25 20 26 21 27 22 28 83 29 23 30 82 31 24 32 25 33
REMARK SMILES IDX 26 34 76 35 27 36 81 37 75 38 77 39 28 40 80 41 74 42 73 43
REMARK SMILES IDX 29 45 61 46 41 47 60 48 42 49 45 50 59 51 78 52 43 53 44 54
REMARK SMILES IDX 58 56 79 57 46 58 30 59 31 60 39 61 32 62 33 63 37 64 40 65
REMARK SMILES IDX 34 66 35 67 38 68 36 69 62 70 63 71 71 72 64 73 65 74 69 75
REMARK SMILES IDX 72 76 66 77 67 78 70 79 68 80 47 81 48 82 56 83 49 84 50 85
REMARK SMILES IDX 54 86 57 87 51 88 52 89 55 90 53 91
REMARK H PARENT 77 44 45 55
REMARK Flexibility Score: inf
ROOT
ATOM      1  C   UNL A   1      31.400  29.004  25.167  1.00  0.00     0.274 C 
ENDROOT
BRANCH   1   2
ATOM      2  O   UNL A   1      31.344  29.061  23.727  1.00  0.00    -0.462 OA
BRANCH   2   3
ATOM      3  C   UNL A   1      32.243  28.316  23.047  1.00  0.00     0.306 C 
ATOM      4  O   UNL A   1      33.451  28.525  23.034  1.00  0.00    -0.252 OA
BRANCH   3   5
ATOM      5  C   UNL A   1      31.628  27.191  22.237  1.00  0.00     0.128 C 
BRANCH   5   6
ATOM      6  C   UNL A   1      31.195  25.883  22.900  1.00  0.00     0.021 C 
ATOM      7  N   UNL A   1      31.228  24.949  25.066  1.00  0.00    -0.324 N 
ATOM      8  C   UNL A   1      29.982  25.678  24.993  1.00  0.00     0.122 C 
ATOM      9  C   UNL A   1      32.119  25.356  24.004  1.00  0.00     0.125 C 
ATOM     10  C   UNL A   1      29.779  25.882  23.501  1.00  0.00     0.027 C 
BRANCH   7  11
ATOM     11  C   UNL A   1      31.639  24.126  26.085  1.00  0.00     0.320 C 
ATOM     12  O   UNL A   1      31.453  24.385  27.272  1.00  0.00    -0.248 OA
BRANCH  11  13
ATOM     13  N   UNL A   1      32.312  22.980  25.683  1.00  0.00    -0.309 N 
ATOM     14  C   UNL A   1      34.183  19.259  24.621  1.00  0.00     0.146 C 
ATOM     15  N   UNL A   1      33.580  20.514  25.031  1.00  0.00    -0.342 N 
ATOM     16  C   UNL A   1      32.152  20.687  24.782  1.00  0.00     0.140 C 
ATOM     17  C   UNL A   1      34.391  21.572  25.434  1.00  0.00     0.247 C 
ATOM     18  C   UNL A   1      31.487  21.781  25.606  1.00  0.00     0.144 C 
ATOM     19  C   UNL A   1      33.696  22.744  26.196  1.00  0.00     0.118 C 
ATOM     20  O   UNL A   1      35.622  21.489  25.383  1.00  0.00    -0.272 OA
ATOM     21  C   UNL A   1      33.650  22.316  27.682  1.00  0.00     0.045 C 
ATOM     22  C   UNL A   1      34.632  23.970  26.119  1.00  0.00     0.045 C 
ENDBRANCH  11  13
ENDBRANCH   7  11
ENDBRANCH   5   6
ENDBRANCH   3   5
ENDBRANCH   2   3
ENDBRANCH   1   2
BRANCH   1  23
ATOM     23  C   UNL A   1      31.669  30.385  25.756  1.00  0.00     0.275 C 
BRANCH  23  24
ATOM     24  O   UNL A   1      33.054  30.492  26.132  1.00  0.00    -0.458 OA
BRANCH  24  25
ATOM     25  C   UNL A   1      33.335  31.477  27.014  1.00  0.00     0.338 C 
ATOM     26  O   UNL A   1      32.686  32.478  27.247  1.00  0.00    -0.246 OA
BRANCH  25  27
ATOM     27  C   UNL A   1      34.575  31.143  27.724  1.00  0.00     0.060 A 
ATOM     28  C   UNL A   1      34.779  29.838  28.174  1.00  0.00     0.016 A 
ATOM     29  C   UNL A   1      35.495  32.149  28.016  1.00  0.00     0.016 A 
ATOM     30  C   UNL A   1      35.907  29.528  28.927  1.00  0.00     0.010 A 
ATOM     31  C   UNL A   1      36.644  31.832  28.743  1.00  0.00     0.010 A 
ATOM     32  C   UNL A   1      36.855  30.521  29.207  1.00  0.00    -0.014 A 
BRANCH  32  33
ATOM     33  C   UNL A   1      38.071  30.190  29.985  1.00  0.00     0.031 A 
ATOM     34  C   UNL A   1      39.118  29.291  29.400  1.00  0.00     0.074 A 
ATOM     35  C   UNL A   1      38.221  30.698  31.222  1.00  0.00     0.049 A 
ATOM     36  N   UNL A   1      40.175  28.772  29.971  1.00  0.00    -0.248 NA
ATOM     37  C   UNL A   1      38.955  28.926  27.984  1.00  0.00     0.031 C 
ATOM     38  C   UNL A   1      37.291  31.623  31.873  1.00  0.00     0.029 A 
ATOM     39  N   UNL A   1      39.207  30.503  32.155  1.00  0.00    -0.354 N 
ATOM     40  C   UNL A   1      40.790  28.000  28.994  1.00  0.00     0.074 A 
ATOM     41  C   UNL A   1      39.985  28.111  27.797  1.00  0.00     0.031 C 
ATOM     42  C   UNL A   1      37.753  31.919  33.097  1.00  0.00     0.029 A 
ATOM     43  C   UNL A   1      38.973  31.157  33.340  1.00  0.00     0.049 A 
ATOM     44  H   UNL A   1      40.003  29.948  31.993  1.00  0.00     0.167 HD
ATOM     45  C   UNL A   1      41.924  27.267  29.096  1.00  0.00     0.037 A 
ATOM     46  C   UNL A   1      39.648  31.114  34.504  1.00  0.00     0.037 A 
ATOM     47  C   UNL A   1      42.724  27.174  30.290  1.00  0.00     0.049 A 
ATOM     48  C   UNL A   1      40.866  30.239  34.609  1.00  0.00     0.074 A 
ATOM     49  C   UNL A   1      43.887  26.454  30.499  1.00  0.00     0.029 A 
ATOM     50  N   UNL A   1      42.440  27.828  31.481  1.00  0.00    -0.354 N 
ATOM     51  N   UNL A   1      41.425  29.488  33.692  1.00  0.00    -0.248 NA
ATOM     52  C   UNL A   1      41.539  30.198  35.914  1.00  0.00     0.031 C 
ATOM     53  C   UNL A   1      44.288  26.644  31.826  1.00  0.00     0.029 A 
ATOM     54  C   UNL A   1      43.398  27.516  32.433  1.00  0.00     0.049 A 
ATOM     55  H   UNL A   1      41.672  28.426  31.628  1.00  0.00     0.167 HD
ATOM     56  C   UNL A   1      42.523  28.899  34.300  1.00  0.00     0.074 A 
ATOM     57  C   UNL A   1      42.562  29.392  35.661  1.00  0.00     0.031 C 
ATOM     58  C   UNL A   1      43.419  28.024  33.780  1.00  0.00     0.037 A 
BRANCH  45  59
ATOM     59  C   UNL A   1      42.351  26.479  27.893  1.00  0.00     0.064 A 
ATOM     60  C   UNL A   1      43.290  26.979  26.979  1.00  0.00     0.173 A 
ATOM     61  C   UNL A   1      41.842  25.191  27.673  1.00  0.00     0.173 A 
ATOM     62  F   UNL A   1      43.798  28.211  27.138  1.00  0.00    -0.203 F 
ATOM     63  C   UNL A   1      43.690  26.225  25.878  1.00  0.00     0.198 A 
ATOM     64  C   UNL A   1      42.261  24.430  26.585  1.00  0.00     0.198 A 
ATOM     65  F   UNL A   1      40.944  24.665  28.519  1.00  0.00    -0.203 F 
ATOM     66  F   UNL A   1      44.562  26.736  24.997  1.00  0.00    -0.200 F 
ATOM     67  C   UNL A   1      43.180  24.950  25.686  1.00  0.00     0.200 A 
ATOM     68  F   UNL A   1      41.776  23.193  26.406  1.00  0.00    -0.200 F 
ATOM     69  F   UNL A   1      43.571  24.222  24.630  1.00  0.00    -0.200 F 
ENDBRANCH  45  59
BRANCH  46  70
ATOM     70  C   UNL A   1      39.166  31.901  35.667  1.00  0.00     0.064 A 
ATOM     71  C   UNL A   1      38.293  31.337  36.607  1.00  0.00     0.173 A 
ATOM     72  C   UNL A   1      39.572  33.229  35.866  1.00  0.00     0.173 A 
ATOM     73  F   UNL A   1      37.856  30.079  36.446  1.00  0.00    -0.203 F 
ATOM     74  C   UNL A   1      37.834  32.077  37.695  1.00  0.00     0.198 A 
ATOM     75  C   UNL A   1      39.135  33.957  36.971  1.00  0.00     0.198 A 
ATOM     76  F   UNL A   1      40.406  33.814  34.995  1.00  0.00    -0.203 F 
ATOM     77  F   UNL A   1      36.968  31.527  38.558  1.00  0.00    -0.200 F 
ATOM     78  C   UNL A   1      38.261  33.383  37.880  1.00  0.00     0.200 A 
ATOM     79  F   UNL A   1      39.560  35.216  37.152  1.00  0.00    -0.200 F 
ATOM     80  F   UNL A   1      37.825  34.090  38.932  1.00  0.00    -0.200 F 
ENDBRANCH  46  70
BRANCH  58  81
ATOM     81  C   UNL A   1      44.531  27.575  34.679  1.00  0.00     0.064 A 
ATOM     82  C   UNL A   1      45.742  28.280  34.755  1.00  0.00     0.173 A 
ATOM     83  C   UNL A   1      44.374  26.443  35.492  1.00  0.00     0.173 A 
ATOM     84  F   UNL A   1      45.945  29.357  33.983  1.00  0.00    -0.203 F 
ATOM     85  C   UNL A   1      46.764  27.853  35.598  1.00  0.00     0.198 A 
ATOM     86  C   UNL A   1      45.388  26.034  36.353  1.00  0.00     0.198 A 
ATOM     87  F   UNL A   1      43.233  25.740  35.457  1.00  0.00    -0.203 F 
ATOM     88  F   UNL A   1      47.930  28.513  35.622  1.00  0.00    -0.200 F 
ATOM     89  C   UNL A   1      46.584  26.735  36.399  1.00  0.00     0.200 A 
ATOM     90  F   UNL A   1      45.210  24.960  37.133  1.00  0.00    -0.200 F 
ATOM     91  F   UNL A   1      47.570  26.326  37.211  1.00  0.00    -0.200 F 
ENDBRANCH  58  81
ENDBRANCH  32  33
ENDBRANCH  25  27
ENDBRANCH  24  25
ENDBRANCH  23  24
ENDBRANCH   1  23
TORSDOF 14
ENDMDL
MODEL 2
REMARK VINA RESULT:     -11.7      0.513      1.681
REMARK SMILES CN1CCN(C(=O)N2CC[C@@H](CC(=O)OCCOC(=O)c3ccc(-c4c5nc(c(-c6c(F)c(F)c(F)c(F)c6F)c6ccc([nH]6)c(-c6c(F)c(F)c(F)c(F)c6F)c6nc(c(-c7c(F)c(F)c(F)c(F)c7F)c7ccc4[nH]7)C=C6)C=C5)cc3)C2)C(C)(C)C1=O
REMARK SMILES IDX 16 1 15 2 13 3 14 4 12 5 11 6 8 7 9 8 84 9 10 10 6 11 7 12
REMARK SMILES IDX 5 13 1 14 2 15 3 16 88 17 4 18 85 19 89 20 86 21 87 22 17 23
REMARK SMILES IDX 18 24 19 25 20 26 21 27 22 28 83 29 23 30 82 31 24 32 25 33
REMARK SMILES IDX 26 34 76 35 27 36 81 37 75 38 77 39 28 40 80 41 74 42 73 43
REMARK SMILES IDX 29 45 61 46 41 47 60 48 42 49 45 50 59 51 78 52 43 53 44 54
REMARK SMILES IDX 58 56 79 57 46 58 30 59 31 60 39 61 32 62 33 63 37 64 40 65
REMARK SMILES IDX 34 66 35 67 38 68 36 69 62 70 63 71 71 72 64 73 65 74 69 75
REMARK SMILES IDX 72 76 66 77 67 78 70 79 68 80 47 81 48 82 56 83 49 84 50 85
REMARK SMILES IDX 54 86 57 87 51 88 52 89 55 90 53 91
REMARK H PARENT 77 44 45 55
REMARK Flexibility Score: inf
ROOT
ATOM      1  C   UNL A   1      33.308  28.192  24.665  1.00  0.00     0.274 C 
ENDROOT
BRANCH   1   2
ATOM      2  O   UNL A   1      32.568  28.347  23.437  1.00  0.00    -0.462 OA
BRANCH   2   3
ATOM      3  C   UNL A   1      32.778  27.426  22.471  1.00  0.00     0.306 C 
ATOM      4  O   UNL A   1      33.852  27.237  21.912  1.00  0.00    -0.252 OA
BRANCH   3   5
ATOM      5  C   UNL A   1      31.538  26.644  22.084  1.00  0.00     0.128 C 
BRANCH   5   6
ATOM      6  C   UNL A   1      30.918  25.618  23.033  1.00  0.00     0.021 C 
ATOM      7  N   UNL A   1      31.306  24.837  25.226  1.00  0.00    -0.324 N 
ATOM      8  C   UNL A   1      30.420  25.968  25.383  1.00  0.00     0.122 C 
ATOM      9  C   UNL A   1      31.906  24.840  23.911  1.00  0.00     0.125 C 
ATOM     10  C   UNL A   1      29.845  26.163  23.990  1.00  0.00     0.027 C 
BRANCH   7  11
ATOM     11  C   UNL A   1      31.712  23.969  26.208  1.00  0.00     0.320 C 
ATOM     12  O   UNL A   1      31.525  24.177  27.405  1.00  0.00    -0.248 OA
BRANCH  11  13
ATOM     13  N   UNL A   1      32.379  22.838  25.757  1.00  0.00    -0.309 N 
ATOM     14  C   UNL A   1      34.244  19.158  24.550  1.00  0.00     0.146 C 
ATOM     15  N   UNL A   1      33.645  20.398  25.008  1.00  0.00    -0.342 N 
ATOM     16  C   UNL A   1      32.207  20.561  24.818  1.00  0.00     0.140 C 
ATOM     17  C   UNL A   1      34.461  21.457  25.400  1.00  0.00     0.247 C 
ATOM     18  C   UNL A   1      31.564  21.631  25.688  1.00  0.00     0.144 C 
ATOM     19  C   UNL A   1      33.785  22.607  26.211  1.00  0.00     0.118 C 
ATOM     20  O   UNL A   1      35.689  21.388  25.299  1.00  0.00    -0.272 OA
ATOM     21  C   UNL A   1      33.800  22.149  27.690  1.00  0.00     0.045 C 
ATOM     22  C   UNL A   1      34.704  23.843  26.122  1.00  0.00     0.045 C 
ENDBRANCH  11  13
ENDBRANCH   7  11
ENDBRANCH   5   6
ENDBRANCH   3   5
ENDBRANCH   2   3
ENDBRANCH   1   2
BRANCH   1  23
ATOM     23  C   UNL A   1      32.745  29.096  25.758  1.00  0.00     0.275 C 
BRANCH  23  24
ATOM     24  O   UNL A   1      33.393  30.379  25.709  1.00  0.00    -0.458 OA
BRANCH  24  25
ATOM     25  C   UNL A   1      33.403  31.063  26.874  1.00  0.00     0.338 C 
ATOM     26  O   UNL A   1      32.525  31.771  27.332  1.00  0.00    -0.246 OA
BRANCH  25  27
ATOM     27  C   UNL A   1      34.662  30.795  27.576  1.00  0.00     0.060 A 
ATOM     28  C   UNL A   1      34.910  29.517  28.080  1.00  0.00     0.016 A 
ATOM     29  C   UNL A   1      35.558  31.837  27.808  1.00  0.00     0.016 A 
ATOM     30  C   UNL A   1      36.058  29.271  28.826  1.00  0.00     0.010 A 
ATOM     31  C   UNL A   1      36.727  31.583  28.529  1.00  0.00     0.010 A 
ATOM     32  C   UNL A   1      36.982  30.301  29.046  1.00  0.00    -0.014 A 
BRANCH  32  33
ATOM     33  C   UNL A   1      38.219  30.037  29.816  1.00  0.00     0.031 A 
ATOM     34  C   UNL A   1      39.277  29.134  29.257  1.00  0.00     0.074 A 
ATOM     35  C   UNL A   1      38.379  30.610  31.023  1.00  0.00     0.049 A 
ATOM     36  N   UNL A   1      40.356  28.669  29.833  1.00  0.00    -0.248 NA
ATOM     37  C   UNL A   1      39.098  28.694  27.864  1.00  0.00     0.031 C 
ATOM     38  C   UNL A   1      37.440  31.545  31.644  1.00  0.00     0.029 A 
ATOM     39  N   UNL A   1      39.386  30.485  31.946  1.00  0.00    -0.354 N 
ATOM     40  C   UNL A   1      40.972  27.863  28.885  1.00  0.00     0.074 A 
ATOM     41  C   UNL A   1      40.143  27.895  27.699  1.00  0.00     0.031 C 
ATOM     42  C   UNL A   1      37.915  31.913  32.843  1.00  0.00     0.029 A 
ATOM     43  C   UNL A   1      39.158  31.192  33.100  1.00  0.00     0.049 A 
ATOM     44  H   UNL A   1      40.192  29.941  31.797  1.00  0.00     0.167 HD
ATOM     45  C   UNL A   1      42.125  27.162  29.002  1.00  0.00     0.037 A 
ATOM     46  C   UNL A   1      39.854  31.224  34.253  1.00  0.00     0.037 A 
ATOM     47  C   UNL A   1      42.947  27.148  30.184  1.00  0.00     0.049 A 
ATOM     48  C   UNL A   1      41.094  30.384  34.378  1.00  0.00     0.074 A 
ATOM     49  C   UNL A   1      44.131  26.466  30.406  1.00  0.00     0.029 A 
ATOM     50  N   UNL A   1      42.670  27.854  31.345  1.00  0.00    -0.354 N 
ATOM     51  N   UNL A   1      41.654  29.600  33.490  1.00  0.00    -0.248 NA
ATOM     52  C   UNL A   1      41.791  30.424  35.671  1.00  0.00     0.031 C 
ATOM     53  C   UNL A   1      44.551  26.732  31.714  1.00  0.00     0.029 A 
ATOM     54  C   UNL A   1      43.652  27.613  32.293  1.00  0.00     0.049 A 
ATOM     55  H   UNL A   1      41.890  28.441  31.477  1.00  0.00     0.167 HD
ATOM     56  C   UNL A   1      42.777  29.067  34.106  1.00  0.00     0.074 A 
ATOM     57  C   UNL A   1      42.828  29.630  35.439  1.00  0.00     0.031 C 
ATOM     58  C   UNL A   1      43.684  28.188  33.612  1.00  0.00     0.037 A 
BRANCH  45  59
ATOM     59  C   UNL A   1      42.549  26.325  27.832  1.00  0.00     0.064 A 
ATOM     60  C   UNL A   1      42.027  25.041  27.615  1.00  0.00     0.173 A 
ATOM     61  C   UNL A   1      43.460  26.830  26.893  1.00  0.00     0.173 A 
ATOM     62  F   UNL A   1      41.161  24.507  28.490  1.00  0.00    -0.203 F 
ATOM     63  C   UNL A   1      42.418  24.286  26.511  1.00  0.00     0.198 A 
ATOM     64  C   UNL A   1      43.830  26.083  25.778  1.00  0.00     0.198 A 
ATOM     65  F   UNL A   1      43.985  28.054  27.051  1.00  0.00    -0.203 F 
ATOM     66  F   UNL A   1      41.934  23.047  26.342  1.00  0.00    -0.200 F 
ATOM     67  C   UNL A   1      43.314  24.810  25.591  1.00  0.00     0.200 A 
ATOM     68  F   UNL A   1      44.687  26.595  24.884  1.00  0.00    -0.200 F 
ATOM     69  F   UNL A   1      43.682  24.086  24.525  1.00  0.00    -0.200 F 
ENDBRANCH  45  59
BRANCH  46  70
ATOM     70  C   UNL A   1      39.374  32.057  35.384  1.00  0.00     0.064 A 
ATOM     71  C   UNL A   1      38.550  31.515  36.380  1.00  0.00     0.173 A 
ATOM     72  C   UNL A   1      39.733  33.409  35.496  1.00  0.00     0.173 A 
ATOM     73  F   UNL A   1      38.159  30.235  36.302  1.00  0.00    -0.203 F 
ATOM     74  C   UNL A   1      38.093  32.298  37.438  1.00  0.00     0.198 A 
ATOM     75  C   UNL A   1      39.298  34.182  36.570  1.00  0.00     0.198 A 
ATOM     76  F   UNL A   1      40.518  33.975  34.568  1.00  0.00    -0.203 F 
ATOM     77  F   UNL A   1      37.273  31.766  38.356  1.00  0.00    -0.200 F 
ATOM     78  C   UNL A   1      38.474  33.628  37.536  1.00  0.00     0.200 A 
ATOM     79  F   UNL A   1      39.678  35.464  36.668  1.00  0.00    -0.200 F 
ATOM     80  F   UNL A   1      38.040  34.377  38.559  1.00  0.00    -0.200 F 
ENDBRANCH  46  70
BRANCH  58  81
ATOM     81  C   UNL A   1      44.822  27.811  34.512  1.00  0.00     0.064 A 
ATOM     82  C   UNL A   1      44.743  26.704  35.370  1.00  0.00     0.173 A 
ATOM     83  C   UNL A   1      46.015  28.549  34.495  1.00  0.00     0.173 A 
ATOM     84  F   UNL A   1      43.616  25.979  35.434  1.00  0.00    -0.203 F 
ATOM     85  C   UNL A   1      45.810  26.365  36.197  1.00  0.00     0.198 A 
ATOM     86  C   UNL A   1      47.089  28.192  35.305  1.00  0.00     0.198 A 
ATOM     87  F   UNL A   1      46.139  29.613  33.689  1.00  0.00    -0.203 F 
ATOM     88  F   UNL A   1      45.697  25.331  37.043  1.00  0.00    -0.200 F 
ATOM     89  C   UNL A   1      46.983  27.105  36.160  1.00  0.00     0.200 A 
ATOM     90  F   UNL A   1      48.224  28.901  35.261  1.00  0.00    -0.200 F 
ATOM     91  F   UNL A   1      48.009  26.775  36.956  1.00  0.00    -0.200 F 
ENDBRANCH  58  81
ENDBRANCH  32  33
ENDBRANCH  25  27
ENDBRANCH  24  25
ENDBRANCH  23  24
ENDBRANCH   1  23
TORSDOF 14
ENDMDL
MODEL 3
REMARK VINA RESULT:     -11.7      2.851      8.378
REMARK SMILES CN1CCN(C(=O)N2CC[C@@H](CC(=O)OCCOC(=O)c3ccc(-c4c5nc(c(-c6c(F)c(F)c(F)c(F)c6F)c6ccc([nH]6)c(-c6c(F)c(F)c(F)c(F)c6F)c6nc(c(-c7c(F)c(F)c(F)c(F)c7F)c7ccc4[nH]7)C=C6)C=C5)cc3)C2)C(C)(C)C1=O
REMARK SMILES IDX 16 1 15 2 13 3 14 4 12 5 11 6 8 7 9 8 84 9 10 10 6 11 7 12
REMARK SMILES IDX 5 13 1 14 2 15 3 16 88 17 4 18 85 19 89 20 86 21 87 22 17 23
REMARK SMILES IDX 18 24 19 25 20 26 21 27 22 28 83 29 23 30 82 31 24 32 25 33
REMARK SMILES IDX 26 34 76 35 27 36 81 37 75 38 77 39 28 40 80 41 74 42 73 43
REMARK SMILES IDX 29 45 61 46 41 47 60 48 42 49 45 50 59 51 78 52 43 53 44 54
REMARK SMILES IDX 58 56 79 57 46 58 30 59 31 60 39 61 32 62 33 63 37 64 40 65
REMARK SMILES IDX 34 66 35 67 38 68 36 69 62 70 63 71 71 72 64 73 65 74 69 75
REMARK SMILES IDX 72 76 66 77 67 78 70 79 68 80 47 81 48 82 56 83 49 84 50 85
REMARK SMILES IDX 54 86 57 87 51 88 52 89 55 90 53 91
REMARK H PARENT 77 44 45 55
REMARK Flexibility Score: inf
ROOT
ATOM      1  C   UNL A   1      42.911  20.554  25.910  1.00  0.00     0.274 C 
ENDROOT
BRANCH   1   2
ATOM      2  O   UNL A   1      41.509  20.851  25.746  1.00  0.00    -0.462 OA
BRANCH   2   3
ATOM      3  C   UNL A   1      40.760  20.919  26.869  1.00  0.00     0.306 C 
ATOM      4  O   UNL A   1      40.777  20.087  27.768  1.00  0.00    -0.252 OA
BRANCH   3   5
ATOM      5  C   UNL A   1      39.832  22.117  26.920  1.00  0.00     0.128 C 
BRANCH   5   6
ATOM      6  C   UNL A   1      38.772  22.346  25.842  1.00  0.00     0.021 C 
ATOM      7  N   UNL A   1      36.433  22.101  25.639  1.00  0.00    -0.324 N 
ATOM      8  C   UNL A   1      36.625  23.436  26.161  1.00  0.00     0.122 C 
ATOM      9  C   UNL A   1      37.636  21.316  25.795  1.00  0.00     0.125 C 
ATOM     10  C   UNL A   1      38.088  23.724  25.865  1.00  0.00     0.027 C 
BRANCH   7  11
ATOM     11  C   UNL A   1      35.248  21.544  25.227  1.00  0.00     0.320 C 
ATOM     12  O   UNL A   1      35.174  20.427  24.721  1.00  0.00    -0.248 OA
BRANCH  11  13
ATOM     13  N   UNL A   1      34.128  22.347  25.397  1.00  0.00    -0.309 N 
ATOM     14  C   UNL A   1      30.505  24.568  26.037  1.00  0.00     0.146 C 
ATOM     15  N   UNL A   1      31.705  23.797  25.771  1.00  0.00    -0.342 N 
ATOM     16  C   UNL A   1      32.302  23.075  26.891  1.00  0.00     0.140 C 
ATOM     17  C   UNL A   1      32.361  23.938  24.551  1.00  0.00     0.247 C 
ATOM     18  C   UNL A   1      33.254  21.955  26.495  1.00  0.00     0.144 C 
ATOM     19  C   UNL A   1      33.410  22.841  24.183  1.00  0.00     0.118 C 
ATOM     20  O   UNL A   1      31.981  24.760  23.713  1.00  0.00    -0.272 OA
ATOM     21  C   UNL A   1      32.608  21.688  23.531  1.00  0.00     0.045 C 
ATOM     22  C   UNL A   1      34.323  23.421  23.082  1.00  0.00     0.045 C 
ENDBRANCH  11  13
ENDBRANCH   7  11
ENDBRANCH   5   6
ENDBRANCH   3   5
ENDBRANCH   2   3
ENDBRANCH   1   2
BRANCH   1  23
ATOM     23  C   UNL A   1      43.775  21.634  25.263  1.00  0.00     0.275 C 
BRANCH  23  24
ATOM     24  O   UNL A   1      43.013  22.845  25.120  1.00  0.00    -0.458 OA
BRANCH  24  25
ATOM     25  C   UNL A   1      43.744  23.981  25.067  1.00  0.00     0.338 C 
ATOM     26  O   UNL A   1      44.629  24.262  24.283  1.00  0.00    -0.246 OA
BRANCH  25  27
ATOM     27  C   UNL A   1      43.277  24.899  26.112  1.00  0.00     0.060 A 
ATOM     28  C   UNL A   1      43.742  26.215  26.128  1.00  0.00     0.016 A 
ATOM     29  C   UNL A   1      42.442  24.426  27.123  1.00  0.00     0.016 A 
ATOM     30  C   UNL A   1      43.379  27.069  27.164  1.00  0.00     0.010 A 
ATOM     31  C   UNL A   1      42.050  25.293  28.145  1.00  0.00     0.010 A 
ATOM     32  C   UNL A   1      42.520  26.619  28.174  1.00  0.00    -0.014 A 
BRANCH  32  33
ATOM     33  C   UNL A   1      42.109  27.534  29.264  1.00  0.00     0.031 A 
ATOM     34  C   UNL A   1      42.894  27.588  30.540  1.00  0.00     0.074 A 
ATOM     35  C   UNL A   1      41.022  28.309  29.098  1.00  0.00     0.049 A 
ATOM     36  N   UNL A   1      42.617  28.212  31.655  1.00  0.00    -0.248 NA
ATOM     37  C   UNL A   1      44.161  26.839  30.564  1.00  0.00     0.031 C 
ATOM     38  C   UNL A   1      40.211  28.377  27.881  1.00  0.00     0.029 A 
ATOM     39  N   UNL A   1      40.407  29.183  29.958  1.00  0.00    -0.354 N 
ATOM     40  C   UNL A   1      43.659  27.913  32.523  1.00  0.00     0.074 A 
ATOM     41  C   UNL A   1      44.570  27.045  31.809  1.00  0.00     0.031 C 
ATOM     42  C   UNL A   1      39.209  29.248  28.070  1.00  0.00     0.029 A 
ATOM     43  C   UNL A   1      39.270  29.750  29.439  1.00  0.00     0.049 A 
ATOM     44  H   UNL A   1      40.747  29.383  30.860  1.00  0.00     0.167 HD
ATOM     45  C   UNL A   1      43.831  28.328  33.801  1.00  0.00     0.037 A 
ATOM     46  C   UNL A   1      38.357  30.554  30.017  1.00  0.00     0.037 A 
ATOM     47  C   UNL A   1      42.922  29.202  34.497  1.00  0.00     0.049 A 
ATOM     48  C   UNL A   1      38.539  30.946  31.457  1.00  0.00     0.074 A 
ATOM     49  C   UNL A   1      43.002  29.677  35.795  1.00  0.00     0.029 A 
ATOM     50  N   UNL A   1      41.764  29.734  33.949  1.00  0.00    -0.354 N 
ATOM     51  N   UNL A   1      39.508  30.635  32.282  1.00  0.00    -0.248 NA
ATOM     52  C   UNL A   1      37.492  31.789  32.049  1.00  0.00     0.031 C 
ATOM     53  C   UNL A   1      41.875  30.469  36.042  1.00  0.00     0.029 A 
ATOM     54  C   UNL A   1      41.113  30.521  34.886  1.00  0.00     0.049 A 
ATOM     55  H   UNL A   1      41.451  29.577  33.029  1.00  0.00     0.167 HD
ATOM     56  C   UNL A   1      39.202  31.257  33.482  1.00  0.00     0.074 A 
ATOM     57  C   UNL A   1      37.962  31.977  33.274  1.00  0.00     0.031 C 
ATOM     58  C   UNL A   1      39.883  31.232  34.655  1.00  0.00     0.037 A 
BRANCH  45  59
ATOM     59  C   UNL A   1      45.031  27.817  34.540  1.00  0.00     0.064 A 
ATOM     60  C   UNL A   1      46.239  28.528  34.568  1.00  0.00     0.173 A 
ATOM     61  C   UNL A   1      44.959  26.617  35.263  1.00  0.00     0.173 A 
ATOM     62  F   UNL A   1      46.363  29.675  33.883  1.00  0.00    -0.203 F 
ATOM     63  C   UNL A   1      47.338  28.048  35.278  1.00  0.00     0.198 A 
ATOM     64  C   UNL A   1      46.050  26.151  35.991  1.00  0.00     0.198 A 
ATOM     65  F   UNL A   1      43.825  25.900  35.273  1.00  0.00    -0.203 F 
ATOM     66  F   UNL A   1      48.494  28.725  35.262  1.00  0.00    -0.200 F 
ATOM     67  C   UNL A   1      47.240  26.863  35.993  1.00  0.00     0.200 A 
ATOM     68  F   UNL A   1      45.951  25.012  36.691  1.00  0.00    -0.200 F 
ATOM     69  F   UNL A   1      48.295  26.405  36.682  1.00  0.00    -0.200 F 
ENDBRANCH  45  59
BRANCH  46  70
ATOM     70  C   UNL A   1      37.178  31.013  29.239  1.00  0.00     0.064 A 
ATOM     71  C   UNL A   1      36.110  30.147  28.970  1.00  0.00     0.173 A 
ATOM     72  C   UNL A   1      37.093  32.327  28.755  1.00  0.00     0.173 A 
ATOM     73  F   UNL A   1      36.158  28.874  29.390  1.00  0.00    -0.203 F 
ATOM     74  C   UNL A   1      35.007  30.575  28.234  1.00  0.00     0.198 A 
ATOM     75  C   UNL A   1      35.976  32.761  28.045  1.00  0.00     0.198 A 
ATOM     76  F   UNL A   1      38.089  33.194  28.986  1.00  0.00    -0.203 F 
ATOM     77  F   UNL A   1      34.017  29.715  27.956  1.00  0.00    -0.200 F 
ATOM     78  C   UNL A   1      34.937  31.883  27.779  1.00  0.00     0.200 A 
ATOM     79  F   UNL A   1      35.908  34.030  27.617  1.00  0.00    -0.200 F 
ATOM     80  F   UNL A   1      33.872  32.294  27.079  1.00  0.00    -0.200 F 
ENDBRANCH  46  70
BRANCH  58  81
ATOM     81  C   UNL A   1      39.315  32.034  35.787  1.00  0.00     0.064 A 
ATOM     82  C   UNL A   1      38.409  31.474  36.700  1.00  0.00     0.173 A 
ATOM     83  C   UNL A   1      39.703  33.369  35.976  1.00  0.00     0.173 A 
ATOM     84  F   UNL A   1      37.996  30.207  36.549  1.00  0.00    -0.203 F 
ATOM     85  C   UNL A   1      37.893  32.230  37.748  1.00  0.00     0.198 A 
ATOM     86  C   UNL A   1      39.205  34.114  37.040  1.00  0.00     0.198 A 
ATOM     87  F   UNL A   1      40.569  33.946  35.131  1.00  0.00    -0.203 F 
ATOM     88  F   UNL A   1      36.994  31.690  38.582  1.00  0.00    -0.200 F 
ATOM     89  C   UNL A   1      38.295  33.547  37.921  1.00  0.00     0.200 A 
ATOM     90  F   UNL A   1      39.601  35.383  37.211  1.00  0.00    -0.200 F 
ATOM     91  F   UNL A   1      37.799  34.273  38.932  1.00  0.00    -0.200 F 
ENDBRANCH  58  81
ENDBRANCH  32  33
ENDBRANCH  25  27
ENDBRANCH  24  25
ENDBRANCH  23  24
ENDBRANCH   1  23
TORSDOF 14
ENDMDL
