MODEL 1
REMARK VINA RESULT:     -10.7      0.000      0.000
REMARK SMILES CC(C)(C)C(=O)NCc1ccc(C(=O)OCCOC(=O)c2ccc(-c3c4nc(c(-c5c(F)c(F)c(F)c(F)c5F)c5ccc([nH]5)c(-c5c(F)c(F)c(F)c(F)c5F)c5nc(c(-c6c(F)c(F)c(F)c(F)c6F)c6ccc3[nH]6)C=C5)C=C4)cc2)o1
REMARK SMILES IDX 16 1 15 2 13 3 14 4 12 5 9 6 10 7 84 8 11 9 8 10 7 11 5 12
REMARK SMILES IDX 6 13 2 15 1 16 3 17 4 18 17 19 18 20 19 21 20 22 21 23 22 24
REMARK SMILES IDX 83 25 23 26 82 27 24 28 25 29 26 30 76 31 27 32 81 33 75 34
REMARK SMILES IDX 77 35 28 36 80 37 74 38 73 39 29 41 61 42 41 43 60 44 42 45
REMARK SMILES IDX 45 46 59 47 78 48 43 49 44 50 58 52 79 53 46 54 30 55 31 56
REMARK SMILES IDX 39 57 32 58 33 59 37 60 40 61 34 62 35 63 38 64 36 65 62 66
REMARK SMILES IDX 63 67 71 68 64 69 65 70 69 71 72 72 66 73 67 74 70 75 68 76
REMARK SMILES IDX 47 77 48 78 56 79 49 80 50 81 54 82 57 83 51 84 52 85 55 86
REMARK SMILES IDX 53 87
REMARK H PARENT 7 14 77 40 45 51
REMARK Flexibility Score: inf
ROOT
ATOM      1  C   UNL A   1      33.691  36.006  28.911  1.00  0.00     0.275 C 
ENDROOT
BRANCH   1   2
ATOM      2  O   UNL A   1      34.142  34.650  29.082  1.00  0.00    -0.456 OA
BRANCH   2   3
ATOM      3  C   UNL A   1      33.546  33.717  28.281  1.00  0.00     0.374 C 
ATOM      4  O   UNL A   1      32.476  33.875  27.711  1.00  0.00    -0.242 OA
BRANCH   3   5
ATOM      5  C   UNL A   1      34.417  32.572  28.130  1.00  0.00     0.211 A 
ATOM      6  C   UNL A   1      34.843  30.485  27.538  1.00  0.00     0.124 A 
ATOM      7  C   UNL A   1      36.062  31.070  27.812  1.00  0.00     0.048 A 
ATOM      8  O   UNL A   1      33.841  31.376  27.781  1.00  0.00    -0.452 OA
ATOM      9  C   UNL A   1      35.788  32.408  28.189  1.00  0.00     0.058 A 
BRANCH   6  10
ATOM     10  C   UNL A   1      34.431  29.154  27.026  1.00  0.00     0.191 C 
BRANCH  10  11
ATOM     11  N   UNL A   1      33.181  28.783  27.661  1.00  0.00    -0.348 N 
ATOM     12  C   UNL A   1      32.165  27.958  27.302  1.00  0.00     0.225 C 
ATOM     13  O   UNL A   1      31.246  27.853  28.120  1.00  0.00    -0.275 OA
ATOM     14  H   UNL A   1      33.041  29.219  28.532  1.00  0.00     0.163 HD
BRANCH  12  15
ATOM     15  C   UNL A   1      32.141  27.187  25.966  1.00  0.00     0.041 C 
ATOM     16  C   UNL A   1      30.707  26.650  25.737  1.00  0.00     0.021 C 
ATOM     17  C   UNL A   1      33.077  25.972  26.010  1.00  0.00     0.021 C 
ATOM     18  C   UNL A   1      32.463  28.112  24.785  1.00  0.00     0.021 C 
ENDBRANCH  12  15
ENDBRANCH  10  11
ENDBRANCH   6  10
ENDBRANCH   3   5
ENDBRANCH   2   3
ENDBRANCH   1   2
BRANCH   1  19
ATOM     19  C   UNL A   1      32.583  36.357  29.912  1.00  0.00     0.275 C 
BRANCH  19  20
ATOM     20  O   UNL A   1      33.104  36.591  31.236  1.00  0.00    -0.458 OA
BRANCH  20  21
ATOM     21  C   UNL A   1      32.763  35.668  32.166  1.00  0.00     0.338 C 
ATOM     22  O   UNL A   1      31.635  35.365  32.517  1.00  0.00    -0.246 OA
BRANCH  21  23
ATOM     23  C   UNL A   1      33.964  34.942  32.619  1.00  0.00     0.060 A 
ATOM     24  C   UNL A   1      35.208  35.517  32.349  1.00  0.00     0.016 A 
ATOM     25  C   UNL A   1      33.884  33.696  33.243  1.00  0.00     0.016 A 
ATOM     26  C   UNL A   1      36.381  34.858  32.705  1.00  0.00     0.010 A 
ATOM     27  C   UNL A   1      35.065  33.028  33.594  1.00  0.00     0.010 A 
ATOM     28  C   UNL A   1      36.317  33.604  33.322  1.00  0.00    -0.014 A 
BRANCH  28  29
ATOM     29  C   UNL A   1      37.577  32.885  33.630  1.00  0.00     0.031 A 
ATOM     30  C   UNL A   1      38.289  33.143  34.924  1.00  0.00     0.074 A 
ATOM     31  C   UNL A   1      38.051  31.966  32.770  1.00  0.00     0.049 A 
ATOM     32  N   UNL A   1      39.413  32.638  35.367  1.00  0.00    -0.248 NA
ATOM     33  C   UNL A   1      37.652  34.098  35.842  1.00  0.00     0.031 C 
ATOM     34  C   UNL A   1      37.420  31.592  31.504  1.00  0.00     0.029 A 
ATOM     35  N   UNL A   1      39.169  31.173  32.837  1.00  0.00    -0.354 N 
ATOM     36  C   UNL A   1      39.626  33.222  36.608  1.00  0.00     0.074 A 
ATOM     37  C   UNL A   1      38.524  34.132  36.841  1.00  0.00     0.031 C 
ATOM     38  C   UNL A   1      38.155  30.635  30.917  1.00  0.00     0.029 A 
ATOM     39  C   UNL A   1      39.326  30.355  31.746  1.00  0.00     0.049 A 
ATOM     40  H   UNL A   1      39.797  31.189  33.593  1.00  0.00     0.167 HD
ATOM     41  C   UNL A   1      40.645  33.011  37.475  1.00  0.00     0.037 A 
ATOM     42  C   UNL A   1      40.311  29.488  31.443  1.00  0.00     0.037 A 
ATOM     43  C   UNL A   1      41.729  32.091  37.252  1.00  0.00     0.049 A 
ATOM     44  C   UNL A   1      41.459  29.313  32.399  1.00  0.00     0.074 A 
ATOM     45  C   UNL A   1      42.797  31.797  38.080  1.00  0.00     0.029 A 
ATOM     46  N   UNL A   1      41.879  31.312  36.114  1.00  0.00    -0.354 N 
ATOM     47  N   UNL A   1      41.656  29.872  33.569  1.00  0.00    -0.248 NA
ATOM     48  C   UNL A   1      42.526  28.387  31.991  1.00  0.00     0.031 C 
ATOM     49  C   UNL A   1      43.616  30.868  37.426  1.00  0.00     0.029 A 
ATOM     50  C   UNL A   1      43.035  30.555  36.208  1.00  0.00     0.049 A 
ATOM     51  H   UNL A   1      41.255  31.299  35.352  1.00  0.00     0.167 HD
ATOM     52  C   UNL A   1      42.855  29.359  34.041  1.00  0.00     0.074 A 
ATOM     53  C   UNL A   1      43.336  28.431  33.040  1.00  0.00     0.031 C 
ATOM     54  C   UNL A   1      43.500  29.635  35.201  1.00  0.00     0.037 A 
BRANCH  41  55
ATOM     55  C   UNL A   1      40.650  33.822  38.736  1.00  0.00     0.064 A 
ATOM     56  C   UNL A   1      41.326  35.047  38.824  1.00  0.00     0.173 A 
ATOM     57  C   UNL A   1      39.948  33.375  39.866  1.00  0.00     0.173 A 
ATOM     58  F   UNL A   1      42.020  35.512  37.774  1.00  0.00    -0.203 F 
ATOM     59  C   UNL A   1      41.324  35.782  40.007  1.00  0.00     0.198 A 
ATOM     60  C   UNL A   1      39.927  34.123  41.039  1.00  0.00     0.198 A 
ATOM     61  F   UNL A   1      39.280  32.212  39.831  1.00  0.00    -0.203 F 
ATOM     62  F   UNL A   1      42.012  36.930  40.084  1.00  0.00    -0.200 F 
ATOM     63  C   UNL A   1      40.621  35.322  41.111  1.00  0.00     0.200 A 
ATOM     64  F   UNL A   1      39.241  33.683  42.102  1.00  0.00    -0.200 F 
ATOM     65  F   UNL A   1      40.618  36.031  42.249  1.00  0.00    -0.200 F 
ENDBRANCH  41  55
BRANCH  42  66
ATOM     66  C   UNL A   1      40.256  28.727  30.171  1.00  0.00     0.064 A 
ATOM     67  C   UNL A   1      40.867  29.218  29.010  1.00  0.00     0.173 A 
ATOM     68  C   UNL A   1      39.596  27.492  30.092  1.00  0.00     0.173 A 
ATOM     69  F   UNL A   1      41.486  30.407  29.031  1.00  0.00    -0.203 F 
ATOM     70  C   UNL A   1      40.817  28.502  27.815  1.00  0.00     0.198 A 
ATOM     71  C   UNL A   1      39.566  26.767  28.903  1.00  0.00     0.198 A 
ATOM     72  F   UNL A   1      38.991  26.983  31.175  1.00  0.00    -0.203 F 
ATOM     73  F   UNL A   1      41.381  29.009  26.710  1.00  0.00    -0.200 F 
ATOM     74  C   UNL A   1      40.173  27.275  27.764  1.00  0.00     0.200 A 
ATOM     75  F   UNL A   1      38.950  25.578  28.860  1.00  0.00    -0.200 F 
ATOM     76  F   UNL A   1      40.131  26.586  26.617  1.00  0.00    -0.200 F 
ENDBRANCH  42  66
BRANCH  54  77
ATOM     77  C   UNL A   1      44.788  28.911  35.457  1.00  0.00     0.064 A 
ATOM     78  C   UNL A   1      44.812  27.667  36.104  1.00  0.00     0.173 A 
ATOM     79  C   UNL A   1      46.006  29.450  35.017  1.00  0.00     0.173 A 
ATOM     80  F   UNL A   1      43.673  27.121  36.557  1.00  0.00    -0.203 F 
ATOM     81  C   UNL A   1      46.013  26.997  36.318  1.00  0.00     0.198 A 
ATOM     82  C   UNL A   1      47.203  28.766  35.213  1.00  0.00     0.198 A 
ATOM     83  F   UNL A   1      46.035  30.635  34.390  1.00  0.00    -0.203 F 
ATOM     84  F   UNL A   1      46.018  25.827  36.972  1.00  0.00    -0.200 F 
ATOM     85  C   UNL A   1      47.206  27.543  35.867  1.00  0.00     0.200 A 
ATOM     86  F   UNL A   1      48.354  29.291  34.770  1.00  0.00    -0.200 F 
ATOM     87  F   UNL A   1      48.360  26.894  36.072  1.00  0.00    -0.200 F 
ENDBRANCH  54  77
ENDBRANCH  28  29
ENDBRANCH  21  23
ENDBRANCH  20  21
ENDBRANCH  19  20
ENDBRANCH   1  19
TORSDOF 14
ENDMDL
MODEL 2
REMARK VINA RESULT:     -10.5      2.913      8.854
REMARK SMILES CC(C)(C)C(=O)NCc1ccc(C(=O)OCCOC(=O)c2ccc(-c3c4nc(c(-c5c(F)c(F)c(F)c(F)c5F)c5ccc([nH]5)c(-c5c(F)c(F)c(F)c(F)c5F)c5nc(c(-c6c(F)c(F)c(F)c(F)c6F)c6ccc3[nH]6)C=C5)C=C4)cc2)o1
REMARK SMILES IDX 16 1 15 2 13 3 14 4 12 5 9 6 10 7 84 8 11 9 8 10 7 11 5 12
REMARK SMILES IDX 6 13 2 15 1 16 3 17 4 18 17 19 18 20 19 21 20 22 21 23 22 24
REMARK SMILES IDX 83 25 23 26 82 27 24 28 25 29 26 30 76 31 27 32 81 33 75 34
REMARK SMILES IDX 77 35 28 36 80 37 74 38 73 39 29 41 61 42 41 43 60 44 42 45
REMARK SMILES IDX 45 46 59 47 78 48 43 49 44 50 58 52 79 53 46 54 30 55 31 56
REMARK SMILES IDX 39 57 32 58 33 59 37 60 40 61 34 62 35 63 38 64 36 65 62 66
REMARK SMILES IDX 63 67 71 68 64 69 65 70 69 71 72 72 66 73 67 74 70 75 68 76
REMARK SMILES IDX 47 77 48 78 56 79 49 80 50 81 54 82 57 83 51 84 52 85 55 86
REMARK SMILES IDX 53 87
REMARK H PARENT 7 14 77 40 45 51
REMARK Flexibility Score: inf
ROOT
ATOM      1  C   UNL A   1      31.480  29.290  24.546  1.00  0.00     0.275 C 
ENDROOT
BRANCH   1   2
ATOM      2  O   UNL A   1      30.215  29.535  23.905  1.00  0.00    -0.456 OA
BRANCH   2   3
ATOM      3  C   UNL A   1      30.002  28.868  22.731  1.00  0.00     0.374 C 
ATOM      4  O   UNL A   1      29.735  29.406  21.667  1.00  0.00    -0.242 OA
BRANCH   3   5
ATOM      5  C   UNL A   1      30.242  27.454  22.920  1.00  0.00     0.211 A 
ATOM      6  C   UNL A   1      31.426  25.605  22.665  1.00  0.00     0.124 A 
ATOM      7  C   UNL A   1      30.438  25.313  23.582  1.00  0.00     0.048 A 
ATOM      8  O   UNL A   1      31.278  26.885  22.223  1.00  0.00    -0.452 OA
ATOM      9  C   UNL A   1      29.681  26.499  23.747  1.00  0.00     0.058 A 
BRANCH   6  10
ATOM     10  C   UNL A   1      32.580  24.849  22.118  1.00  0.00     0.191 C 
BRANCH  10  11
ATOM     11  N   UNL A   1      32.271  23.433  22.168  1.00  0.00    -0.348 N 
ATOM     12  C   UNL A   1      32.726  22.409  22.932  1.00  0.00     0.225 C 
ATOM     13  O   UNL A   1      32.206  21.309  22.718  1.00  0.00    -0.275 OA
ATOM     14  H   UNL A   1      31.590  23.160  21.512  1.00  0.00     0.163 HD
BRANCH  12  15
ATOM     15  C   UNL A   1      33.817  22.583  24.008  1.00  0.00     0.041 C 
ATOM     16  C   UNL A   1      34.202  21.184  24.546  1.00  0.00     0.021 C 
ATOM     17  C   UNL A   1      33.296  23.398  25.199  1.00  0.00     0.021 C 
ATOM     18  C   UNL A   1      35.091  23.197  23.413  1.00  0.00     0.021 C 
ENDBRANCH  12  15
ENDBRANCH  10  11
ENDBRANCH   6  10
ENDBRANCH   3   5
ENDBRANCH   2   3
ENDBRANCH   1   2
BRANCH   1  19
ATOM     19  C   UNL A   1      31.692  30.230  25.739  1.00  0.00     0.275 C 
BRANCH  19  20
ATOM     20  O   UNL A   1      33.079  30.314  26.123  1.00  0.00    -0.458 OA
BRANCH  20  21
ATOM     21  C   UNL A   1      33.390  31.338  26.953  1.00  0.00     0.338 C 
ATOM     22  O   UNL A   1      32.699  32.311  27.207  1.00  0.00    -0.246 OA
BRANCH  21  23
ATOM     23  C   UNL A   1      34.656  31.051  27.652  1.00  0.00     0.060 A 
ATOM     24  C   UNL A   1      34.881  29.738  28.073  1.00  0.00     0.016 A 
ATOM     25  C   UNL A   1      35.583  32.053  27.946  1.00  0.00     0.016 A 
ATOM     26  C   UNL A   1      36.033  29.413  28.783  1.00  0.00     0.010 A 
ATOM     27  C   UNL A   1      36.739  31.729  28.668  1.00  0.00     0.010 A 
ATOM     28  C   UNL A   1      36.966  30.409  29.094  1.00  0.00    -0.014 A 
BRANCH  28  29
ATOM     29  C   UNL A   1      38.152  30.058  29.911  1.00  0.00     0.031 A 
ATOM     30  C   UNL A   1      39.215  29.164  29.344  1.00  0.00     0.074 A 
ATOM     31  C   UNL A   1      38.297  30.583  31.141  1.00  0.00     0.049 A 
ATOM     32  N   UNL A   1      40.312  28.721  29.905  1.00  0.00    -0.248 NA
ATOM     33  C   UNL A   1      39.017  28.709  27.960  1.00  0.00     0.031 C 
ATOM     34  C   UNL A   1      37.356  31.502  31.780  1.00  0.00     0.029 A 
ATOM     35  N   UNL A   1      39.295  30.423  32.068  1.00  0.00    -0.354 N 
ATOM     36  C   UNL A   1      40.928  27.924  28.950  1.00  0.00     0.074 A 
ATOM     37  C   UNL A   1      40.075  27.931  27.780  1.00  0.00     0.031 C 
ATOM     38  C   UNL A   1      37.827  31.834  32.993  1.00  0.00     0.029 A 
ATOM     39  C   UNL A   1      39.081  31.123  33.230  1.00  0.00     0.049 A 
ATOM     40  H   UNL A   1      40.089  29.862  31.916  1.00  0.00     0.167 HD
ATOM     41  C   UNL A   1      42.101  27.254  29.042  1.00  0.00     0.037 A 
ATOM     42  C   UNL A   1      39.809  31.172  34.362  1.00  0.00     0.037 A 
ATOM     43  C   UNL A   1      42.958  27.264  30.199  1.00  0.00     0.049 A 
ATOM     44  C   UNL A   1      41.081  30.376  34.457  1.00  0.00     0.074 A 
ATOM     45  C   UNL A   1      44.174  26.629  30.379  1.00  0.00     0.029 A 
ATOM     46  N   UNL A   1      42.686  27.948  31.375  1.00  0.00    -0.354 N 
ATOM     47  N   UNL A   1      41.655  29.621  33.552  1.00  0.00    -0.248 NA
ATOM     48  C   UNL A   1      41.806  30.435  35.735  1.00  0.00     0.031 C 
ATOM     49  C   UNL A   1      44.621  26.899  31.679  1.00  0.00     0.029 A 
ATOM     50  C   UNL A   1      43.700  27.733  32.293  1.00  0.00     0.049 A 
ATOM     51  H   UNL A   1      41.890  28.505  31.533  1.00  0.00     0.167 HD
ATOM     52  C   UNL A   1      42.810  29.128  34.141  1.00  0.00     0.074 A 
ATOM     53  C   UNL A   1      42.866  29.680  35.479  1.00  0.00     0.031 C 
ATOM     54  C   UNL A   1      43.740  28.290  33.621  1.00  0.00     0.037 A 
BRANCH  41  55
ATOM     55  C   UNL A   1      42.509  26.422  27.863  1.00  0.00     0.064 A 
ATOM     56  C   UNL A   1      43.386  26.910  26.884  1.00  0.00     0.173 A 
ATOM     57  C   UNL A   1      42.031  25.110  27.725  1.00  0.00     0.173 A 
ATOM     58  F   UNL A   1      43.861  28.161  26.966  1.00  0.00    -0.203 F 
ATOM     59  C   UNL A   1      43.747  26.123  25.793  1.00  0.00     0.198 A 
ATOM     60  C   UNL A   1      42.413  24.318  26.647  1.00  0.00     0.198 A 
ATOM     61  F   UNL A   1      41.194  24.596  28.639  1.00  0.00    -0.203 F 
ATOM     62  F   UNL A   1      44.553  26.622  24.845  1.00  0.00    -0.200 F 
ATOM     63  C   UNL A   1      43.265  24.827  25.678  1.00  0.00     0.200 A 
ATOM     64  F   UNL A   1      41.954  23.064  26.542  1.00  0.00    -0.200 F 
ATOM     65  F   UNL A   1      43.615  24.070  24.628  1.00  0.00    -0.200 F 
ENDBRANCH  41  55
BRANCH  42  66
ATOM     66  C   UNL A   1      39.342  32.003  35.500  1.00  0.00     0.064 A 
ATOM     67  C   UNL A   1      39.744  33.338  35.631  1.00  0.00     0.173 A 
ATOM     68  C   UNL A   1      38.481  31.479  36.476  1.00  0.00     0.173 A 
ATOM     69  F   UNL A   1      40.588  33.874  34.736  1.00  0.00    -0.203 F 
ATOM     70  C   UNL A   1      39.305  34.118  36.698  1.00  0.00     0.198 A 
ATOM     71  C   UNL A   1      38.026  32.266  37.529  1.00  0.00     0.198 A 
ATOM     72  F   UNL A   1      38.074  30.203  36.397  1.00  0.00    -0.203 F 
ATOM     73  F   UNL A   1      39.730  35.384  36.819  1.00  0.00    -0.200 F 
ATOM     74  C   UNL A   1      38.441  33.585  37.642  1.00  0.00     0.200 A 
ATOM     75  F   UNL A   1      37.184  31.749  38.435  1.00  0.00    -0.200 F 
ATOM     76  F   UNL A   1      38.015  34.337  38.665  1.00  0.00    -0.200 F 
ENDBRANCH  42  66
BRANCH  54  77
ATOM     77  C   UNL A   1      44.906  27.934  34.494  1.00  0.00     0.064 A 
ATOM     78  C   UNL A   1      46.061  28.729  34.532  1.00  0.00     0.173 A 
ATOM     79  C   UNL A   1      44.852  26.808  35.328  1.00  0.00     0.173 A 
ATOM     80  F   UNL A   1      46.164  29.807  33.740  1.00  0.00    -0.203 F 
ATOM     81  C   UNL A   1      47.128  28.398  35.362  1.00  0.00     0.198 A 
ATOM     82  C   UNL A   1      45.912  26.492  36.173  1.00  0.00     0.198 A 
ATOM     83  F   UNL A   1      43.768  26.018  35.330  1.00  0.00    -0.203 F 
ATOM     84  F   UNL A   1      48.238  29.150  35.356  1.00  0.00    -0.200 F 
ATOM     85  C   UNL A   1      47.051  27.284  36.186  1.00  0.00     0.200 A 
ATOM     86  F   UNL A   1      45.834  25.421  36.974  1.00  0.00    -0.200 F 
ATOM     87  F   UNL A   1      48.079  26.969  36.986  1.00  0.00    -0.200 F 
ENDBRANCH  54  77
ENDBRANCH  28  29
ENDBRANCH  21  23
ENDBRANCH  20  21
ENDBRANCH  19  20
ENDBRANCH   1  19
TORSDOF 14
ENDMDL
MODEL 3
REMARK VINA RESULT:     -10.5      3.238      6.586
REMARK SMILES CC(C)(C)C(=O)NCc1ccc(C(=O)OCCOC(=O)c2ccc(-c3c4nc(c(-c5c(F)c(F)c(F)c(F)c5F)c5ccc([nH]5)c(-c5c(F)c(F)c(F)c(F)c5F)c5nc(c(-c6c(F)c(F)c(F)c(F)c6F)c6ccc3[nH]6)C=C5)C=C4)cc2)o1
REMARK SMILES IDX 16 1 15 2 13 3 14 4 12 5 9 6 10 7 84 8 11 9 8 10 7 11 5 12
REMARK SMILES IDX 6 13 2 15 1 16 3 17 4 18 17 19 18 20 19 21 20 22 21 23 22 24
REMARK SMILES IDX 83 25 23 26 82 27 24 28 25 29 26 30 76 31 27 32 81 33 75 34
REMARK SMILES IDX 77 35 28 36 80 37 74 38 73 39 29 41 61 42 41 43 60 44 42 45
REMARK SMILES IDX 45 46 59 47 78 48 43 49 44 50 58 52 79 53 46 54 30 55 31 56
REMARK SMILES IDX 39 57 32 58 33 59 37 60 40 61 34 62 35 63 38 64 36 65 62 66
REMARK SMILES IDX 63 67 71 68 64 69 65 70 69 71 72 72 66 73 67 74 70 75 68 76
REMARK SMILES IDX 47 77 48 78 56 79 49 80 50 81 54 82 57 83 51 84 52 85 55 86
REMARK SMILES IDX 53 87
REMARK H PARENT 7 14 77 40 45 51
REMARK Flexibility Score: inf
ROOT
ATOM      1  C   UNL A   1      33.880  33.765  28.602  1.00  0.00     0.275 C 
ENDROOT
BRANCH   1   2
ATOM      2  O   UNL A   1      33.085  34.232  29.707  1.00  0.00    -0.456 OA
BRANCH   2   3
ATOM      3  C   UNL A   1      32.943  35.588  29.810  1.00  0.00     0.374 C 
ATOM      4  O   UNL A   1      32.470  36.303  28.938  1.00  0.00    -0.242 OA
BRANCH   3   5
ATOM      5  C   UNL A   1      33.337  36.024  31.131  1.00  0.00     0.211 A 
ATOM      6  C   UNL A   1      34.367  35.757  33.069  1.00  0.00     0.124 A 
ATOM      7  C   UNL A   1      33.972  37.077  33.015  1.00  0.00     0.048 A 
ATOM      8  O   UNL A   1      33.938  35.104  31.953  1.00  0.00    -0.452 OA
ATOM      9  C   UNL A   1      33.314  37.249  31.772  1.00  0.00     0.058 A 
BRANCH   6  10
ATOM     10  C   UNL A   1      35.156  34.956  34.038  1.00  0.00     0.191 C 
BRANCH  10  11
ATOM     11  N   UNL A   1      35.440  33.663  33.445  1.00  0.00    -0.348 N 
ATOM     12  C   UNL A   1      36.418  32.744  33.643  1.00  0.00     0.225 C 
ATOM     13  O   UNL A   1      36.331  31.715  32.966  1.00  0.00    -0.275 OA
ATOM     14  H   UNL A   1      34.789  33.398  32.756  1.00  0.00     0.163 HD
BRANCH  12  15
ATOM     15  C   UNL A   1      37.570  32.947  34.649  1.00  0.00     0.041 C 
ATOM     16  C   UNL A   1      38.231  31.573  34.918  1.00  0.00     0.021 C 
ATOM     17  C   UNL A   1      37.047  33.468  35.993  1.00  0.00     0.021 C 
ATOM     18  C   UNL A   1      38.659  33.859  34.069  1.00  0.00     0.021 C 
ENDBRANCH  12  15
ENDBRANCH  10  11
ENDBRANCH   6  10
ENDBRANCH   3   5
ENDBRANCH   2   3
ENDBRANCH   1   2
BRANCH   1  19
ATOM     19  C   UNL A   1      33.346  32.437  28.053  1.00  0.00     0.275 C 
BRANCH  19  20
ATOM     20  O   UNL A   1      34.325  31.751  27.247  1.00  0.00    -0.458 OA
BRANCH  20  21
ATOM     21  C   UNL A   1      34.417  30.416  27.457  1.00  0.00     0.338 C 
ATOM     22  O   UNL A   1      33.619  29.563  27.104  1.00  0.00    -0.246 OA
BRANCH  21  23
ATOM     23  C   UNL A   1      35.721  30.091  28.062  1.00  0.00     0.060 A 
ATOM     24  C   UNL A   1      36.857  30.218  27.259  1.00  0.00     0.016 A 
ATOM     25  C   UNL A   1      35.832  29.613  29.369  1.00  0.00     0.016 A 
ATOM     26  C   UNL A   1      38.112  29.877  27.756  1.00  0.00     0.010 A 
ATOM     27  C   UNL A   1      37.094  29.263  29.867  1.00  0.00     0.010 A 
ATOM     28  C   UNL A   1      38.238  29.388  29.061  1.00  0.00    -0.014 A 
BRANCH  28  29
ATOM     29  C   UNL A   1      39.572  28.964  29.548  1.00  0.00     0.031 A 
ATOM     30  C   UNL A   1      40.276  29.768  30.600  1.00  0.00     0.074 A 
ATOM     31  C   UNL A   1      40.127  27.830  29.082  1.00  0.00     0.049 A 
ATOM     32  N   UNL A   1      41.455  29.579  31.138  1.00  0.00    -0.248 NA
ATOM     33  C   UNL A   1      39.557  30.942  31.116  1.00  0.00     0.031 C 
ATOM     34  C   UNL A   1      39.517  26.939  28.095  1.00  0.00     0.029 A 
ATOM     35  N   UNL A   1      41.323  27.232  29.383  1.00  0.00    -0.354 N 
ATOM     36  C   UNL A   1      41.625  30.617  32.045  1.00  0.00     0.074 A 
ATOM     37  C   UNL A   1      40.437  31.441  31.973  1.00  0.00     0.031 C 
ATOM     38  C   UNL A   1      40.340  25.900  27.879  1.00  0.00     0.029 A 
ATOM     39  C   UNL A   1      41.548  26.072  28.683  1.00  0.00     0.049 A 
ATOM     40  H   UNL A   1      41.960  27.598  30.038  1.00  0.00     0.167 HD
ATOM     41  C   UNL A   1      42.676  30.853  32.866  1.00  0.00     0.037 A 
ATOM     42  C   UNL A   1      42.615  25.251  28.681  1.00  0.00     0.037 A 
ATOM     43  C   UNL A   1      43.848  30.022  32.952  1.00  0.00     0.049 A 
ATOM     44  C   UNL A   1      43.791  25.565  29.563  1.00  0.00     0.074 A 
ATOM     45  C   UNL A   1      44.957  30.171  33.766  1.00  0.00     0.029 A 
ATOM     46  N   UNL A   1      44.060  28.879  32.193  1.00  0.00    -0.354 N 
ATOM     47  N   UNL A   1      43.948  26.551  30.414  1.00  0.00    -0.248 NA
ATOM     48  C   UNL A   1      44.944  24.656  29.481  1.00  0.00     0.031 C 
ATOM     49  C   UNL A   1      45.858  29.140  33.473  1.00  0.00     0.029 A 
ATOM     50  C   UNL A   1      45.292  28.327  32.504  1.00  0.00     0.049 A 
ATOM     51  H   UNL A   1      43.429  28.515  31.532  1.00  0.00     0.167 HD
ATOM     52  C   UNL A   1      45.203  26.374  30.978  1.00  0.00     0.074 A 
ATOM     53  C   UNL A   1      45.763  25.178  30.384  1.00  0.00     0.031 C 
ATOM     54  C   UNL A   1      45.835  27.136  31.903  1.00  0.00     0.037 A 
BRANCH  41  55
ATOM     55  C   UNL A   1      42.617  32.087  33.716  1.00  0.00     0.064 A 
ATOM     56  C   UNL A   1      42.035  32.077  34.991  1.00  0.00     0.173 A 
ATOM     57  C   UNL A   1      43.171  33.290  33.254  1.00  0.00     0.173 A 
ATOM     58  F   UNL A   1      41.483  30.954  35.473  1.00  0.00    -0.203 F 
ATOM     59  C   UNL A   1      41.984  33.235  35.763  1.00  0.00     0.198 A 
ATOM     60  C   UNL A   1      43.141  34.440  34.037  1.00  0.00     0.198 A 
ATOM     61  F   UNL A   1      43.744  33.349  32.042  1.00  0.00    -0.203 F 
ATOM     62  F   UNL A   1      41.386  33.216  36.962  1.00  0.00    -0.200 F 
ATOM     63  C   UNL A   1      42.541  34.414  35.287  1.00  0.00     0.200 A 
ATOM     64  F   UNL A   1      43.686  35.575  33.580  1.00  0.00    -0.200 F 
ATOM     65  F   UNL A   1      42.493  35.528  36.031  1.00  0.00    -0.200 F 
ENDBRANCH  41  55
BRANCH  42  66
ATOM     66  C   UNL A   1      42.619  24.053  27.804  1.00  0.00     0.064 A 
ATOM     67  C   UNL A   1      42.242  22.798  28.297  1.00  0.00     0.173 A 
ATOM     68  C   UNL A   1      42.994  24.143  26.455  1.00  0.00     0.173 A 
ATOM     69  F   UNL A   1      41.901  22.659  29.586  1.00  0.00    -0.203 F 
ATOM     70  C   UNL A   1      42.244  21.673  27.473  1.00  0.00     0.198 A 
ATOM     71  C   UNL A   1      42.973  23.023  25.628  1.00  0.00     0.198 A 
ATOM     72  F   UNL A   1      43.368  25.322  25.939  1.00  0.00    -0.203 F 
ATOM     73  F   UNL A   1      41.910  20.477  27.977  1.00  0.00    -0.200 F 
ATOM     74  C   UNL A   1      42.602  21.788  26.139  1.00  0.00     0.200 A 
ATOM     75  F   UNL A   1      43.313  23.139  24.337  1.00  0.00    -0.200 F 
ATOM     76  F   UNL A   1      42.598  20.708  25.347  1.00  0.00    -0.200 F 
ENDBRANCH  42  66
BRANCH  54  77
ATOM     77  C   UNL A   1      47.198  26.689  32.343  1.00  0.00     0.064 A 
ATOM     78  C   UNL A   1      48.362  27.197  31.748  1.00  0.00     0.173 A 
ATOM     79  C   UNL A   1      47.340  25.772  33.394  1.00  0.00     0.173 A 
ATOM     80  F   UNL A   1      48.275  28.064  30.728  1.00  0.00    -0.203 F 
ATOM     81  C   UNL A   1      49.620  26.787  32.179  1.00  0.00     0.198 A 
ATOM     82  C   UNL A   1      48.600  25.382  33.838  1.00  0.00     0.198 A 
ATOM     83  F   UNL A   1      46.257  25.260  33.997  1.00  0.00    -0.203 F 
ATOM     84  F   UNL A   1      50.719  27.257  31.572  1.00  0.00    -0.200 F 
ATOM     85  C   UNL A   1      49.739  25.886  33.227  1.00  0.00     0.200 A 
ATOM     86  F   UNL A   1      48.714  24.517  34.855  1.00  0.00    -0.200 F 
ATOM     87  F   UNL A   1      50.952  25.496  33.642  1.00  0.00    -0.200 F 
ENDBRANCH  54  77
ENDBRANCH  28  29
ENDBRANCH  21  23
ENDBRANCH  20  21
ENDBRANCH  19  20
ENDBRANCH   1  19
TORSDOF 14
ENDMDL
