MODEL 1
REMARK VINA RESULT:     -10.0      0.000      0.000
REMARK SMILES C[C@@H](C(=O)OCCOC(=O)c1ccc(-c2c3nc(c(-c4c(F)c(F)c(F)c(F)c4F)c4ccc([nH]4)c(-c4c(F)c(F)c(F)c(F)c4F)c4nc(c(-c5c(F)c(F)c(F)c(F)c5F)c5ccc2[nH]5)C=C4)C=C3)cc1)c1ccc(-c2ccccc2)c(F)c1
REMARK SMILES IDX 6 1 5 2 3 3 4 4 2 5 1 6 74 7 75 8 86 9 76 10 84 11 77 12
REMARK SMILES IDX 85 13 78 14 79 15 83 16 80 17 82 18 81 19 7 20 8 21 9 22
REMARK SMILES IDX 10 23 11 24 12 25 73 26 13 27 72 28 14 29 15 30 16 31 66 32
REMARK SMILES IDX 17 33 71 34 65 35 67 36 18 37 70 38 64 39 63 40 19 42 51 43
REMARK SMILES IDX 31 44 50 45 32 46 35 47 49 48 68 49 33 50 34 51 48 53 69 54
REMARK SMILES IDX 36 55 20 56 21 57 29 58 22 59 23 60 27 61 30 62 24 63 25 64
REMARK SMILES IDX 28 65 26 66 52 67 53 68 61 69 54 70 55 71 59 72 62 73 56 74
REMARK SMILES IDX 57 75 60 76 58 77 37 78 38 79 46 80 39 81 40 82 44 83 47 84
REMARK SMILES IDX 41 85 42 86 45 87 43 88
REMARK H PARENT 67 41 35 52
REMARK Flexibility Score: inf
ROOT
ATOM      1  C   UNL A   1      42.721  19.898  26.379  1.00  0.00     0.274 C 
ENDROOT
BRANCH   1   2
ATOM      2  O   UNL A   1      43.371  20.362  25.177  1.00  0.00    -0.462 OA
BRANCH   2   3
ATOM      3  C   UNL A   1      43.660  21.690  25.101  1.00  0.00     0.313 C 
ATOM      4  O   UNL A   1      42.816  22.572  24.978  1.00  0.00    -0.252 OA
BRANCH   3   5
ATOM      5  C   UNL A   1      45.170  21.966  25.134  1.00  0.00     0.126 C 
ATOM      6  C   UNL A   1      46.028  20.706  24.992  1.00  0.00     0.025 C 
BRANCH   5   7
ATOM      7  C   UNL A   1      45.554  22.809  26.349  1.00  0.00    -0.031 A 
ATOM      8  C   UNL A   1      46.681  23.640  26.290  1.00  0.00     0.005 A 
ATOM      9  C   UNL A   1      44.787  22.839  27.519  1.00  0.00     0.044 A 
ATOM     10  C   UNL A   1      47.012  24.491  27.357  1.00  0.00     0.012 A 
ATOM     11  C   UNL A   1      45.123  23.696  28.575  1.00  0.00     0.131 A 
ATOM     12  C   UNL A   1      46.226  24.566  28.520  1.00  0.00     0.017 A 
ATOM     13  F   UNL A   1      44.291  23.710  29.629  1.00  0.00    -0.206 F 
BRANCH  12  14
ATOM     14  C   UNL A   1      46.511  25.566  29.584  1.00  0.00    -0.015 A 
ATOM     15  C   UNL A   1      45.548  26.524  29.964  1.00  0.00     0.009 A 
ATOM     16  C   UNL A   1      47.728  25.583  30.288  1.00  0.00     0.009 A 
ATOM     17  C   UNL A   1      45.786  27.442  30.992  1.00  0.00     0.001 A 
ATOM     18  C   UNL A   1      47.963  26.488  31.331  1.00  0.00     0.001 A 
ATOM     19  C   UNL A   1      46.990  27.417  31.684  1.00  0.00     0.000 A 
ENDBRANCH  12  14
ENDBRANCH   5   7
ENDBRANCH   3   5
ENDBRANCH   2   3
ENDBRANCH   1   2
BRANCH   1  20
ATOM     20  C   UNL A   1      41.250  19.608  26.101  1.00  0.00     0.275 C 
BRANCH  20  21
ATOM     21  O   UNL A   1      40.444  20.376  27.011  1.00  0.00    -0.458 OA
BRANCH  21  22
ATOM     22  C   UNL A   1      39.610  21.281  26.457  1.00  0.00     0.338 C 
ATOM     23  O   UNL A   1      38.690  21.068  25.682  1.00  0.00    -0.246 OA
BRANCH  22  24
ATOM     24  C   UNL A   1      39.963  22.630  26.936  1.00  0.00     0.060 A 
ATOM     25  C   UNL A   1      39.384  23.756  26.353  1.00  0.00     0.016 A 
ATOM     26  C   UNL A   1      40.965  22.778  27.897  1.00  0.00     0.016 A 
ATOM     27  C   UNL A   1      39.876  25.023  26.659  1.00  0.00     0.010 A 
ATOM     28  C   UNL A   1      41.396  24.058  28.263  1.00  0.00     0.010 A 
ATOM     29  C   UNL A   1      40.893  25.198  27.611  1.00  0.00    -0.014 A 
BRANCH  29  30
ATOM     30  C   UNL A   1      41.473  26.550  27.864  1.00  0.00     0.031 A 
ATOM     31  C   UNL A   1      42.808  26.931  27.272  1.00  0.00     0.074 A 
ATOM     32  C   UNL A   1      40.801  27.468  28.587  1.00  0.00     0.049 A 
ATOM     33  N   UNL A   1      43.572  27.964  27.536  1.00  0.00    -0.248 NA
ATOM     34  C   UNL A   1      43.374  26.017  26.267  1.00  0.00     0.031 C 
ATOM     35  C   UNL A   1      39.479  27.280  29.182  1.00  0.00     0.029 A 
ATOM     36  N   UNL A   1      41.130  28.760  28.918  1.00  0.00    -0.354 N 
ATOM     37  C   UNL A   1      44.730  27.781  26.792  1.00  0.00     0.074 A 
ATOM     38  C   UNL A   1      44.570  26.547  26.055  1.00  0.00     0.031 C 
ATOM     39  C   UNL A   1      39.073  28.438  29.726  1.00  0.00     0.029 A 
ATOM     40  C   UNL A   1      40.144  29.421  29.607  1.00  0.00     0.049 A 
ATOM     41  H   UNL A   1      41.992  29.174  28.681  1.00  0.00     0.167 HD
ATOM     42  C   UNL A   1      45.828  28.573  26.731  1.00  0.00     0.037 A 
ATOM     43  C   UNL A   1      40.110  30.668  30.110  1.00  0.00     0.037 A 
ATOM     44  C   UNL A   1      45.947  29.854  27.375  1.00  0.00     0.049 A 
ATOM     45  C   UNL A   1      41.325  31.545  30.001  1.00  0.00     0.074 A 
ATOM     46  C   UNL A   1      47.025  30.723  27.382  1.00  0.00     0.029 A 
ATOM     47  N   UNL A   1      44.934  30.469  28.094  1.00  0.00    -0.354 N 
ATOM     48  N   UNL A   1      42.464  31.308  29.402  1.00  0.00    -0.248 NA
ATOM     49  C   UNL A   1      41.259  32.849  30.676  1.00  0.00     0.031 C 
ATOM     50  C   UNL A   1      46.667  31.862  28.112  1.00  0.00     0.029 A 
ATOM     51  C   UNL A   1      45.359  31.710  28.540  1.00  0.00     0.049 A 
ATOM     52  H   UNL A   1      44.045  30.081  28.263  1.00  0.00     0.167 HD
ATOM     53  C   UNL A   1      43.260  32.416  29.650  1.00  0.00     0.074 A 
ATOM     54  C   UNL A   1      42.458  33.350  30.411  1.00  0.00     0.031 C 
ATOM     55  C   UNL A   1      44.552  32.627  29.300  1.00  0.00     0.037 A 
BRANCH  42  56
ATOM     56  C   UNL A   1      47.010  28.065  25.962  1.00  0.00     0.064 A 
ATOM     57  C   UNL A   1      47.022  28.020  24.563  1.00  0.00     0.173 A 
ATOM     58  C   UNL A   1      48.170  27.667  26.647  1.00  0.00     0.173 A 
ATOM     59  F   UNL A   1      45.934  28.380  23.866  1.00  0.00    -0.203 F 
ATOM     60  C   UNL A   1      48.151  27.580  23.874  1.00  0.00     0.198 A 
ATOM     61  C   UNL A   1      49.303  27.251  25.954  1.00  0.00     0.198 A 
ATOM     62  F   UNL A   1      48.210  27.702  27.987  1.00  0.00    -0.203 F 
ATOM     63  F   UNL A   1      48.133  27.518  22.535  1.00  0.00    -0.200 F 
ATOM     64  C   UNL A   1      49.291  27.203  24.568  1.00  0.00     0.200 A 
ATOM     65  F   UNL A   1      50.408  26.898  26.627  1.00  0.00    -0.200 F 
ATOM     66  F   UNL A   1      50.379  26.792  23.902  1.00  0.00    -0.200 F 
ENDBRANCH  42  56
BRANCH  43  67
ATOM     67  C   UNL A   1      38.885  31.150  30.795  1.00  0.00     0.064 A 
ATOM     68  C   UNL A   1      38.715  30.954  32.171  1.00  0.00     0.173 A 
ATOM     69  C   UNL A   1      37.876  31.830  30.098  1.00  0.00     0.173 A 
ATOM     70  F   UNL A   1      39.643  30.286  32.873  1.00  0.00    -0.203 F 
ATOM     71  C   UNL A   1      37.578  31.423  32.827  1.00  0.00     0.198 A 
ATOM     72  C   UNL A   1      36.755  32.323  30.760  1.00  0.00     0.198 A 
ATOM     73  F   UNL A   1      37.994  32.037  28.779  1.00  0.00    -0.203 F 
ATOM     74  F   UNL A   1      37.424  31.199  34.139  1.00  0.00    -0.200 F 
ATOM     75  C   UNL A   1      36.604  32.116  32.123  1.00  0.00     0.200 A 
ATOM     76  F   UNL A   1      35.822  33.003  30.077  1.00  0.00    -0.200 F 
ATOM     77  F   UNL A   1      35.519  32.580  32.757  1.00  0.00    -0.200 F 
ENDBRANCH  43  67
BRANCH  55  78
ATOM     78  C   UNL A   1      45.178  33.912  29.746  1.00  0.00     0.064 A 
ATOM     79  C   UNL A   1      45.855  34.000  30.971  1.00  0.00     0.173 A 
ATOM     80  C   UNL A   1      45.129  35.053  28.933  1.00  0.00     0.173 A 
ATOM     81  F   UNL A   1      45.913  32.937  31.788  1.00  0.00    -0.203 F 
ATOM     82  C   UNL A   1      46.447  35.193  31.375  1.00  0.00     0.198 A 
ATOM     83  C   UNL A   1      45.737  36.240  29.333  1.00  0.00     0.198 A 
ATOM     84  F   UNL A   1      44.495  35.014  27.752  1.00  0.00    -0.203 F 
ATOM     85  F   UNL A   1      47.058  35.267  32.564  1.00  0.00    -0.200 F 
ATOM     86  C   UNL A   1      46.391  36.310  30.554  1.00  0.00     0.200 A 
ATOM     87  F   UNL A   1      45.687  37.317  28.537  1.00  0.00    -0.200 F 
ATOM     88  F   UNL A   1      46.961  37.459  30.945  1.00  0.00    -0.200 F 
ENDBRANCH  55  78
ENDBRANCH  29  30
ENDBRANCH  22  24
ENDBRANCH  21  22
ENDBRANCH  20  21
ENDBRANCH   1  20
TORSDOF 13
ENDMDL
MODEL 2
REMARK VINA RESULT:     -10.0      5.155      9.346
REMARK SMILES C[C@@H](C(=O)OCCOC(=O)c1ccc(-c2c3nc(c(-c4c(F)c(F)c(F)c(F)c4F)c4ccc([nH]4)c(-c4c(F)c(F)c(F)c(F)c4F)c4nc(c(-c5c(F)c(F)c(F)c(F)c5F)c5ccc2[nH]5)C=C4)C=C3)cc1)c1ccc(-c2ccccc2)c(F)c1
REMARK SMILES IDX 6 1 5 2 3 3 4 4 2 5 1 6 74 7 75 8 86 9 76 10 84 11 77 12
REMARK SMILES IDX 85 13 78 14 79 15 83 16 80 17 82 18 81 19 7 20 8 21 9 22
REMARK SMILES IDX 10 23 11 24 12 25 73 26 13 27 72 28 14 29 15 30 16 31 66 32
REMARK SMILES IDX 17 33 71 34 65 35 67 36 18 37 70 38 64 39 63 40 19 42 51 43
REMARK SMILES IDX 31 44 50 45 32 46 35 47 49 48 68 49 33 50 34 51 48 53 69 54
REMARK SMILES IDX 36 55 20 56 21 57 29 58 22 59 23 60 27 61 30 62 24 63 25 64
REMARK SMILES IDX 28 65 26 66 52 67 53 68 61 69 54 70 55 71 59 72 62 73 56 74
REMARK SMILES IDX 57 75 60 76 58 77 37 78 38 79 46 80 39 81 40 82 44 83 47 84
REMARK SMILES IDX 41 85 42 86 45 87 43 88
REMARK H PARENT 67 41 35 52
REMARK Flexibility Score: inf
ROOT
ATOM      1  C   UNL A   1      31.758  28.326  26.915  1.00  0.00     0.274 C 
ENDROOT
BRANCH   1   2
ATOM      2  O   UNL A   1      31.766  27.389  25.818  1.00  0.00    -0.462 OA
BRANCH   2   3
ATOM      3  C   UNL A   1      31.904  26.072  26.128  1.00  0.00     0.313 C 
ATOM      4  O   UNL A   1      31.036  25.400  26.676  1.00  0.00    -0.252 OA
BRANCH   3   5
ATOM      5  C   UNL A   1      33.291  25.522  25.765  1.00  0.00     0.126 C 
ATOM      6  C   UNL A   1      34.011  26.337  24.686  1.00  0.00     0.025 C 
BRANCH   5   7
ATOM      7  C   UNL A   1      33.231  24.032  25.438  1.00  0.00    -0.031 A 
ATOM      8  C   UNL A   1      33.088  23.618  24.106  1.00  0.00     0.005 A 
ATOM      9  C   UNL A   1      33.374  23.039  26.413  1.00  0.00     0.044 A 
ATOM     10  C   UNL A   1      33.115  22.257  23.762  1.00  0.00     0.012 A 
ATOM     11  C   UNL A   1      33.406  21.684  26.059  1.00  0.00     0.131 A 
ATOM     12  C   UNL A   1      33.305  21.249  24.725  1.00  0.00     0.017 A 
ATOM     13  F   UNL A   1      33.617  20.805  27.051  1.00  0.00    -0.206 F 
BRANCH  12  14
ATOM     14  C   UNL A   1      33.466  19.824  24.333  1.00  0.00    -0.015 A 
ATOM     15  C   UNL A   1      32.490  19.165  23.556  1.00  0.00     0.009 A 
ATOM     16  C   UNL A   1      34.607  19.078  24.677  1.00  0.00     0.009 A 
ATOM     17  C   UNL A   1      32.648  17.838  23.142  1.00  0.00     0.001 A 
ATOM     18  C   UNL A   1      34.778  17.755  24.248  1.00  0.00     0.001 A 
ATOM     19  C   UNL A   1      33.799  17.136  23.479  1.00  0.00     0.000 A 
ENDBRANCH  12  14
ENDBRANCH   5   7
ENDBRANCH   3   5
ENDBRANCH   2   3
ENDBRANCH   1   2
BRANCH   1  20
ATOM     20  C   UNL A   1      31.659  29.753  26.384  1.00  0.00     0.275 C 
BRANCH  20  21
ATOM     21  O   UNL A   1      32.986  30.267  26.180  1.00  0.00    -0.458 OA
BRANCH  21  22
ATOM     22  C   UNL A   1      33.382  31.254  27.011  1.00  0.00     0.338 C 
ATOM     23  O   UNL A   1      32.775  32.275  27.296  1.00  0.00    -0.246 OA
BRANCH  22  24
ATOM     24  C   UNL A   1      34.707  30.923  27.567  1.00  0.00     0.060 A 
ATOM     25  C   UNL A   1      35.066  29.594  27.784  1.00  0.00     0.016 A 
ATOM     26  C   UNL A   1      35.555  31.952  27.981  1.00  0.00     0.016 A 
ATOM     27  C   UNL A   1      36.223  29.299  28.502  1.00  0.00     0.010 A 
ATOM     28  C   UNL A   1      36.758  31.646  28.628  1.00  0.00     0.010 A 
ATOM     29  C   UNL A   1      37.084  30.316  28.943  1.00  0.00    -0.014 A 
BRANCH  29  30
ATOM     30  C   UNL A   1      38.272  29.993  29.788  1.00  0.00     0.031 A 
ATOM     31  C   UNL A   1      39.418  29.193  29.218  1.00  0.00     0.074 A 
ATOM     32  C   UNL A   1      38.364  30.441  31.056  1.00  0.00     0.049 A 
ATOM     33  N   UNL A   1      40.433  28.636  29.836  1.00  0.00    -0.248 NA
ATOM     34  C   UNL A   1      39.412  28.966  27.765  1.00  0.00     0.031 C 
ATOM     35  C   UNL A   1      37.372  31.271  31.738  1.00  0.00     0.029 A 
ATOM     36  N   UNL A   1      39.361  30.285  31.989  1.00  0.00    -0.354 N 
ATOM     37  C   UNL A   1      41.133  27.937  28.862  1.00  0.00     0.074 A 
ATOM     38  C   UNL A   1      40.440  28.144  27.609  1.00  0.00     0.031 C 
ATOM     39  C   UNL A   1      37.847  31.622  32.943  1.00  0.00     0.029 A 
ATOM     40  C   UNL A   1      39.131  30.965  33.159  1.00  0.00     0.049 A 
ATOM     41  H   UNL A   1      40.164  29.739  31.832  1.00  0.00     0.167 HD
ATOM     42  C   UNL A   1      42.254  27.188  29.002  1.00  0.00     0.037 A 
ATOM     43  C   UNL A   1      39.857  31.034  34.290  1.00  0.00     0.037 A 
ATOM     44  C   UNL A   1      43.008  27.069  30.222  1.00  0.00     0.049 A 
ATOM     45  C   UNL A   1      41.116  30.225  34.413  1.00  0.00     0.074 A 
ATOM     46  C   UNL A   1      44.149  26.322  30.464  1.00  0.00     0.029 A 
ATOM     47  N   UNL A   1      42.718  27.747  31.395  1.00  0.00    -0.354 N 
ATOM     48  N   UNL A   1      41.700  29.464  33.524  1.00  0.00    -0.248 NA
ATOM     49  C   UNL A   1      41.794  30.256  35.718  1.00  0.00     0.031 C 
ATOM     50  C   UNL A   1      44.546  26.544  31.788  1.00  0.00     0.029 A 
ATOM     51  C   UNL A   1      43.665  27.445  32.360  1.00  0.00     0.049 A 
ATOM     52  H   UNL A   1      41.953  28.354  31.523  1.00  0.00     0.167 HD
ATOM     53  C   UNL A   1      42.795  28.903  34.164  1.00  0.00     0.074 A 
ATOM     54  C   UNL A   1      42.825  29.450  35.504  1.00  0.00     0.031 C 
ATOM     55  C   UNL A   1      43.679  27.993  33.691  1.00  0.00     0.037 A 
BRANCH  42  56
ATOM     56  C   UNL A   1      42.724  26.409  27.811  1.00  0.00     0.064 A 
ATOM     57  C   UNL A   1      43.676  26.917  26.920  1.00  0.00     0.173 A 
ATOM     58  C   UNL A   1      42.246  25.106  27.596  1.00  0.00     0.173 A 
ATOM     59  F   UNL A   1      44.155  28.160  27.079  1.00  0.00    -0.203 F 
ATOM     60  C   UNL A   1      44.124  26.154  25.843  1.00  0.00     0.198 A 
ATOM     61  C   UNL A   1      42.712  24.338  26.533  1.00  0.00     0.198 A 
ATOM     62  F   UNL A   1      41.340  24.572  28.429  1.00  0.00    -0.203 F 
ATOM     63  F   UNL A   1      45.015  26.668  24.984  1.00  0.00    -0.200 F 
ATOM     64  C   UNL A   1      43.647  24.865  25.654  1.00  0.00     0.200 A 
ATOM     65  F   UNL A   1      42.259  23.089  26.360  1.00  0.00    -0.200 F 
ATOM     66  F   UNL A   1      44.088  24.128  24.625  1.00  0.00    -0.200 F 
ENDBRANCH  42  56
BRANCH  43  67
ATOM     67  C   UNL A   1      39.386  31.883  35.412  1.00  0.00     0.064 A 
ATOM     68  C   UNL A   1      38.542  31.357  36.398  1.00  0.00     0.173 A 
ATOM     69  C   UNL A   1      39.784  33.222  35.534  1.00  0.00     0.173 A 
ATOM     70  F   UNL A   1      38.115  30.089  36.307  1.00  0.00    -0.203 F 
ATOM     71  C   UNL A   1      38.113  32.140  37.468  1.00  0.00     0.198 A 
ATOM     72  C   UNL A   1      39.379  33.995  36.619  1.00  0.00     0.198 A 
ATOM     73  F   UNL A   1      40.589  33.769  34.613  1.00  0.00    -0.203 F 
ATOM     74  F   UNL A   1      37.283  31.623  38.384  1.00  0.00    -0.200 F 
ATOM     75  C   UNL A   1      38.540  33.455  37.583  1.00  0.00     0.200 A 
ATOM     76  F   UNL A   1      39.804  35.261  36.733  1.00  0.00    -0.200 F 
ATOM     77  F   UNL A   1      38.140  34.203  38.620  1.00  0.00    -0.200 F 
ENDBRANCH  43  67
BRANCH  55  78
ATOM     78  C   UNL A   1      44.748  27.528  34.632  1.00  0.00     0.064 A 
ATOM     79  C   UNL A   1      44.559  26.392  35.434  1.00  0.00     0.173 A 
ATOM     80  C   UNL A   1      45.976  28.197  34.710  1.00  0.00     0.173 A 
ATOM     81  F   UNL A   1      43.394  25.729  35.402  1.00  0.00    -0.203 F 
ATOM     82  C   UNL A   1      45.561  25.955  36.296  1.00  0.00     0.198 A 
ATOM     83  C   UNL A   1      46.981  27.747  35.562  1.00  0.00     0.198 A 
ATOM     84  F   UNL A   1      46.200  29.286  33.959  1.00  0.00    -0.203 F 
ATOM     85  F   UNL A   1      45.349  24.890  37.080  1.00  0.00    -0.200 F 
ATOM     86  C   UNL A   1      46.771  26.630  36.357  1.00  0.00     0.200 A 
ATOM     87  F   UNL A   1      48.152  28.398  35.616  1.00  0.00    -0.200 F 
ATOM     88  F   UNL A   1      47.733  26.208  37.189  1.00  0.00    -0.200 F 
ENDBRANCH  55  78
ENDBRANCH  29  30
ENDBRANCH  22  24
ENDBRANCH  21  22
ENDBRANCH  20  21
ENDBRANCH   1  20
TORSDOF 13
ENDMDL
MODEL 3
REMARK VINA RESULT:     -10.0      2.912      9.479
REMARK SMILES C[C@@H](C(=O)OCCOC(=O)c1ccc(-c2c3nc(c(-c4c(F)c(F)c(F)c(F)c4F)c4ccc([nH]4)c(-c4c(F)c(F)c(F)c(F)c4F)c4nc(c(-c5c(F)c(F)c(F)c(F)c5F)c5ccc2[nH]5)C=C4)C=C3)cc1)c1ccc(-c2ccccc2)c(F)c1
REMARK SMILES IDX 6 1 5 2 3 3 4 4 2 5 1 6 74 7 75 8 86 9 76 10 84 11 77 12
REMARK SMILES IDX 85 13 78 14 79 15 83 16 80 17 82 18 81 19 7 20 8 21 9 22
REMARK SMILES IDX 10 23 11 24 12 25 73 26 13 27 72 28 14 29 15 30 16 31 66 32
REMARK SMILES IDX 17 33 71 34 65 35 67 36 18 37 70 38 64 39 63 40 19 42 51 43
REMARK SMILES IDX 31 44 50 45 32 46 35 47 49 48 68 49 33 50 34 51 48 53 69 54
REMARK SMILES IDX 36 55 20 56 21 57 29 58 22 59 23 60 27 61 30 62 24 63 25 64
REMARK SMILES IDX 28 65 26 66 52 67 53 68 61 69 54 70 55 71 59 72 62 73 56 74
REMARK SMILES IDX 57 75 60 76 58 77 37 78 38 79 46 80 39 81 40 82 44 83 47 84
REMARK SMILES IDX 41 85 42 86 45 87 43 88
REMARK H PARENT 67 41 35 52
REMARK Flexibility Score: inf
ROOT
ATOM      1  C   UNL A   1      35.601  20.258  25.214  1.00  0.00     0.274 C 
ENDROOT
BRANCH   1   2
ATOM      2  O   UNL A   1      35.128  21.621  25.247  1.00  0.00    -0.462 OA
BRANCH   2   3
ATOM      3  C   UNL A   1      34.208  21.980  24.311  1.00  0.00     0.313 C 
ATOM      4  O   UNL A   1      33.149  21.389  24.124  1.00  0.00    -0.252 OA
BRANCH   3   5
ATOM      5  C   UNL A   1      34.661  23.183  23.470  1.00  0.00     0.126 C 
ATOM      6  C   UNL A   1      36.152  23.159  23.119  1.00  0.00     0.025 C 
BRANCH   5   7
ATOM      7  C   UNL A   1      34.225  24.501  24.105  1.00  0.00    -0.031 A 
ATOM      8  C   UNL A   1      34.137  24.605  25.500  1.00  0.00     0.005 A 
ATOM      9  C   UNL A   1      33.960  25.650  23.352  1.00  0.00     0.044 A 
ATOM     10  C   UNL A   1      33.822  25.826  26.119  1.00  0.00     0.012 A 
ATOM     11  C   UNL A   1      33.654  26.865  23.980  1.00  0.00     0.131 A 
ATOM     12  C   UNL A   1      33.600  27.000  25.378  1.00  0.00     0.017 A 
ATOM     13  F   UNL A   1      33.484  27.931  23.182  1.00  0.00    -0.206 F 
BRANCH  12  14
ATOM     14  C   UNL A   1      33.400  28.312  26.049  1.00  0.00    -0.015 A 
ATOM     15  C   UNL A   1      34.421  28.900  26.824  1.00  0.00     0.009 A 
ATOM     16  C   UNL A   1      32.209  29.048  25.913  1.00  0.00     0.009 A 
ATOM     17  C   UNL A   1      34.264  30.154  27.425  1.00  0.00     0.001 A 
ATOM     18  C   UNL A   1      32.055  30.312  26.497  1.00  0.00     0.001 A 
ATOM     19  C   UNL A   1      33.083  30.865  27.252  1.00  0.00     0.000 A 
ENDBRANCH  12  14
ENDBRANCH   5   7
ENDBRANCH   3   5
ENDBRANCH   2   3
ENDBRANCH   1   2
BRANCH   1  20
ATOM     20  C   UNL A   1      37.110  20.233  24.988  1.00  0.00     0.275 C 
BRANCH  20  21
ATOM     21  O   UNL A   1      37.707  21.318  25.718  1.00  0.00    -0.458 OA
BRANCH  21  22
ATOM     22  C   UNL A   1      38.990  21.146  26.104  1.00  0.00     0.338 C 
ATOM     23  O   UNL A   1      39.654  20.123  26.046  1.00  0.00    -0.246 OA
BRANCH  22  24
ATOM     24  C   UNL A   1      39.518  22.420  26.626  1.00  0.00     0.060 A 
ATOM     25  C   UNL A   1      39.004  23.632  26.170  1.00  0.00     0.016 A 
ATOM     26  C   UNL A   1      40.613  22.407  27.492  1.00  0.00     0.016 A 
ATOM     27  C   UNL A   1      39.646  24.824  26.502  1.00  0.00     0.010 A 
ATOM     28  C   UNL A   1      41.202  23.613  27.889  1.00  0.00     0.010 A 
ATOM     29  C   UNL A   1      40.758  24.836  27.359  1.00  0.00    -0.014 A 
BRANCH  29  30
ATOM     30  C   UNL A   1      41.491  26.108  27.635  1.00  0.00     0.031 A 
ATOM     31  C   UNL A   1      40.876  27.167  28.516  1.00  0.00     0.074 A 
ATOM     32  C   UNL A   1      42.727  26.316  27.140  1.00  0.00     0.049 A 
ATOM     33  N   UNL A   1      41.250  28.410  28.709  1.00  0.00    -0.248 NA
ATOM     34  C   UNL A   1      39.663  26.791  29.259  1.00  0.00     0.031 C 
ATOM     35  C   UNL A   1      43.485  25.373  26.319  1.00  0.00     0.029 A 
ATOM     36  N   UNL A   1      43.579  27.385  27.285  1.00  0.00    -0.354 N 
ATOM     37  C   UNL A   1      40.282  28.975  29.529  1.00  0.00     0.074 A 
ATOM     38  C   UNL A   1      39.307  27.944  29.809  1.00  0.00     0.031 C 
ATOM     39  C   UNL A   1      44.716  25.864  26.108  1.00  0.00     0.029 A 
ATOM     40  C   UNL A   1      44.803  27.198  26.693  1.00  0.00     0.049 A 
ATOM     41  H   UNL A   1      43.335  28.206  27.769  1.00  0.00     0.167 HD
ATOM     42  C   UNL A   1      40.214  30.243  30.004  1.00  0.00     0.037 A 
ATOM     43  C   UNL A   1      45.870  28.013  26.607  1.00  0.00     0.037 A 
ATOM     44  C   UNL A   1      41.235  31.239  29.819  1.00  0.00     0.049 A 
ATOM     45  C   UNL A   1      45.788  29.403  27.171  1.00  0.00     0.074 A 
ATOM     46  C   UNL A   1      41.249  32.555  30.252  1.00  0.00     0.029 A 
ATOM     47  N   UNL A   1      42.445  31.016  29.181  1.00  0.00    -0.354 N 
ATOM     48  N   UNL A   1      44.813  29.970  27.835  1.00  0.00    -0.248 NA
ATOM     49  C   UNL A   1      46.945  30.279  26.936  1.00  0.00     0.031 C 
ATOM     50  C   UNL A   1      42.465  33.130  29.868  1.00  0.00     0.029 A 
ATOM     51  C   UNL A   1      43.216  32.166  29.217  1.00  0.00     0.049 A 
ATOM     52  H   UNL A   1      42.715  30.167  28.764  1.00  0.00     0.167 HD
ATOM     53  C   UNL A   1      45.223  31.273  28.073  1.00  0.00     0.074 A 
ATOM     54  C   UNL A   1      46.557  31.401  27.527  1.00  0.00     0.031 C 
ATOM     55  C   UNL A   1      44.540  32.281  28.666  1.00  0.00     0.037 A 
BRANCH  42  56
ATOM     56  C   UNL A   1      38.975  30.640  30.749  1.00  0.00     0.064 A 
ATOM     57  C   UNL A   1      37.817  31.067  30.089  1.00  0.00     0.173 A 
ATOM     58  C   UNL A   1      38.939  30.537  32.149  1.00  0.00     0.173 A 
ATOM     59  F   UNL A   1      37.807  31.191  28.753  1.00  0.00    -0.203 F 
ATOM     60  C   UNL A   1      36.667  31.392  30.806  1.00  0.00     0.198 A 
ATOM     61  C   UNL A   1      37.782  30.841  32.860  1.00  0.00     0.198 A 
ATOM     62  F   UNL A   1      40.022  30.123  32.825  1.00  0.00    -0.203 F 
ATOM     63  F   UNL A   1      35.576  31.826  30.159  1.00  0.00    -0.200 F 
ATOM     64  C   UNL A   1      36.648  31.273  32.188  1.00  0.00     0.200 A 
ATOM     65  F   UNL A   1      37.762  30.713  34.194  1.00  0.00    -0.200 F 
ATOM     66  F   UNL A   1      35.537  31.574  32.875  1.00  0.00    -0.200 F 
ENDBRANCH  42  56
BRANCH  43  67
ATOM     67  C   UNL A   1      47.100  27.542  25.925  1.00  0.00     0.064 A 
ATOM     68  C   UNL A   1      47.246  27.680  24.539  1.00  0.00     0.173 A 
ATOM     69  C   UNL A   1      48.160  26.967  26.642  1.00  0.00     0.173 A 
ATOM     70  F   UNL A   1      46.248  28.201  23.810  1.00  0.00    -0.203 F 
ATOM     71  C   UNL A   1      48.407  27.261  23.894  1.00  0.00     0.198 A 
ATOM     72  C   UNL A   1      49.331  26.574  26.001  1.00  0.00     0.198 A 
ATOM     73  F   UNL A   1      48.064  26.811  27.970  1.00  0.00    -0.203 F 
ATOM     74  F   UNL A   1      48.511  27.378  22.563  1.00  0.00    -0.200 F 
ATOM     75  C   UNL A   1      49.453  26.718  24.626  1.00  0.00     0.200 A 
ATOM     76  F   UNL A   1      50.344  26.062  26.714  1.00  0.00    -0.200 F 
ATOM     77  F   UNL A   1      50.576  26.329  24.008  1.00  0.00    -0.200 F 
ENDBRANCH  43  67
BRANCH  55  78
ATOM     78  C   UNL A   1      45.223  33.611  28.748  1.00  0.00     0.064 A 
ATOM     79  C   UNL A   1      46.066  33.925  29.824  1.00  0.00     0.173 A 
ATOM     80  C   UNL A   1      45.062  34.564  27.733  1.00  0.00     0.173 A 
ATOM     81  F   UNL A   1      46.238  33.049  30.825  1.00  0.00    -0.203 F 
ATOM     82  C   UNL A   1      46.711  35.157  29.889  1.00  0.00     0.198 A 
ATOM     83  C   UNL A   1      45.722  35.789  27.793  1.00  0.00     0.198 A 
ATOM     84  F   UNL A   1      44.267  34.305  26.684  1.00  0.00    -0.203 F 
ATOM     85  F   UNL A   1      47.484  35.452  30.942  1.00  0.00    -0.200 F 
ATOM     86  C   UNL A   1      46.541  36.086  28.872  1.00  0.00     0.200 A 
ATOM     87  F   UNL A   1      45.561  36.683  26.808  1.00  0.00    -0.200 F 
ATOM     88  F   UNL A   1      47.162  37.272  28.937  1.00  0.00    -0.200 F 
ENDBRANCH  55  78
ENDBRANCH  29  30
ENDBRANCH  22  24
ENDBRANCH  21  22
ENDBRANCH  20  21
ENDBRANCH   1  20
TORSDOF 13
ENDMDL
