MODEL 1
REMARK VINA RESULT:     -12.0      0.000      0.000
REMARK SMILES O=C(COc1ccc(C(=O)/C=C/c2ccc(Cl)c([N+](=O)[O-])c2)cc1)OCCOC(=O)c1ccc(-c2c3nc(c(-c4c(F)c(F)c(F)c(F)c4F)c4ccc([nH]4)c(-c4c(F)c(F)c(F)c(F)c4F)c4nc(c(-c5c(F)c(F)c(F)c(F)c5F)c5ccc2[nH]5)C=C4)C=C3)cc1
REMARK SMILES IDX 1 1 2 2 3 3 4 4 5 5 6 6 24 7 7 8 23 9 8 10 9 11 10 12 11 13
REMARK SMILES IDX 12 14 13 15 14 16 22 17 15 18 18 19 16 20 17 21 19 22 20 23
REMARK SMILES IDX 21 24 25 25 26 26 27 27 28 28 29 29 30 30 31 31 32 32 93 33
REMARK SMILES IDX 33 34 92 35 34 36 35 37 36 38 86 39 37 40 91 41 85 42 87 43
REMARK SMILES IDX 38 44 90 45 84 46 83 47 39 49 71 50 51 51 70 52 52 53 55 54
REMARK SMILES IDX 69 55 88 56 53 57 54 58 68 60 89 61 56 62 40 63 41 64 49 65
REMARK SMILES IDX 42 66 43 67 47 68 50 69 44 70 45 71 48 72 46 73 72 74 73 75
REMARK SMILES IDX 81 76 74 77 75 78 79 79 82 80 76 81 77 82 80 83 78 84 57 85
REMARK SMILES IDX 58 86 66 87 59 88 60 89 64 90 67 91 61 92 62 93 65 94 63 95
REMARK H PARENT 87 48 55 59
REMARK Flexibility Score: inf
ROOT
ATOM      1  O   UNL A   1      35.610  33.324  27.785  1.00  0.00    -0.248 OA
ATOM      2  C   UNL A   1      34.572  32.989  28.355  1.00  0.00     0.344 C 
ENDROOT
BRANCH   2   3
ATOM      3  C   UNL A   1      33.980  31.596  28.157  1.00  0.00     0.351 C 
BRANCH   3   4
ATOM      4  O   UNL A   1      34.112  31.074  26.836  1.00  0.00    -0.482 OA
BRANCH   4   5
ATOM      5  C   UNL A   1      33.564  29.823  26.789  1.00  0.00     0.120 A 
ATOM      6  C   UNL A   1      32.264  29.620  27.248  1.00  0.00     0.047 A 
ATOM      7  C   UNL A   1      34.319  28.771  26.282  1.00  0.00     0.047 A 
ATOM      8  C   UNL A   1      31.677  28.363  27.104  1.00  0.00     0.016 A 
ATOM      9  C   UNL A   1      33.737  27.513  26.148  1.00  0.00     0.016 A 
ATOM     10  C   UNL A   1      32.397  27.315  26.512  1.00  0.00     0.022 A 
BRANCH  10  11
ATOM     11  C   UNL A   1      31.711  26.010  26.315  1.00  0.00     0.185 C 
ATOM     12  O   UNL A   1      30.508  25.906  26.537  1.00  0.00    -0.289 OA
BRANCH  11  13
ATOM     13  C   UNL A   1      32.473  24.814  25.863  1.00  0.00     0.053 C 
ATOM     14  C   UNL A   1      32.619  23.698  26.594  1.00  0.00     0.012 C 
BRANCH  14  15
ATOM     15  C   UNL A   1      33.321  22.525  26.077  1.00  0.00    -0.019 A 
ATOM     16  C   UNL A   1      34.717  22.507  26.090  1.00  0.00     0.010 A 
ATOM     17  C   UNL A   1      32.624  21.427  25.566  1.00  0.00     0.095 A 
ATOM     18  C   UNL A   1      35.414  21.393  25.614  1.00  0.00     0.028 A 
ATOM     19  C   UNL A   1      33.329  20.308  25.075  1.00  0.00     0.288 A 
ATOM     20  C   UNL A   1      34.728  20.280  25.109  1.00  0.00     0.118 A 
ATOM     21  Cl  UNL A   1      35.713  18.947  24.625  1.00  0.00    -0.077 Cl
BRANCH  19  22
ATOM     22  N   UNL A   1      32.534  19.203  24.535  1.00  0.00     0.064 N 
ATOM     23  O   UNL A   1      32.156  18.311  25.302  1.00  0.00    -0.258 OA
ATOM     24  O   UNL A   1      32.327  19.205  23.313  1.00  0.00    -0.258 OA
ENDBRANCH  19  22
ENDBRANCH  14  15
ENDBRANCH  11  13
ENDBRANCH  10  11
ENDBRANCH   4   5
ENDBRANCH   3   4
ENDBRANCH   2   3
BRANCH   2  25
ATOM     25  O   UNL A   1      33.953  33.840  29.207  1.00  0.00    -0.460 OA
BRANCH  25  26
ATOM     26  C   UNL A   1      32.912  34.762  28.817  1.00  0.00     0.274 C 
BRANCH  26  27
ATOM     27  C   UNL A   1      32.906  35.991  29.730  1.00  0.00     0.275 C 
BRANCH  27  28
ATOM     28  O   UNL A   1      32.117  35.717  30.902  1.00  0.00    -0.458 OA
BRANCH  28  29
ATOM     29  C   UNL A   1      32.674  36.052  32.092  1.00  0.00     0.338 C 
ATOM     30  O   UNL A   1      32.233  36.828  32.919  1.00  0.00    -0.246 OA
BRANCH  29  31
ATOM     31  C   UNL A   1      33.820  35.146  32.334  1.00  0.00     0.060 A 
ATOM     32  C   UNL A   1      33.562  33.841  32.771  1.00  0.00     0.016 A 
ATOM     33  C   UNL A   1      35.132  35.560  32.085  1.00  0.00     0.016 A 
ATOM     34  C   UNL A   1      34.619  32.949  32.980  1.00  0.00     0.010 A 
ATOM     35  C   UNL A   1      36.187  34.672  32.299  1.00  0.00     0.010 A 
ATOM     36  C   UNL A   1      35.937  33.371  32.769  1.00  0.00    -0.014 A 
BRANCH  36  37
ATOM     37  C   UNL A   1      37.087  32.534  33.183  1.00  0.00     0.031 A 
ATOM     38  C   UNL A   1      37.772  32.856  34.480  1.00  0.00     0.074 A 
ATOM     39  C   UNL A   1      37.568  31.565  32.387  1.00  0.00     0.049 A 
ATOM     40  N   UNL A   1      38.884  32.379  34.976  1.00  0.00    -0.248 NA
ATOM     41  C   UNL A   1      37.117  33.869  35.322  1.00  0.00     0.031 C 
ATOM     42  C   UNL A   1      36.985  31.148  31.115  1.00  0.00     0.029 A 
ATOM     43  N   UNL A   1      38.686  30.779  32.524  1.00  0.00    -0.354 N 
ATOM     44  C   UNL A   1      39.070  33.044  36.179  1.00  0.00     0.074 A 
ATOM     45  C   UNL A   1      37.970  33.972  36.329  1.00  0.00     0.031 C 
ATOM     46  C   UNL A   1      37.773  30.206  30.567  1.00  0.00     0.029 A 
ATOM     47  C   UNL A   1      38.928  29.979  31.436  1.00  0.00     0.049 A 
ATOM     48  H   UNL A   1      39.257  30.788  33.326  1.00  0.00     0.167 HD
ATOM     49  C   UNL A   1      40.070  32.894  37.079  1.00  0.00     0.037 A 
ATOM     50  C   UNL A   1      39.981  29.185  31.158  1.00  0.00     0.037 A 
ATOM     51  C   UNL A   1      41.166  31.978  36.928  1.00  0.00     0.049 A 
ATOM     52  C   UNL A   1      41.111  29.069  32.149  1.00  0.00     0.074 A 
ATOM     53  C   UNL A   1      42.208  31.724  37.803  1.00  0.00     0.029 A 
ATOM     54  N   UNL A   1      41.371  31.172  35.818  1.00  0.00    -0.354 N 
ATOM     55  N   UNL A   1      41.261  29.667  33.306  1.00  0.00    -0.248 NA
ATOM     56  C   UNL A   1      42.218  28.169  31.793  1.00  0.00     0.031 C 
ATOM     57  C   UNL A   1      43.069  30.800  37.201  1.00  0.00     0.029 A 
ATOM     58  C   UNL A   1      42.537  30.442  35.972  1.00  0.00     0.049 A 
ATOM     59  H   UNL A   1      40.774  31.125  35.036  1.00  0.00     0.167 HD
ATOM     60  C   UNL A   1      42.460  29.197  33.828  1.00  0.00     0.074 A 
ATOM     61  C   UNL A   1      42.999  28.263  32.861  1.00  0.00     0.031 C 
ATOM     62  C   UNL A   1      43.057  29.508  35.005  1.00  0.00     0.037 A 
BRANCH  49  63
ATOM     63  C   UNL A   1      40.034  33.778  38.288  1.00  0.00     0.064 A 
ATOM     64  C   UNL A   1      39.267  33.452  39.418  1.00  0.00     0.173 A 
ATOM     65  C   UNL A   1      40.769  34.972  38.314  1.00  0.00     0.173 A 
ATOM     66  F   UNL A   1      38.533  32.329  39.433  1.00  0.00    -0.203 F 
ATOM     67  C   UNL A   1      39.209  34.308  40.513  1.00  0.00     0.198 A 
ATOM     68  C   UNL A   1      40.730  35.813  39.422  1.00  0.00     0.198 A 
ATOM     69  F   UNL A   1      41.517  35.329  37.259  1.00  0.00    -0.203 F 
ATOM     70  F   UNL A   1      38.423  34.006  41.557  1.00  0.00    -0.200 F 
ATOM     71  C   UNL A   1      39.943  35.485  40.517  1.00  0.00     0.200 A 
ATOM     72  F   UNL A   1      41.444  36.947  39.426  1.00  0.00    -0.200 F 
ATOM     73  F   UNL A   1      39.880  36.312  41.569  1.00  0.00    -0.200 F 
ENDBRANCH  49  63
BRANCH  50  74
ATOM     74  C   UNL A   1      40.025  28.452  29.868  1.00  0.00     0.064 A 
ATOM     75  C   UNL A   1      40.679  28.990  28.752  1.00  0.00     0.173 A 
ATOM     76  C   UNL A   1      39.419  27.194  29.728  1.00  0.00     0.173 A 
ATOM     77  F   UNL A   1      41.250  30.201  28.831  1.00  0.00    -0.203 F 
ATOM     78  C   UNL A   1      40.718  28.302  27.541  1.00  0.00     0.198 A 
ATOM     79  C   UNL A   1      39.478  26.497  28.523  1.00  0.00     0.198 A 
ATOM     80  F   UNL A   1      38.780  26.639  30.767  1.00  0.00    -0.203 F 
ATOM     81  F   UNL A   1      41.320  28.854  26.478  1.00  0.00    -0.200 F 
ATOM     82  C   UNL A   1      40.124  27.054  27.429  1.00  0.00     0.200 A 
ATOM     83  F   UNL A   1      38.910  25.288  28.423  1.00  0.00    -0.200 F 
ATOM     84  F   UNL A   1      40.167  26.389  26.266  1.00  0.00    -0.200 F 
ENDBRANCH  50  74
BRANCH  62  85
ATOM     85  C   UNL A   1      44.343  28.812  35.341  1.00  0.00     0.064 A 
ATOM     86  C   UNL A   1      45.587  29.353  34.987  1.00  0.00     0.173 A 
ATOM     87  C   UNL A   1      44.330  27.631  36.100  1.00  0.00     0.173 A 
ATOM     88  F   UNL A   1      45.651  30.473  34.252  1.00  0.00    -0.203 F 
ATOM     89  C   UNL A   1      46.772  28.731  35.373  1.00  0.00     0.198 A 
ATOM     90  C   UNL A   1      45.516  27.025  36.504  1.00  0.00     0.198 A 
ATOM     91  F   UNL A   1      43.165  27.079  36.470  1.00  0.00    -0.203 F 
ATOM     92  F   UNL A   1      47.951  29.250  35.001  1.00  0.00    -0.200 F 
ATOM     93  C   UNL A   1      46.736  27.574  36.138  1.00  0.00     0.200 A 
ATOM     94  F   UNL A   1      45.479  25.917  37.255  1.00  0.00    -0.200 F 
ATOM     95  F   UNL A   1      47.877  26.988  36.522  1.00  0.00    -0.200 F 
ENDBRANCH  62  85
ENDBRANCH  36  37
ENDBRANCH  29  31
ENDBRANCH  28  29
ENDBRANCH  27  28
ENDBRANCH  26  27
ENDBRANCH  25  26
ENDBRANCH   2  25
TORSDOF 17
ENDMDL
MODEL 2
REMARK VINA RESULT:     -11.9      5.246      8.153
REMARK SMILES O=C(COc1ccc(C(=O)/C=C/c2ccc(Cl)c([N+](=O)[O-])c2)cc1)OCCOC(=O)c1ccc(-c2c3nc(c(-c4c(F)c(F)c(F)c(F)c4F)c4ccc([nH]4)c(-c4c(F)c(F)c(F)c(F)c4F)c4nc(c(-c5c(F)c(F)c(F)c(F)c5F)c5ccc2[nH]5)C=C4)C=C3)cc1
REMARK SMILES IDX 1 1 2 2 3 3 4 4 5 5 6 6 24 7 7 8 23 9 8 10 9 11 10 12 11 13
REMARK SMILES IDX 12 14 13 15 14 16 22 17 15 18 18 19 16 20 17 21 19 22 20 23
REMARK SMILES IDX 21 24 25 25 26 26 27 27 28 28 29 29 30 30 31 31 32 32 93 33
REMARK SMILES IDX 33 34 92 35 34 36 35 37 36 38 86 39 37 40 91 41 85 42 87 43
REMARK SMILES IDX 38 44 90 45 84 46 83 47 39 49 71 50 51 51 70 52 52 53 55 54
REMARK SMILES IDX 69 55 88 56 53 57 54 58 68 60 89 61 56 62 40 63 41 64 49 65
REMARK SMILES IDX 42 66 43 67 47 68 50 69 44 70 45 71 48 72 46 73 72 74 73 75
REMARK SMILES IDX 81 76 74 77 75 78 79 79 82 80 76 81 77 82 80 83 78 84 57 85
REMARK SMILES IDX 58 86 66 87 59 88 60 89 64 90 67 91 61 92 62 93 65 94 63 95
REMARK H PARENT 87 48 55 59
REMARK Flexibility Score: inf
ROOT
ATOM      1  O   UNL A   1      33.077  37.455  30.957  1.00  0.00    -0.248 OA
ATOM      2  C   UNL A   1      32.903  36.315  30.530  1.00  0.00     0.344 C 
ENDROOT
BRANCH   2   3
ATOM      3  C   UNL A   1      32.871  36.031  29.031  1.00  0.00     0.351 C 
BRANCH   3   4
ATOM      4  O   UNL A   1      34.153  35.883  28.424  1.00  0.00    -0.482 OA
BRANCH   4   5
ATOM      5  C   UNL A   1      34.441  34.553  28.299  1.00  0.00     0.120 A 
ATOM      6  C   UNL A   1      33.406  33.631  28.163  1.00  0.00     0.047 A 
ATOM      7  C   UNL A   1      35.771  34.144  28.312  1.00  0.00     0.047 A 
ATOM      8  C   UNL A   1      33.712  32.289  27.936  1.00  0.00     0.016 A 
ATOM      9  C   UNL A   1      36.076  32.802  28.096  1.00  0.00     0.016 A 
ATOM     10  C   UNL A   1      35.050  31.877  27.857  1.00  0.00     0.022 A 
BRANCH  10  11
ATOM     11  C   UNL A   1      35.332  30.450  27.545  1.00  0.00     0.185 C 
ATOM     12  O   UNL A   1      36.382  29.934  27.916  1.00  0.00    -0.289 OA
BRANCH  11  13
ATOM     13  C   UNL A   1      34.357  29.638  26.767  1.00  0.00     0.053 C 
ATOM     14  C   UNL A   1      33.516  28.747  27.316  1.00  0.00     0.012 C 
BRANCH  14  15
ATOM     15  C   UNL A   1      32.530  28.023  26.517  1.00  0.00    -0.019 A 
ATOM     16  C   UNL A   1      31.885  28.684  25.469  1.00  0.00     0.010 A 
ATOM     17  C   UNL A   1      32.216  26.688  26.784  1.00  0.00     0.095 A 
ATOM     18  C   UNL A   1      30.948  28.013  24.681  1.00  0.00     0.028 A 
ATOM     19  C   UNL A   1      31.260  26.015  25.994  1.00  0.00     0.288 A 
ATOM     20  C   UNL A   1      30.631  26.671  24.930  1.00  0.00     0.118 A 
ATOM     21  Cl  UNL A   1      29.511  25.948  23.831  1.00  0.00    -0.077 Cl
BRANCH  19  22
ATOM     22  N   UNL A   1      30.965  24.624  26.345  1.00  0.00     0.064 N 
ATOM     23  O   UNL A   1      29.796  24.305  26.582  1.00  0.00    -0.258 OA
ATOM     24  O   UNL A   1      31.930  23.851  26.433  1.00  0.00    -0.258 OA
ENDBRANCH  19  22
ENDBRANCH  14  15
ENDBRANCH  11  13
ENDBRANCH  10  11
ENDBRANCH   4   5
ENDBRANCH   3   4
ENDBRANCH   2   3
BRANCH   2  25
ATOM     25  O   UNL A   1      32.777  35.273  31.389  1.00  0.00    -0.460 OA
BRANCH  25  26
ATOM     26  C   UNL A   1      33.821  34.831  32.283  1.00  0.00     0.274 C 
BRANCH  26  27
ATOM     27  C   UNL A   1      34.483  33.556  31.755  1.00  0.00     0.275 C 
BRANCH  27  28
ATOM     28  O   UNL A   1      35.901  33.614  31.997  1.00  0.00    -0.458 OA
BRANCH  28  29
ATOM     29  C   UNL A   1      36.408  32.668  32.825  1.00  0.00     0.338 C 
ATOM     30  O   UNL A   1      35.956  32.309  33.897  1.00  0.00    -0.246 OA
BRANCH  29  31
ATOM     31  C   UNL A   1      37.502  31.971  32.113  1.00  0.00     0.060 A 
ATOM     32  C   UNL A   1      38.342  31.121  32.843  1.00  0.00     0.016 A 
ATOM     33  C   UNL A   1      37.671  32.113  30.732  1.00  0.00     0.016 A 
ATOM     34  C   UNL A   1      39.368  30.423  32.197  1.00  0.00     0.010 A 
ATOM     35  C   UNL A   1      38.698  31.421  30.089  1.00  0.00     0.010 A 
ATOM     36  C   UNL A   1      39.564  30.592  30.821  1.00  0.00    -0.014 A 
BRANCH  36  37
ATOM     37  C   UNL A   1      40.763  30.045  30.144  1.00  0.00     0.031 A 
ATOM     38  C   UNL A   1      41.903  30.977  29.851  1.00  0.00     0.074 A 
ATOM     39  C   UNL A   1      40.805  28.771  29.720  1.00  0.00     0.049 A 
ATOM     40  N   UNL A   1      42.979  30.778  29.135  1.00  0.00    -0.248 NA
ATOM     41  C   UNL A   1      41.803  32.323  30.436  1.00  0.00     0.031 C 
ATOM     42  C   UNL A   1      39.772  27.766  29.953  1.00  0.00     0.029 A 
ATOM     43  N   UNL A   1      41.751  28.119  28.968  1.00  0.00    -0.354 N 
ATOM     44  C   UNL A   1      43.676  31.977  29.170  1.00  0.00     0.074 A 
ATOM     45  C   UNL A   1      42.892  32.904  29.958  1.00  0.00     0.031 C 
ATOM     46  C   UNL A   1      40.122  26.631  29.324  1.00  0.00     0.029 A 
ATOM     47  C   UNL A   1      41.387  26.843  28.619  1.00  0.00     0.049 A 
ATOM     48  H   UNL A   1      42.608  28.526  28.705  1.00  0.00     0.167 HD
ATOM     49  C   UNL A   1      44.863  32.279  28.594  1.00  0.00     0.037 A 
ATOM     50  C   UNL A   1      41.988  25.961  27.795  1.00  0.00     0.037 A 
ATOM     51  C   UNL A   1      45.638  31.362  27.806  1.00  0.00     0.049 A 
ATOM     52  C   UNL A   1      43.284  26.333  27.122  1.00  0.00     0.074 A 
ATOM     53  C   UNL A   1      46.873  31.561  27.214  1.00  0.00     0.029 A 
ATOM     54  N   UNL A   1      45.244  30.072  27.486  1.00  0.00    -0.354 N 
ATOM     55  N   UNL A   1      43.962  27.453  27.193  1.00  0.00    -0.248 NA
ATOM     56  C   UNL A   1      43.898  25.318  26.253  1.00  0.00     0.031 C 
ATOM     57  C   UNL A   1      47.203  30.407  26.495  1.00  0.00     0.029 A 
ATOM     58  C   UNL A   1      46.197  29.472  26.680  1.00  0.00     0.049 A 
ATOM     59  H   UNL A   1      44.410  29.644  27.789  1.00  0.00     0.167 HD
ATOM     60  C   UNL A   1      45.091  27.269  26.404  1.00  0.00     0.074 A 
ATOM     61  C   UNL A   1      45.009  25.929  25.863  1.00  0.00     0.031 C 
ATOM     62  C   UNL A   1      46.107  28.133  26.157  1.00  0.00     0.037 A 
BRANCH  49  63
ATOM     63  C   UNL A   1      45.368  33.679  28.772  1.00  0.00     0.064 A 
ATOM     64  C   UNL A   1      46.231  34.024  29.824  1.00  0.00     0.173 A 
ATOM     65  C   UNL A   1      44.975  34.691  27.884  1.00  0.00     0.173 A 
ATOM     66  F   UNL A   1      46.619  33.094  30.710  1.00  0.00    -0.203 F 
ATOM     67  C   UNL A   1      46.652  35.338  30.000  1.00  0.00     0.198 A 
ATOM     68  C   UNL A   1      45.420  35.999  28.048  1.00  0.00     0.198 A 
ATOM     69  F   UNL A   1      44.150  34.412  26.863  1.00  0.00    -0.203 F 
ATOM     70  F   UNL A   1      47.428  35.657  31.047  1.00  0.00    -0.200 F 
ATOM     71  C   UNL A   1      46.250  36.324  29.111  1.00  0.00     0.200 A 
ATOM     72  F   UNL A   1      45.035  36.949  27.184  1.00  0.00    -0.200 F 
ATOM     73  F   UNL A   1      46.650  37.591  29.287  1.00  0.00    -0.200 F 
ENDBRANCH  49  63
BRANCH  50  74
ATOM     74  C   UNL A   1      41.352  24.644  27.543  1.00  0.00     0.064 A 
ATOM     75  C   UNL A   1      41.876  23.470  28.099  1.00  0.00     0.173 A 
ATOM     76  C   UNL A   1      40.204  24.535  26.744  1.00  0.00     0.173 A 
ATOM     77  F   UNL A   1      42.988  23.523  28.847  1.00  0.00    -0.203 F 
ATOM     78  C   UNL A   1      41.280  22.233  27.860  1.00  0.00     0.198 A 
ATOM     79  C   UNL A   1      39.596  23.300  26.524  1.00  0.00     0.198 A 
ATOM     80  F   UNL A   1      39.667  25.629  26.188  1.00  0.00    -0.203 F 
ATOM     81  F   UNL A   1      41.820  21.121  28.376  1.00  0.00    -0.200 F 
ATOM     82  C   UNL A   1      40.137  22.149  27.079  1.00  0.00     0.200 A 
ATOM     83  F   UNL A   1      38.486  23.226  25.776  1.00  0.00    -0.200 F 
ATOM     84  F   UNL A   1      39.560  20.961  26.854  1.00  0.00    -0.200 F 
ENDBRANCH  50  74
BRANCH  62  85
ATOM     85  C   UNL A   1      47.236  27.653  25.292  1.00  0.00     0.064 A 
ATOM     86  C   UNL A   1      47.229  27.839  23.902  1.00  0.00     0.173 A 
ATOM     87  C   UNL A   1      48.375  27.075  25.873  1.00  0.00     0.173 A 
ATOM     88  F   UNL A   1      46.157  28.376  23.299  1.00  0.00    -0.203 F 
ATOM     89  C   UNL A   1      48.318  27.454  23.125  1.00  0.00     0.198 A 
ATOM     90  C   UNL A   1      49.472  26.714  25.096  1.00  0.00     0.198 A 
ATOM     91  F   UNL A   1      48.433  26.884  27.199  1.00  0.00    -0.203 F 
ATOM     92  F   UNL A   1      48.280  27.616  21.795  1.00  0.00    -0.200 F 
ATOM     93  C   UNL A   1      49.441  26.901  23.722  1.00  0.00     0.200 A 
ATOM     94  F   UNL A   1      50.561  26.194  25.677  1.00  0.00    -0.200 F 
ATOM     95  F   UNL A   1      50.495  26.548  22.974  1.00  0.00    -0.200 F 
ENDBRANCH  62  85
ENDBRANCH  36  37
ENDBRANCH  29  31
ENDBRANCH  28  29
ENDBRANCH  27  28
ENDBRANCH  26  27
ENDBRANCH  25  26
ENDBRANCH   2  25
TORSDOF 17
ENDMDL
MODEL 3
REMARK VINA RESULT:     -11.6      0.538      2.070
REMARK SMILES O=C(COc1ccc(C(=O)/C=C/c2ccc(Cl)c([N+](=O)[O-])c2)cc1)OCCOC(=O)c1ccc(-c2c3nc(c(-c4c(F)c(F)c(F)c(F)c4F)c4ccc([nH]4)c(-c4c(F)c(F)c(F)c(F)c4F)c4nc(c(-c5c(F)c(F)c(F)c(F)c5F)c5ccc2[nH]5)C=C4)C=C3)cc1
REMARK SMILES IDX 1 1 2 2 3 3 4 4 5 5 6 6 24 7 7 8 23 9 8 10 9 11 10 12 11 13
REMARK SMILES IDX 12 14 13 15 14 16 22 17 15 18 18 19 16 20 17 21 19 22 20 23
REMARK SMILES IDX 21 24 25 25 26 26 27 27 28 28 29 29 30 30 31 31 32 32 93 33
REMARK SMILES IDX 33 34 92 35 34 36 35 37 36 38 86 39 37 40 91 41 85 42 87 43
REMARK SMILES IDX 38 44 90 45 84 46 83 47 39 49 71 50 51 51 70 52 52 53 55 54
REMARK SMILES IDX 69 55 88 56 53 57 54 58 68 60 89 61 56 62 40 63 41 64 49 65
REMARK SMILES IDX 42 66 43 67 47 68 50 69 44 70 45 71 48 72 46 73 72 74 73 75
REMARK SMILES IDX 81 76 74 77 75 78 79 79 82 80 76 81 77 82 80 83 78 84 57 85
REMARK SMILES IDX 58 86 66 87 59 88 60 89 64 90 67 91 61 92 62 93 65 94 63 95
REMARK H PARENT 87 48 55 59
REMARK Flexibility Score: inf
ROOT
ATOM      1  O   UNL A   1      35.944  33.472  28.978  1.00  0.00    -0.248 OA
ATOM      2  C   UNL A   1      34.829  33.175  28.550  1.00  0.00     0.344 C 
ENDROOT
BRANCH   2   3
ATOM      3  C   UNL A   1      34.396  31.717  28.427  1.00  0.00     0.351 C 
BRANCH   3   4
ATOM      4  O   UNL A   1      34.617  31.135  27.144  1.00  0.00    -0.482 OA
BRANCH   4   5
ATOM      5  C   UNL A   1      33.903  29.972  27.048  1.00  0.00     0.120 A 
ATOM      6  C   UNL A   1      32.531  29.982  27.288  1.00  0.00     0.047 A 
ATOM      7  C   UNL A   1      34.566  28.797  26.710  1.00  0.00     0.047 A 
ATOM      8  C   UNL A   1      31.795  28.814  27.090  1.00  0.00     0.016 A 
ATOM      9  C   UNL A   1      33.832  27.628  26.522  1.00  0.00     0.016 A 
ATOM     10  C   UNL A   1      32.436  27.643  26.662  1.00  0.00     0.022 A 
BRANCH  10  11
ATOM     11  C   UNL A   1      31.605  26.439  26.396  1.00  0.00     0.185 C 
ATOM     12  O   UNL A   1      30.392  26.473  26.585  1.00  0.00    -0.289 OA
BRANCH  11  13
ATOM     13  C   UNL A   1      32.231  25.178  25.915  1.00  0.00     0.053 C 
ATOM     14  C   UNL A   1      33.222  24.540  26.556  1.00  0.00     0.012 C 
BRANCH  14  15
ATOM     15  C   UNL A   1      33.757  23.267  26.077  1.00  0.00    -0.019 A 
ATOM     16  C   UNL A   1      35.109  22.980  26.274  1.00  0.00     0.010 A 
ATOM     17  C   UNL A   1      32.946  22.337  25.421  1.00  0.00     0.095 A 
ATOM     18  C   UNL A   1      35.645  21.765  25.838  1.00  0.00     0.028 A 
ATOM     19  C   UNL A   1      33.491  21.117  24.970  1.00  0.00     0.288 A 
ATOM     20  C   UNL A   1      34.841  20.819  25.189  1.00  0.00     0.118 A 
ATOM     21  Cl  UNL A   1      35.617  19.334  24.772  1.00  0.00    -0.077 Cl
BRANCH  19  22
ATOM     22  N   UNL A   1      32.587  20.200  24.273  1.00  0.00     0.064 N 
ATOM     23  O   UNL A   1      32.220  20.483  23.127  1.00  0.00    -0.258 OA
ATOM     24  O   UNL A   1      32.199  19.206  24.903  1.00  0.00    -0.258 OA
ENDBRANCH  19  22
ENDBRANCH  14  15
ENDBRANCH  11  13
ENDBRANCH  10  11
ENDBRANCH   4   5
ENDBRANCH   3   4
ENDBRANCH   2   3
BRANCH   2  25
ATOM     25  O   UNL A   1      33.943  34.144  28.215  1.00  0.00    -0.460 OA
BRANCH  25  26
ATOM     26  C   UNL A   1      34.114  35.542  28.533  1.00  0.00     0.274 C 
BRANCH  26  27
ATOM     27  C   UNL A   1      32.867  36.096  29.227  1.00  0.00     0.275 C 
BRANCH  27  28
ATOM     28  O   UNL A   1      32.514  35.248  30.335  1.00  0.00    -0.458 OA
BRANCH  28  29
ATOM     29  C   UNL A   1      32.799  35.726  31.571  1.00  0.00     0.338 C 
ATOM     30  O   UNL A   1      32.148  36.522  32.221  1.00  0.00    -0.246 OA
BRANCH  29  31
ATOM     31  C   UNL A   1      33.939  34.951  32.112  1.00  0.00     0.060 A 
ATOM     32  C   UNL A   1      35.223  35.505  32.032  1.00  0.00     0.016 A 
ATOM     33  C   UNL A   1      33.742  33.716  32.735  1.00  0.00     0.016 A 
ATOM     34  C   UNL A   1      36.319  34.815  32.559  1.00  0.00     0.010 A 
ATOM     35  C   UNL A   1      34.836  33.024  33.256  1.00  0.00     0.010 A 
ATOM     36  C   UNL A   1      36.131  33.559  33.151  1.00  0.00    -0.014 A 
BRANCH  36  37
ATOM     37  C   UNL A   1      37.283  32.706  33.523  1.00  0.00     0.031 A 
ATOM     38  C   UNL A   1      38.008  33.006  34.802  1.00  0.00     0.074 A 
ATOM     39  C   UNL A   1      37.731  31.741  32.702  1.00  0.00     0.049 A 
ATOM     40  N   UNL A   1      39.128  32.512  35.261  1.00  0.00    -0.248 NA
ATOM     41  C   UNL A   1      37.388  34.015  35.674  1.00  0.00     0.031 C 
ATOM     42  C   UNL A   1      37.108  31.344  31.443  1.00  0.00     0.029 A 
ATOM     43  N   UNL A   1      38.844  30.942  32.798  1.00  0.00    -0.354 N 
ATOM     44  C   UNL A   1      39.356  33.161  36.466  1.00  0.00     0.074 A 
ATOM     45  C   UNL A   1      38.270  34.099  36.657  1.00  0.00     0.031 C 
ATOM     46  C   UNL A   1      37.870  30.401  30.862  1.00  0.00     0.029 A 
ATOM     47  C   UNL A   1      39.047  30.153  31.695  1.00  0.00     0.049 A 
ATOM     48  H   UNL A   1      39.438  30.936  33.583  1.00  0.00     0.167 HD
ATOM     49  C   UNL A   1      40.380  32.991  37.335  1.00  0.00     0.037 A 
ATOM     50  C   UNL A   1      40.083  29.351  31.378  1.00  0.00     0.037 A 
ATOM     51  C   UNL A   1      41.462  32.065  37.142  1.00  0.00     0.049 A 
ATOM     52  C   UNL A   1      41.240  29.212  32.335  1.00  0.00     0.074 A 
ATOM     53  C   UNL A   1      42.525  31.791  37.984  1.00  0.00     0.029 A 
ATOM     54  N   UNL A   1      41.626  31.270  36.018  1.00  0.00    -0.354 N 
ATOM     55  N   UNL A   1      41.429  29.795  33.494  1.00  0.00    -0.248 NA
ATOM     56  C   UNL A   1      42.327  28.305  31.938  1.00  0.00     0.031 C 
ATOM     57  C   UNL A   1      43.358  30.866  37.347  1.00  0.00     0.029 A 
ATOM     58  C   UNL A   1      42.789  30.527  36.130  1.00  0.00     0.049 A 
ATOM     59  H   UNL A   1      41.006  31.238  35.253  1.00  0.00     0.167 HD
ATOM     60  C   UNL A   1      42.638  29.307  33.976  1.00  0.00     0.074 A 
ATOM     61  C   UNL A   1      43.139  28.379  32.984  1.00  0.00     0.031 C 
ATOM     62  C   UNL A   1      43.270  29.599  35.139  1.00  0.00     0.037 A 
BRANCH  49  63
ATOM     63  C   UNL A   1      40.387  33.861  38.555  1.00  0.00     0.064 A 
ATOM     64  C   UNL A   1      41.091  35.075  38.592  1.00  0.00     0.173 A 
ATOM     65  C   UNL A   1      39.689  33.469  39.706  1.00  0.00     0.173 A 
ATOM     66  F   UNL A   1      41.789  35.482  37.522  1.00  0.00    -0.203 F 
ATOM     67  C   UNL A   1      41.124  35.846  39.750  1.00  0.00     0.198 A 
ATOM     68  C   UNL A   1      39.702  34.256  40.854  1.00  0.00     0.198 A 
ATOM     69  F   UNL A   1      39.002  32.317  39.721  1.00  0.00    -0.203 F 
ATOM     70  F   UNL A   1      41.851  36.972  39.783  1.00  0.00    -0.200 F 
ATOM     71  C   UNL A   1      40.427  35.439  40.878  1.00  0.00     0.200 A 
ATOM     72  F   UNL A   1      39.024  33.864  41.941  1.00  0.00    -0.200 F 
ATOM     73  F   UNL A   1      40.467  36.179  41.995  1.00  0.00    -0.200 F 
ENDBRANCH  49  63
BRANCH  50  74
ATOM     74  C   UNL A   1      40.083  28.632  30.079  1.00  0.00     0.064 A 
ATOM     75  C   UNL A   1      39.501  27.364  29.955  1.00  0.00     0.173 A 
ATOM     76  C   UNL A   1      40.659  29.204  28.935  1.00  0.00     0.173 A 
ATOM     77  F   UNL A   1      38.962  26.768  31.028  1.00  0.00    -0.203 F 
ATOM     78  C   UNL A   1      39.503  26.689  28.735  1.00  0.00     0.198 A 
ATOM     79  C   UNL A   1      40.640  28.537  27.710  1.00  0.00     0.198 A 
ATOM     80  F   UNL A   1      41.230  30.415  29.004  1.00  0.00    -0.203 F 
ATOM     81  F   UNL A   1      38.970  25.463  28.650  1.00  0.00    -0.200 F 
ATOM     82  C   UNL A   1      40.066  27.279  27.613  1.00  0.00     0.200 A 
ATOM     83  F   UNL A   1      41.178  29.116  26.628  1.00  0.00    -0.200 F 
ATOM     84  F   UNL A   1      40.062  26.633  26.439  1.00  0.00    -0.200 F 
ENDBRANCH  50  74
BRANCH  62  85
ATOM     85  C   UNL A   1      44.559  28.886  35.431  1.00  0.00     0.064 A 
ATOM     86  C   UNL A   1      44.582  27.645  36.081  1.00  0.00     0.173 A 
ATOM     87  C   UNL A   1      45.777  29.416  34.978  1.00  0.00     0.173 A 
ATOM     88  F   UNL A   1      43.445  27.103  36.543  1.00  0.00    -0.203 F 
ATOM     89  C   UNL A   1      45.781  26.964  36.277  1.00  0.00     0.198 A 
ATOM     90  C   UNL A   1      46.971  28.722  35.154  1.00  0.00     0.198 A 
ATOM     91  F   UNL A   1      45.806  30.597  34.343  1.00  0.00    -0.203 F 
ATOM     92  F   UNL A   1      45.785  25.790  36.925  1.00  0.00    -0.200 F 
ATOM     93  C   UNL A   1      46.972  27.497  35.806  1.00  0.00     0.200 A 
ATOM     94  F   UNL A   1      48.117  29.232  34.685  1.00  0.00    -0.200 F 
ATOM     95  F   UNL A   1      48.121  26.832  35.979  1.00  0.00    -0.200 F 
ENDBRANCH  62  85
ENDBRANCH  36  37
ENDBRANCH  29  31
ENDBRANCH  28  29
ENDBRANCH  27  28
ENDBRANCH  26  27
ENDBRANCH  25  26
ENDBRANCH   2  25
TORSDOF 17
ENDMDL
