MODEL 1
REMARK VINA RESULT:     -13.2      0.000      0.000
REMARK SMILES CC(C)c1ccc2c(c1)c(SC(C)(C)C)c(CC(C)(C)C(=O)OCCOC(=O)c1ccc(-c3c4nc(c(-c5c(F)c(F)c(F)c(F)c5F)c5ccc([nH]5)c(-c5c(F)c(F)c(F)c(F)c5F)c5nc(c(-c6c(F)c(F)c(F)c(F)c6F)c6ccc3[nH]6)C=C5)C=C4)cc1)n2Cc1ccc(Cl)cc1
REMARK SMILES IDX 24 1 23 2 21 3 22 4 18 5 19 6 20 7 17 8 16 9 4 10 5 11 9 12
REMARK SMILES IDX 6 13 8 14 7 15 10 16 92 17 2 18 1 19 3 20 11 21 12 22 13 23
REMARK SMILES IDX 14 24 15 25 93 26 94 27 95 28 100 29 96 30 99 31 97 32 98 33
REMARK SMILES IDX 25 34 26 35 27 36 28 37 29 38 30 39 91 40 31 41 90 42 32 43
REMARK SMILES IDX 33 44 34 45 84 46 35 47 89 48 83 49 85 50 36 51 88 52 82 53
REMARK SMILES IDX 81 54 37 56 69 57 49 58 68 59 50 60 53 61 67 62 86 63 51 64
REMARK SMILES IDX 52 65 66 67 87 68 54 69 38 70 39 71 47 72 40 73 41 74 45 75
REMARK SMILES IDX 48 76 42 77 43 78 46 79 44 80 70 81 71 82 79 83 72 84 73 85
REMARK SMILES IDX 77 86 80 87 74 88 75 89 78 90 76 91 55 92 56 93 64 94 57 95
REMARK SMILES IDX 58 96 62 97 65 98 59 99 60 100 63 101 61 102
REMARK H PARENT 85 55 53 66
REMARK Flexibility Score: inf
ROOT
ATOM      1  C   UNL A   1      33.857  31.900  28.268  1.00  0.00     0.274 C 
ENDROOT
BRANCH   1   2
ATOM      2  O   UNL A   1      33.861  31.365  26.935  1.00  0.00    -0.462 OA
BRANCH   2   3
ATOM      3  C   UNL A   1      32.826  30.549  26.637  1.00  0.00     0.312 C 
ATOM      4  O   UNL A   1      31.665  30.933  26.532  1.00  0.00    -0.252 OA
BRANCH   3   5
ATOM      5  C   UNL A   1      33.221  29.086  26.480  1.00  0.00     0.068 C 
ATOM      6  C   UNL A   1      32.017  28.395  27.142  1.00  0.00     0.024 C 
ATOM      7  C   UNL A   1      34.514  28.669  27.252  1.00  0.00     0.024 C 
BRANCH   5   8
ATOM      8  C   UNL A   1      33.391  28.705  24.987  1.00  0.00     0.073 C 
BRANCH   8   9
ATOM      9  C   UNL A   1      33.010  27.359  24.522  1.00  0.00     0.034 A 
ATOM     10  C   UNL A   1      31.490  22.898  23.402  1.00  0.00    -0.045 A 
ATOM     11  C   UNL A   1      31.691  22.832  24.773  1.00  0.00     0.006 A 
ATOM     12  C   UNL A   1      31.598  24.256  22.796  1.00  0.00     0.015 A 
ATOM     13  C   UNL A   1      32.253  23.910  25.436  1.00  0.00     0.027 A 
ATOM     14  C   UNL A   1      32.046  25.478  23.506  1.00  0.00     0.014 A 
ATOM     15  C   UNL A   1      32.481  25.155  24.792  1.00  0.00     0.050 A 
ATOM     16  C   UNL A   1      32.247  27.030  23.424  1.00  0.00     0.037 A 
ATOM     17  N   UNL A   1      33.317  26.192  25.181  1.00  0.00    -0.339 N 
BRANCH  10  18
ATOM     18  C   UNL A   1      31.559  21.455  22.730  1.00  0.00     0.013 C 
ATOM     19  C   UNL A   1      31.781  21.015  21.248  1.00  0.00     0.012 C 
ATOM     20  C   UNL A   1      32.155  20.403  23.646  1.00  0.00     0.012 C 
ENDBRANCH  10  18
BRANCH  16  21
ATOM     21  S   UNL A   1      31.624  28.451  22.304  1.00  0.00    -0.118 SA
BRANCH  21  22
ATOM     22  C   UNL A   1      29.704  29.225  22.804  1.00  0.00     0.012 C 
ATOM     23  C   UNL A   1      28.507  28.273  23.125  1.00  0.00     0.023 C 
ATOM     24  C   UNL A   1      29.645  30.335  23.902  1.00  0.00     0.023 C 
ATOM     25  C   UNL A   1      29.285  30.073  21.567  1.00  0.00     0.023 C 
ENDBRANCH  21  22
ENDBRANCH  16  21
BRANCH  17  26
ATOM     26  C   UNL A   1      34.541  25.861  25.882  1.00  0.00     0.158 C 
BRANCH  26  27
ATOM     27  C   UNL A   1      34.960  24.442  25.852  1.00  0.00    -0.028 A 
ATOM     28  C   UNL A   1      34.694  23.068  27.044  1.00  0.00     0.007 A 
ATOM     29  C   UNL A   1      35.966  24.088  24.353  1.00  0.00     0.007 A 
ATOM     30  C   UNL A   1      35.151  21.356  26.599  1.00  0.00     0.021 A 
ATOM     31  C   UNL A   1      36.407  22.392  23.952  1.00  0.00     0.021 A 
ATOM     32  C   UNL A   1      35.937  21.036  25.017  1.00  0.00     0.041 A 
ATOM     33  Cl  UNL A   1      36.704  19.502  24.782  1.00  0.00    -0.084 Cl
ENDBRANCH  26  27
ENDBRANCH  17  26
ENDBRANCH   8   9
ENDBRANCH   5   8
ENDBRANCH   3   5
ENDBRANCH   2   3
ENDBRANCH   1   2
BRANCH   1  34
ATOM     34  C   UNL A   1      34.081  33.422  28.226  1.00  0.00     0.275 C 
BRANCH  34  35
ATOM     35  O   UNL A   1      34.621  33.899  29.500  1.00  0.00    -0.458 OA
BRANCH  35  36
ATOM     36  C   UNL A   1      35.797  33.199  30.258  1.00  0.00     0.338 C 
ATOM     37  O   UNL A   1      35.414  33.420  31.446  1.00  0.00    -0.246 OA
BRANCH  36  38
ATOM     38  C   UNL A   1      37.401  32.096  29.339  1.00  0.00     0.060 A 
ATOM     39  C   UNL A   1      37.439  30.792  28.582  1.00  0.00     0.016 A 
ATOM     40  C   UNL A   1      38.929  32.036  29.692  1.00  0.00     0.016 A 
ATOM     41  C   UNL A   1      38.389  29.622  28.748  1.00  0.00     0.010 A 
ATOM     42  C   UNL A   1      39.881  30.870  29.861  1.00  0.00     0.010 A 
ATOM     43  C   UNL A   1      39.545  29.560  29.575  1.00  0.00    -0.014 A 
BRANCH  43  44
ATOM     44  C   UNL A   1      40.456  28.234  29.726  1.00  0.00     0.031 A 
ATOM     45  C   UNL A   1      40.968  28.234  31.085  1.00  0.00     0.074 A 
ATOM     46  C   UNL A   1      41.022  27.118  29.075  1.00  0.00     0.049 A 
ATOM     47  N   UNL A   1      42.165  28.602  31.386  1.00  0.00    -0.248 NA
ATOM     48  C   UNL A   1      40.070  27.973  32.206  1.00  0.00     0.031 C 
ATOM     49  C   UNL A   1      40.934  26.808  27.686  1.00  0.00     0.029 A 
ATOM     50  N   UNL A   1      41.933  26.025  29.405  1.00  0.00    -0.354 N 
ATOM     51  C   UNL A   1      42.268  28.251  32.701  1.00  0.00     0.074 A 
ATOM     52  C   UNL A   1      40.925  28.140  33.218  1.00  0.00     0.031 C 
ATOM     53  C   UNL A   1      41.265  25.558  27.309  1.00  0.00     0.029 A 
ATOM     54  C   UNL A   1      41.978  24.960  28.403  1.00  0.00     0.049 A 
ATOM     55  H   UNL A   1      42.472  26.008  30.230  1.00  0.00     0.167 HD
ATOM     56  C   UNL A   1      43.427  27.699  33.118  1.00  0.00     0.037 A 
ATOM     57  C   UNL A   1      42.778  23.872  28.098  1.00  0.00     0.037 A 
ATOM     58  C   UNL A   1      44.523  27.912  32.215  1.00  0.00     0.049 A 
ATOM     59  C   UNL A   1      44.118  24.087  28.650  1.00  0.00     0.074 A 
ATOM     60  C   UNL A   1      45.325  28.991  32.004  1.00  0.00     0.029 A 
ATOM     61  N   UNL A   1      44.679  27.084  31.125  1.00  0.00    -0.354 N 
ATOM     62  N   UNL A   1      45.041  24.770  28.043  1.00  0.00    -0.248 NA
ATOM     63  C   UNL A   1      44.388  23.734  30.031  1.00  0.00     0.031 C 
ATOM     64  C   UNL A   1      45.882  28.802  30.716  1.00  0.00     0.029 A 
ATOM     65  C   UNL A   1      45.649  27.526  30.212  1.00  0.00     0.049 A 
ATOM     66  H   UNL A   1      44.158  26.258  30.999  1.00  0.00     0.167 HD
ATOM     67  C   UNL A   1      45.711  25.358  29.087  1.00  0.00     0.074 A 
ATOM     68  C   UNL A   1      45.406  24.561  30.261  1.00  0.00     0.031 C 
ATOM     69  C   UNL A   1      45.977  26.690  29.016  1.00  0.00     0.037 A 
BRANCH  56  70
ATOM     70  C   UNL A   1      43.489  26.729  34.226  1.00  0.00     0.064 A 
ATOM     71  C   UNL A   1      43.734  27.187  35.523  1.00  0.00     0.173 A 
ATOM     72  C   UNL A   1      43.532  25.341  34.001  1.00  0.00     0.173 A 
ATOM     73  F   UNL A   1      43.716  28.501  35.797  1.00  0.00    -0.203 F 
ATOM     74  C   UNL A   1      44.049  26.296  36.542  1.00  0.00     0.198 A 
ATOM     75  C   UNL A   1      43.795  24.453  35.031  1.00  0.00     0.198 A 
ATOM     76  F   UNL A   1      43.408  24.826  32.769  1.00  0.00    -0.203 F 
ATOM     77  F   UNL A   1      44.366  26.764  37.755  1.00  0.00    -0.200 F 
ATOM     78  C   UNL A   1      44.080  24.932  36.294  1.00  0.00     0.200 A 
ATOM     79  F   UNL A   1      43.830  23.138  34.776  1.00  0.00    -0.200 F 
ATOM     80  F   UNL A   1      44.422  24.079  37.266  1.00  0.00    -0.200 F 
ENDBRANCH  56  70
BRANCH  57  81
ATOM     81  C   UNL A   1      42.596  22.696  27.145  1.00  0.00     0.064 A 
ATOM     82  C   UNL A   1      43.517  22.381  26.107  1.00  0.00     0.173 A 
ATOM     83  C   UNL A   1      41.658  21.685  27.418  1.00  0.00     0.173 A 
ATOM     84  F   UNL A   1      44.452  23.261  25.720  1.00  0.00    -0.203 F 
ATOM     85  C   UNL A   1      43.557  21.119  25.488  1.00  0.00     0.198 A 
ATOM     86  C   UNL A   1      41.684  20.435  26.782  1.00  0.00     0.198 A 
ATOM     87  F   UNL A   1      40.744  21.851  28.380  1.00  0.00    -0.203 F 
ATOM     88  F   UNL A   1      44.516  20.837  24.591  1.00  0.00    -0.200 F 
ATOM     89  C   UNL A   1      42.659  20.136  25.850  1.00  0.00     0.200 A 
ATOM     90  F   UNL A   1      40.802  19.492  27.142  1.00  0.00    -0.200 F 
ATOM     91  F   UNL A   1      42.759  18.898  25.344  1.00  0.00    -0.200 F 
ENDBRANCH  57  81
BRANCH  69  92
ATOM     92  C   UNL A   1      46.563  27.058  27.631  1.00  0.00     0.064 A 
ATOM     93  C   UNL A   1      47.938  27.171  27.321  1.00  0.00     0.173 A 
ATOM     94  C   UNL A   1      45.712  27.450  26.575  1.00  0.00     0.173 A 
ATOM     95  F   UNL A   1      48.873  26.989  28.266  1.00  0.00    -0.203 F 
ATOM     96  C   UNL A   1      48.408  27.427  26.012  1.00  0.00     0.198 A 
ATOM     97  C   UNL A   1      46.174  27.662  25.259  1.00  0.00     0.198 A 
ATOM     98  F   UNL A   1      44.389  27.527  26.784  1.00  0.00    -0.203 F 
ATOM     99  F   UNL A   1      49.725  27.405  25.752  1.00  0.00    -0.200 F 
ATOM    100  C   UNL A   1      47.522  27.609  24.970  1.00  0.00     0.200 A 
ATOM    101  F   UNL A   1      45.296  27.832  24.259  1.00  0.00    -0.200 F 
ATOM    102  F   UNL A   1      47.958  27.687  23.703  1.00  0.00    -0.200 F 
ENDBRANCH  69  92
ENDBRANCH  43  44
ENDBRANCH  36  38
ENDBRANCH  35  36
ENDBRANCH  34  35
ENDBRANCH   1  34
TORSDOF 18
ENDMDL
MODEL 2
REMARK VINA RESULT:     -13.1      3.739      9.187
REMARK SMILES CC(C)c1ccc2c(c1)c(SC(C)(C)C)c(CC(C)(C)C(=O)OCCOC(=O)c1ccc(-c3c4nc(c(-c5c(F)c(F)c(F)c(F)c5F)c5ccc([nH]5)c(-c5c(F)c(F)c(F)c(F)c5F)c5nc(c(-c6c(F)c(F)c(F)c(F)c6F)c6ccc3[nH]6)C=C5)C=C4)cc1)n2Cc1ccc(Cl)cc1
REMARK SMILES IDX 24 1 23 2 21 3 22 4 18 5 19 6 20 7 17 8 16 9 4 10 5 11 9 12
REMARK SMILES IDX 6 13 8 14 7 15 10 16 92 17 2 18 1 19 3 20 11 21 12 22 13 23
REMARK SMILES IDX 14 24 15 25 93 26 94 27 95 28 100 29 96 30 99 31 97 32 98 33
REMARK SMILES IDX 25 34 26 35 27 36 28 37 29 38 30 39 91 40 31 41 90 42 32 43
REMARK SMILES IDX 33 44 34 45 84 46 35 47 89 48 83 49 85 50 36 51 88 52 82 53
REMARK SMILES IDX 81 54 37 56 69 57 49 58 68 59 50 60 53 61 67 62 86 63 51 64
REMARK SMILES IDX 52 65 66 67 87 68 54 69 38 70 39 71 47 72 40 73 41 74 45 75
REMARK SMILES IDX 48 76 42 77 43 78 46 79 44 80 70 81 71 82 79 83 72 84 73 85
REMARK SMILES IDX 77 86 80 87 74 88 75 89 78 90 76 91 55 92 56 93 64 94 57 95
REMARK SMILES IDX 58 96 62 97 65 98 59 99 60 100 63 101 61 102
REMARK H PARENT 85 55 53 66
REMARK Flexibility Score: inf
ROOT
ATOM      1  C   UNL A   1      34.561  23.902  22.582  1.00  0.00     0.274 C 
ENDROOT
BRANCH   1   2
ATOM      2  O   UNL A   1      33.631  24.590  23.433  1.00  0.00    -0.462 OA
BRANCH   2   3
ATOM      3  C   UNL A   1      33.132  25.742  22.929  1.00  0.00     0.312 C 
ATOM      4  O   UNL A   1      33.788  26.770  22.804  1.00  0.00    -0.252 OA
BRANCH   3   5
ATOM      5  C   UNL A   1      31.656  25.663  22.562  1.00  0.00     0.068 C 
ATOM      6  C   UNL A   1      31.422  24.146  22.654  1.00  0.00     0.024 C 
ATOM      7  C   UNL A   1      31.316  26.126  21.109  1.00  0.00     0.024 C 
BRANCH   5   8
ATOM      8  C   UNL A   1      30.783  26.471  23.555  1.00  0.00     0.073 C 
BRANCH   8   9
ATOM      9  C   UNL A   1      31.402  27.499  24.413  1.00  0.00     0.034 A 
ATOM     10  C   UNL A   1      33.861  30.658  27.140  1.00  0.00    -0.045 A 
ATOM     11  C   UNL A   1      34.485  29.448  27.411  1.00  0.00     0.006 A 
ATOM     12  C   UNL A   1      32.857  30.636  26.038  1.00  0.00     0.015 A 
ATOM     13  C   UNL A   1      33.962  28.276  26.891  1.00  0.00     0.027 A 
ATOM     14  C   UNL A   1      32.378  29.419  25.339  1.00  0.00     0.014 A 
ATOM     15  C   UNL A   1      32.901  28.277  25.947  1.00  0.00     0.050 A 
ATOM     16  C   UNL A   1      31.502  28.851  24.170  1.00  0.00     0.037 A 
ATOM     17  N   UNL A   1      32.052  27.238  25.595  1.00  0.00    -0.339 N 
BRANCH  10  18
ATOM     18  C   UNL A   1      34.088  31.710  28.315  1.00  0.00     0.013 C 
ATOM     19  C   UNL A   1      35.275  31.905  29.311  1.00  0.00     0.012 C 
ATOM     20  C   UNL A   1      33.464  33.062  28.027  1.00  0.00     0.012 C 
ENDBRANCH  10  18
BRANCH  16  21
ATOM     21  S   UNL A   1      30.717  29.538  22.566  1.00  0.00    -0.118 SA
BRANCH  21  22
ATOM     22  C   UNL A   1      28.639  29.990  22.695  1.00  0.00     0.012 C 
ATOM     23  C   UNL A   1      27.588  28.876  23.008  1.00  0.00     0.023 C 
ATOM     24  C   UNL A   1      28.225  31.200  23.592  1.00  0.00     0.023 C 
ATOM     25  C   UNL A   1      28.274  30.574  21.299  1.00  0.00     0.023 C 
ENDBRANCH  21  22
ENDBRANCH  16  21
BRANCH  17  26
ATOM     26  C   UNL A   1      31.699  26.266  26.610  1.00  0.00     0.158 C 
BRANCH  26  27
ATOM     27  C   UNL A   1      32.219  24.893  26.423  1.00  0.00    -0.028 A 
ATOM     28  C   UNL A   1      33.915  24.201  26.581  1.00  0.00     0.007 A 
ATOM     29  C   UNL A   1      30.879  23.753  25.884  1.00  0.00     0.007 A 
ATOM     30  C   UNL A   1      34.188  22.396  26.502  1.00  0.00     0.021 A 
ATOM     31  C   UNL A   1      31.187  21.983  25.808  1.00  0.00     0.021 A 
ATOM     32  C   UNL A   1      32.796  21.306  26.190  1.00  0.00     0.041 A 
ATOM     33  Cl  UNL A   1      33.127  19.668  25.737  1.00  0.00    -0.084 Cl
ENDBRANCH  26  27
ENDBRANCH  17  26
ENDBRANCH   8   9
ENDBRANCH   5   8
ENDBRANCH   3   5
ENDBRANCH   2   3
ENDBRANCH   1   2
BRANCH   1  34
ATOM     34  C   UNL A   1      35.338  22.850  23.394  1.00  0.00     0.275 C 
BRANCH  34  35
ATOM     35  O   UNL A   1      36.601  23.405  23.882  1.00  0.00    -0.458 OA
BRANCH  35  36
ATOM     36  C   UNL A   1      37.533  22.671  24.903  1.00  0.00     0.338 C 
ATOM     37  O   UNL A   1      37.219  21.476  24.620  1.00  0.00    -0.246 OA
BRANCH  36  38
ATOM     38  C   UNL A   1      38.973  23.619  26.191  1.00  0.00     0.060 A 
ATOM     39  C   UNL A   1      38.976  23.922  27.668  1.00  0.00     0.016 A 
ATOM     40  C   UNL A   1      40.059  24.708  25.876  1.00  0.00     0.016 A 
ATOM     41  C   UNL A   1      39.343  25.213  28.374  1.00  0.00     0.010 A 
ATOM     42  C   UNL A   1      40.427  25.999  26.578  1.00  0.00     0.010 A 
ATOM     43  C   UNL A   1      39.895  26.388  27.793  1.00  0.00    -0.014 A 
BRANCH  43  44
ATOM     44  C   UNL A   1      40.191  27.737  28.632  1.00  0.00     0.031 A 
ATOM     45  C   UNL A   1      41.344  28.366  28.015  1.00  0.00     0.074 A 
ATOM     46  C   UNL A   1      39.846  28.521  29.752  1.00  0.00     0.049 A 
ATOM     47  N   UNL A   1      42.535  28.284  28.500  1.00  0.00    -0.248 NA
ATOM     48  C   UNL A   1      41.224  28.986  26.698  1.00  0.00     0.031 C 
ATOM     49  C   UNL A   1      38.881  28.202  30.752  1.00  0.00     0.029 A 
ATOM     50  N   UNL A   1      40.326  29.738  30.405  1.00  0.00    -0.354 N 
ATOM     51  C   UNL A   1      43.236  29.169  27.734  1.00  0.00     0.074 A 
ATOM     52  C   UNL A   1      42.494  29.351  26.509  1.00  0.00     0.031 C 
ATOM     53  C   UNL A   1      38.471  29.200  31.558  1.00  0.00     0.029 A 
ATOM     54  C   UNL A   1      39.413  30.275  31.415  1.00  0.00     0.049 A 
ATOM     55  H   UNL A   1      41.190  30.158  30.185  1.00  0.00     0.167 HD
ATOM     56  C   UNL A   1      44.139  29.960  28.349  1.00  0.00     0.037 A 
ATOM     57  C   UNL A   1      39.451  31.205  32.438  1.00  0.00     0.037 A 
ATOM     58  C   UNL A   1      44.514  29.497  29.655  1.00  0.00     0.049 A 
ATOM     59  C   UNL A   1      40.835  31.382  32.882  1.00  0.00     0.074 A 
ATOM     60  C   UNL A   1      45.370  28.517  30.057  1.00  0.00     0.029 A 
ATOM     61  N   UNL A   1      43.717  29.795  30.739  1.00  0.00    -0.354 N 
ATOM     62  N   UNL A   1      41.416  30.604  33.744  1.00  0.00    -0.248 NA
ATOM     63  C   UNL A   1      41.697  32.314  32.180  1.00  0.00     0.031 C 
ATOM     64  C   UNL A   1      44.984  28.197  31.381  1.00  0.00     0.029 A 
ATOM     65  C   UNL A   1      44.074  29.107  31.910  1.00  0.00     0.049 A 
ATOM     66  H   UNL A   1      42.967  30.431  30.695  1.00  0.00     0.167 HD
ATOM     67  C   UNL A   1      42.715  30.586  33.301  1.00  0.00     0.074 A 
ATOM     68  C   UNL A   1      42.876  31.771  32.479  1.00  0.00     0.031 C 
ATOM     69  C   UNL A   1      43.341  29.385  33.184  1.00  0.00     0.037 A 
BRANCH  56  70
ATOM     70  C   UNL A   1      44.474  31.309  27.860  1.00  0.00     0.064 A 
ATOM     71  C   UNL A   1      45.645  31.498  27.121  1.00  0.00     0.173 A 
ATOM     72  C   UNL A   1      43.780  32.453  28.293  1.00  0.00     0.173 A 
ATOM     73  F   UNL A   1      46.356  30.445  26.689  1.00  0.00    -0.203 F 
ATOM     74  C   UNL A   1      46.122  32.777  26.863  1.00  0.00     0.198 A 
ATOM     75  C   UNL A   1      44.231  33.727  27.988  1.00  0.00     0.198 A 
ATOM     76  F   UNL A   1      42.705  32.362  29.090  1.00  0.00    -0.203 F 
ATOM     77  F   UNL A   1      47.291  32.932  26.230  1.00  0.00    -0.200 F 
ATOM     78  C   UNL A   1      45.415  33.889  27.297  1.00  0.00     0.200 A 
ATOM     79  F   UNL A   1      43.542  34.793  28.421  1.00  0.00    -0.200 F 
ATOM     80  F   UNL A   1      45.896  35.119  27.082  1.00  0.00    -0.200 F 
ENDBRANCH  56  70
BRANCH  57  81
ATOM     81  C   UNL A   1      38.357  31.841  33.292  1.00  0.00     0.064 A 
ATOM     82  C   UNL A   1      38.169  31.541  34.670  1.00  0.00     0.173 A 
ATOM     83  C   UNL A   1      37.655  32.972  32.841  1.00  0.00     0.173 A 
ATOM     84  F   UNL A   1      38.755  30.474  35.233  1.00  0.00    -0.203 F 
ATOM     85  C   UNL A   1      37.435  32.374  35.533  1.00  0.00     0.198 A 
ATOM     86  C   UNL A   1      36.904  33.790  33.698  1.00  0.00     0.198 A 
ATOM     87  F   UNL A   1      37.758  33.369  31.567  1.00  0.00    -0.203 F 
ATOM     88  F   UNL A   1      37.378  32.105  36.847  1.00  0.00    -0.200 F 
ATOM     89  C   UNL A   1      36.829  33.516  35.049  1.00  0.00     0.200 A 
ATOM     90  F   UNL A   1      36.318  34.893  33.212  1.00  0.00    -0.200 F 
ATOM     91  F   UNL A   1      36.220  34.373  35.883  1.00  0.00    -0.200 F 
ENDBRANCH  57  81
BRANCH  69  92
ATOM     92  C   UNL A   1      43.118  28.525  34.452  1.00  0.00     0.064 A 
ATOM     93  C   UNL A   1      42.086  27.575  34.633  1.00  0.00     0.173 A 
ATOM     94  C   UNL A   1      43.895  28.742  35.610  1.00  0.00     0.173 A 
ATOM     95  F   UNL A   1      41.164  27.371  33.680  1.00  0.00    -0.203 F 
ATOM     96  C   UNL A   1      41.991  26.760  35.785  1.00  0.00     0.198 A 
ATOM     97  C   UNL A   1      43.833  27.903  36.742  1.00  0.00     0.198 A 
ATOM     98  F   UNL A   1      44.814  29.720  35.618  1.00  0.00    -0.203 F 
ATOM     99  F   UNL A   1      41.063  25.793  35.852  1.00  0.00    -0.200 F 
ATOM    100  C   UNL A   1      42.906  26.884  36.811  1.00  0.00     0.200 A 
ATOM    101  F   UNL A   1      44.734  28.036  37.727  1.00  0.00    -0.200 F 
ATOM    102  F   UNL A   1      42.922  26.006  37.827  1.00  0.00    -0.200 F 
ENDBRANCH  69  92
ENDBRANCH  43  44
ENDBRANCH  36  38
ENDBRANCH  35  36
ENDBRANCH  34  35
ENDBRANCH   1  34
TORSDOF 18
ENDMDL
MODEL 3
REMARK VINA RESULT:     -12.8      8.024     13.364
REMARK SMILES CC(C)c1ccc2c(c1)c(SC(C)(C)C)c(CC(C)(C)C(=O)OCCOC(=O)c1ccc(-c3c4nc(c(-c5c(F)c(F)c(F)c(F)c5F)c5ccc([nH]5)c(-c5c(F)c(F)c(F)c(F)c5F)c5nc(c(-c6c(F)c(F)c(F)c(F)c6F)c6ccc3[nH]6)C=C5)C=C4)cc1)n2Cc1ccc(Cl)cc1
REMARK SMILES IDX 24 1 23 2 21 3 22 4 18 5 19 6 20 7 17 8 16 9 4 10 5 11 9 12
REMARK SMILES IDX 6 13 8 14 7 15 10 16 92 17 2 18 1 19 3 20 11 21 12 22 13 23
REMARK SMILES IDX 14 24 15 25 93 26 94 27 95 28 100 29 96 30 99 31 97 32 98 33
REMARK SMILES IDX 25 34 26 35 27 36 28 37 29 38 30 39 91 40 31 41 90 42 32 43
REMARK SMILES IDX 33 44 34 45 84 46 35 47 89 48 83 49 85 50 36 51 88 52 82 53
REMARK SMILES IDX 81 54 37 56 69 57 49 58 68 59 50 60 53 61 67 62 86 63 51 64
REMARK SMILES IDX 52 65 66 67 87 68 54 69 38 70 39 71 47 72 40 73 41 74 45 75
REMARK SMILES IDX 48 76 42 77 43 78 46 79 44 80 70 81 71 82 79 83 72 84 73 85
REMARK SMILES IDX 77 86 80 87 74 88 75 89 78 90 76 91 55 92 56 93 64 94 57 95
REMARK SMILES IDX 58 96 62 97 65 98 59 99 60 100 63 101 61 102
REMARK H PARENT 85 55 53 66
REMARK Flexibility Score: inf
ROOT
ATOM      1  C   UNL A   1      45.444  41.759  33.367  1.00  0.00     0.274 C 
ENDROOT
BRANCH   1   2
ATOM      2  O   UNL A   1      45.004  41.437  32.038  1.00  0.00    -0.462 OA
BRANCH   2   3
ATOM      3  C   UNL A   1      43.692  41.128  31.924  1.00  0.00     0.312 C 
ATOM      4  O   UNL A   1      43.021  40.661  32.839  1.00  0.00    -0.252 OA
BRANCH   3   5
ATOM      5  C   UNL A   1      43.121  41.376  30.534  1.00  0.00     0.068 C 
ATOM      6  C   UNL A   1      43.213  42.910  30.460  1.00  0.00     0.024 C 
ATOM      7  C   UNL A   1      41.625  40.964  30.356  1.00  0.00     0.024 C 
BRANCH   5   8
ATOM      8  C   UNL A   1      43.963  40.667  29.443  1.00  0.00     0.073 C 
BRANCH   8   9
ATOM      9  C   UNL A   1      43.804  41.046  28.026  1.00  0.00     0.034 A 
ATOM     10  C   UNL A   1      42.842  42.467  23.497  1.00  0.00    -0.045 A 
ATOM     11  C   UNL A   1      41.619  41.993  23.949  1.00  0.00     0.006 A 
ATOM     12  C   UNL A   1      43.918  42.570  24.525  1.00  0.00     0.015 A 
ATOM     13  C   UNL A   1      41.538  41.381  25.188  1.00  0.00     0.027 A 
ATOM     14  C   UNL A   1      43.822  42.070  25.917  1.00  0.00     0.014 A 
ATOM     15  C   UNL A   1      42.630  41.367  26.096  1.00  0.00     0.050 A 
ATOM     16  C   UNL A   1      44.516  41.989  27.320  1.00  0.00     0.037 A 
ATOM     17  N   UNL A   1      42.838  40.539  27.189  1.00  0.00    -0.339 N 
BRANCH  10  18
ATOM     18  C   UNL A   1      42.928  42.441  21.906  1.00  0.00     0.013 C 
ATOM     19  C   UNL A   1      41.892  42.843  20.809  1.00  0.00     0.012 C 
ATOM     20  C   UNL A   1      44.325  42.718  21.384  1.00  0.00     0.012 C 
ENDBRANCH  10  18
BRANCH  16  21
ATOM     21  S   UNL A   1      45.927  42.913  28.224  1.00  0.00    -0.118 SA
BRANCH  21  22
ATOM     22  C   UNL A   1      47.801  41.900  28.253  1.00  0.00     0.012 C 
ATOM     23  C   UNL A   1      49.142  42.676  28.044  1.00  0.00     0.023 C 
ATOM     24  C   UNL A   1      48.074  40.937  29.452  1.00  0.00     0.023 C 
ATOM     25  C   UNL A   1      47.703  40.854  27.105  1.00  0.00     0.023 C 
ENDBRANCH  21  22
ENDBRANCH  16  21
BRANCH  17  26
ATOM     26  C   UNL A   1      42.336  39.181  27.128  1.00  0.00     0.158 C 
BRANCH  26  27
ATOM     27  C   UNL A   1      43.335  38.115  26.889  1.00  0.00    -0.028 A 
ATOM     28  C   UNL A   1      45.172  38.151  26.865  1.00  0.00     0.007 A 
ATOM     29  C   UNL A   1      42.507  36.518  26.500  1.00  0.00     0.007 A 
ATOM     30  C   UNL A   1      46.126  36.596  26.761  1.00  0.00     0.021 A 
ATOM     31  C   UNL A   1      43.479  35.009  26.395  1.00  0.00     0.021 A 
ATOM     32  C   UNL A   1      45.254  35.035  26.603  1.00  0.00     0.041 A 
ATOM     33  Cl  UNL A   1      46.159  33.640  26.121  1.00  0.00    -0.084 Cl
ENDBRANCH  26  27
ENDBRANCH  17  26
ENDBRANCH   8   9
ENDBRANCH   5   8
ENDBRANCH   3   5
ENDBRANCH   2   3
ENDBRANCH   1   2
BRANCH   1  34
ATOM     34  C   UNL A   1      46.337  40.631  33.914  1.00  0.00     0.275 C 
BRANCH  34  35
ATOM     35  O   UNL A   1      47.123  40.028  32.838  1.00  0.00    -0.458 OA
BRANCH  35  36
ATOM     36  C   UNL A   1      46.870  38.586  32.283  1.00  0.00     0.338 C 
ATOM     37  O   UNL A   1      48.061  38.155  32.326  1.00  0.00    -0.246 OA
BRANCH  36  38
ATOM     38  C   UNL A   1      44.945  37.744  31.814  1.00  0.00     0.060 A 
ATOM     39  C   UNL A   1      44.013  36.841  32.582  1.00  0.00     0.016 A 
ATOM     40  C   UNL A   1      44.307  37.372  30.430  1.00  0.00     0.016 A 
ATOM     41  C   UNL A   1      43.290  35.595  32.108  1.00  0.00     0.010 A 
ATOM     42  C   UNL A   1      43.587  36.128  29.952  1.00  0.00     0.010 A 
ATOM     43  C   UNL A   1      43.235  35.081  30.783  1.00  0.00    -0.014 A 
BRANCH  43  44
ATOM     44  C   UNL A   1      42.484  33.703  30.398  1.00  0.00     0.031 A 
ATOM     45  C   UNL A   1      41.062  33.946  30.554  1.00  0.00     0.074 A 
ATOM     46  C   UNL A   1      42.631  32.346  30.044  1.00  0.00     0.049 A 
ATOM     47  N   UNL A   1      40.390  33.555  31.581  1.00  0.00    -0.248 NA
ATOM     48  C   UNL A   1      40.358  34.814  29.614  1.00  0.00     0.031 C 
ATOM     49  C   UNL A   1      43.854  31.619  29.946  1.00  0.00     0.029 A 
ATOM     50  N   UNL A   1      41.764  31.194  29.804  1.00  0.00    -0.354 N 
ATOM     51  C   UNL A   1      39.100  33.810  31.214  1.00  0.00     0.074 A 
ATOM     52  C   UNL A   1      39.144  34.804  30.169  1.00  0.00     0.031 C 
ATOM     53  C   UNL A   1      43.821  30.438  29.300  1.00  0.00     0.029 A 
ATOM     54  C   UNL A   1      42.442  30.053  29.188  1.00  0.00     0.049 A 
ATOM     55  H   UNL A   1      40.807  31.187  30.039  1.00  0.00     0.167 HD
ATOM     56  C   UNL A   1      38.162  32.891  31.525  1.00  0.00     0.037 A 
ATOM     57  C   UNL A   1      42.189  28.710  28.965  1.00  0.00     0.037 A 
ATOM     58  C   UNL A   1      38.581  31.959  32.533  1.00  0.00     0.049 A 
ATOM     59  C   UNL A   1      41.206  28.233  29.940  1.00  0.00     0.074 A 
ATOM     60  C   UNL A   1      38.662  32.066  33.888  1.00  0.00     0.029 A 
ATOM     61  N   UNL A   1      39.339  30.865  32.177  1.00  0.00    -0.354 N 
ATOM     62  N   UNL A   1      41.519  27.840  31.137  1.00  0.00    -0.248 NA
ATOM     63  C   UNL A   1      39.791  28.409  29.674  1.00  0.00     0.031 C 
ATOM     64  C   UNL A   1      39.563  31.053  34.294  1.00  0.00     0.029 A 
ATOM     65  C   UNL A   1      39.862  30.157  33.271  1.00  0.00     0.049 A 
ATOM     66  H   UNL A   1      39.499  30.604  31.241  1.00  0.00     0.167 HD
ATOM     67  C   UNL A   1      40.430  28.236  31.874  1.00  0.00     0.074 A 
ATOM     68  C   UNL A   1      39.342  28.399  30.928  1.00  0.00     0.031 C 
ATOM     69  C   UNL A   1      40.646  28.905  33.037  1.00  0.00     0.037 A 
BRANCH  56  70
ATOM     70  C   UNL A   1      36.955  32.683  30.705  1.00  0.00     0.064 A 
ATOM     71  C   UNL A   1      37.036  31.895  29.554  1.00  0.00     0.173 A 
ATOM     72  C   UNL A   1      35.777  33.425  30.910  1.00  0.00     0.173 A 
ATOM     73  F   UNL A   1      38.138  31.172  29.300  1.00  0.00    -0.203 F 
ATOM     74  C   UNL A   1      36.000  31.882  28.629  1.00  0.00     0.198 A 
ATOM     75  C   UNL A   1      34.725  33.369  30.010  1.00  0.00     0.198 A 
ATOM     76  F   UNL A   1      35.658  34.284  31.934  1.00  0.00    -0.203 F 
ATOM     77  F   UNL A   1      36.137  31.188  27.492  1.00  0.00    -0.200 F 
ATOM     78  C   UNL A   1      34.848  32.619  28.858  1.00  0.00     0.200 A 
ATOM     79  F   UNL A   1      33.621  34.093  30.240  1.00  0.00    -0.200 F 
ATOM     80  F   UNL A   1      33.868  32.636  27.946  1.00  0.00    -0.200 F 
ENDBRANCH  56  70
BRANCH  57  81
ATOM     81  C   UNL A   1      42.891  27.661  28.109  1.00  0.00     0.064 A 
ATOM     82  C   UNL A   1      43.877  26.770  28.618  1.00  0.00     0.173 A 
ATOM     83  C   UNL A   1      42.399  27.320  26.837  1.00  0.00     0.173 A 
ATOM     84  F   UNL A   1      44.456  26.984  29.808  1.00  0.00    -0.203 F 
ATOM     85  C   UNL A   1      44.242  25.585  27.953  1.00  0.00     0.198 A 
ATOM     86  C   UNL A   1      42.781  26.149  26.165  1.00  0.00     0.198 A 
ATOM     87  F   UNL A   1      41.458  28.069  26.252  1.00  0.00    -0.203 F 
ATOM     88  F   UNL A   1      45.098  24.724  28.528  1.00  0.00    -0.200 F 
ATOM     89  C   UNL A   1      43.669  25.262  26.741  1.00  0.00     0.200 A 
ATOM     90  F   UNL A   1      42.219  25.852  24.985  1.00  0.00    -0.200 F 
ATOM     91  F   UNL A   1      43.928  24.084  26.153  1.00  0.00    -0.200 F 
ENDBRANCH  57  81
BRANCH  69  92
ATOM     92  C   UNL A   1      41.730  28.196  33.886  1.00  0.00     0.064 A 
ATOM     93  C   UNL A   1      41.564  26.976  34.581  1.00  0.00     0.173 A 
ATOM     94  C   UNL A   1      42.970  28.823  34.132  1.00  0.00     0.173 A 
ATOM     95  F   UNL A   1      40.385  26.337  34.579  1.00  0.00    -0.203 F 
ATOM     96  C   UNL A   1      42.624  26.338  35.267  1.00  0.00     0.198 A 
ATOM     97  C   UNL A   1      44.042  28.172  34.777  1.00  0.00     0.198 A 
ATOM     98  F   UNL A   1      43.197  30.054  33.648  1.00  0.00    -0.203 F 
ATOM     99  F   UNL A   1      42.442  25.123  35.809  1.00  0.00    -0.200 F 
ATOM    100  C   UNL A   1      43.879  26.909  35.309  1.00  0.00     0.200 A 
ATOM    101  F   UNL A   1      45.256  28.742  34.803  1.00  0.00    -0.200 F 
ATOM    102  F   UNL A   1      44.925  26.235  35.813  1.00  0.00    -0.200 F 
ENDBRANCH  69  92
ENDBRANCH  43  44
ENDBRANCH  36  38
ENDBRANCH  35  36
ENDBRANCH  34  35
ENDBRANCH   1  34
TORSDOF 18
ENDMDL
