MODEL 1
REMARK VINA RESULT:     -12.7      0.000      0.000
REMARK SMILES CC(=O)N[C@H]1[C@@H](O[C@H](C)C(=O)OCCOC(=O)c2ccc(-c3c4nc(c(-c5c(F)c(F)c(F)c(F)c5F)c5ccc([nH]5)c(-c5c(F)c(F)c(F)c(F)c5F)c5nc(c(-c6c(F)c(F)c(F)c(F)c6F)c6ccc3[nH]6)C=C5)C=C4)cc2)[C@H]2OC(C)(C)OC[C@@H]2O[C@H]1Sc1ccc(Cl)cc1
REMARK SMILES IDX 13 1 12 2 10 3 11 4 8 5 9 6 7 7 6 8 5 9 90 10 81 11 89 12
REMARK SMILES IDX 82 13 88 14 83 15 87 16 84 17 85 18 86 19 4 20 1 21 2 22
REMARK SMILES IDX 3 23 91 25 92 26 93 27 98 28 94 29 97 30 95 31 96 32 14 33
REMARK SMILES IDX 15 34 16 35 17 36 18 37 19 38 80 39 20 40 79 41 21 42 22 43
REMARK SMILES IDX 23 44 73 45 24 46 78 47 72 48 74 49 25 50 77 51 71 52 70 53
REMARK SMILES IDX 26 55 58 56 38 57 57 58 39 59 42 60 56 61 75 62 40 63 41 64
REMARK SMILES IDX 55 66 76 67 43 68 27 69 28 70 36 71 29 72 30 73 34 74 37 75
REMARK SMILES IDX 31 76 32 77 35 78 33 79 59 80 60 81 68 82 61 83 62 84 66 85
REMARK SMILES IDX 69 86 63 87 64 88 67 89 65 90 44 91 45 92 53 93 46 94 47 95
REMARK SMILES IDX 51 96 54 97 48 98 49 99 52 100 50 101
REMARK H PARENT 4 24 74 54 42 65
REMARK Flexibility Score: inf
ROOT
ATOM      1  C   UNL A   1      37.893  20.227  25.192  1.00  0.00     0.274 C 
ENDROOT
BRANCH   1   2
ATOM      2  O   UNL A   1      37.928  21.646  24.900  1.00  0.00    -0.460 OA
BRANCH   2   3
ATOM      3  C   UNL A   1      36.815  22.351  25.230  1.00  0.00     0.335 C 
ATOM      4  O   UNL A   1      36.118  22.078  26.198  1.00  0.00    -0.249 OA
BRANCH   3   5
ATOM      5  C   UNL A   1      36.429  23.504  24.273  1.00  0.00     0.225 C 
ATOM      6  C   UNL A   1      36.718  23.036  22.843  1.00  0.00     0.051 C 
BRANCH   5   7
ATOM      7  O   UNL A   1      35.122  24.093  24.319  1.00  0.00    -0.358 OA
BRANCH   7   8
ATOM      8  C   UNL A   1      34.153  23.735  23.328  1.00  0.00     0.177 C 
ATOM      9  C   UNL A   1      33.210  24.888  22.994  1.00  0.00     0.153 C 
ATOM     10  C   UNL A   1      32.472  25.293  24.330  1.00  0.00     0.206 C 
ATOM     11  C   UNL A   1      33.113  22.606  23.747  1.00  0.00     0.184 C 
ATOM     12  O   UNL A   1      31.435  24.304  24.507  1.00  0.00    -0.356 OA
ATOM     13  O   UNL A   1      33.715  21.383  24.145  1.00  0.00    -0.342 OA
ATOM     14  C   UNL A   1      32.029  23.046  24.774  1.00  0.00     0.177 C 
ATOM     15  C   UNL A   1      32.752  20.344  24.404  1.00  0.00     0.163 C 
ATOM     16  C   UNL A   1      31.014  21.926  24.897  1.00  0.00     0.198 C 
ATOM     17  C   UNL A   1      33.530  19.250  25.134  1.00  0.00     0.075 C 
ATOM     18  C   UNL A   1      32.161  19.763  23.116  1.00  0.00     0.075 C 
ATOM     19  O   UNL A   1      31.701  20.742  25.293  1.00  0.00    -0.348 OA
BRANCH   9  20
ATOM     20  N   UNL A   1      33.620  25.929  22.061  1.00  0.00    -0.347 N 
ATOM     21  C   UNL A   1      32.299  27.858  22.945  1.00  0.00     0.114 C 
ATOM     22  C   UNL A   1      33.416  27.287  22.111  1.00  0.00     0.217 C 
ATOM     23  O   UNL A   1      34.141  28.026  21.444  1.00  0.00    -0.275 OA
ATOM     24  H   UNL A   1      34.118  25.612  21.273  1.00  0.00     0.163 HD
ENDBRANCH   9  20
BRANCH  10  25
ATOM     25  S   UNL A   1      33.213  25.844  26.029  1.00  0.00    -0.092 SA
BRANCH  25  26
ATOM     26  C   UNL A   1      33.173  27.599  26.534  1.00  0.00     0.010 A 
ATOM     27  C   UNL A   1      32.107  28.445  26.879  1.00  0.00     0.016 A 
ATOM     28  C   UNL A   1      34.443  28.211  26.594  1.00  0.00     0.016 A 
ATOM     29  C   UNL A   1      32.267  29.783  27.283  1.00  0.00     0.021 A 
ATOM     30  C   UNL A   1      34.625  29.548  27.012  1.00  0.00     0.021 A 
ATOM     31  C   UNL A   1      33.531  30.329  27.360  1.00  0.00     0.041 A 
ATOM     32  Cl  UNL A   1      33.733  31.942  27.913  1.00  0.00    -0.084 Cl
ENDBRANCH  25  26
ENDBRANCH  10  25
ENDBRANCH   7   8
ENDBRANCH   5   7
ENDBRANCH   3   5
ENDBRANCH   2   3
ENDBRANCH   1   2
BRANCH   1  33
ATOM     33  C   UNL A   1      39.226  19.581  25.598  1.00  0.00     0.275 C 
BRANCH  33  34
ATOM     34  O   UNL A   1      40.265  20.548  25.817  1.00  0.00    -0.458 OA
BRANCH  34  35
ATOM     35  C   UNL A   1      40.789  20.535  27.069  1.00  0.00     0.338 C 
ATOM     36  O   UNL A   1      41.161  19.555  27.688  1.00  0.00    -0.246 OA
BRANCH  35  37
ATOM     37  C   UNL A   1      41.095  21.918  27.503  1.00  0.00     0.060 A 
ATOM     38  C   UNL A   1      40.366  22.944  26.882  1.00  0.00     0.016 A 
ATOM     39  C   UNL A   1      42.013  22.218  28.511  1.00  0.00     0.016 A 
ATOM     40  C   UNL A   1      40.536  24.265  27.270  1.00  0.00     0.010 A 
ATOM     41  C   UNL A   1      42.230  23.557  28.860  1.00  0.00     0.010 A 
ATOM     42  C   UNL A   1      41.505  24.581  28.225  1.00  0.00    -0.014 A 
BRANCH  42  43
ATOM     43  C   UNL A   1      41.912  25.997  28.353  1.00  0.00     0.031 A 
ATOM     44  C   UNL A   1      43.222  26.396  27.739  1.00  0.00     0.074 A 
ATOM     45  C   UNL A   1      41.106  26.912  28.916  1.00  0.00     0.049 A 
ATOM     46  N   UNL A   1      43.808  27.564  27.711  1.00  0.00    -0.248 NA
ATOM     47  C   UNL A   1      43.973  25.327  27.055  1.00  0.00     0.031 C 
ATOM     48  C   UNL A   1      39.787  26.644  29.481  1.00  0.00     0.029 A 
ATOM     49  N   UNL A   1      41.285  28.261  29.097  1.00  0.00    -0.354 N 
ATOM     50  C   UNL A   1      44.990  27.370  27.011  1.00  0.00     0.074 A 
ATOM     51  C   UNL A   1      45.051  25.974  26.643  1.00  0.00     0.031 C 
ATOM     52  C   UNL A   1      39.275  27.793  29.955  1.00  0.00     0.029 A 
ATOM     53  C   UNL A   1      40.246  28.869  29.757  1.00  0.00     0.049 A 
ATOM     54  H   UNL A   1      42.082  28.746  28.784  1.00  0.00     0.167 HD
ATOM     55  C   UNL A   1      45.944  28.279  26.707  1.00  0.00     0.037 A 
ATOM     56  C   UNL A   1      40.120  30.144  30.176  1.00  0.00     0.037 A 
ATOM     57  C   UNL A   1      45.892  29.658  27.103  1.00  0.00     0.049 A 
ATOM     58  C   UNL A   1      41.240  31.119  29.899  1.00  0.00     0.074 A 
ATOM     59  C   UNL A   1      46.826  30.656  26.887  1.00  0.00     0.029 A 
ATOM     60  N   UNL A   1      44.844  30.232  27.809  1.00  0.00    -0.354 N 
ATOM     61  N   UNL A   1      42.363  30.930  29.247  1.00  0.00    -0.248 NA
ATOM     62  C   UNL A   1      41.078  32.483  30.423  1.00  0.00     0.031 C 
ATOM     63  C   UNL A   1      46.363  31.822  27.504  1.00  0.00     0.029 A 
ATOM     64  C   UNL A   1      45.116  31.567  28.052  1.00  0.00     0.049 A 
ATOM     65  H   UNL A   1      44.029  29.759  28.095  1.00  0.00     0.167 HD
ATOM     66  C   UNL A   1      43.028  32.150  29.264  1.00  0.00     0.074 A 
ATOM     67  C   UNL A   1      42.173  33.079  29.972  1.00  0.00     0.031 C 
ATOM     68  C   UNL A   1      44.239  32.475  28.748  1.00  0.00     0.037 A 
BRANCH  55  69
ATOM     69  C   UNL A   1      47.142  27.788  25.952  1.00  0.00     0.064 A 
ATOM     70  C   UNL A   1      47.173  27.772  24.549  1.00  0.00     0.173 A 
ATOM     71  C   UNL A   1      48.276  27.332  26.640  1.00  0.00     0.173 A 
ATOM     72  F   UNL A   1      46.104  28.173  23.846  1.00  0.00    -0.203 F 
ATOM     73  C   UNL A   1      48.288  27.297  23.864  1.00  0.00     0.198 A 
ATOM     74  C   UNL A   1      49.400  26.885  25.952  1.00  0.00     0.198 A 
ATOM     75  F   UNL A   1      48.293  27.321  27.982  1.00  0.00    -0.203 F 
ATOM     76  F   UNL A   1      48.278  27.245  22.525  1.00  0.00    -0.200 F 
ATOM     77  C   UNL A   1      49.403  26.862  24.565  1.00  0.00     0.200 A 
ATOM     78  F   UNL A   1      50.477  26.471  26.632  1.00  0.00    -0.200 F 
ATOM     79  F   UNL A   1      50.477  26.410  23.905  1.00  0.00    -0.200 F 
ENDBRANCH  55  69
BRANCH  56  80
ATOM     80  C   UNL A   1      38.914  30.573  30.936  1.00  0.00     0.064 A 
ATOM     81  C   UNL A   1      37.800  31.124  30.285  1.00  0.00     0.173 A 
ATOM     82  C   UNL A   1      38.869  30.487  32.336  1.00  0.00     0.173 A 
ATOM     83  F   UNL A   1      37.802  31.257  28.951  1.00  0.00    -0.203 F 
ATOM     84  C   UNL A   1      36.702  31.594  31.006  1.00  0.00     0.198 A 
ATOM     85  C   UNL A   1      37.757  30.926  33.053  1.00  0.00     0.198 A 
ATOM     86  F   UNL A   1      39.909  29.977  33.011  1.00  0.00    -0.203 F 
ATOM     87  F   UNL A   1      35.678  32.170  30.362  1.00  0.00    -0.200 F 
ATOM     88  C   UNL A   1      36.680  31.489  32.388  1.00  0.00     0.200 A 
ATOM     89  F   UNL A   1      37.736  30.813  34.388  1.00  0.00    -0.200 F 
ATOM     90  F   UNL A   1      35.626  31.942  33.080  1.00  0.00    -0.200 F 
ENDBRANCH  56  80
BRANCH  68  91
ATOM     91  C   UNL A   1      44.695  33.898  28.892  1.00  0.00     0.064 A 
ATOM     92  C   UNL A   1      45.489  34.313  29.971  1.00  0.00     0.173 A 
ATOM     93  C   UNL A   1      44.379  34.844  27.905  1.00  0.00     0.173 A 
ATOM     94  F   UNL A   1      45.809  33.448  30.946  1.00  0.00    -0.203 F 
ATOM     95  C   UNL A   1      45.930  35.629  30.068  1.00  0.00     0.198 A 
ATOM     96  C   UNL A   1      44.848  36.152  27.990  1.00  0.00     0.198 A 
ATOM     97  F   UNL A   1      43.630  34.495  26.847  1.00  0.00    -0.203 F 
ATOM     98  F   UNL A   1      46.649  36.016  31.131  1.00  0.00    -0.200 F 
ATOM     99  C   UNL A   1      45.616  36.546  29.074  1.00  0.00     0.200 A 
ATOM    100  F   UNL A   1      44.557  37.030  27.020  1.00  0.00    -0.200 F 
ATOM    101  F   UNL A   1      46.050  37.810  29.165  1.00  0.00    -0.200 F 
ENDBRANCH  68  91
ENDBRANCH  42  43
ENDBRANCH  35  37
ENDBRANCH  34  35
ENDBRANCH  33  34
ENDBRANCH   1  33
TORSDOF 16
ENDMDL
MODEL 2
REMARK VINA RESULT:     -12.1      1.753      7.206
REMARK SMILES CC(=O)N[C@H]1[C@@H](O[C@H](C)C(=O)OCCOC(=O)c2ccc(-c3c4nc(c(-c5c(F)c(F)c(F)c(F)c5F)c5ccc([nH]5)c(-c5c(F)c(F)c(F)c(F)c5F)c5nc(c(-c6c(F)c(F)c(F)c(F)c6F)c6ccc3[nH]6)C=C5)C=C4)cc2)[C@H]2OC(C)(C)OC[C@@H]2O[C@H]1Sc1ccc(Cl)cc1
REMARK SMILES IDX 13 1 12 2 10 3 11 4 8 5 9 6 7 7 6 8 5 9 90 10 81 11 89 12
REMARK SMILES IDX 82 13 88 14 83 15 87 16 84 17 85 18 86 19 4 20 1 21 2 22
REMARK SMILES IDX 3 23 91 25 92 26 93 27 98 28 94 29 97 30 95 31 96 32 14 33
REMARK SMILES IDX 15 34 16 35 17 36 18 37 19 38 80 39 20 40 79 41 21 42 22 43
REMARK SMILES IDX 23 44 73 45 24 46 78 47 72 48 74 49 25 50 77 51 71 52 70 53
REMARK SMILES IDX 26 55 58 56 38 57 57 58 39 59 42 60 56 61 75 62 40 63 41 64
REMARK SMILES IDX 55 66 76 67 43 68 27 69 28 70 36 71 29 72 30 73 34 74 37 75
REMARK SMILES IDX 31 76 32 77 35 78 33 79 59 80 60 81 68 82 61 83 62 84 66 85
REMARK SMILES IDX 69 86 63 87 64 88 67 89 65 90 44 91 45 92 53 93 46 94 47 95
REMARK SMILES IDX 51 96 54 97 48 98 49 99 52 100 50 101
REMARK H PARENT 4 24 74 54 42 65
REMARK Flexibility Score: inf
ROOT
ATOM      1  C   UNL A   1      37.877  20.300  25.388  1.00  0.00     0.274 C 
ENDROOT
BRANCH   1   2
ATOM      2  O   UNL A   1      37.930  21.722  25.113  1.00  0.00    -0.460 OA
BRANCH   2   3
ATOM      3  C   UNL A   1      36.801  22.425  25.384  1.00  0.00     0.335 C 
ATOM      4  O   UNL A   1      36.087  22.188  26.350  1.00  0.00    -0.249 OA
BRANCH   3   5
ATOM      5  C   UNL A   1      36.420  23.524  24.365  1.00  0.00     0.225 C 
ATOM      6  C   UNL A   1      36.709  22.978  22.964  1.00  0.00     0.051 C 
BRANCH   5   7
ATOM      7  O   UNL A   1      35.115  24.120  24.378  1.00  0.00    -0.358 OA
BRANCH   7   8
ATOM      8  C   UNL A   1      34.166  23.757  23.368  1.00  0.00     0.177 C 
ATOM      9  C   UNL A   1      33.216  24.902  23.027  1.00  0.00     0.153 C 
ATOM     10  C   UNL A   1      32.451  25.288  24.353  1.00  0.00     0.206 C 
ATOM     11  C   UNL A   1      33.133  22.614  23.761  1.00  0.00     0.184 C 
ATOM     12  O   UNL A   1      31.422  24.286  24.505  1.00  0.00    -0.356 OA
ATOM     13  O   UNL A   1      33.743  21.394  24.159  1.00  0.00    -0.342 OA
ATOM     14  C   UNL A   1      32.027  23.033  24.773  1.00  0.00     0.177 C 
ATOM     15  C   UNL A   1      32.788  20.343  24.395  1.00  0.00     0.163 C 
ATOM     16  C   UNL A   1      31.023  21.901  24.870  1.00  0.00     0.198 C 
ATOM     17  C   UNL A   1      33.567  19.252  25.129  1.00  0.00     0.075 C 
ATOM     18  C   UNL A   1      32.225  19.764  23.092  1.00  0.00     0.075 C 
ATOM     19  O   UNL A   1      31.718  20.721  25.269  1.00  0.00    -0.348 OA
BRANCH   9  20
ATOM     20  N   UNL A   1      33.629  25.955  22.108  1.00  0.00    -0.347 N 
ATOM     21  C   UNL A   1      32.247  27.853  22.965  1.00  0.00     0.114 C 
ATOM     22  C   UNL A   1      33.397  27.309  22.159  1.00  0.00     0.217 C 
ATOM     23  O   UNL A   1      34.123  28.065  21.514  1.00  0.00    -0.275 OA
ATOM     24  H   UNL A   1      34.154  25.651  21.333  1.00  0.00     0.163 HD
ENDBRANCH   9  20
BRANCH  10  25
ATOM     25  S   UNL A   1      33.157  25.835  26.069  1.00  0.00    -0.092 SA
BRANCH  25  26
ATOM     26  C   UNL A   1      33.223  27.603  26.525  1.00  0.00     0.010 A 
ATOM     27  C   UNL A   1      34.301  28.491  26.653  1.00  0.00     0.016 A 
ATOM     28  C   UNL A   1      31.962  28.177  26.790  1.00  0.00     0.016 A 
ATOM     29  C   UNL A   1      34.161  29.851  26.986  1.00  0.00     0.021 A 
ATOM     30  C   UNL A   1      31.800  29.543  27.110  1.00  0.00     0.021 A 
ATOM     31  C   UNL A   1      32.906  30.378  27.203  1.00  0.00     0.041 A 
ATOM     32  Cl  UNL A   1      32.728  32.051  27.547  1.00  0.00    -0.084 Cl
ENDBRANCH  25  26
ENDBRANCH  10  25
ENDBRANCH   7   8
ENDBRANCH   5   7
ENDBRANCH   3   5
ENDBRANCH   2   3
ENDBRANCH   1   2
BRANCH   1  33
ATOM     33  C   UNL A   1      39.220  19.552  25.377  1.00  0.00     0.275 C 
BRANCH  33  34
ATOM     34  O   UNL A   1      40.039  19.870  26.514  1.00  0.00    -0.458 OA
BRANCH  34  35
ATOM     35  C   UNL A   1      41.364  19.643  26.331  1.00  0.00     0.338 C 
ATOM     36  O   UNL A   1      41.868  18.641  25.856  1.00  0.00    -0.246 OA
BRANCH  35  37
ATOM     37  C   UNL A   1      42.127  20.893  26.553  1.00  0.00     0.060 A 
ATOM     38  C   UNL A   1      42.209  21.349  27.878  1.00  0.00     0.016 A 
ATOM     39  C   UNL A   1      42.787  21.578  25.531  1.00  0.00     0.016 A 
ATOM     40  C   UNL A   1      42.958  22.474  28.192  1.00  0.00     0.010 A 
ATOM     41  C   UNL A   1      43.491  22.749  25.838  1.00  0.00     0.010 A 
ATOM     42  C   UNL A   1      43.560  23.206  27.166  1.00  0.00    -0.014 A 
BRANCH  42  43
ATOM     43  C   UNL A   1      44.034  24.571  27.480  1.00  0.00     0.031 A 
ATOM     44  C   UNL A   1      43.001  25.587  27.871  1.00  0.00     0.074 A 
ATOM     45  C   UNL A   1      45.342  24.875  27.501  1.00  0.00     0.049 A 
ATOM     46  N   UNL A   1      43.148  26.846  28.191  1.00  0.00    -0.248 NA
ATOM     47  C   UNL A   1      41.605  25.113  27.914  1.00  0.00     0.031 C 
ATOM     48  C   UNL A   1      46.429  23.947  27.204  1.00  0.00     0.029 A 
ATOM     49  N   UNL A   1      45.975  26.056  27.796  1.00  0.00    -0.354 N 
ATOM     50  C   UNL A   1      41.870  27.310  28.471  1.00  0.00     0.074 A 
ATOM     51  C   UNL A   1      40.956  26.209  28.270  1.00  0.00     0.031 C 
ATOM     52  C   UNL A   1      47.600  24.596  27.324  1.00  0.00     0.029 A 
ATOM     53  C   UNL A   1      47.341  25.993  27.672  1.00  0.00     0.049 A 
ATOM     54  H   UNL A   1      45.495  26.871  28.070  1.00  0.00     0.167 HD
ATOM     55  C   UNL A   1      41.495  28.550  28.857  1.00  0.00     0.037 A 
ATOM     56  C   UNL A   1      48.263  26.969  27.797  1.00  0.00     0.037 A 
ATOM     57  C   UNL A   1      42.405  29.648  29.024  1.00  0.00     0.049 A 
ATOM     58  C   UNL A   1      47.807  28.366  28.144  1.00  0.00     0.074 A 
ATOM     59  C   UNL A   1      42.126  30.959  29.368  1.00  0.00     0.029 A 
ATOM     60  N   UNL A   1      43.779  29.561  28.848  1.00  0.00    -0.354 N 
ATOM     61  N   UNL A   1      46.596  28.806  28.397  1.00  0.00    -0.248 NA
ATOM     62  C   UNL A   1      48.844  29.405  28.216  1.00  0.00     0.031 C 
ATOM     63  C   UNL A   1      43.327  31.675  29.354  1.00  0.00     0.029 A 
ATOM     64  C   UNL A   1      44.360  30.799  29.060  1.00  0.00     0.049 A 
ATOM     65  H   UNL A   1      44.267  28.740  28.607  1.00  0.00     0.167 HD
ATOM     66  C   UNL A   1      46.730  30.161  28.677  1.00  0.00     0.074 A 
ATOM     67  C   UNL A   1      48.142  30.466  28.585  1.00  0.00     0.031 C 
ATOM     68  C   UNL A   1      45.772  31.073  28.976  1.00  0.00     0.037 A 
BRANCH  55  69
ATOM     69  C   UNL A   1      40.030  28.786  29.073  1.00  0.00     0.064 A 
ATOM     70  C   UNL A   1      39.199  29.250  28.042  1.00  0.00     0.173 A 
ATOM     71  C   UNL A   1      39.450  28.541  30.325  1.00  0.00     0.173 A 
ATOM     72  F   UNL A   1      39.712  29.525  26.833  1.00  0.00    -0.203 F 
ATOM     73  C   UNL A   1      37.845  29.480  28.265  1.00  0.00     0.198 A 
ATOM     74  C   UNL A   1      38.090  28.744  30.537  1.00  0.00     0.198 A 
ATOM     75  F   UNL A   1      40.204  28.103  31.346  1.00  0.00    -0.203 F 
ATOM     76  F   UNL A   1      37.078  29.969  27.280  1.00  0.00    -0.200 F 
ATOM     77  C   UNL A   1      37.289  29.220  29.509  1.00  0.00     0.200 A 
ATOM     78  F   UNL A   1      37.555  28.486  31.738  1.00  0.00    -0.200 F 
ATOM     79  F   UNL A   1      35.984  29.436  29.721  1.00  0.00    -0.200 F 
ENDBRANCH  55  69
BRANCH  56  80
ATOM     80  C   UNL A   1      49.704  26.681  27.556  1.00  0.00     0.064 A 
ATOM     81  C   UNL A   1      50.592  26.467  28.620  1.00  0.00     0.173 A 
ATOM     82  C   UNL A   1      50.233  26.663  26.256  1.00  0.00     0.173 A 
ATOM     83  F   UNL A   1      50.145  26.504  29.884  1.00  0.00    -0.203 F 
ATOM     84  C   UNL A   1      51.954  26.272  28.395  1.00  0.00     0.198 A 
ATOM     85  C   UNL A   1      51.589  26.434  26.031  1.00  0.00     0.198 A 
ATOM     86  F   UNL A   1      49.431  26.869  25.202  1.00  0.00    -0.203 F 
ATOM     87  F   UNL A   1      52.789  26.130  29.434  1.00  0.00    -0.200 F 
ATOM     88  C   UNL A   1      52.450  26.250  27.101  1.00  0.00     0.200 A 
ATOM     89  F   UNL A   1      52.062  26.403  24.777  1.00  0.00    -0.200 F 
ATOM     90  F   UNL A   1      53.759  26.064  26.885  1.00  0.00    -0.200 F 
ENDBRANCH  56  80
BRANCH  68  91
ATOM     91  C   UNL A   1      46.220  32.476  29.267  1.00  0.00     0.064 A 
ATOM     92  C   UNL A   1      46.353  33.434  28.251  1.00  0.00     0.173 A 
ATOM     93  C   UNL A   1      46.463  32.882  30.588  1.00  0.00     0.173 A 
ATOM     94  F   UNL A   1      46.143  33.093  26.970  1.00  0.00    -0.203 F 
ATOM     95  C   UNL A   1      46.736  34.739  28.545  1.00  0.00     0.198 A 
ATOM     96  C   UNL A   1      46.815  34.196  30.882  1.00  0.00     0.198 A 
ATOM     97  F   UNL A   1      46.339  32.007  31.598  1.00  0.00    -0.203 F 
ATOM     98  F   UNL A   1      46.902  35.627  27.553  1.00  0.00    -0.200 F 
ATOM     99  C   UNL A   1      46.959  35.121  29.860  1.00  0.00     0.200 A 
ATOM    100  F   UNL A   1      47.013  34.566  32.154  1.00  0.00    -0.200 F 
ATOM    101  F   UNL A   1      47.317  36.381  30.142  1.00  0.00    -0.200 F 
ENDBRANCH  68  91
ENDBRANCH  42  43
ENDBRANCH  35  37
ENDBRANCH  34  35
ENDBRANCH  33  34
ENDBRANCH   1  33
TORSDOF 16
ENDMDL
MODEL 3
REMARK VINA RESULT:     -12.1      4.251      9.608
REMARK SMILES CC(=O)N[C@H]1[C@@H](O[C@H](C)C(=O)OCCOC(=O)c2ccc(-c3c4nc(c(-c5c(F)c(F)c(F)c(F)c5F)c5ccc([nH]5)c(-c5c(F)c(F)c(F)c(F)c5F)c5nc(c(-c6c(F)c(F)c(F)c(F)c6F)c6ccc3[nH]6)C=C5)C=C4)cc2)[C@H]2OC(C)(C)OC[C@@H]2O[C@H]1Sc1ccc(Cl)cc1
REMARK SMILES IDX 13 1 12 2 10 3 11 4 8 5 9 6 7 7 6 8 5 9 90 10 81 11 89 12
REMARK SMILES IDX 82 13 88 14 83 15 87 16 84 17 85 18 86 19 4 20 1 21 2 22
REMARK SMILES IDX 3 23 91 25 92 26 93 27 98 28 94 29 97 30 95 31 96 32 14 33
REMARK SMILES IDX 15 34 16 35 17 36 18 37 19 38 80 39 20 40 79 41 21 42 22 43
REMARK SMILES IDX 23 44 73 45 24 46 78 47 72 48 74 49 25 50 77 51 71 52 70 53
REMARK SMILES IDX 26 55 58 56 38 57 57 58 39 59 42 60 56 61 75 62 40 63 41 64
REMARK SMILES IDX 55 66 76 67 43 68 27 69 28 70 36 71 29 72 30 73 34 74 37 75
REMARK SMILES IDX 31 76 32 77 35 78 33 79 59 80 60 81 68 82 61 83 62 84 66 85
REMARK SMILES IDX 69 86 63 87 64 88 67 89 65 90 44 91 45 92 53 93 46 94 47 95
REMARK SMILES IDX 51 96 54 97 48 98 49 99 52 100 50 101
REMARK H PARENT 4 24 74 54 42 65
REMARK Flexibility Score: inf
ROOT
ATOM      1  C   UNL A   1      31.746  30.744  26.494  1.00  0.00     0.274 C 
ENDROOT
BRANCH   1   2
ATOM      2  O   UNL A   1      32.285  29.771  27.423  1.00  0.00    -0.460 OA
BRANCH   2   3
ATOM      3  C   UNL A   1      31.910  28.482  27.222  1.00  0.00     0.335 C 
ATOM      4  O   UNL A   1      31.073  27.918  27.914  1.00  0.00    -0.249 OA
BRANCH   3   5
ATOM      5  C   UNL A   1      32.646  27.725  26.091  1.00  0.00     0.225 C 
ATOM      6  C   UNL A   1      34.151  27.872  26.338  1.00  0.00     0.051 C 
BRANCH   5   7
ATOM      7  O   UNL A   1      32.348  26.351  25.809  1.00  0.00    -0.358 OA
BRANCH   7   8
ATOM      8  C   UNL A   1      33.315  25.547  25.126  1.00  0.00     0.177 C 
ATOM      9  C   UNL A   1      33.156  25.609  23.609  1.00  0.00     0.153 C 
ATOM     10  C   UNL A   1      31.704  25.090  23.268  1.00  0.00     0.206 C 
ATOM     11  C   UNL A   1      33.219  23.979  25.375  1.00  0.00     0.184 C 
ATOM     12  O   UNL A   1      31.786  23.650  23.346  1.00  0.00    -0.356 OA
ATOM     13  O   UNL A   1      33.314  23.603  26.742  1.00  0.00    -0.342 OA
ATOM     14  C   UNL A   1      32.015  23.267  24.691  1.00  0.00     0.177 C 
ATOM     15  C   UNL A   1      33.342  22.176  26.928  1.00  0.00     0.163 C 
ATOM     16  C   UNL A   1      32.195  21.771  24.858  1.00  0.00     0.198 C 
ATOM     17  C   UNL A   1      33.098  21.962  28.422  1.00  0.00     0.075 C 
ATOM     18  C   UNL A   1      34.696  21.566  26.552  1.00  0.00     0.075 C 
ATOM     19  O   UNL A   1      32.285  21.485  26.251  1.00  0.00    -0.348 OA
BRANCH   9  20
ATOM     20  N   UNL A   1      33.710  26.725  22.854  1.00  0.00    -0.347 N 
ATOM     21  C   UNL A   1      32.923  26.137  20.556  1.00  0.00     0.114 C 
ATOM     22  C   UNL A   1      33.471  27.118  21.559  1.00  0.00     0.217 C 
ATOM     23  O   UNL A   1      33.738  28.272  21.225  1.00  0.00    -0.275 OA
ATOM     24  H   UNL A   1      34.355  27.283  23.346  1.00  0.00     0.163 HD
ENDBRANCH   9  20
BRANCH  10  25
ATOM     25  S   UNL A   1      29.988  25.728  23.890  1.00  0.00    -0.092 SA
BRANCH  25  26
ATOM     26  C   UNL A   1      29.483  27.461  23.607  1.00  0.00     0.010 A 
ATOM     27  C   UNL A   1      30.226  28.650  23.555  1.00  0.00     0.016 A 
ATOM     28  C   UNL A   1      28.099  27.631  23.397  1.00  0.00     0.016 A 
ATOM     29  C   UNL A   1      29.666  29.913  23.289  1.00  0.00     0.021 A 
ATOM     30  C   UNL A   1      27.521  28.888  23.111  1.00  0.00     0.021 A 
ATOM     31  C   UNL A   1      28.312  30.027  23.054  1.00  0.00     0.041 A 
ATOM     32  Cl  UNL A   1      27.637  31.557  22.665  1.00  0.00    -0.084 Cl
ENDBRANCH  25  26
ENDBRANCH  10  25
ENDBRANCH   7   8
ENDBRANCH   5   7
ENDBRANCH   3   5
ENDBRANCH   2   3
ENDBRANCH   1   2
BRANCH   1  33
ATOM     33  C   UNL A   1      32.052  32.219  26.796  1.00  0.00     0.275 C 
BRANCH  33  34
ATOM     34  O   UNL A   1      32.830  32.389  27.991  1.00  0.00    -0.458 OA
BRANCH  34  35
ATOM     35  C   UNL A   1      33.851  33.275  27.875  1.00  0.00     0.338 C 
ATOM     36  O   UNL A   1      33.752  34.469  27.657  1.00  0.00    -0.246 OA
BRANCH  35  37
ATOM     37  C   UNL A   1      35.120  32.645  28.308  1.00  0.00     0.060 A 
ATOM     38  C   UNL A   1      35.055  31.288  28.660  1.00  0.00     0.016 A 
ATOM     39  C   UNL A   1      36.343  33.318  28.324  1.00  0.00     0.016 A 
ATOM     40  C   UNL A   1      36.204  30.595  29.013  1.00  0.00     0.010 A 
ATOM     41  C   UNL A   1      37.492  32.637  28.741  1.00  0.00     0.010 A 
ATOM     42  C   UNL A   1      37.418  31.280  29.104  1.00  0.00    -0.014 A 
BRANCH  42  43
ATOM     43  C   UNL A   1      38.531  30.619  29.819  1.00  0.00     0.031 A 
ATOM     44  C   UNL A   1      38.738  30.983  31.260  1.00  0.00     0.074 A 
ATOM     45  C   UNL A   1      39.275  29.665  29.235  1.00  0.00     0.049 A 
ATOM     46  N   UNL A   1      39.636  30.555  32.108  1.00  0.00    -0.248 NA
ATOM     47  C   UNL A   1      37.795  31.966  31.825  1.00  0.00     0.031 C 
ATOM     48  C   UNL A   1      39.114  29.189  27.864  1.00  0.00     0.029 A 
ATOM     49  N   UNL A   1      40.315  28.921  29.733  1.00  0.00    -0.354 N 
ATOM     50  C   UNL A   1      39.366  31.213  33.299  1.00  0.00     0.074 A 
ATOM     51  C   UNL A   1      38.233  32.080  33.067  1.00  0.00     0.031 C 
ATOM     52  C   UNL A   1      40.030  28.234  27.626  1.00  0.00     0.029 A 
ATOM     53  C   UNL A   1      40.863  28.059  28.815  1.00  0.00     0.049 A 
ATOM     54  H   UNL A   1      40.638  28.998  30.660  1.00  0.00     0.167 HD
ATOM     55  C   UNL A   1      40.011  31.104  34.482  1.00  0.00     0.037 A 
ATOM     56  C   UNL A   1      41.935  27.250  28.926  1.00  0.00     0.037 A 
ATOM     57  C   UNL A   1      41.155  30.263  34.698  1.00  0.00     0.049 A 
ATOM     58  C   UNL A   1      42.691  27.213  30.233  1.00  0.00     0.074 A 
ATOM     59  C   UNL A   1      41.914  30.112  35.844  1.00  0.00     0.029 A 
ATOM     60  N   UNL A   1      41.711  29.435  33.733  1.00  0.00    -0.354 N 
ATOM     61  N   UNL A   1      42.441  27.845  31.356  1.00  0.00    -0.248 NA
ATOM     62  C   UNL A   1      43.884  26.355  30.287  1.00  0.00     0.031 C 
ATOM     63  C   UNL A   1      42.958  29.226  35.558  1.00  0.00     0.029 A 
ATOM     64  C   UNL A   1      42.815  28.781  34.253  1.00  0.00     0.049 A 
ATOM     65  H   UNL A   1      41.372  29.329  32.815  1.00  0.00     0.167 HD
ATOM     66  C   UNL A   1      43.427  27.447  32.250  1.00  0.00     0.074 A 
ATOM     67  C   UNL A   1      44.268  26.501  31.547  1.00  0.00     0.031 C 
ATOM     68  C   UNL A   1      43.627  27.832  33.535  1.00  0.00     0.037 A 
BRANCH  55  69
ATOM     69  C   UNL A   1      39.518  31.956  35.613  1.00  0.00     0.064 A 
ATOM     70  C   UNL A   1      38.560  31.488  36.525  1.00  0.00     0.173 A 
ATOM     71  C   UNL A   1      40.013  33.257  35.788  1.00  0.00     0.173 A 
ATOM     72  F   UNL A   1      38.036  30.261  36.383  1.00  0.00    -0.203 F 
ATOM     73  C   UNL A   1      38.101  32.299  37.558  1.00  0.00     0.198 A 
ATOM     74  C   UNL A   1      39.573  34.055  36.840  1.00  0.00     0.198 A 
ATOM     75  F   UNL A   1      40.925  33.753  34.939  1.00  0.00    -0.203 F 
ATOM     76  F   UNL A   1      37.150  31.849  38.390  1.00  0.00    -0.200 F 
ATOM     77  C   UNL A   1      38.613  33.578  37.721  1.00  0.00     0.200 A 
ATOM     78  F   UNL A   1      40.074  35.287  36.998  1.00  0.00    -0.200 F 
ATOM     79  F   UNL A   1      38.174  34.356  38.719  1.00  0.00    -0.200 F 
ENDBRANCH  55  69
BRANCH  56  80
ATOM     80  C   UNL A   1      42.390  26.436  27.765  1.00  0.00     0.064 A 
ATOM     81  C   UNL A   1      43.360  26.917  26.873  1.00  0.00     0.173 A 
ATOM     82  C   UNL A   1      41.828  25.179  27.495  1.00  0.00     0.173 A 
ATOM     83  F   UNL A   1      43.908  28.126  27.067  1.00  0.00    -0.203 F 
ATOM     84  C   UNL A   1      43.730  26.185  25.745  1.00  0.00     0.198 A 
ATOM     85  C   UNL A   1      42.223  24.433  26.386  1.00  0.00     0.198 A 
ATOM     86  F   UNL A   1      40.891  24.674  28.309  1.00  0.00    -0.203 F 
ATOM     87  F   UNL A   1      44.615  26.696  24.879  1.00  0.00    -0.200 F 
ATOM     88  C   UNL A   1      43.166  24.942  25.506  1.00  0.00     0.200 A 
ATOM     89  F   UNL A   1      41.682  23.227  26.164  1.00  0.00    -0.200 F 
ATOM     90  F   UNL A   1      43.520  24.240  24.422  1.00  0.00    -0.200 F 
ENDBRANCH  56  80
BRANCH  68  91
ATOM     91  C   UNL A   1      44.770  27.203  34.277  1.00  0.00     0.064 A 
ATOM     92  C   UNL A   1      44.629  25.984  34.955  1.00  0.00     0.173 A 
ATOM     93  C   UNL A   1      46.039  27.802  34.259  1.00  0.00     0.173 A 
ATOM     94  F   UNL A   1      43.433  25.377  35.011  1.00  0.00    -0.203 F 
ATOM     95  C   UNL A   1      45.710  25.400  35.608  1.00  0.00     0.198 A 
ATOM     96  C   UNL A   1      47.126  27.200  34.886  1.00  0.00     0.198 A 
ATOM     97  F   UNL A   1      46.230  28.964  33.615  1.00  0.00    -0.203 F 
ATOM     98  F   UNL A   1      45.542  24.258  36.289  1.00  0.00    -0.200 F 
ATOM     99  C   UNL A   1      46.959  26.004  35.566  1.00  0.00     0.200 A 
ATOM    100  F   UNL A   1      48.334  27.776  34.831  1.00  0.00    -0.200 F 
ATOM    101  F   UNL A   1      48.001  25.434  36.187  1.00  0.00    -0.200 F 
ENDBRANCH  68  91
ENDBRANCH  42  43
ENDBRANCH  35  37
ENDBRANCH  34  35
ENDBRANCH  33  34
ENDBRANCH   1  33
TORSDOF 16
ENDMDL
