MODEL 1
REMARK VINA RESULT:     -11.9      0.000      0.000
REMARK SMILES CCCOc1ccc(C[N@H+]2CC[C@H](C(=O)OCCOC(=O)c3ccc(-c4c5nc(c(-c6c(F)c(F)c(F)c(F)c6F)c6ccc([nH]6)c(-c6c(F)c(F)c(F)c(F)c6F)c6nc(c(-c7c(F)c(F)c(F)c(F)c7F)c7ccc4[nH]7)C=C6)C=C5)cc3)[C@@H]2C)cc1
REMARK SMILES IDX 16 1 14 2 15 3 13 4 10 5 11 6 85 7 12 9 86 10 9 11 8 12 5 13
REMARK SMILES IDX 6 14 88 15 7 16 87 17 4 18 3 19 2 20 1 21 17 22 18 23 19 24
REMARK SMILES IDX 20 25 21 26 22 27 23 28 84 29 24 30 83 31 25 32 26 33 27 34
REMARK SMILES IDX 77 35 28 36 82 37 76 38 78 39 29 40 81 41 75 42 74 43 30 45
REMARK SMILES IDX 62 46 42 47 61 48 43 49 46 50 60 51 79 52 44 53 45 54 59 56
REMARK SMILES IDX 80 57 47 58 31 59 32 60 40 61 33 62 34 63 38 64 41 65 35 66
REMARK SMILES IDX 36 67 39 68 37 69 63 70 64 71 72 72 65 73 66 74 70 75 73 76
REMARK SMILES IDX 67 77 68 78 71 79 69 80 48 81 49 82 57 83 50 84 51 85 55 86
REMARK SMILES IDX 58 87 52 88 53 89 56 90 54 91
REMARK H PARENT 10 8 78 44 46 55
REMARK Flexibility Score: inf
ROOT
ATOM      1  O   UNL A   1      31.059  28.061  26.145  1.00  0.00    -0.462 OA
ENDROOT
BRANCH   1   2
ATOM      2  C   UNL A   1      31.454  26.755  26.091  1.00  0.00     0.315 C 
ATOM      3  O   UNL A   1      31.066  25.878  26.845  1.00  0.00    -0.252 OA
BRANCH   2   4
ATOM      4  C   UNL A   1      32.529  26.583  25.039  1.00  0.00     0.162 C 
ATOM      5  N   UNL A   1      33.124  24.257  24.705  1.00  0.00    -0.328 N 
ATOM      6  C   UNL A   1      33.886  24.785  25.848  1.00  0.00     0.263 C 
ATOM      7  C   UNL A   1      32.414  25.399  24.078  1.00  0.00     0.195 C 
ATOM      8  H   UNL A   1      32.437  23.577  25.029  1.00  0.00     0.348 HD
ATOM      9  C   UNL A   1      33.860  26.304  25.726  1.00  0.00     0.083 C 
ATOM     10  C   UNL A   1      31.044  25.033  23.534  1.00  0.00     0.076 C 
BRANCH   5  11
ATOM     11  C   UNL A   1      33.941  23.445  23.763  1.00  0.00     0.299 C 
BRANCH  11  12
ATOM     12  C   UNL A   1      33.724  21.945  23.877  1.00  0.00     0.006 A 
ATOM     13  C   UNL A   1      32.797  19.458  24.719  1.00  0.00     0.119 A 
ATOM     14  C   UNL A   1      33.980  19.959  25.255  1.00  0.00     0.047 A 
ATOM     15  C   UNL A   1      32.121  20.153  23.725  1.00  0.00     0.047 A 
ATOM     16  C   UNL A   1      34.456  21.196  24.819  1.00  0.00     0.013 A 
ATOM     17  C   UNL A   1      32.617  21.361  23.255  1.00  0.00     0.013 A 
BRANCH  13  18
ATOM     18  O   UNL A   1      32.217  18.358  25.282  1.00  0.00    -0.494 OA
BRANCH  18  19
ATOM     19  C   UNL A   1      33.134  17.269  25.404  1.00  0.00     0.229 C 
BRANCH  19  20
ATOM     20  C   UNL A   1      33.139  16.374  24.160  1.00  0.00     0.038 C 
ATOM     21  C   UNL A   1      34.322  16.622  23.227  1.00  0.00     0.007 C 
ENDBRANCH  19  20
ENDBRANCH  18  19
ENDBRANCH  13  18
ENDBRANCH  11  12
ENDBRANCH   5  11
ENDBRANCH   2   4
ENDBRANCH   1   2
BRANCH   1  22
ATOM     22  C   UNL A   1      31.285  28.825  24.946  1.00  0.00     0.274 C 
BRANCH  22  23
ATOM     23  C   UNL A   1      32.050  30.105  25.264  1.00  0.00     0.275 C 
BRANCH  23  24
ATOM     24  O   UNL A   1      32.406  30.112  26.659  1.00  0.00    -0.458 OA
BRANCH  24  25
ATOM     25  C   UNL A   1      33.008  31.237  27.099  1.00  0.00     0.338 C 
ATOM     26  O   UNL A   1      32.514  32.357  27.158  1.00  0.00    -0.246 OA
BRANCH  25  27
ATOM     27  C   UNL A   1      34.380  30.962  27.575  1.00  0.00     0.060 A 
ATOM     28  C   UNL A   1      34.791  29.668  27.897  1.00  0.00     0.016 A 
ATOM     29  C   UNL A   1      35.206  32.042  27.885  1.00  0.00     0.016 A 
ATOM     30  C   UNL A   1      35.951  29.471  28.647  1.00  0.00     0.010 A 
ATOM     31  C   UNL A   1      36.437  31.825  28.511  1.00  0.00     0.010 A 
ATOM     32  C   UNL A   1      36.812  30.539  28.937  1.00  0.00    -0.014 A 
BRANCH  32  33
ATOM     33  C   UNL A   1      38.099  30.333  29.668  1.00  0.00     0.031 A 
ATOM     34  C   UNL A   1      39.192  29.476  29.076  1.00  0.00     0.074 A 
ATOM     35  C   UNL A   1      38.285  30.870  30.891  1.00  0.00     0.049 A 
ATOM     36  N   UNL A   1      40.232  28.932  29.661  1.00  0.00    -0.248 NA
ATOM     37  C   UNL A   1      39.091  29.173  27.640  1.00  0.00     0.031 C 
ATOM     38  C   UNL A   1      37.351  31.760  31.581  1.00  0.00     0.029 A 
ATOM     39  N   UNL A   1      39.323  30.731  31.782  1.00  0.00    -0.354 N 
ATOM     40  C   UNL A   1      40.862  28.166  28.686  1.00  0.00     0.074 A 
ATOM     41  C   UNL A   1      40.095  28.323  27.468  1.00  0.00     0.031 C 
ATOM     42  C   UNL A   1      37.867  32.113  32.765  1.00  0.00     0.029 A 
ATOM     43  C   UNL A   1      39.107  31.378  32.975  1.00  0.00     0.049 A 
ATOM     44  H   UNL A   1      40.140  30.219  31.586  1.00  0.00     0.167 HD
ATOM     45  C   UNL A   1      41.974  27.398  28.805  1.00  0.00     0.037 A 
ATOM     46  C   UNL A   1      39.779  31.335  34.141  1.00  0.00     0.037 A 
ATOM     47  C   UNL A   1      42.770  27.300  30.005  1.00  0.00     0.049 A 
ATOM     48  C   UNL A   1      40.982  30.447  34.262  1.00  0.00     0.074 A 
ATOM     49  C   UNL A   1      43.933  26.576  30.214  1.00  0.00     0.029 A 
ATOM     50  N   UNL A   1      42.495  27.958  31.195  1.00  0.00    -0.354 N 
ATOM     51  N   UNL A   1      41.532  29.671  33.363  1.00  0.00    -0.248 NA
ATOM     52  C   UNL A   1      41.645  30.414  35.573  1.00  0.00     0.031 C 
ATOM     53  C   UNL A   1      44.334  26.760  31.541  1.00  0.00     0.029 A 
ATOM     54  C   UNL A   1      43.455  27.642  32.146  1.00  0.00     0.049 A 
ATOM     55  H   UNL A   1      41.731  28.561  31.343  1.00  0.00     0.167 HD
ATOM     56  C   UNL A   1      42.610  29.065  33.990  1.00  0.00     0.074 A 
ATOM     57  C   UNL A   1      42.650  29.582  35.342  1.00  0.00     0.031 C 
ATOM     58  C   UNL A   1      43.485  28.159  33.489  1.00  0.00     0.037 A 
BRANCH  45  59
ATOM     59  C   UNL A   1      42.388  26.563  27.624  1.00  0.00     0.064 A 
ATOM     60  C   UNL A   1      43.386  26.971  26.729  1.00  0.00     0.173 A 
ATOM     61  C   UNL A   1      41.813  25.295  27.427  1.00  0.00     0.173 A 
ATOM     62  F   UNL A   1      43.964  28.174  26.865  1.00  0.00    -0.203 F 
ATOM     63  C   UNL A   1      43.778  26.153  25.670  1.00  0.00     0.198 A 
ATOM     64  C   UNL A   1      42.230  24.467  26.388  1.00  0.00     0.198 A 
ATOM     65  F   UNL A   1      40.862  24.847  28.260  1.00  0.00    -0.203 F 
ATOM     66  F   UNL A   1      44.707  26.582  24.803  1.00  0.00    -0.200 F 
ATOM     67  C   UNL A   1      43.208  24.900  25.505  1.00  0.00     0.200 A 
ATOM     68  F   UNL A   1      41.690  23.250  26.243  1.00  0.00    -0.200 F 
ATOM     69  F   UNL A   1      43.597  24.111  24.495  1.00  0.00    -0.200 F 
ENDBRANCH  45  59
BRANCH  46  70
ATOM     70  C   UNL A   1      39.278  32.117  35.301  1.00  0.00     0.064 A 
ATOM     71  C   UNL A   1      38.461  31.524  36.271  1.00  0.00     0.173 A 
ATOM     72  C   UNL A   1      39.636  33.463  35.482  1.00  0.00     0.173 A 
ATOM     73  F   UNL A   1      38.068  30.249  36.127  1.00  0.00    -0.203 F 
ATOM     74  C   UNL A   1      38.022  32.246  37.379  1.00  0.00     0.198 A 
ATOM     75  C   UNL A   1      39.228  34.171  36.608  1.00  0.00     0.198 A 
ATOM     76  F   UNL A   1      40.417  34.077  34.581  1.00  0.00    -0.203 F 
ATOM     77  F   UNL A   1      37.213  31.664  38.275  1.00  0.00    -0.200 F 
ATOM     78  C   UNL A   1      38.416  33.563  37.553  1.00  0.00     0.200 A 
ATOM     79  F   UNL A   1      39.630  35.438  36.782  1.00  0.00    -0.200 F 
ATOM     80  F   UNL A   1      38.011  34.249  38.631  1.00  0.00    -0.200 F 
ENDBRANCH  46  70
BRANCH  58  81
ATOM     81  C   UNL A   1      44.584  27.701  34.401  1.00  0.00     0.064 A 
ATOM     82  C   UNL A   1      45.801  28.393  34.497  1.00  0.00     0.173 A 
ATOM     83  C   UNL A   1      44.414  26.557  35.197  1.00  0.00     0.173 A 
ATOM     84  F   UNL A   1      46.019  29.481  33.742  1.00  0.00    -0.203 F 
ATOM     85  C   UNL A   1      46.818  27.939  35.333  1.00  0.00     0.198 A 
ATOM     86  C   UNL A   1      45.422  26.124  36.054  1.00  0.00     0.198 A 
ATOM     87  F   UNL A   1      43.269  25.862  35.146  1.00  0.00    -0.203 F 
ATOM     88  F   UNL A   1      47.993  28.583  35.366  1.00  0.00    -0.200 F 
ATOM     89  C   UNL A   1      46.626  26.809  36.114  1.00  0.00     0.200 A 
ATOM     90  F   UNL A   1      45.232  25.038  36.815  1.00  0.00    -0.200 F 
ATOM     91  F   UNL A   1      47.607  26.373  36.916  1.00  0.00    -0.200 F 
ENDBRANCH  58  81
ENDBRANCH  32  33
ENDBRANCH  25  27
ENDBRANCH  24  25
ENDBRANCH  23  24
ENDBRANCH  22  23
ENDBRANCH   1  22
TORSDOF 16
ENDMDL
MODEL 2
REMARK VINA RESULT:     -11.7      4.254      9.990
REMARK SMILES CCCOc1ccc(C[N@H+]2CC[C@H](C(=O)OCCOC(=O)c3ccc(-c4c5nc(c(-c6c(F)c(F)c(F)c(F)c6F)c6ccc([nH]6)c(-c6c(F)c(F)c(F)c(F)c6F)c6nc(c(-c7c(F)c(F)c(F)c(F)c7F)c7ccc4[nH]7)C=C6)C=C5)cc3)[C@@H]2C)cc1
REMARK SMILES IDX 16 1 14 2 15 3 13 4 10 5 11 6 85 7 12 9 86 10 9 11 8 12 5 13
REMARK SMILES IDX 6 14 88 15 7 16 87 17 4 18 3 19 2 20 1 21 17 22 18 23 19 24
REMARK SMILES IDX 20 25 21 26 22 27 23 28 84 29 24 30 83 31 25 32 26 33 27 34
REMARK SMILES IDX 77 35 28 36 82 37 76 38 78 39 29 40 81 41 75 42 74 43 30 45
REMARK SMILES IDX 62 46 42 47 61 48 43 49 46 50 60 51 79 52 44 53 45 54 59 56
REMARK SMILES IDX 80 57 47 58 31 59 32 60 40 61 33 62 34 63 38 64 41 65 35 66
REMARK SMILES IDX 36 67 39 68 37 69 63 70 64 71 72 72 65 73 66 74 70 75 73 76
REMARK SMILES IDX 67 77 68 78 71 79 69 80 48 81 49 82 57 83 50 84 51 85 55 86
REMARK SMILES IDX 58 87 52 88 53 89 56 90 54 91
REMARK H PARENT 10 8 78 44 46 55
REMARK Flexibility Score: inf
ROOT
ATOM      1  O   UNL A   1      35.616  21.621  26.163  1.00  0.00    -0.462 OA
ENDROOT
BRANCH   1   2
ATOM      2  C   UNL A   1      34.319  21.908  26.475  1.00  0.00     0.315 C 
ATOM      3  O   UNL A   1      33.838  21.828  27.594  1.00  0.00    -0.252 OA
BRANCH   2   4
ATOM      4  C   UNL A   1      33.541  22.226  25.216  1.00  0.00     0.162 C 
ATOM      5  N   UNL A   1      31.874  23.948  25.575  1.00  0.00    -0.328 N 
ATOM      6  C   UNL A   1      31.310  22.649  25.973  1.00  0.00     0.263 C 
ATOM      7  C   UNL A   1      33.187  23.687  24.936  1.00  0.00     0.195 C 
ATOM      8  H   UNL A   1      32.016  24.533  26.399  1.00  0.00     0.348 HD
ATOM      9  C   UNL A   1      32.165  21.579  25.304  1.00  0.00     0.083 C 
ATOM     10  C   UNL A   1      34.225  24.757  25.229  1.00  0.00     0.076 C 
BRANCH   5  11
ATOM     11  C   UNL A   1      30.946  24.781  24.762  1.00  0.00     0.299 C 
BRANCH  11  12
ATOM     12  C   UNL A   1      30.895  26.245  25.171  1.00  0.00     0.006 A 
ATOM     13  C   UNL A   1      31.647  28.864  25.743  1.00  0.00     0.119 A 
ATOM     14  C   UNL A   1      31.612  27.928  26.772  1.00  0.00     0.047 A 
ATOM     15  C   UNL A   1      31.244  28.519  24.459  1.00  0.00     0.047 A 
ATOM     16  C   UNL A   1      31.217  26.619  26.490  1.00  0.00     0.013 A 
ATOM     17  C   UNL A   1      30.804  27.232  24.186  1.00  0.00     0.013 A 
BRANCH  13  18
ATOM     18  O   UNL A   1      32.226  30.081  25.960  1.00  0.00    -0.494 OA
BRANCH  18  19
ATOM     19  C   UNL A   1      32.825  30.168  27.255  1.00  0.00     0.229 C 
BRANCH  19  20
ATOM     20  C   UNL A   1      34.314  30.520  27.181  1.00  0.00     0.038 C 
ATOM     21  C   UNL A   1      35.242  29.357  27.523  1.00  0.00     0.007 C 
ENDBRANCH  19  20
ENDBRANCH  18  19
ENDBRANCH  13  18
ENDBRANCH  11  12
ENDBRANCH   5  11
ENDBRANCH   2   4
ENDBRANCH   1   2
BRANCH   1  22
ATOM     22  C   UNL A   1      35.799  20.681  25.087  1.00  0.00     0.274 C 
BRANCH  22  23
ATOM     23  C   UNL A   1      37.277  20.351  24.911  1.00  0.00     0.275 C 
BRANCH  23  24
ATOM     24  O   UNL A   1      38.066  21.509  25.241  1.00  0.00    -0.458 OA
BRANCH  24  25
ATOM     25  C   UNL A   1      39.148  21.274  26.012  1.00  0.00     0.338 C 
ATOM     26  O   UNL A   1      39.708  20.197  26.180  1.00  0.00    -0.246 OA
BRANCH  25  27
ATOM     27  C   UNL A   1      39.649  22.520  26.630  1.00  0.00     0.060 A 
ATOM     28  C   UNL A   1      39.202  23.772  26.204  1.00  0.00     0.016 A 
ATOM     29  C   UNL A   1      40.723  22.439  27.516  1.00  0.00     0.016 A 
ATOM     30  C   UNL A   1      39.913  24.921  26.552  1.00  0.00     0.010 A 
ATOM     31  C   UNL A   1      41.342  23.606  27.974  1.00  0.00     0.010 A 
ATOM     32  C   UNL A   1      40.972  24.864  27.470  1.00  0.00    -0.014 A 
BRANCH  32  33
ATOM     33  C   UNL A   1      41.691  26.096  27.916  1.00  0.00     0.031 A 
ATOM     34  C   UNL A   1      40.979  27.151  28.729  1.00  0.00     0.074 A 
ATOM     35  C   UNL A   1      42.974  26.307  27.557  1.00  0.00     0.049 A 
ATOM     36  N   UNL A   1      41.316  28.399  28.950  1.00  0.00    -0.248 NA
ATOM     37  C   UNL A   1      39.710  26.757  29.358  1.00  0.00     0.031 C 
ATOM     38  C   UNL A   1      43.817  25.368  26.818  1.00  0.00     0.029 A 
ATOM     39  N   UNL A   1      43.791  27.395  27.756  1.00  0.00    -0.354 N 
ATOM     40  C   UNL A   1      40.269  28.955  29.677  1.00  0.00     0.074 A 
ATOM     41  C   UNL A   1      39.289  27.906  29.869  1.00  0.00     0.031 C 
ATOM     42  C   UNL A   1      45.035  25.900  26.653  1.00  0.00     0.029 A 
ATOM     43  C   UNL A   1      45.024  27.265  27.162  1.00  0.00     0.049 A 
ATOM     44  H   UNL A   1      43.522  28.189  28.272  1.00  0.00     0.167 HD
ATOM     45  C   UNL A   1      40.139  30.226  30.132  1.00  0.00     0.037 A 
ATOM     46  C   UNL A   1      46.015  28.156  26.973  1.00  0.00     0.037 A 
ATOM     47  C   UNL A   1      41.150  31.246  29.994  1.00  0.00     0.049 A 
ATOM     48  C   UNL A   1      45.834  29.567  27.448  1.00  0.00     0.074 A 
ATOM     49  C   UNL A   1      41.127  32.554  30.451  1.00  0.00     0.029 A 
ATOM     50  N   UNL A   1      42.374  31.069  29.363  1.00  0.00    -0.354 N 
ATOM     51  N   UNL A   1      44.815  30.107  28.070  1.00  0.00    -0.248 NA
ATOM     52  C   UNL A   1      46.935  30.500  27.174  1.00  0.00     0.031 C 
ATOM     53  C   UNL A   1      42.314  33.179  30.057  1.00  0.00     0.029 A 
ATOM     54  C   UNL A   1      43.104  32.248  29.404  1.00  0.00     0.049 A 
ATOM     55  H   UNL A   1      42.679  30.231  28.948  1.00  0.00     0.167 HD
ATOM     56  C   UNL A   1      45.153  31.436  28.272  1.00  0.00     0.074 A 
ATOM     57  C   UNL A   1      46.483  31.617  27.726  1.00  0.00     0.031 C 
ATOM     58  C   UNL A   1      44.424  32.419  28.856  1.00  0.00     0.037 A 
BRANCH  45  59
ATOM     59  C   UNL A   1      38.844  30.613  30.792  1.00  0.00     0.064 A 
ATOM     60  C   UNL A   1      38.674  30.589  32.183  1.00  0.00     0.173 A 
ATOM     61  C   UNL A   1      37.773  31.083  30.012  1.00  0.00     0.173 A 
ATOM     62  F   UNL A   1      39.660  30.145  32.976  1.00  0.00    -0.203 F 
ATOM     63  C   UNL A   1      37.476  30.998  32.767  1.00  0.00     0.198 A 
ATOM     64  C   UNL A   1      36.589  31.521  30.600  1.00  0.00     0.198 A 
ATOM     65  F   UNL A   1      37.884  31.140  28.676  1.00  0.00    -0.203 F 
ATOM     66  F   UNL A   1      37.321  30.927  34.097  1.00  0.00    -0.200 F 
ATOM     67  C   UNL A   1      36.438  31.471  31.977  1.00  0.00     0.200 A 
ATOM     68  F   UNL A   1      35.597  31.995  29.835  1.00  0.00    -0.200 F 
ATOM     69  F   UNL A   1      35.293  31.877  32.542  1.00  0.00    -0.200 F 
ENDBRANCH  45  59
BRANCH  46  70
ATOM     70  C   UNL A   1      47.240  27.741  26.242  1.00  0.00     0.064 A 
ATOM     71  C   UNL A   1      48.368  27.278  26.932  1.00  0.00     0.173 A 
ATOM     72  C   UNL A   1      47.295  27.762  24.838  1.00  0.00     0.173 A 
ATOM     73  F   UNL A   1      48.375  27.267  28.273  1.00  0.00    -0.203 F 
ATOM     74  C   UNL A   1      49.504  26.853  26.246  1.00  0.00     0.198 A 
ATOM     75  C   UNL A   1      48.416  27.302  24.155  1.00  0.00     0.198 A 
ATOM     76  F   UNL A   1      46.240  28.196  24.132  1.00  0.00    -0.203 F 
ATOM     77  F   UNL A   1      50.582  26.448  26.930  1.00  0.00    -0.200 F 
ATOM     78  C   UNL A   1      49.523  26.852  24.859  1.00  0.00     0.200 A 
ATOM     79  F   UNL A   1      48.420  27.283  22.815  1.00  0.00    -0.200 F 
ATOM     80  F   UNL A   1      50.607  26.421  24.202  1.00  0.00    -0.200 F 
ENDBRANCH  46  70
BRANCH  58  81
ATOM     81  C   UNL A   1      45.070  33.769  28.966  1.00  0.00     0.064 A 
ATOM     82  C   UNL A   1      45.884  34.110  30.056  1.00  0.00     0.173 A 
ATOM     83  C   UNL A   1      44.877  34.731  27.963  1.00  0.00     0.173 A 
ATOM     84  F   UNL A   1      46.083  33.232  31.051  1.00  0.00    -0.203 F 
ATOM     85  C   UNL A   1      46.457  35.376  30.153  1.00  0.00     0.198 A 
ATOM     86  C   UNL A   1      45.475  35.985  28.048  1.00  0.00     0.198 A 
ATOM     87  F   UNL A   1      44.111  34.454  26.898  1.00  0.00    -0.203 F 
ATOM     88  F   UNL A   1      47.185  35.700  31.231  1.00  0.00    -0.200 F 
ATOM     89  C   UNL A   1      46.256  36.310  29.147  1.00  0.00     0.200 A 
ATOM     90  F   UNL A   1      45.289  36.883  27.070  1.00  0.00    -0.200 F 
ATOM     91  F   UNL A   1      46.806  37.528  29.242  1.00  0.00    -0.200 F 
ENDBRANCH  58  81
ENDBRANCH  32  33
ENDBRANCH  25  27
ENDBRANCH  24  25
ENDBRANCH  23  24
ENDBRANCH  22  23
ENDBRANCH   1  22
TORSDOF 16
ENDMDL
MODEL 3
REMARK VINA RESULT:     -11.6      4.241     10.031
REMARK SMILES CCCOc1ccc(C[N@H+]2CC[C@H](C(=O)OCCOC(=O)c3ccc(-c4c5nc(c(-c6c(F)c(F)c(F)c(F)c6F)c6ccc([nH]6)c(-c6c(F)c(F)c(F)c(F)c6F)c6nc(c(-c7c(F)c(F)c(F)c(F)c7F)c7ccc4[nH]7)C=C6)C=C5)cc3)[C@@H]2C)cc1
REMARK SMILES IDX 16 1 14 2 15 3 13 4 10 5 11 6 85 7 12 9 86 10 9 11 8 12 5 13
REMARK SMILES IDX 6 14 88 15 7 16 87 17 4 18 3 19 2 20 1 21 17 22 18 23 19 24
REMARK SMILES IDX 20 25 21 26 22 27 23 28 84 29 24 30 83 31 25 32 26 33 27 34
REMARK SMILES IDX 77 35 28 36 82 37 76 38 78 39 29 40 81 41 75 42 74 43 30 45
REMARK SMILES IDX 62 46 42 47 61 48 43 49 46 50 60 51 79 52 44 53 45 54 59 56
REMARK SMILES IDX 80 57 47 58 31 59 32 60 40 61 33 62 34 63 38 64 41 65 35 66
REMARK SMILES IDX 36 67 39 68 37 69 63 70 64 71 72 72 65 73 66 74 70 75 73 76
REMARK SMILES IDX 67 77 68 78 71 79 69 80 48 81 49 82 57 83 50 84 51 85 55 86
REMARK SMILES IDX 58 87 52 88 53 89 56 90 54 91
REMARK H PARENT 10 8 78 44 46 55
REMARK Flexibility Score: inf
ROOT
ATOM      1  O   UNL A   1      34.440  21.108  24.285  1.00  0.00    -0.462 OA
ENDROOT
BRANCH   1   2
ATOM      2  C   UNL A   1      33.413  21.975  24.525  1.00  0.00     0.315 C 
ATOM      3  O   UNL A   1      32.266  21.821  24.137  1.00  0.00    -0.252 OA
BRANCH   2   4
ATOM      4  C   UNL A   1      33.930  23.206  25.239  1.00  0.00     0.162 C 
ATOM      5  N   UNL A   1      32.410  25.083  25.052  1.00  0.00    -0.328 N 
ATOM      6  C   UNL A   1      33.260  25.037  23.851  1.00  0.00     0.263 C 
ATOM      7  C   UNL A   1      32.928  24.070  26.004  1.00  0.00     0.195 C 
ATOM      8  H   UNL A   1      31.448  24.848  24.807  1.00  0.00     0.348 HD
ATOM      9  C   UNL A   1      34.474  24.188  24.208  1.00  0.00     0.083 C 
ATOM     10  C   UNL A   1      31.837  23.383  26.807  1.00  0.00     0.076 C 
BRANCH   5  11
ATOM     11  C   UNL A   1      32.257  26.448  25.625  1.00  0.00     0.299 C 
BRANCH  11  12
ATOM     12  C   UNL A   1      31.163  27.282  24.976  1.00  0.00     0.006 A 
ATOM     13  C   UNL A   1      29.579  28.557  23.074  1.00  0.00     0.119 A 
ATOM     14  C   UNL A   1      30.630  29.255  23.660  1.00  0.00     0.047 A 
ATOM     15  C   UNL A   1      29.275  27.264  23.480  1.00  0.00     0.047 A 
ATOM     16  C   UNL A   1      31.413  28.623  24.628  1.00  0.00     0.013 A 
ATOM     17  C   UNL A   1      30.021  26.650  24.476  1.00  0.00     0.013 A 
BRANCH  13  18
ATOM     18  O   UNL A   1      28.944  29.085  21.987  1.00  0.00    -0.494 OA
BRANCH  18  19
ATOM     19  C   UNL A   1      29.239  30.474  21.815  1.00  0.00     0.229 C 
BRANCH  19  20
ATOM     20  C   UNL A   1      28.004  31.357  22.020  1.00  0.00     0.038 C 
ATOM     21  C   UNL A   1      27.621  31.551  23.485  1.00  0.00     0.007 C 
ENDBRANCH  19  20
ENDBRANCH  18  19
ENDBRANCH  13  18
ENDBRANCH  11  12
ENDBRANCH   5  11
ENDBRANCH   2   4
ENDBRANCH   1   2
BRANCH   1  22
ATOM     22  C   UNL A   1      35.213  20.730  25.440  1.00  0.00     0.274 C 
BRANCH  22  23
ATOM     23  C   UNL A   1      36.656  20.442  25.046  1.00  0.00     0.275 C 
BRANCH  23  24
ATOM     24  O   UNL A   1      37.467  21.598  25.327  1.00  0.00    -0.458 OA
BRANCH  24  25
ATOM     25  C   UNL A   1      38.674  21.342  25.874  1.00  0.00     0.338 C 
ATOM     26  O   UNL A   1      39.288  20.283  25.829  1.00  0.00    -0.246 OA
BRANCH  25  27
ATOM     27  C   UNL A   1      39.233  22.544  26.528  1.00  0.00     0.060 A 
ATOM     28  C   UNL A   1      38.776  23.823  26.208  1.00  0.00     0.016 A 
ATOM     29  C   UNL A   1      40.365  22.399  27.331  1.00  0.00     0.016 A 
ATOM     30  C   UNL A   1      39.526  24.942  26.572  1.00  0.00     0.010 A 
ATOM     31  C   UNL A   1      41.031  23.531  27.812  1.00  0.00     0.010 A 
ATOM     32  C   UNL A   1      40.645  24.821  27.409  1.00  0.00    -0.014 A 
BRANCH  32  33
ATOM     33  C   UNL A   1      41.410  26.016  27.875  1.00  0.00     0.031 A 
ATOM     34  C   UNL A   1      40.737  27.088  28.699  1.00  0.00     0.074 A 
ATOM     35  C   UNL A   1      42.702  26.181  27.524  1.00  0.00     0.049 A 
ATOM     36  N   UNL A   1      41.122  28.318  28.939  1.00  0.00    -0.248 NA
ATOM     37  C   UNL A   1      39.450  26.736  29.318  1.00  0.00     0.031 C 
ATOM     38  C   UNL A   1      43.511  25.219  26.776  1.00  0.00     0.029 A 
ATOM     39  N   UNL A   1      43.562  27.233  27.742  1.00  0.00    -0.354 N 
ATOM     40  C   UNL A   1      40.095  28.905  29.669  1.00  0.00     0.074 A 
ATOM     41  C   UNL A   1      39.073  27.894  29.843  1.00  0.00     0.031 C 
ATOM     42  C   UNL A   1      44.750  25.704  26.624  1.00  0.00     0.029 A 
ATOM     43  C   UNL A   1      44.791  27.060  27.152  1.00  0.00     0.049 A 
ATOM     44  H   UNL A   1      43.321  28.029  28.267  1.00  0.00     0.167 HD
ATOM     45  C   UNL A   1      40.014  30.175  30.141  1.00  0.00     0.037 A 
ATOM     46  C   UNL A   1      45.817  27.914  26.979  1.00  0.00     0.037 A 
ATOM     47  C   UNL A   1      41.066  31.155  30.021  1.00  0.00     0.049 A 
ATOM     48  C   UNL A   1      45.691  29.325  27.473  1.00  0.00     0.074 A 
ATOM     49  C   UNL A   1      41.093  32.456  30.497  1.00  0.00     0.029 A 
ATOM     50  N   UNL A   1      42.284  30.938  29.393  1.00  0.00    -0.354 N 
ATOM     51  N   UNL A   1      44.692  29.896  28.098  1.00  0.00    -0.248 NA
ATOM     52  C   UNL A   1      46.830  30.217  27.216  1.00  0.00     0.031 C 
ATOM     53  C   UNL A   1      42.306  33.039  30.116  1.00  0.00     0.029 A 
ATOM     54  C   UNL A   1      43.061  32.086  29.453  1.00  0.00     0.049 A 
ATOM     55  H   UNL A   1      42.558  30.094  28.968  1.00  0.00     0.167 HD
ATOM     56  C   UNL A   1      45.082  31.208  28.320  1.00  0.00     0.074 A 
ATOM     57  C   UNL A   1      46.420  31.342  27.782  1.00  0.00     0.031 C 
ATOM     58  C   UNL A   1      44.390  32.211  28.914  1.00  0.00     0.037 A 
BRANCH  45  59
ATOM     59  C   UNL A   1      38.733  30.604  30.801  1.00  0.00     0.064 A 
ATOM     60  C   UNL A   1      38.582  30.643  32.194  1.00  0.00     0.173 A 
ATOM     61  C   UNL A   1      37.655  31.051  30.016  1.00  0.00     0.173 A 
ATOM     62  F   UNL A   1      39.574  30.223  32.993  1.00  0.00    -0.203 F 
ATOM     63  C   UNL A   1      37.396  31.090  32.775  1.00  0.00     0.198 A 
ATOM     64  C   UNL A   1      36.484  31.527  30.600  1.00  0.00     0.198 A 
ATOM     65  F   UNL A   1      37.748  31.047  28.677  1.00  0.00    -0.203 F 
ATOM     66  F   UNL A   1      37.259  31.080  34.109  1.00  0.00    -0.200 F 
ATOM     67  C   UNL A   1      36.352  31.539  31.980  1.00  0.00     0.200 A 
ATOM     68  F   UNL A   1      35.486  31.978  29.828  1.00  0.00    -0.200 F 
ATOM     69  F   UNL A   1      35.219  31.982  32.542  1.00  0.00    -0.200 F 
ENDBRANCH  45  59
BRANCH  46  70
ATOM     70  C   UNL A   1      47.028  27.460  26.247  1.00  0.00     0.064 A 
ATOM     71  C   UNL A   1      47.121  27.592  24.855  1.00  0.00     0.173 A 
ATOM     72  C   UNL A   1      48.132  26.919  26.927  1.00  0.00     0.173 A 
ATOM     73  F   UNL A   1      46.082  28.077  24.159  1.00  0.00    -0.203 F 
ATOM     74  C   UNL A   1      48.270  27.202  24.173  1.00  0.00     0.198 A 
ATOM     75  C   UNL A   1      49.293  26.564  26.248  1.00  0.00     0.198 A 
ATOM     76  F   UNL A   1      48.093  26.771  28.260  1.00  0.00    -0.203 F 
ATOM     77  F   UNL A   1      48.320  27.307  22.838  1.00  0.00    -0.200 F 
ATOM     78  C   UNL A   1      49.360  26.701  24.869  1.00  0.00     0.200 A 
ATOM     79  F   UNL A   1      50.350  26.101  26.928  1.00  0.00    -0.200 F 
ATOM     80  F   UNL A   1      50.473  26.348  24.213  1.00  0.00    -0.200 F 
ENDBRANCH  46  70
BRANCH  58  81
ATOM     81  C   UNL A   1      45.088  33.532  29.046  1.00  0.00     0.064 A 
ATOM     82  C   UNL A   1      45.906  33.828  30.147  1.00  0.00     0.173 A 
ATOM     83  C   UNL A   1      44.944  34.513  28.052  1.00  0.00     0.173 A 
ATOM     84  F   UNL A   1      46.060  32.931  31.133  1.00  0.00    -0.203 F 
ATOM     85  C   UNL A   1      46.528  35.068  30.263  1.00  0.00     0.198 A 
ATOM     86  C   UNL A   1      45.592  35.741  28.157  1.00  0.00     0.198 A 
ATOM     87  F   UNL A   1      44.177  34.279  26.977  1.00  0.00    -0.203 F 
ATOM     88  F   UNL A   1      47.258  35.351  31.351  1.00  0.00    -0.200 F 
ATOM     89  C   UNL A   1      46.375  36.021  29.267  1.00  0.00     0.200 A 
ATOM     90  F   UNL A   1      45.451  36.656  27.188  1.00  0.00    -0.200 F 
ATOM     91  F   UNL A   1      46.973  37.215  29.381  1.00  0.00    -0.200 F 
ENDBRANCH  58  81
ENDBRANCH  32  33
ENDBRANCH  25  27
ENDBRANCH  24  25
ENDBRANCH  23  24
ENDBRANCH  22  23
ENDBRANCH   1  22
TORSDOF 16
ENDMDL
