MODEL 1
REMARK VINA RESULT:     -12.0      0.000      0.000
REMARK SMILES Cc1ccc(C(=O)OCCOC(=O)c2ccc(-c3c4nc(c(-c5c(F)c(F)c(F)c(F)c5F)c5ccc([nH]5)c(-c5c(F)c(F)c(F)c(F)c5F)c5nc(c(-c6c(F)c(F)c(F)c(F)c6F)c6ccc3[nH]6)C=C5)C=C4)cc2)cc1/[NH+]=C1\NCCS1
REMARK SMILES IDX 10 1 9 2 8 3 6 4 7 5 5 6 1 7 2 8 3 9 78 10 4 11 77 12 79 13
REMARK SMILES IDX 80 14 81 16 84 17 82 18 83 20 11 21 12 22 13 23 14 24 15 25
REMARK SMILES IDX 76 26 16 27 75 28 17 29 18 30 19 31 69 32 20 33 74 34 68 35
REMARK SMILES IDX 70 36 21 37 73 38 67 39 66 40 22 42 54 43 34 44 53 45 35 46
REMARK SMILES IDX 38 47 52 48 71 49 36 50 37 51 51 53 72 54 39 55 23 56 24 57
REMARK SMILES IDX 32 58 25 59 26 60 30 61 33 62 27 63 28 64 31 65 29 66 55 67
REMARK SMILES IDX 56 68 64 69 57 70 58 71 62 72 65 73 59 74 60 75 63 76 61 77
REMARK SMILES IDX 40 78 41 79 49 80 42 81 43 82 47 83 50 84 44 85 45 86 48 87
REMARK SMILES IDX 46 88
REMARK H PARENT 79 15 81 19 70 41 38 52
REMARK Flexibility Score: inf
ROOT
ATOM      1  C   UNL A   1      33.074  36.223  31.670  1.00  0.00     0.275 C 
ENDROOT
BRANCH   1   2
ATOM      2  C   UNL A   1      32.902  36.082  30.149  1.00  0.00     0.275 C 
BRANCH   2   3
ATOM      3  O   UNL A   1      33.130  34.768  29.614  1.00  0.00    -0.458 OA
BRANCH   3   4
ATOM      4  C   UNL A   1      34.097  34.796  28.655  1.00  0.00     0.338 C 
ATOM      5  O   UNL A   1      34.404  35.789  28.006  1.00  0.00    -0.246 OA
BRANCH   4   6
ATOM      6  C   UNL A   1      34.747  33.490  28.394  1.00  0.00     0.064 A 
ATOM      7  C   UNL A   1      36.310  29.585  27.391  1.00  0.00     0.049 C 
ATOM      8  C   UNL A   1      35.753  30.939  27.736  1.00  0.00    -0.004 A 
ATOM      9  C   UNL A   1      36.624  31.998  28.028  1.00  0.00     0.008 A 
ATOM     10  C   UNL A   1      34.371  31.156  27.864  1.00  0.00     0.129 A 
ATOM     11  C   UNL A   1      36.121  33.247  28.422  1.00  0.00     0.016 A 
ATOM     12  C   UNL A   1      33.881  32.441  28.092  1.00  0.00     0.067 A 
BRANCH  10  13
ATOM     13  N   UNL A   1      33.455  30.103  28.001  1.00  0.00    -0.235 N 
ATOM     14  C   UNL A   1      33.036  29.615  26.880  1.00  0.00     0.309 C 
ATOM     15  H   UNL A   1      33.157  29.765  28.876  1.00  0.00     0.313 HD
ATOM     16  N   UNL A   1      33.293  30.019  25.600  1.00  0.00    -0.268 N 
ATOM     17  S   UNL A   1      31.951  28.238  26.865  1.00  0.00    -0.035 SA
ATOM     18  C   UNL A   1      32.626  29.341  24.524  1.00  0.00     0.246 C 
ATOM     19  H   UNL A   1      33.920  30.756  25.420  1.00  0.00     0.305 HD
ATOM     20  C   UNL A   1      31.457  28.582  25.146  1.00  0.00     0.128 C 
ENDBRANCH  10  13
ENDBRANCH   4   6
ENDBRANCH   3   4
ENDBRANCH   2   3
ENDBRANCH   1   2
BRANCH   1  21
ATOM     21  O   UNL A   1      34.115  35.520  32.405  1.00  0.00    -0.458 OA
BRANCH  21  22
ATOM     22  C   UNL A   1      34.133  34.227  32.784  1.00  0.00     0.338 C 
ATOM     23  O   UNL A   1      33.147  33.658  33.243  1.00  0.00    -0.246 OA
BRANCH  22  24
ATOM     24  C   UNL A   1      35.410  33.522  32.653  1.00  0.00     0.060 A 
ATOM     25  C   UNL A   1      36.390  34.055  31.797  1.00  0.00     0.016 A 
ATOM     26  C   UNL A   1      35.672  32.427  33.467  1.00  0.00     0.016 A 
ATOM     27  C   UNL A   1      37.680  33.560  31.829  1.00  0.00     0.010 A 
ATOM     28  C   UNL A   1      36.971  32.027  33.611  1.00  0.00     0.010 A 
ATOM     29  C   UNL A   1      37.943  32.545  32.738  1.00  0.00    -0.014 A 
BRANCH  29  30
ATOM     30  C   UNL A   1      39.049  31.630  32.566  1.00  0.00     0.031 A 
ATOM     31  C   UNL A   1      38.887  30.400  31.789  1.00  0.00     0.074 A 
ATOM     32  C   UNL A   1      40.186  32.247  32.968  1.00  0.00     0.049 A 
ATOM     33  N   UNL A   1      39.691  29.400  31.845  1.00  0.00    -0.248 NA
ATOM     34  C   UNL A   1      37.748  30.151  30.906  1.00  0.00     0.031 C 
ATOM     35  C   UNL A   1      41.579  32.057  32.632  1.00  0.00     0.029 A 
ATOM     36  N   UNL A   1      40.221  33.279  33.934  1.00  0.00    -0.354 N 
ATOM     37  C   UNL A   1      39.435  28.632  30.723  1.00  0.00     0.074 A 
ATOM     38  C   UNL A   1      38.110  29.009  30.308  1.00  0.00     0.031 C 
ATOM     39  C   UNL A   1      42.330  32.662  33.578  1.00  0.00     0.029 A 
ATOM     40  C   UNL A   1      41.422  33.134  34.623  1.00  0.00     0.049 A 
ATOM     41  H   UNL A   1      39.531  33.964  34.089  1.00  0.00     0.167 HD
ATOM     42  C   UNL A   1      40.490  27.985  30.142  1.00  0.00     0.037 A 
ATOM     43  C   UNL A   1      41.346  32.651  35.899  1.00  0.00     0.037 A 
ATOM     44  C   UNL A   1      41.696  28.249  30.931  1.00  0.00     0.049 A 
ATOM     45  C   UNL A   1      41.940  31.266  35.942  1.00  0.00     0.074 A 
ATOM     46  C   UNL A   1      42.698  29.192  30.769  1.00  0.00     0.029 A 
ATOM     47  N   UNL A   1      41.760  27.824  32.255  1.00  0.00    -0.354 N 
ATOM     48  N   UNL A   1      41.829  30.388  34.981  1.00  0.00    -0.248 NA
ATOM     49  C   UNL A   1      42.810  30.830  37.025  1.00  0.00     0.031 C 
ATOM     50  C   UNL A   1      43.318  29.388  32.030  1.00  0.00     0.029 A 
ATOM     51  C   UNL A   1      42.678  28.584  32.958  1.00  0.00     0.049 A 
ATOM     52  H   UNL A   1      41.227  27.089  32.636  1.00  0.00     0.167 HD
ATOM     53  C   UNL A   1      42.678  29.346  35.242  1.00  0.00     0.074 A 
ATOM     54  C   UNL A   1      43.238  29.650  36.549  1.00  0.00     0.031 C 
ATOM     55  C   UNL A   1      42.928  28.328  34.364  1.00  0.00     0.037 A 
BRANCH  42  56
ATOM     56  C   UNL A   1      40.548  27.462  28.715  1.00  0.00     0.064 A 
ATOM     57  C   UNL A   1      39.945  26.222  28.390  1.00  0.00     0.173 A 
ATOM     58  C   UNL A   1      41.195  28.090  27.634  1.00  0.00     0.173 A 
ATOM     59  F   UNL A   1      39.206  25.545  29.279  1.00  0.00    -0.203 F 
ATOM     60  C   UNL A   1      40.065  25.621  27.134  1.00  0.00     0.198 A 
ATOM     61  C   UNL A   1      41.332  27.480  26.378  1.00  0.00     0.198 A 
ATOM     62  F   UNL A   1      41.671  29.335  27.730  1.00  0.00    -0.203 F 
ATOM     63  F   UNL A   1      39.487  24.433  26.909  1.00  0.00    -0.200 F 
ATOM     64  C   UNL A   1      40.778  26.240  26.132  1.00  0.00     0.200 A 
ATOM     65  F   UNL A   1      42.003  28.108  25.402  1.00  0.00    -0.200 F 
ATOM     66  F   UNL A   1      40.904  25.660  24.932  1.00  0.00    -0.200 F 
ENDBRANCH  42  56
BRANCH  43  67
ATOM     67  C   UNL A   1      40.124  33.110  36.649  1.00  0.00     0.064 A 
ATOM     68  C   UNL A   1      39.057  32.196  36.825  1.00  0.00     0.173 A 
ATOM     69  C   UNL A   1      40.083  34.274  37.428  1.00  0.00     0.173 A 
ATOM     70  F   UNL A   1      39.026  31.058  36.111  1.00  0.00    -0.203 F 
ATOM     71  C   UNL A   1      38.072  32.381  37.797  1.00  0.00     0.198 A 
ATOM     72  C   UNL A   1      39.079  34.468  38.388  1.00  0.00     0.198 A 
ATOM     73  F   UNL A   1      41.051  35.194  37.329  1.00  0.00    -0.203 F 
ATOM     74  F   UNL A   1      37.152  31.429  38.009  1.00  0.00    -0.200 F 
ATOM     75  C   UNL A   1      38.092  33.513  38.589  1.00  0.00     0.200 A 
ATOM     76  F   UNL A   1      39.117  35.545  39.188  1.00  0.00    -0.200 F 
ATOM     77  F   UNL A   1      37.200  33.662  39.579  1.00  0.00    -0.200 F 
ENDBRANCH  43  67
BRANCH  55  78
ATOM     78  C   UNL A   1      43.555  27.014  34.739  1.00  0.00     0.064 A 
ATOM     79  C   UNL A   1      42.804  25.864  35.022  1.00  0.00     0.173 A 
ATOM     80  C   UNL A   1      44.956  26.827  34.638  1.00  0.00     0.173 A 
ATOM     81  F   UNL A   1      41.464  25.884  35.012  1.00  0.00    -0.203 F 
ATOM     82  C   UNL A   1      43.412  24.635  35.269  1.00  0.00     0.198 A 
ATOM     83  C   UNL A   1      45.550  25.582  34.803  1.00  0.00     0.198 A 
ATOM     84  F   UNL A   1      45.787  27.836  34.341  1.00  0.00    -0.203 F 
ATOM     85  F   UNL A   1      42.654  23.580  35.598  1.00  0.00    -0.200 F 
ATOM     86  C   UNL A   1      44.780  24.490  35.144  1.00  0.00     0.200 A 
ATOM     87  F   UNL A   1      46.869  25.445  34.609  1.00  0.00    -0.200 F 
ATOM     88  F   UNL A   1      45.353  23.295  35.329  1.00  0.00    -0.200 F 
ENDBRANCH  55  78
ENDBRANCH  29  30
ENDBRANCH  22  24
ENDBRANCH  21  22
ENDBRANCH   1  21
TORSDOF 12
ENDMDL
MODEL 2
REMARK VINA RESULT:     -11.8      3.604      5.944
REMARK SMILES Cc1ccc(C(=O)OCCOC(=O)c2ccc(-c3c4nc(c(-c5c(F)c(F)c(F)c(F)c5F)c5ccc([nH]5)c(-c5c(F)c(F)c(F)c(F)c5F)c5nc(c(-c6c(F)c(F)c(F)c(F)c6F)c6ccc3[nH]6)C=C5)C=C4)cc2)cc1/[NH+]=C1\NCCS1
REMARK SMILES IDX 10 1 9 2 8 3 6 4 7 5 5 6 1 7 2 8 3 9 78 10 4 11 77 12 79 13
REMARK SMILES IDX 80 14 81 16 84 17 82 18 83 20 11 21 12 22 13 23 14 24 15 25
REMARK SMILES IDX 76 26 16 27 75 28 17 29 18 30 19 31 69 32 20 33 74 34 68 35
REMARK SMILES IDX 70 36 21 37 73 38 67 39 66 40 22 42 54 43 34 44 53 45 35 46
REMARK SMILES IDX 38 47 52 48 71 49 36 50 37 51 51 53 72 54 39 55 23 56 24 57
REMARK SMILES IDX 32 58 25 59 26 60 30 61 33 62 27 63 28 64 31 65 29 66 55 67
REMARK SMILES IDX 56 68 64 69 57 70 58 71 62 72 65 73 59 74 60 75 63 76 61 77
REMARK SMILES IDX 40 78 41 79 49 80 42 81 43 82 47 83 50 84 44 85 45 86 48 87
REMARK SMILES IDX 46 88
REMARK H PARENT 79 15 81 19 70 41 38 52
REMARK Flexibility Score: inf
ROOT
ATOM      1  C   UNL A   1      33.857  30.844  27.437  1.00  0.00     0.275 C 
ENDROOT
BRANCH   1   2
ATOM      2  C   UNL A   1      33.304  30.050  26.243  1.00  0.00     0.275 C 
BRANCH   2   3
ATOM      3  O   UNL A   1      34.053  28.882  25.869  1.00  0.00    -0.458 OA
BRANCH   3   4
ATOM      4  C   UNL A   1      33.675  28.437  24.638  1.00  0.00     0.338 C 
ATOM      5  O   UNL A   1      34.376  28.490  23.634  1.00  0.00    -0.246 OA
BRANCH   4   6
ATOM      6  C   UNL A   1      32.291  27.913  24.567  1.00  0.00     0.064 A 
ATOM      7  C   UNL A   1      28.293  26.390  23.941  1.00  0.00     0.049 C 
ATOM      8  C   UNL A   1      29.684  26.924  24.145  1.00  0.00    -0.004 A 
ATOM      9  C   UNL A   1      30.395  26.591  25.305  1.00  0.00     0.008 A 
ATOM     10  C   UNL A   1      30.264  27.829  23.241  1.00  0.00     0.129 A 
ATOM     11  C   UNL A   1      31.665  27.139  25.546  1.00  0.00     0.016 A 
ATOM     12  C   UNL A   1      31.588  28.234  23.408  1.00  0.00     0.067 A 
BRANCH  10  13
ATOM     13  N   UNL A   1      29.509  28.534  22.293  1.00  0.00    -0.235 N 
ATOM     14  C   UNL A   1      29.281  29.767  22.607  1.00  0.00     0.309 C 
ATOM     15  H   UNL A   1      29.181  28.125  21.460  1.00  0.00     0.313 HD
ATOM     16  N   UNL A   1      29.599  30.452  23.746  1.00  0.00    -0.268 N 
ATOM     17  S   UNL A   1      28.424  30.819  21.497  1.00  0.00    -0.035 SA
ATOM     18  C   UNL A   1      29.151  31.811  23.871  1.00  0.00     0.246 C 
ATOM     19  H   UNL A   1      30.122  30.026  24.462  1.00  0.00     0.305 HD
ATOM     20  C   UNL A   1      28.055  32.007  22.828  1.00  0.00     0.128 C 
ENDBRANCH  10  13
ENDBRANCH   4   6
ENDBRANCH   3   4
ENDBRANCH   2   3
ENDBRANCH   1   2
BRANCH   1  21
ATOM     21  O   UNL A   1      35.018  30.404  28.195  1.00  0.00    -0.458 OA
BRANCH  21  22
ATOM     22  C   UNL A   1      36.237  30.977  28.251  1.00  0.00     0.338 C 
ATOM     23  O   UNL A   1      36.412  32.178  28.071  1.00  0.00    -0.246 OA
BRANCH  22  24
ATOM     24  C   UNL A   1      37.370  30.085  28.509  1.00  0.00     0.060 A 
ATOM     25  C   UNL A   1      37.282  29.175  29.577  1.00  0.00     0.016 A 
ATOM     26  C   UNL A   1      38.440  30.068  27.622  1.00  0.00     0.016 A 
ATOM     27  C   UNL A   1      38.217  28.164  29.703  1.00  0.00     0.010 A 
ATOM     28  C   UNL A   1      39.284  28.993  27.651  1.00  0.00     0.010 A 
ATOM     29  C   UNL A   1      39.209  28.099  28.733  1.00  0.00    -0.014 A 
BRANCH  29  30
ATOM     30  C   UNL A   1      40.475  27.445  28.976  1.00  0.00     0.031 A 
ATOM     31  C   UNL A   1      40.698  26.066  28.541  1.00  0.00     0.074 A 
ATOM     32  C   UNL A   1      41.377  28.380  29.359  1.00  0.00     0.049 A 
ATOM     33  N   UNL A   1      41.644  25.314  28.979  1.00  0.00    -0.248 NA
ATOM     34  C   UNL A   1      39.822  25.367  27.601  1.00  0.00     0.031 C 
ATOM     35  C   UNL A   1      42.820  28.439  29.292  1.00  0.00     0.029 A 
ATOM     36  N   UNL A   1      41.030  29.588  30.008  1.00  0.00    -0.354 N 
ATOM     37  C   UNL A   1      41.761  24.271  28.078  1.00  0.00     0.074 A 
ATOM     38  C   UNL A   1      40.498  24.231  27.389  1.00  0.00     0.031 C 
ATOM     39  C   UNL A   1      43.245  29.401  30.141  1.00  0.00     0.029 A 
ATOM     40  C   UNL A   1      42.077  29.882  30.878  1.00  0.00     0.049 A 
ATOM     41  H   UNL A   1      40.211  30.115  29.872  1.00  0.00     0.167 HD
ATOM     42  C   UNL A   1      43.010  23.764  27.852  1.00  0.00     0.037 A 
ATOM     43  C   UNL A   1      41.838  29.703  32.211  1.00  0.00     0.037 A 
ATOM     44  C   UNL A   1      43.966  24.470  28.709  1.00  0.00     0.049 A 
ATOM     45  C   UNL A   1      42.655  28.538  32.709  1.00  0.00     0.074 A 
ATOM     46  C   UNL A   1      44.791  25.553  28.447  1.00  0.00     0.029 A 
ATOM     47  N   UNL A   1      43.843  24.389  30.093  1.00  0.00    -0.354 N 
ATOM     48  N   UNL A   1      42.899  27.460  32.013  1.00  0.00    -0.248 NA
ATOM     49  C   UNL A   1      43.358  28.574  33.984  1.00  0.00     0.031 C 
ATOM     50  C   UNL A   1      45.102  26.170  29.686  1.00  0.00     0.029 A 
ATOM     51  C   UNL A   1      44.449  25.478  30.692  1.00  0.00     0.049 A 
ATOM     52  H   UNL A   1      43.388  23.661  30.575  1.00  0.00     0.167 HD
ATOM     53  C   UNL A   1      43.856  26.727  32.664  1.00  0.00     0.074 A 
ATOM     54  C   UNL A   1      44.080  27.445  33.909  1.00  0.00     0.031 C 
ATOM     55  C   UNL A   1      44.457  25.618  32.137  1.00  0.00     0.037 A 
BRANCH  42  56
ATOM     56  C   UNL A   1      43.444  22.953  26.641  1.00  0.00     0.064 A 
ATOM     57  C   UNL A   1      43.177  21.563  26.587  1.00  0.00     0.173 A 
ATOM     58  C   UNL A   1      44.147  23.449  25.527  1.00  0.00     0.173 A 
ATOM     59  F   UNL A   1      42.432  20.953  27.519  1.00  0.00    -0.203 F 
ATOM     60  C   UNL A   1      43.654  20.733  25.568  1.00  0.00     0.198 A 
ATOM     61  C   UNL A   1      44.642  22.615  24.514  1.00  0.00     0.198 A 
ATOM     62  F   UNL A   1      44.336  24.759  25.345  1.00  0.00    -0.203 F 
ATOM     63  F   UNL A   1      43.380  19.421  25.599  1.00  0.00    -0.200 F 
ATOM     64  C   UNL A   1      44.406  21.256  24.541  1.00  0.00     0.200 A 
ATOM     65  F   UNL A   1      45.348  23.142  23.503  1.00  0.00    -0.200 F 
ATOM     66  F   UNL A   1      44.875  20.460  23.571  1.00  0.00    -0.200 F 
ENDBRANCH  42  56
BRANCH  43  67
ATOM     67  C   UNL A   1      40.429  30.033  32.625  1.00  0.00     0.064 A 
ATOM     68  C   UNL A   1      39.992  31.376  32.520  1.00  0.00     0.173 A 
ATOM     69  C   UNL A   1      39.435  29.069  32.832  1.00  0.00     0.173 A 
ATOM     70  F   UNL A   1      40.888  32.359  32.322  1.00  0.00    -0.203 F 
ATOM     71  C   UNL A   1      38.639  31.719  32.512  1.00  0.00     0.198 A 
ATOM     72  C   UNL A   1      38.077  29.419  32.847  1.00  0.00     0.198 A 
ATOM     73  F   UNL A   1      39.756  27.773  32.942  1.00  0.00    -0.203 F 
ATOM     74  F   UNL A   1      38.271  32.989  32.288  1.00  0.00    -0.200 F 
ATOM     75  C   UNL A   1      37.680  30.737  32.662  1.00  0.00     0.200 A 
ATOM     76  F   UNL A   1      37.139  28.465  32.950  1.00  0.00    -0.200 F 
ATOM     77  F   UNL A   1      36.377  31.043  32.575  1.00  0.00    -0.200 F 
ENDBRANCH  43  67
BRANCH  55  78
ATOM     78  C   UNL A   1      45.226  24.604  32.936  1.00  0.00     0.064 A 
ATOM     79  C   UNL A   1      46.505  24.853  33.454  1.00  0.00     0.173 A 
ATOM     80  C   UNL A   1      44.609  23.403  33.366  1.00  0.00     0.173 A 
ATOM     81  F   UNL A   1      47.137  26.013  33.230  1.00  0.00    -0.203 F 
ATOM     82  C   UNL A   1      47.155  23.934  34.275  1.00  0.00     0.198 A 
ATOM     83  C   UNL A   1      45.228  22.529  34.251  1.00  0.00     0.198 A 
ATOM     84  F   UNL A   1      43.375  23.059  32.972  1.00  0.00    -0.203 F 
ATOM     85  F   UNL A   1      48.402  24.189  34.693  1.00  0.00    -0.200 F 
ATOM     86  C   UNL A   1      46.512  22.782  34.686  1.00  0.00     0.200 A 
ATOM     87  F   UNL A   1      44.564  21.453  34.695  1.00  0.00    -0.200 F 
ATOM     88  F   UNL A   1      47.120  21.928  35.517  1.00  0.00    -0.200 F 
ENDBRANCH  55  78
ENDBRANCH  29  30
ENDBRANCH  22  24
ENDBRANCH  21  22
ENDBRANCH   1  21
TORSDOF 12
ENDMDL
MODEL 3
REMARK VINA RESULT:     -11.7      3.700      6.136
REMARK SMILES Cc1ccc(C(=O)OCCOC(=O)c2ccc(-c3c4nc(c(-c5c(F)c(F)c(F)c(F)c5F)c5ccc([nH]5)c(-c5c(F)c(F)c(F)c(F)c5F)c5nc(c(-c6c(F)c(F)c(F)c(F)c6F)c6ccc3[nH]6)C=C5)C=C4)cc2)cc1/[NH+]=C1\NCCS1
REMARK SMILES IDX 10 1 9 2 8 3 6 4 7 5 5 6 1 7 2 8 3 9 78 10 4 11 77 12 79 13
REMARK SMILES IDX 80 14 81 16 84 17 82 18 83 20 11 21 12 22 13 23 14 24 15 25
REMARK SMILES IDX 76 26 16 27 75 28 17 29 18 30 19 31 69 32 20 33 74 34 68 35
REMARK SMILES IDX 70 36 21 37 73 38 67 39 66 40 22 42 54 43 34 44 53 45 35 46
REMARK SMILES IDX 38 47 52 48 71 49 36 50 37 51 51 53 72 54 39 55 23 56 24 57
REMARK SMILES IDX 32 58 25 59 26 60 30 61 33 62 27 63 28 64 31 65 29 66 55 67
REMARK SMILES IDX 56 68 64 69 57 70 58 71 62 72 65 73 59 74 60 75 63 76 61 77
REMARK SMILES IDX 40 78 41 79 49 80 42 81 43 82 47 83 50 84 44 85 45 86 48 87
REMARK SMILES IDX 46 88
REMARK H PARENT 79 15 81 19 70 41 38 52
REMARK Flexibility Score: inf
ROOT
ATOM      1  C   UNL A   1      34.016  30.669  27.280  1.00  0.00     0.275 C 
ENDROOT
BRANCH   1   2
ATOM      2  C   UNL A   1      33.167  29.560  26.636  1.00  0.00     0.275 C 
BRANCH   2   3
ATOM      3  O   UNL A   1      33.219  28.279  27.283  1.00  0.00    -0.458 OA
BRANCH   3   4
ATOM      4  C   UNL A   1      31.992  27.688  27.289  1.00  0.00     0.338 C 
ATOM      5  O   UNL A   1      31.112  27.920  28.110  1.00  0.00    -0.246 OA
BRANCH   4   6
ATOM      6  C   UNL A   1      31.792  26.667  26.235  1.00  0.00     0.064 A 
ATOM      7  C   UNL A   1      31.530  23.476  23.328  1.00  0.00     0.049 C 
ATOM      8  C   UNL A   1      31.634  24.582  24.342  1.00  0.00    -0.004 A 
ATOM      9  C   UNL A   1      30.492  25.309  24.702  1.00  0.00     0.008 A 
ATOM     10  C   UNL A   1      32.872  24.973  24.880  1.00  0.00     0.129 A 
ATOM     11  C   UNL A   1      30.584  26.390  25.591  1.00  0.00     0.016 A 
ATOM     12  C   UNL A   1      32.925  25.937  25.886  1.00  0.00     0.067 A 
BRANCH  10  13
ATOM     13  N   UNL A   1      34.094  24.607  24.297  1.00  0.00    -0.235 N 
ATOM     14  C   UNL A   1      34.630  23.548  24.809  1.00  0.00     0.309 C 
ATOM     15  H   UNL A   1      34.508  25.113  23.561  1.00  0.00     0.313 HD
ATOM     16  N   UNL A   1      34.223  22.789  25.870  1.00  0.00    -0.268 N 
ATOM     17  S   UNL A   1      36.117  22.900  24.145  1.00  0.00    -0.035 SA
ATOM     18  C   UNL A   1      35.058  21.696  26.285  1.00  0.00     0.246 C 
ATOM     19  H   UNL A   1      33.379  22.984  26.337  1.00  0.00     0.305 HD
ATOM     20  C   UNL A   1      36.428  21.931  25.655  1.00  0.00     0.128 C 
ENDBRANCH  10  13
ENDBRANCH   4   6
ENDBRANCH   3   4
ENDBRANCH   2   3
ENDBRANCH   1   2
BRANCH   1  21
ATOM     21  O   UNL A   1      35.470  30.619  27.308  1.00  0.00    -0.458 OA
BRANCH  21  22
ATOM     22  C   UNL A   1      36.290  30.949  28.326  1.00  0.00     0.338 C 
ATOM     23  O   UNL A   1      36.130  31.960  29.004  1.00  0.00    -0.246 OA
BRANCH  22  24
ATOM     24  C   UNL A   1      37.420  30.052  28.576  1.00  0.00     0.060 A 
ATOM     25  C   UNL A   1      37.330  29.133  29.636  1.00  0.00     0.016 A 
ATOM     26  C   UNL A   1      38.489  30.038  27.689  1.00  0.00     0.016 A 
ATOM     27  C   UNL A   1      38.261  28.118  29.753  1.00  0.00     0.010 A 
ATOM     28  C   UNL A   1      39.330  28.961  27.708  1.00  0.00     0.010 A 
ATOM     29  C   UNL A   1      39.252  28.058  28.783  1.00  0.00    -0.014 A 
BRANCH  29  30
ATOM     30  C   UNL A   1      40.517  27.398  29.019  1.00  0.00     0.031 A 
ATOM     31  C   UNL A   1      40.730  26.016  28.585  1.00  0.00     0.074 A 
ATOM     32  C   UNL A   1      41.425  28.328  29.397  1.00  0.00     0.049 A 
ATOM     33  N   UNL A   1      41.674  25.261  29.019  1.00  0.00    -0.248 NA
ATOM     34  C   UNL A   1      39.846  25.322  27.651  1.00  0.00     0.031 C 
ATOM     35  C   UNL A   1      42.868  28.380  29.322  1.00  0.00     0.029 A 
ATOM     36  N   UNL A   1      41.088  29.539  30.046  1.00  0.00    -0.354 N 
ATOM     37  C   UNL A   1      41.781  24.216  28.119  1.00  0.00     0.074 A 
ATOM     38  C   UNL A   1      40.515  24.181  27.437  1.00  0.00     0.031 C 
ATOM     39  C   UNL A   1      43.302  29.340  30.167  1.00  0.00     0.029 A 
ATOM     40  C   UNL A   1      42.142  29.829  30.910  1.00  0.00     0.049 A 
ATOM     41  H   UNL A   1      40.271  30.070  29.914  1.00  0.00     0.167 HD
ATOM     42  C   UNL A   1      43.027  23.702  27.886  1.00  0.00     0.037 A 
ATOM     43  C   UNL A   1      41.909  29.653  32.245  1.00  0.00     0.037 A 
ATOM     44  C   UNL A   1      43.991  24.404  28.737  1.00  0.00     0.049 A 
ATOM     45  C   UNL A   1      42.722  28.484  32.740  1.00  0.00     0.074 A 
ATOM     46  C   UNL A   1      44.820  25.483  28.470  1.00  0.00     0.029 A 
ATOM     47  N   UNL A   1      43.875  24.326  30.122  1.00  0.00    -0.354 N 
ATOM     48  N   UNL A   1      42.957  27.403  32.044  1.00  0.00    -0.248 NA
ATOM     49  C   UNL A   1      43.433  28.517  34.010  1.00  0.00     0.031 C 
ATOM     50  C   UNL A   1      45.140  26.100  29.706  1.00  0.00     0.029 A 
ATOM     51  C   UNL A   1      44.489  25.413  30.717  1.00  0.00     0.049 A 
ATOM     52  H   UNL A   1      43.419  23.600  30.607  1.00  0.00     0.167 HD
ATOM     53  C   UNL A   1      43.914  26.666  32.690  1.00  0.00     0.074 A 
ATOM     54  C   UNL A   1      44.149  27.384  33.933  1.00  0.00     0.031 C 
ATOM     55  C   UNL A   1      44.506  25.554  32.161  1.00  0.00     0.037 A 
BRANCH  42  56
ATOM     56  C   UNL A   1      43.450  22.887  26.675  1.00  0.00     0.064 A 
ATOM     57  C   UNL A   1      43.160  21.502  26.616  1.00  0.00     0.173 A 
ATOM     58  C   UNL A   1      44.162  23.375  25.563  1.00  0.00     0.173 A 
ATOM     59  F   UNL A   1      42.404  20.902  27.545  1.00  0.00    -0.203 F 
ATOM     60  C   UNL A   1      43.626  20.667  25.596  1.00  0.00     0.198 A 
ATOM     61  C   UNL A   1      44.646  22.536  24.548  1.00  0.00     0.198 A 
ATOM     62  F   UNL A   1      44.373  24.683  25.385  1.00  0.00    -0.203 F 
ATOM     63  F   UNL A   1      43.332  19.360  25.622  1.00  0.00    -0.200 F 
ATOM     64  C   UNL A   1      44.389  21.180  24.571  1.00  0.00     0.200 A 
ATOM     65  F   UNL A   1      45.362  23.054  23.540  1.00  0.00    -0.200 F 
ATOM     66  F   UNL A   1      44.846  20.380  23.600  1.00  0.00    -0.200 F 
ENDBRANCH  42  56
BRANCH  43  67
ATOM     67  C   UNL A   1      40.504  29.991  32.665  1.00  0.00     0.064 A 
ATOM     68  C   UNL A   1      40.070  31.334  32.553  1.00  0.00     0.173 A 
ATOM     69  C   UNL A   1      39.508  29.031  32.888  1.00  0.00     0.173 A 
ATOM     70  F   UNL A   1      40.968  32.312  32.341  1.00  0.00    -0.203 F 
ATOM     71  C   UNL A   1      38.718  31.681  32.551  1.00  0.00     0.198 A 
ATOM     72  C   UNL A   1      38.151  29.386  32.909  1.00  0.00     0.198 A 
ATOM     73  F   UNL A   1      39.826  27.735  33.005  1.00  0.00    -0.203 F 
ATOM     74  F   UNL A   1      38.352  32.950  32.320  1.00  0.00    -0.200 F 
ATOM     75  C   UNL A   1      37.757  30.703  32.717  1.00  0.00     0.200 A 
ATOM     76  F   UNL A   1      37.212  28.435  33.027  1.00  0.00    -0.200 F 
ATOM     77  F   UNL A   1      36.455  31.012  32.636  1.00  0.00    -0.200 F 
ENDBRANCH  43  67
BRANCH  55  78
ATOM     78  C   UNL A   1      45.275  24.537  32.958  1.00  0.00     0.064 A 
ATOM     79  C   UNL A   1      46.554  24.783  33.476  1.00  0.00     0.173 A 
ATOM     80  C   UNL A   1      44.656  23.336  33.384  1.00  0.00     0.173 A 
ATOM     81  F   UNL A   1      47.187  25.943  33.254  1.00  0.00    -0.203 F 
ATOM     82  C   UNL A   1      47.203  23.861  34.294  1.00  0.00     0.198 A 
ATOM     83  C   UNL A   1      45.275  22.458  34.267  1.00  0.00     0.198 A 
ATOM     84  F   UNL A   1      43.421  22.994  32.989  1.00  0.00    -0.203 F 
ATOM     85  F   UNL A   1      48.450  24.114  34.712  1.00  0.00    -0.200 F 
ATOM     86  C   UNL A   1      46.559  22.709  34.702  1.00  0.00     0.200 A 
ATOM     87  F   UNL A   1      44.609  21.382  34.708  1.00  0.00    -0.200 F 
ATOM     88  F   UNL A   1      47.166  21.852  35.531  1.00  0.00    -0.200 F 
ENDBRANCH  55  78
ENDBRANCH  29  30
ENDBRANCH  22  24
ENDBRANCH  21  22
ENDBRANCH   1  21
TORSDOF 12
ENDMDL
