MODEL 1
REMARK VINA RESULT:     -13.4      0.000      0.000
REMARK SMILES Cc1ccc(S(=O)(=O)N(CC(=O)OCCOC(=O)c2ccc(-c3c4nc(c(-c5c(F)c(F)c(F)c(F)c5F)c5ccc([nH]5)c(-c5c(F)c(F)c(F)c(F)c5F)c5nc(c(-c6c(F)c(F)c(F)c(F)c6F)c6ccc3[nH]6)C=C5)C=C4)cc2)c2cc(Cl)cc(Cl)c2)cc1
REMARK SMILES IDX 14 1 13 2 11 3 12 4 10 5 9 6 6 7 7 8 8 9 5 10 1 11 2 12 3 13
REMARK SMILES IDX 91 14 4 15 90 16 82 17 83 18 89 19 84 20 87 21 85 22 86 23
REMARK SMILES IDX 88 24 15 25 16 26 17 27 18 28 19 29 20 30 81 31 21 32 80 33
REMARK SMILES IDX 22 34 23 35 24 36 74 37 25 38 79 39 73 40 75 41 26 42 78 43
REMARK SMILES IDX 72 44 71 45 27 47 59 48 39 49 58 50 40 51 43 52 57 53 76 54
REMARK SMILES IDX 41 55 42 56 56 58 77 59 44 60 28 61 29 62 37 63 30 64 31 65
REMARK SMILES IDX 35 66 38 67 32 68 33 69 36 70 34 71 60 72 61 73 69 74 62 75
REMARK SMILES IDX 63 76 67 77 70 78 64 79 65 80 68 81 66 82 45 83 46 84 54 85
REMARK SMILES IDX 47 86 48 87 52 88 55 89 49 90 50 91 53 92 51 93
REMARK H PARENT 75 46 43 57
REMARK Flexibility Score: inf
ROOT
ATOM      1  C   UNL A   1      32.479  29.951  26.888  1.00  0.00     0.274 C 
ENDROOT
BRANCH   1   2
ATOM      2  O   UNL A   1      32.672  28.583  26.483  1.00  0.00    -0.461 OA
BRANCH   2   3
ATOM      3  C   UNL A   1      31.758  27.698  26.961  1.00  0.00     0.326 C 
ATOM      4  O   UNL A   1      31.277  27.860  28.051  1.00  0.00    -0.250 OA
BRANCH   3   5
ATOM      5  C   UNL A   1      31.407  26.640  25.922  1.00  0.00     0.258 C 
BRANCH   5   6
ATOM      6  N   UNL A   1      32.347  26.106  24.868  1.00  0.00    -0.255 N 
BRANCH   6   7
ATOM      7  S   UNL A   1      31.743  26.245  23.255  1.00  0.00     0.264 S 
ATOM      8  O   UNL A   1      30.981  25.039  22.999  1.00  0.00    -0.201 OA
ATOM      9  O   UNL A   1      32.799  26.671  22.362  1.00  0.00    -0.201 OA
BRANCH   7  10
ATOM     10  C   UNL A   1      30.572  27.600  23.283  1.00  0.00     0.088 A 
ATOM     11  C   UNL A   1      27.614  30.737  23.246  1.00  0.00     0.044 C 
ATOM     12  C   UNL A   1      28.655  29.653  23.276  1.00  0.00    -0.051 A 
ATOM     13  C   UNL A   1      28.256  28.312  23.256  1.00  0.00     0.005 A 
ATOM     14  C   UNL A   1      30.025  29.957  23.271  1.00  0.00     0.005 A 
ATOM     15  C   UNL A   1      29.207  27.289  23.269  1.00  0.00     0.022 A 
ATOM     16  C   UNL A   1      30.986  28.934  23.266  1.00  0.00     0.022 A 
ENDBRANCH   7  10
ENDBRANCH   6   7
BRANCH   6  17
ATOM     17  C   UNL A   1      33.166  24.923  25.107  1.00  0.00     0.055 A 
ATOM     18  C   UNL A   1      32.869  23.975  26.081  1.00  0.00     0.047 A 
ATOM     19  C   UNL A   1      34.291  24.682  24.312  1.00  0.00     0.047 A 
ATOM     20  C   UNL A   1      33.837  23.062  26.507  1.00  0.00     0.044 A 
ATOM     21  C   UNL A   1      35.168  23.634  24.620  1.00  0.00     0.044 A 
ATOM     22  Cl  UNL A   1      33.606  22.198  27.979  1.00  0.00    -0.084 Cl
ATOM     23  C   UNL A   1      34.995  22.880  25.774  1.00  0.00     0.041 A 
ATOM     24  Cl  UNL A   1      36.479  23.271  23.567  1.00  0.00    -0.084 Cl
ENDBRANCH   6  17
ENDBRANCH   5   6
ENDBRANCH   3   5
ENDBRANCH   2   3
ENDBRANCH   1   2
BRANCH   1  25
ATOM     25  C   UNL A   1      33.690  30.870  27.277  1.00  0.00     0.275 C 
BRANCH  25  26
ATOM     26  O   UNL A   1      35.011  30.439  27.789  1.00  0.00    -0.458 OA
BRANCH  26  27
ATOM     27  C   UNL A   1      36.177  30.977  28.217  1.00  0.00     0.338 C 
ATOM     28  O   UNL A   1      36.373  32.181  28.279  1.00  0.00    -0.246 OA
BRANCH  27  29
ATOM     29  C   UNL A   1      37.224  30.053  28.646  1.00  0.00     0.060 A 
ATOM     30  C   UNL A   1      37.098  29.199  29.758  1.00  0.00     0.016 A 
ATOM     31  C   UNL A   1      38.335  29.996  27.842  1.00  0.00     0.016 A 
ATOM     32  C   UNL A   1      38.078  28.228  29.985  1.00  0.00     0.010 A 
ATOM     33  C   UNL A   1      39.061  28.845  27.851  1.00  0.00     0.010 A 
ATOM     34  C   UNL A   1      39.041  28.041  28.994  1.00  0.00    -0.014 A 
BRANCH  34  35
ATOM     35  C   UNL A   1      40.326  27.376  29.127  1.00  0.00     0.031 A 
ATOM     36  C   UNL A   1      40.664  26.106  28.484  1.00  0.00     0.074 A 
ATOM     37  C   UNL A   1      41.280  28.257  29.515  1.00  0.00     0.049 A 
ATOM     38  N   UNL A   1      41.584  25.319  28.928  1.00  0.00    -0.248 NA
ATOM     39  C   UNL A   1      40.022  25.629  27.262  1.00  0.00     0.031 C 
ATOM     40  C   UNL A   1      42.712  28.270  29.286  1.00  0.00     0.029 A 
ATOM     41  N   UNL A   1      41.043  29.470  30.187  1.00  0.00    -0.354 N 
ATOM     42  C   UNL A   1      41.871  24.440  27.908  1.00  0.00     0.074 A 
ATOM     43  C   UNL A   1      40.786  24.570  26.960  1.00  0.00     0.031 C 
ATOM     44  C   UNL A   1      43.252  29.248  30.045  1.00  0.00     0.029 A 
ATOM     45  C   UNL A   1      42.194  29.799  30.888  1.00  0.00     0.049 A 
ATOM     46  H   UNL A   1      40.207  29.992  30.165  1.00  0.00     0.167 HD
ATOM     47  C   UNL A   1      43.109  23.870  27.830  1.00  0.00     0.037 A 
ATOM     48  C   UNL A   1      42.101  29.744  32.248  1.00  0.00     0.037 A 
ATOM     49  C   UNL A   1      44.022  24.510  28.777  1.00  0.00     0.049 A 
ATOM     50  C   UNL A   1      42.900  28.580  32.765  1.00  0.00     0.074 A 
ATOM     51  C   UNL A   1      44.929  25.540  28.586  1.00  0.00     0.029 A 
ATOM     52  N   UNL A   1      43.817  24.417  30.151  1.00  0.00    -0.354 N 
ATOM     53  N   UNL A   1      43.186  27.528  32.052  1.00  0.00    -0.248 NA
ATOM     54  C   UNL A   1      43.450  28.523  34.111  1.00  0.00     0.031 C 
ATOM     55  C   UNL A   1      45.222  26.111  29.846  1.00  0.00     0.029 A 
ATOM     56  C   UNL A   1      44.506  25.422  30.810  1.00  0.00     0.049 A 
ATOM     57  H   UNL A   1      43.262  23.734  30.592  1.00  0.00     0.167 HD
ATOM     58  C   UNL A   1      43.979  26.694  32.778  1.00  0.00     0.074 A 
ATOM     59  C   UNL A   1      44.104  27.349  34.069  1.00  0.00     0.031 C 
ATOM     60  C   UNL A   1      44.484  25.538  32.259  1.00  0.00     0.037 A 
BRANCH  47  61
ATOM     61  C   UNL A   1      43.567  23.027  26.662  1.00  0.00     0.064 A 
ATOM     62  C   UNL A   1      43.254  21.653  26.565  1.00  0.00     0.173 A 
ATOM     63  C   UNL A   1      44.306  23.548  25.581  1.00  0.00     0.173 A 
ATOM     64  F   UNL A   1      42.492  21.039  27.477  1.00  0.00    -0.203 F 
ATOM     65  C   UNL A   1      43.717  20.849  25.519  1.00  0.00     0.198 A 
ATOM     66  C   UNL A   1      44.794  22.735  24.549  1.00  0.00     0.198 A 
ATOM     67  F   UNL A   1      44.555  24.862  25.490  1.00  0.00    -0.203 F 
ATOM     68  F   UNL A   1      43.398  19.547  25.492  1.00  0.00    -0.200 F 
ATOM     69  C   UNL A   1      44.506  21.384  24.523  1.00  0.00     0.200 A 
ATOM     70  F   UNL A   1      45.547  23.272  23.579  1.00  0.00    -0.200 F 
ATOM     71  F   UNL A   1      44.971  20.607  23.536  1.00  0.00    -0.200 F 
ENDBRANCH  47  61
BRANCH  48  72
ATOM     72  C   UNL A   1      40.740  30.149  32.755  1.00  0.00     0.064 A 
ATOM     73  C   UNL A   1      40.352  31.505  32.645  1.00  0.00     0.173 A 
ATOM     74  C   UNL A   1      39.717  29.221  32.999  1.00  0.00     0.173 A 
ATOM     75  F   UNL A   1      41.274  32.444  32.371  1.00  0.00    -0.203 F 
ATOM     76  C   UNL A   1      39.012  31.896  32.689  1.00  0.00     0.198 A 
ATOM     77  C   UNL A   1      38.374  29.621  33.057  1.00  0.00     0.198 A 
ATOM     78  F   UNL A   1      39.994  27.914  33.091  1.00  0.00    -0.203 F 
ATOM     79  F   UNL A   1      38.683  33.178  32.473  1.00  0.00    -0.200 F 
ATOM     80  C   UNL A   1      38.023  30.951  32.880  1.00  0.00     0.200 A 
ATOM     81  F   UNL A   1      37.411  28.701  33.214  1.00  0.00    -0.200 F 
ATOM     82  F   UNL A   1      36.732  31.312  32.861  1.00  0.00    -0.200 F 
ENDBRANCH  48  72
BRANCH  60  83
ATOM     83  C   UNL A   1      45.134  24.469  33.078  1.00  0.00     0.064 A 
ATOM     84  C   UNL A   1      46.424  24.602  33.613  1.00  0.00     0.173 A 
ATOM     85  C   UNL A   1      44.404  23.328  33.479  1.00  0.00     0.173 A 
ATOM     86  F   UNL A   1      47.156  25.704  33.401  1.00  0.00    -0.203 F 
ATOM     87  C   UNL A   1      46.978  23.619  34.430  1.00  0.00     0.198 A 
ATOM     88  C   UNL A   1      44.938  22.383  34.347  1.00  0.00     0.198 A 
ATOM     89  F   UNL A   1      43.147  23.115  33.061  1.00  0.00    -0.203 F 
ATOM     90  F   UNL A   1      48.234  23.762  34.875  1.00  0.00    -0.200 F 
ATOM     91  C   UNL A   1      46.233  22.518  34.805  1.00  0.00     0.200 A 
ATOM     92  F   UNL A   1      44.183  21.352  34.750  1.00  0.00    -0.200 F 
ATOM     93  F   UNL A   1      46.754  21.598  35.626  1.00  0.00    -0.200 F 
ENDBRANCH  60  83
ENDBRANCH  34  35
ENDBRANCH  27  29
ENDBRANCH  26  27
ENDBRANCH  25  26
ENDBRANCH   1  25
TORSDOF 15
ENDMDL
MODEL 2
REMARK VINA RESULT:     -13.3      4.037     10.094
REMARK SMILES Cc1ccc(S(=O)(=O)N(CC(=O)OCCOC(=O)c2ccc(-c3c4nc(c(-c5c(F)c(F)c(F)c(F)c5F)c5ccc([nH]5)c(-c5c(F)c(F)c(F)c(F)c5F)c5nc(c(-c6c(F)c(F)c(F)c(F)c6F)c6ccc3[nH]6)C=C5)C=C4)cc2)c2cc(Cl)cc(Cl)c2)cc1
REMARK SMILES IDX 14 1 13 2 11 3 12 4 10 5 9 6 6 7 7 8 8 9 5 10 1 11 2 12 3 13
REMARK SMILES IDX 91 14 4 15 90 16 82 17 83 18 89 19 84 20 87 21 85 22 86 23
REMARK SMILES IDX 88 24 15 25 16 26 17 27 18 28 19 29 20 30 81 31 21 32 80 33
REMARK SMILES IDX 22 34 23 35 24 36 74 37 25 38 79 39 73 40 75 41 26 42 78 43
REMARK SMILES IDX 72 44 71 45 27 47 59 48 39 49 58 50 40 51 43 52 57 53 76 54
REMARK SMILES IDX 41 55 42 56 56 58 77 59 44 60 28 61 29 62 37 63 30 64 31 65
REMARK SMILES IDX 35 66 38 67 32 68 33 69 36 70 34 71 60 72 61 73 69 74 62 75
REMARK SMILES IDX 63 76 67 77 70 78 64 79 65 80 68 81 66 82 45 83 46 84 54 85
REMARK SMILES IDX 47 86 48 87 52 88 55 89 49 90 50 91 53 92 51 93
REMARK H PARENT 75 46 43 57
REMARK Flexibility Score: inf
ROOT
ATOM      1  C   UNL A   1      36.664  23.580  24.941  1.00  0.00     0.274 C 
ENDROOT
BRANCH   1   2
ATOM      2  O   UNL A   1      35.399  24.235  24.726  1.00  0.00    -0.461 OA
BRANCH   2   3
ATOM      3  C   UNL A   1      34.837  24.031  23.505  1.00  0.00     0.326 C 
ATOM      4  O   UNL A   1      35.304  23.216  22.756  1.00  0.00    -0.250 OA
BRANCH   3   5
ATOM      5  C   UNL A   1      33.570  24.860  23.328  1.00  0.00     0.258 C 
BRANCH   5   6
ATOM      6  N   UNL A   1      32.568  25.165  24.414  1.00  0.00    -0.255 N 
BRANCH   6   7
ATOM      7  S   UNL A   1      31.164  24.158  24.376  1.00  0.00     0.264 S 
ATOM      8  O   UNL A   1      30.487  24.448  23.127  1.00  0.00    -0.201 OA
ATOM      9  O   UNL A   1      30.467  24.224  25.642  1.00  0.00    -0.201 OA
BRANCH   7  10
ATOM     10  C   UNL A   1      31.768  22.475  24.256  1.00  0.00     0.088 A 
ATOM     11  C   UNL A   1      33.099  18.399  23.798  1.00  0.00     0.044 C 
ATOM     12  C   UNL A   1      32.654  19.825  23.970  1.00  0.00    -0.051 A 
ATOM     13  C   UNL A   1      32.226  20.553  22.853  1.00  0.00     0.005 A 
ATOM     14  C   UNL A   1      32.606  20.428  25.235  1.00  0.00     0.005 A 
ATOM     15  C   UNL A   1      31.795  21.875  22.992  1.00  0.00     0.022 A 
ATOM     16  C   UNL A   1      32.156  21.749  25.385  1.00  0.00     0.022 A 
ENDBRANCH   7  10
ENDBRANCH   6   7
BRANCH   6  17
ATOM     17  C   UNL A   1      32.318  26.532  24.859  1.00  0.00     0.055 A 
ATOM     18  C   UNL A   1      31.238  27.290  24.419  1.00  0.00     0.047 A 
ATOM     19  C   UNL A   1      33.167  27.125  25.798  1.00  0.00     0.047 A 
ATOM     20  C   UNL A   1      31.223  28.676  24.590  1.00  0.00     0.044 A 
ATOM     21  C   UNL A   1      33.029  28.481  26.125  1.00  0.00     0.044 A 
ATOM     22  Cl  UNL A   1      30.116  29.636  23.682  1.00  0.00    -0.084 Cl
ATOM     23  C   UNL A   1      32.118  29.283  25.451  1.00  0.00     0.041 A 
ATOM     24  Cl  UNL A   1      33.998  29.168  27.369  1.00  0.00    -0.084 Cl
ENDBRANCH   6  17
ENDBRANCH   5   6
ENDBRANCH   3   5
ENDBRANCH   2   3
ENDBRANCH   1   2
BRANCH   1  25
ATOM     25  C   UNL A   1      37.495  23.811  26.251  1.00  0.00     0.275 C 
BRANCH  25  26
ATOM     26  O   UNL A   1      38.893  23.394  26.509  1.00  0.00    -0.458 OA
BRANCH  26  27
ATOM     27  C   UNL A   1      39.992  23.824  27.170  1.00  0.00     0.338 C 
ATOM     28  O   UNL A   1      40.894  23.077  27.522  1.00  0.00    -0.246 OA
BRANCH  27  29
ATOM     29  C   UNL A   1      40.097  25.256  27.437  1.00  0.00     0.060 A 
ATOM     30  C   UNL A   1      40.482  26.201  26.468  1.00  0.00     0.016 A 
ATOM     31  C   UNL A   1      39.711  25.658  28.692  1.00  0.00     0.016 A 
ATOM     32  C   UNL A   1      40.383  27.563  26.768  1.00  0.00     0.010 A 
ATOM     33  C   UNL A   1      39.274  26.938  28.837  1.00  0.00     0.010 A 
ATOM     34  C   UNL A   1      39.738  27.915  27.953  1.00  0.00    -0.014 A 
BRANCH  34  35
ATOM     35  C   UNL A   1      39.810  29.188  28.651  1.00  0.00     0.031 A 
ATOM     36  C   UNL A   1      38.675  30.095  28.824  1.00  0.00     0.074 A 
ATOM     37  C   UNL A   1      40.881  29.216  29.481  1.00  0.00     0.049 A 
ATOM     38  N   UNL A   1      38.814  31.360  29.032  1.00  0.00    -0.248 NA
ATOM     39  C   UNL A   1      37.284  29.650  28.818  1.00  0.00     0.031 C 
ATOM     40  C   UNL A   1      41.108  29.942  30.717  1.00  0.00     0.029 A 
ATOM     41  N   UNL A   1      42.033  28.420  29.351  1.00  0.00    -0.354 N 
ATOM     42  C   UNL A   1      37.602  31.814  29.500  1.00  0.00     0.074 A 
ATOM     43  C   UNL A   1      36.650  30.764  29.211  1.00  0.00     0.031 C 
ATOM     44  C   UNL A   1      42.405  29.793  31.061  1.00  0.00     0.029 A 
ATOM     45  C   UNL A   1      43.079  29.080  29.979  1.00  0.00     0.049 A 
ATOM     46  H   UNL A   1      42.088  27.549  28.893  1.00  0.00     0.167 HD
ATOM     47  C   UNL A   1      37.553  32.915  30.306  1.00  0.00     0.037 A 
ATOM     48  C   UNL A   1      44.066  29.550  29.161  1.00  0.00     0.037 A 
ATOM     49  C   UNL A   1      38.902  33.296  30.724  1.00  0.00     0.049 A 
ATOM     50  C   UNL A   1      44.009  31.051  29.108  1.00  0.00     0.074 A 
ATOM     51  C   UNL A   1      39.603  32.982  31.879  1.00  0.00     0.029 A 
ATOM     52  N   UNL A   1      39.847  33.734  29.800  1.00  0.00    -0.354 N 
ATOM     53  N   UNL A   1      42.932  31.742  29.353  1.00  0.00    -0.248 NA
ATOM     54  C   UNL A   1      45.161  31.884  28.796  1.00  0.00     0.031 C 
ATOM     55  C   UNL A   1      40.980  33.171  31.626  1.00  0.00     0.029 A 
ATOM     56  C   UNL A   1      41.124  33.615  30.323  1.00  0.00     0.049 A 
ATOM     57  H   UNL A   1      39.636  34.081  28.903  1.00  0.00     0.167 HD
ATOM     58  C   UNL A   1      43.225  33.069  29.296  1.00  0.00     0.074 A 
ATOM     59  C   UNL A   1      44.630  33.112  28.925  1.00  0.00     0.031 C 
ATOM     60  C   UNL A   1      42.297  34.030  29.571  1.00  0.00     0.037 A 
BRANCH  47  61
ATOM     61  C   UNL A   1      36.295  33.387  30.998  1.00  0.00     0.064 A 
ATOM     62  C   UNL A   1      35.336  34.186  30.339  1.00  0.00     0.173 A 
ATOM     63  C   UNL A   1      35.975  33.046  32.327  1.00  0.00     0.173 A 
ATOM     64  F   UNL A   1      35.467  34.524  29.051  1.00  0.00    -0.203 F 
ATOM     65  C   UNL A   1      34.195  34.677  30.982  1.00  0.00     0.198 A 
ATOM     66  C   UNL A   1      34.846  33.561  32.980  1.00  0.00     0.198 A 
ATOM     67  F   UNL A   1      36.738  32.187  33.018  1.00  0.00    -0.203 F 
ATOM     68  F   UNL A   1      33.329  35.444  30.304  1.00  0.00    -0.200 F 
ATOM     69  C   UNL A   1      33.962  34.383  32.309  1.00  0.00     0.200 A 
ATOM     70  F   UNL A   1      34.624  33.255  34.265  1.00  0.00    -0.200 F 
ATOM     71  F   UNL A   1      32.883  34.875  32.931  1.00  0.00    -0.200 F 
ENDBRANCH  47  61
BRANCH  48  72
ATOM     72  C   UNL A   1      44.314  28.653  27.975  1.00  0.00     0.064 A 
ATOM     73  C   UNL A   1      44.951  27.408  28.188  1.00  0.00     0.173 A 
ATOM     74  C   UNL A   1      43.648  28.816  26.752  1.00  0.00     0.173 A 
ATOM     75  F   UNL A   1      45.574  27.167  29.354  1.00  0.00    -0.203 F 
ATOM     76  C   UNL A   1      44.852  26.361  27.269  1.00  0.00     0.198 A 
ATOM     77  C   UNL A   1      43.563  27.767  25.826  1.00  0.00     0.198 A 
ATOM     78  F   UNL A   1      42.996  29.955  26.480  1.00  0.00    -0.203 F 
ATOM     79  F   UNL A   1      45.382  25.164  27.562  1.00  0.00    -0.200 F 
ATOM     80  C   UNL A   1      44.146  26.536  26.095  1.00  0.00     0.200 A 
ATOM     81  F   UNL A   1      42.854  27.927  24.699  1.00  0.00    -0.200 F 
ATOM     82  F   UNL A   1      43.995  25.516  25.239  1.00  0.00    -0.200 F 
ENDBRANCH  48  72
BRANCH  60  83
ATOM     83  C   UNL A   1      42.487  35.483  29.274  1.00  0.00     0.064 A 
ATOM     84  C   UNL A   1      43.327  36.310  30.033  1.00  0.00     0.173 A 
ATOM     85  C   UNL A   1      41.936  36.055  28.105  1.00  0.00     0.173 A 
ATOM     86  F   UNL A   1      44.001  35.836  31.090  1.00  0.00    -0.203 F 
ATOM     87  C   UNL A   1      43.539  37.644  29.692  1.00  0.00     0.198 A 
ATOM     88  C   UNL A   1      42.202  37.367  27.734  1.00  0.00     0.198 A 
ATOM     89  F   UNL A   1      41.149  35.347  27.281  1.00  0.00    -0.203 F 
ATOM     90  F   UNL A   1      44.307  38.412  30.477  1.00  0.00    -0.200 F 
ATOM     91  C   UNL A   1      42.987  38.168  28.538  1.00  0.00     0.200 A 
ATOM     92  F   UNL A   1      41.710  37.843  26.581  1.00  0.00    -0.200 F 
ATOM     93  F   UNL A   1      43.229  39.438  28.191  1.00  0.00    -0.200 F 
ENDBRANCH  60  83
ENDBRANCH  34  35
ENDBRANCH  27  29
ENDBRANCH  26  27
ENDBRANCH  25  26
ENDBRANCH   1  25
TORSDOF 15
ENDMDL
MODEL 3
REMARK VINA RESULT:     -13.3      1.809      3.392
REMARK SMILES Cc1ccc(S(=O)(=O)N(CC(=O)OCCOC(=O)c2ccc(-c3c4nc(c(-c5c(F)c(F)c(F)c(F)c5F)c5ccc([nH]5)c(-c5c(F)c(F)c(F)c(F)c5F)c5nc(c(-c6c(F)c(F)c(F)c(F)c6F)c6ccc3[nH]6)C=C5)C=C4)cc2)c2cc(Cl)cc(Cl)c2)cc1
REMARK SMILES IDX 14 1 13 2 11 3 12 4 10 5 9 6 6 7 7 8 8 9 5 10 1 11 2 12 3 13
REMARK SMILES IDX 91 14 4 15 90 16 82 17 83 18 89 19 84 20 87 21 85 22 86 23
REMARK SMILES IDX 88 24 15 25 16 26 17 27 18 28 19 29 20 30 81 31 21 32 80 33
REMARK SMILES IDX 22 34 23 35 24 36 74 37 25 38 79 39 73 40 75 41 26 42 78 43
REMARK SMILES IDX 72 44 71 45 27 47 59 48 39 49 58 50 40 51 43 52 57 53 76 54
REMARK SMILES IDX 41 55 42 56 56 58 77 59 44 60 28 61 29 62 37 63 30 64 31 65
REMARK SMILES IDX 35 66 38 67 32 68 33 69 36 70 34 71 60 72 61 73 69 74 62 75
REMARK SMILES IDX 63 76 67 77 70 78 64 79 65 80 68 81 66 82 45 83 46 84 54 85
REMARK SMILES IDX 47 86 48 87 52 88 55 89 49 90 50 91 53 92 51 93
REMARK H PARENT 75 46 43 57
REMARK Flexibility Score: inf
ROOT
ATOM      1  C   UNL A   1      33.294  29.591  26.379  1.00  0.00     0.274 C 
ENDROOT
BRANCH   1   2
ATOM      2  O   UNL A   1      34.096  28.446  26.034  1.00  0.00    -0.461 OA
BRANCH   2   3
ATOM      3  C   UNL A   1      33.456  27.477  25.327  1.00  0.00     0.326 C 
ATOM      4  O   UNL A   1      33.435  26.347  25.736  1.00  0.00    -0.250 OA
BRANCH   3   5
ATOM      5  C   UNL A   1      32.747  28.053  24.106  1.00  0.00     0.258 C 
BRANCH   5   6
ATOM      6  N   UNL A   1      31.691  27.343  23.295  1.00  0.00    -0.255 N 
BRANCH   6   7
ATOM      7  S   UNL A   1      32.322  26.406  21.988  1.00  0.00     0.264 S 
ATOM      8  O   UNL A   1      33.614  26.978  21.662  1.00  0.00    -0.201 OA
ATOM      9  O   UNL A   1      31.307  26.215  20.976  1.00  0.00    -0.201 OA
BRANCH   7  10
ATOM     10  C   UNL A   1      32.635  24.774  22.659  1.00  0.00     0.088 A 
ATOM     11  C   UNL A   1      33.209  20.868  24.392  1.00  0.00     0.044 C 
ATOM     12  C   UNL A   1      33.022  22.224  23.771  1.00  0.00    -0.051 A 
ATOM     13  C   UNL A   1      31.732  22.752  23.641  1.00  0.00     0.005 A 
ATOM     14  C   UNL A   1      34.119  22.999  23.365  1.00  0.00     0.005 A 
ATOM     15  C   UNL A   1      31.536  24.016  23.079  1.00  0.00     0.022 A 
ATOM     16  C   UNL A   1      33.930  24.277  22.817  1.00  0.00     0.022 A 
ENDBRANCH   7  10
ENDBRANCH   6   7
BRANCH   6  17
ATOM     17  C   UNL A   1      30.395  27.959  23.026  1.00  0.00     0.055 A 
ATOM     18  C   UNL A   1      30.242  29.098  22.242  1.00  0.00     0.047 A 
ATOM     19  C   UNL A   1      29.229  27.381  23.538  1.00  0.00     0.047 A 
ATOM     20  C   UNL A   1      29.062  29.843  22.290  1.00  0.00     0.044 A 
ATOM     21  C   UNL A   1      27.998  28.037  23.413  1.00  0.00     0.044 A 
ATOM     22  Cl  UNL A   1      29.039  31.448  21.664  1.00  0.00    -0.084 Cl
ATOM     23  C   UNL A   1      27.925  29.314  22.874  1.00  0.00     0.041 A 
ATOM     24  Cl  UNL A   1      26.554  27.261  23.937  1.00  0.00    -0.084 Cl
ENDBRANCH   6  17
ENDBRANCH   5   6
ENDBRANCH   3   5
ENDBRANCH   2   3
ENDBRANCH   1   2
BRANCH   1  25
ATOM     25  C   UNL A   1      33.789  30.655  27.421  1.00  0.00     0.275 C 
BRANCH  25  26
ATOM     26  O   UNL A   1      34.972  30.557  28.306  1.00  0.00    -0.458 OA
BRANCH  26  27
ATOM     27  C   UNL A   1      36.238  31.025  28.391  1.00  0.00     0.338 C 
ATOM     28  O   UNL A   1      36.534  32.191  28.175  1.00  0.00    -0.246 OA
BRANCH  27  29
ATOM     29  C   UNL A   1      37.278  30.081  28.792  1.00  0.00     0.060 A 
ATOM     30  C   UNL A   1      37.132  29.172  29.858  1.00  0.00     0.016 A 
ATOM     31  C   UNL A   1      38.403  30.064  28.007  1.00  0.00     0.016 A 
ATOM     32  C   UNL A   1      38.109  28.191  30.053  1.00  0.00     0.010 A 
ATOM     33  C   UNL A   1      39.129  28.914  27.970  1.00  0.00     0.010 A 
ATOM     34  C   UNL A   1      39.089  28.054  29.070  1.00  0.00    -0.014 A 
BRANCH  34  35
ATOM     35  C   UNL A   1      40.372  27.382  29.193  1.00  0.00     0.031 A 
ATOM     36  C   UNL A   1      40.701  26.114  28.541  1.00  0.00     0.074 A 
ATOM     37  C   UNL A   1      41.332  28.257  29.580  1.00  0.00     0.049 A 
ATOM     38  N   UNL A   1      41.620  25.321  28.976  1.00  0.00    -0.248 NA
ATOM     39  C   UNL A   1      40.049  25.646  27.320  1.00  0.00     0.031 C 
ATOM     40  C   UNL A   1      42.763  28.265  29.342  1.00  0.00     0.029 A 
ATOM     41  N   UNL A   1      41.104  29.467  30.259  1.00  0.00    -0.354 N 
ATOM     42  C   UNL A   1      41.897  24.446  27.950  1.00  0.00     0.074 A 
ATOM     43  C   UNL A   1      40.807  24.585  27.009  1.00  0.00     0.031 C 
ATOM     44  C   UNL A   1      43.312  29.236  30.103  1.00  0.00     0.029 A 
ATOM     45  C   UNL A   1      42.262  29.788  30.955  1.00  0.00     0.049 A 
ATOM     46  H   UNL A   1      40.271  29.993  30.245  1.00  0.00     0.167 HD
ATOM     47  C   UNL A   1      43.131  23.870  27.862  1.00  0.00     0.037 A 
ATOM     48  C   UNL A   1      42.176  29.726  32.316  1.00  0.00     0.037 A 
ATOM     49  C   UNL A   1      44.052  24.501  28.806  1.00  0.00     0.049 A 
ATOM     50  C   UNL A   1      42.973  28.556  32.822  1.00  0.00     0.074 A 
ATOM     51  C   UNL A   1      44.964  25.528  28.616  1.00  0.00     0.029 A 
ATOM     52  N   UNL A   1      43.855  24.402  30.181  1.00  0.00    -0.354 N 
ATOM     53  N   UNL A   1      43.250  27.506  32.101  1.00  0.00    -0.248 NA
ATOM     54  C   UNL A   1      43.531  28.490  34.164  1.00  0.00     0.031 C 
ATOM     55  C   UNL A   1      45.266  26.092  29.876  1.00  0.00     0.029 A 
ATOM     56  C   UNL A   1      44.553  25.401  30.841  1.00  0.00     0.049 A 
ATOM     57  H   UNL A   1      43.300  23.719  30.622  1.00  0.00     0.167 HD
ATOM     58  C   UNL A   1      44.044  26.665  32.819  1.00  0.00     0.074 A 
ATOM     59  C   UNL A   1      44.179  27.313  34.112  1.00  0.00     0.031 C 
ATOM     60  C   UNL A   1      44.540  25.509  32.290  1.00  0.00     0.037 A 
BRANCH  47  61
ATOM     61  C   UNL A   1      43.579  23.031  26.686  1.00  0.00     0.064 A 
ATOM     62  C   UNL A   1      43.271  21.656  26.591  1.00  0.00     0.173 A 
ATOM     63  C   UNL A   1      44.301  23.557  25.598  1.00  0.00     0.173 A 
ATOM     64  F   UNL A   1      42.524  21.037  27.512  1.00  0.00    -0.203 F 
ATOM     65  C   UNL A   1      43.725  20.855  25.539  1.00  0.00     0.198 A 
ATOM     66  C   UNL A   1      44.781  22.748  24.558  1.00  0.00     0.198 A 
ATOM     67  F   UNL A   1      44.543  24.872  25.505  1.00  0.00    -0.203 F 
ATOM     68  F   UNL A   1      43.411  19.552  25.514  1.00  0.00    -0.200 F 
ATOM     69  C   UNL A   1      44.499  21.396  24.533  1.00  0.00     0.200 A 
ATOM     70  F   UNL A   1      45.519  23.290  23.579  1.00  0.00    -0.200 F 
ATOM     71  F   UNL A   1      44.955  20.622  23.540  1.00  0.00    -0.200 F 
ENDBRANCH  47  61
BRANCH  48  72
ATOM     72  C   UNL A   1      40.820  30.134  32.833  1.00  0.00     0.064 A 
ATOM     73  C   UNL A   1      40.448  31.497  32.756  1.00  0.00     0.173 A 
ATOM     74  C   UNL A   1      39.786  29.213  33.053  1.00  0.00     0.173 A 
ATOM     75  F   UNL A   1      41.381  32.432  32.506  1.00  0.00    -0.203 F 
ATOM     76  C   UNL A   1      39.113  31.903  32.810  1.00  0.00     0.198 A 
ATOM     77  C   UNL A   1      38.448  29.627  33.121  1.00  0.00     0.198 A 
ATOM     78  F   UNL A   1      40.047  27.901  33.113  1.00  0.00    -0.203 F 
ATOM     79  F   UNL A   1      38.800  33.194  32.626  1.00  0.00    -0.200 F 
ATOM     80  C   UNL A   1      38.112  30.965  32.978  1.00  0.00     0.200 A 
ATOM     81  F   UNL A   1      37.474  28.715  33.255  1.00  0.00    -0.200 F 
ATOM     82  F   UNL A   1      36.826  31.342  32.968  1.00  0.00    -0.200 F 
ENDBRANCH  48  72
BRANCH  60  83
ATOM     83  C   UNL A   1      45.190  24.433  33.100  1.00  0.00     0.064 A 
ATOM     84  C   UNL A   1      46.470  24.571  33.657  1.00  0.00     0.173 A 
ATOM     85  C   UNL A   1      44.467  23.278  33.471  1.00  0.00     0.173 A 
ATOM     86  F   UNL A   1      47.193  25.685  33.474  1.00  0.00    -0.203 F 
ATOM     87  C   UNL A   1      47.024  23.580  34.464  1.00  0.00     0.198 A 
ATOM     88  C   UNL A   1      44.999  22.323  34.330  1.00  0.00     0.198 A 
ATOM     89  F   UNL A   1      43.219  23.058  33.031  1.00  0.00    -0.203 F 
ATOM     90  F   UNL A   1      48.272  23.729  34.930  1.00  0.00    -0.200 F 
ATOM     91  C   UNL A   1      46.285  22.464  34.809  1.00  0.00     0.200 A 
ATOM     92  F   UNL A   1      44.250  21.277  34.704  1.00  0.00    -0.200 F 
ATOM     93  F   UNL A   1      46.805  21.535  35.622  1.00  0.00    -0.200 F 
ENDBRANCH  60  83
ENDBRANCH  34  35
ENDBRANCH  27  29
ENDBRANCH  26  27
ENDBRANCH  25  26
ENDBRANCH   1  25
TORSDOF 15
ENDMDL
