MODEL 1
REMARK VINA RESULT:     -11.1      0.000      0.000
REMARK SMILES O=C(Cn1nc(C2CC2)c2c(C(F)F)cc(-c3ccc(Cl)cc3)nc21)OCCOC(=O)c1ccc(-c2c3nc(c(-c4c(F)c(F)c(F)c(F)c4F)c4ccc([nH]4)c(-c4c(F)c(F)c(F)c(F)c4F)c4nc(c(-c5c(F)c(F)c(F)c(F)c5F)c5ccc2[nH]5)C=C4)C=C3)cc1
REMARK SMILES IDX 27 1 26 2 2 3 1 4 3 5 4 6 5 7 25 8 6 9 10 10 24 11 11 12
REMARK SMILES IDX 16 13 15 14 7 15 8 16 9 17 12 18 13 19 14 20 17 21 18 22
REMARK SMILES IDX 23 23 19 24 22 25 20 26 21 27 28 28 29 29 30 30 31 31 32 32
REMARK SMILES IDX 33 33 94 34 34 35 93 36 35 37 36 38 37 39 87 40 38 41 92 42
REMARK SMILES IDX 86 43 88 44 39 45 91 46 85 47 84 48 40 50 72 51 52 52 71 53
REMARK SMILES IDX 53 54 56 55 70 56 89 57 54 58 55 59 69 61 90 62 57 63 41 64
REMARK SMILES IDX 42 65 50 66 43 67 44 68 48 69 51 70 45 71 46 72 49 73 47 74
REMARK SMILES IDX 73 75 74 76 82 77 75 78 76 79 80 80 83 81 77 82 78 83 81 84
REMARK SMILES IDX 79 85 58 86 59 87 67 88 60 89 61 90 65 91 68 92 62 93 63 94
REMARK SMILES IDX 66 95 64 96
REMARK H PARENT 88 49 56 60
REMARK Flexibility Score: inf
ROOT
ATOM      1  C   UNL A   1      42.096  20.406  26.260  1.00  0.00     0.274 C 
ENDROOT
BRANCH   1   2
ATOM      2  O   UNL A   1      43.018  21.504  26.451  1.00  0.00    -0.461 OA
BRANCH   2   3
ATOM      3  C   UNL A   1      43.923  21.987  25.564  1.00  0.00     0.327 C 
ATOM      4  O   UNL A   1      43.534  22.389  24.465  1.00  0.00    -0.250 OA
BRANCH   3   5
ATOM      5  C   UNL A   1      45.401  21.978  25.877  1.00  0.00     0.269 C 
BRANCH   5   6
ATOM      6  N   UNL A   1      46.000  23.286  25.982  1.00  0.00    -0.236 N 
ATOM      7  N   UNL A   1      46.627  23.800  24.929  1.00  0.00    -0.174 NA
ATOM      8  C   UNL A   1      45.992  24.115  27.072  1.00  0.00     0.159 A 
ATOM      9  C   UNL A   1      47.147  24.947  25.361  1.00  0.00     0.076 A 
ATOM     10  C   UNL A   1      46.779  25.225  26.716  1.00  0.00     0.051 A 
ATOM     11  N   UNL A   1      45.352  23.869  28.243  1.00  0.00    -0.228 NA
ATOM     12  C   UNL A   1      46.945  26.210  27.720  1.00  0.00     0.033 A 
ATOM     13  C   UNL A   1      45.493  24.851  29.156  1.00  0.00     0.073 A 
ATOM     14  C   UNL A   1      46.265  25.989  28.935  1.00  0.00     0.039 A 
BRANCH   9  15
ATOM     15  C   UNL A   1      48.013  25.625  24.313  1.00  0.00     0.041 C 
ATOM     16  C   UNL A   1      48.283  27.081  24.128  1.00  0.00     0.011 C 
ATOM     17  C   UNL A   1      49.319  26.220  24.779  1.00  0.00     0.011 C 
ENDBRANCH   9  15
BRANCH  12  18
ATOM     18  C   UNL A   1      47.730  27.486  27.623  1.00  0.00     0.373 C 
ATOM     19  F   UNL A   1      47.164  28.411  26.807  1.00  0.00    -0.205 F 
ATOM     20  F   UNL A   1      47.926  28.071  28.833  1.00  0.00    -0.205 F 
ENDBRANCH  12  18
BRANCH  13  21
ATOM     21  C   UNL A   1      44.837  24.700  30.470  1.00  0.00     0.000 A 
ATOM     22  C   UNL A   1      44.236  23.488  30.848  1.00  0.00     0.012 A 
ATOM     23  C   UNL A   1      44.965  25.707  31.450  1.00  0.00     0.012 A 
ATOM     24  C   UNL A   1      43.848  23.264  32.176  1.00  0.00     0.021 A 
ATOM     25  C   UNL A   1      44.576  25.486  32.775  1.00  0.00     0.021 A 
ATOM     26  C   UNL A   1      44.038  24.256  33.136  1.00  0.00     0.041 A 
ATOM     27  Cl  UNL A   1      43.637  23.950  34.781  1.00  0.00    -0.084 Cl
ENDBRANCH  13  21
ENDBRANCH   5   6
ENDBRANCH   3   5
ENDBRANCH   2   3
ENDBRANCH   1   2
BRANCH   1  28
ATOM     28  C   UNL A   1      40.876  20.549  27.151  1.00  0.00     0.275 C 
BRANCH  28  29
ATOM     29  O   UNL A   1      40.862  21.856  27.709  1.00  0.00    -0.458 OA
BRANCH  29  30
ATOM     30  C   UNL A   1      40.025  22.743  27.120  1.00  0.00     0.338 C 
ATOM     31  O   UNL A   1      38.972  22.521  26.570  1.00  0.00    -0.246 OA
BRANCH  30  32
ATOM     32  C   UNL A   1      40.648  24.067  27.224  1.00  0.00     0.060 A 
ATOM     33  C   UNL A   1      41.680  24.235  28.149  1.00  0.00     0.016 A 
ATOM     34  C   UNL A   1      40.046  25.151  26.569  1.00  0.00     0.016 A 
ATOM     35  C   UNL A   1      41.956  25.512  28.586  1.00  0.00     0.010 A 
ATOM     36  C   UNL A   1      40.295  26.414  27.026  1.00  0.00     0.010 A 
ATOM     37  C   UNL A   1      41.178  26.562  28.088  1.00  0.00    -0.014 A 
BRANCH  37  38
ATOM     38  C   UNL A   1      41.298  27.866  28.690  1.00  0.00     0.031 A 
ATOM     39  C   UNL A   1      42.527  28.582  28.295  1.00  0.00     0.074 A 
ATOM     40  C   UNL A   1      40.302  28.379  29.437  1.00  0.00     0.049 A 
ATOM     41  N   UNL A   1      43.535  28.863  29.047  1.00  0.00    -0.248 NA
ATOM     42  C   UNL A   1      42.739  28.871  26.867  1.00  0.00     0.031 C 
ATOM     43  C   UNL A   1      38.949  27.855  29.648  1.00  0.00     0.029 A 
ATOM     44  N   UNL A   1      40.282  29.551  30.121  1.00  0.00    -0.354 N 
ATOM     45  C   UNL A   1      44.432  29.540  28.232  1.00  0.00     0.074 A 
ATOM     46  C   UNL A   1      43.981  29.353  26.878  1.00  0.00     0.031 C 
ATOM     47  C   UNL A   1      38.184  28.810  30.230  1.00  0.00     0.029 A 
ATOM     48  C   UNL A   1      39.025  29.950  30.554  1.00  0.00     0.049 A 
ATOM     49  H   UNL A   1      41.096  30.077  30.297  1.00  0.00     0.167 HD
ATOM     50  C   UNL A   1      45.325  30.416  28.764  1.00  0.00     0.037 A 
ATOM     51  C   UNL A   1      38.720  31.164  31.079  1.00  0.00     0.037 A 
ATOM     52  C   UNL A   1      45.478  30.203  30.181  1.00  0.00     0.049 A 
ATOM     53  C   UNL A   1      39.996  31.759  31.559  1.00  0.00     0.074 A 
ATOM     54  C   UNL A   1      45.935  29.155  30.956  1.00  0.00     0.029 A 
ATOM     55  N   UNL A   1      44.764  31.014  31.027  1.00  0.00    -0.354 N 
ATOM     56  N   UNL A   1      40.681  31.284  32.563  1.00  0.00    -0.248 NA
ATOM     57  C   UNL A   1      40.749  32.580  30.622  1.00  0.00     0.031 C 
ATOM     58  C   UNL A   1      45.089  29.147  32.105  1.00  0.00     0.029 A 
ATOM     59  C   UNL A   1      44.209  30.226  32.001  1.00  0.00     0.049 A 
ATOM     60  H   UNL A   1      44.667  31.992  30.948  1.00  0.00     0.167 HD
ATOM     61  C   UNL A   1      42.006  31.379  32.165  1.00  0.00     0.074 A 
ATOM     62  C   UNL A   1      41.989  32.252  30.992  1.00  0.00     0.031 C 
ATOM     63  C   UNL A   1      42.945  30.509  32.640  1.00  0.00     0.037 A 
BRANCH  50  64
ATOM     64  C   UNL A   1      45.754  31.687  28.085  1.00  0.00     0.064 A 
ATOM     65  C   UNL A   1      44.776  32.631  27.721  1.00  0.00     0.173 A 
ATOM     66  C   UNL A   1      47.034  31.884  27.521  1.00  0.00     0.173 A 
ATOM     67  F   UNL A   1      43.519  32.521  28.176  1.00  0.00    -0.203 F 
ATOM     68  C   UNL A   1      45.045  33.653  26.807  1.00  0.00     0.198 A 
ATOM     69  C   UNL A   1      47.312  32.938  26.655  1.00  0.00     0.198 A 
ATOM     70  F   UNL A   1      48.031  31.006  27.685  1.00  0.00    -0.203 F 
ATOM     71  F   UNL A   1      44.051  34.451  26.393  1.00  0.00    -0.200 F 
ATOM     72  C   UNL A   1      46.312  33.804  26.274  1.00  0.00     0.200 A 
ATOM     73  F   UNL A   1      48.541  33.052  26.130  1.00  0.00    -0.200 F 
ATOM     74  F   UNL A   1      46.556  34.746  25.355  1.00  0.00    -0.200 F 
ENDBRANCH  50  64
BRANCH  51  75
ATOM     75  C   UNL A   1      37.512  31.994  30.836  1.00  0.00     0.064 A 
ATOM     76  C   UNL A   1      37.253  32.527  29.561  1.00  0.00     0.173 A 
ATOM     77  C   UNL A   1      36.443  32.021  31.751  1.00  0.00     0.173 A 
ATOM     78  F   UNL A   1      38.204  32.503  28.615  1.00  0.00    -0.203 F 
ATOM     79  C   UNL A   1      35.990  33.017  29.210  1.00  0.00     0.198 A 
ATOM     80  C   UNL A   1      35.184  32.515  31.401  1.00  0.00     0.198 A 
ATOM     81  F   UNL A   1      36.564  31.477  32.970  1.00  0.00    -0.203 F 
ATOM     82  F   UNL A   1      35.763  33.449  27.962  1.00  0.00    -0.200 F 
ATOM     83  C   UNL A   1      34.953  32.997  30.126  1.00  0.00     0.200 A 
ATOM     84  F   UNL A   1      34.178  32.456  32.287  1.00  0.00    -0.200 F 
ATOM     85  F   UNL A   1      33.724  33.398  29.771  1.00  0.00    -0.200 F 
ENDBRANCH  51  75
BRANCH  63  86
ATOM     86  C   UNL A   1      42.554  29.617  33.787  1.00  0.00     0.064 A 
ATOM     87  C   UNL A   1      42.003  28.333  33.635  1.00  0.00     0.173 A 
ATOM     88  C   UNL A   1      42.902  30.017  35.083  1.00  0.00     0.173 A 
ATOM     89  F   UNL A   1      41.728  27.840  32.421  1.00  0.00    -0.203 F 
ATOM     90  C   UNL A   1      41.784  27.503  34.734  1.00  0.00     0.198 A 
ATOM     91  C   UNL A   1      42.718  29.173  36.175  1.00  0.00     0.198 A 
ATOM     92  F   UNL A   1      43.480  31.212  35.283  1.00  0.00    -0.203 F 
ATOM     93  F   UNL A   1      41.254  26.283  34.563  1.00  0.00    -0.200 F 
ATOM     94  C   UNL A   1      42.152  27.921  36.002  1.00  0.00     0.200 A 
ATOM     95  F   UNL A   1      43.121  29.564  37.392  1.00  0.00    -0.200 F 
ATOM     96  F   UNL A   1      41.989  27.106  37.054  1.00  0.00    -0.200 F 
ENDBRANCH  63  86
ENDBRANCH  37  38
ENDBRANCH  30  32
ENDBRANCH  29  30
ENDBRANCH  28  29
ENDBRANCH   1  28
TORSDOF 15
ENDMDL
MODEL 2
REMARK VINA RESULT:     -10.6      3.952     10.766
REMARK SMILES O=C(Cn1nc(C2CC2)c2c(C(F)F)cc(-c3ccc(Cl)cc3)nc21)OCCOC(=O)c1ccc(-c2c3nc(c(-c4c(F)c(F)c(F)c(F)c4F)c4ccc([nH]4)c(-c4c(F)c(F)c(F)c(F)c4F)c4nc(c(-c5c(F)c(F)c(F)c(F)c5F)c5ccc2[nH]5)C=C4)C=C3)cc1
REMARK SMILES IDX 27 1 26 2 2 3 1 4 3 5 4 6 5 7 25 8 6 9 10 10 24 11 11 12
REMARK SMILES IDX 16 13 15 14 7 15 8 16 9 17 12 18 13 19 14 20 17 21 18 22
REMARK SMILES IDX 23 23 19 24 22 25 20 26 21 27 28 28 29 29 30 30 31 31 32 32
REMARK SMILES IDX 33 33 94 34 34 35 93 36 35 37 36 38 37 39 87 40 38 41 92 42
REMARK SMILES IDX 86 43 88 44 39 45 91 46 85 47 84 48 40 50 72 51 52 52 71 53
REMARK SMILES IDX 53 54 56 55 70 56 89 57 54 58 55 59 69 61 90 62 57 63 41 64
REMARK SMILES IDX 42 65 50 66 43 67 44 68 48 69 51 70 45 71 46 72 49 73 47 74
REMARK SMILES IDX 73 75 74 76 82 77 75 78 76 79 80 80 83 81 77 82 78 83 81 84
REMARK SMILES IDX 79 85 58 86 59 87 67 88 60 89 61 90 65 91 68 92 62 93 63 94
REMARK SMILES IDX 66 95 64 96
REMARK H PARENT 88 49 56 60
REMARK Flexibility Score: inf
ROOT
ATOM      1  C   UNL A   1      33.977  34.258  29.392  1.00  0.00     0.274 C 
ENDROOT
BRANCH   1   2
ATOM      2  O   UNL A   1      35.053  34.344  30.353  1.00  0.00    -0.461 OA
BRANCH   2   3
ATOM      3  C   UNL A   1      34.984  34.138  31.693  1.00  0.00     0.327 C 
ATOM      4  O   UNL A   1      34.225  33.270  32.130  1.00  0.00    -0.250 OA
BRANCH   3   5
ATOM      5  C   UNL A   1      35.768  34.999  32.654  1.00  0.00     0.269 C 
BRANCH   5   6
ATOM      6  N   UNL A   1      36.759  34.288  33.425  1.00  0.00    -0.236 N 
ATOM      7  N   UNL A   1      36.430  33.803  34.617  1.00  0.00    -0.174 NA
ATOM      8  C   UNL A   1      38.052  34.020  33.063  1.00  0.00     0.159 A 
ATOM      9  C   UNL A   1      37.560  33.299  35.111  1.00  0.00     0.076 A 
ATOM     10  C   UNL A   1      38.640  33.391  34.175  1.00  0.00     0.051 A 
ATOM     11  N   UNL A   1      38.616  34.330  31.867  1.00  0.00    -0.228 NA
ATOM     12  C   UNL A   1      40.008  33.052  34.040  1.00  0.00     0.033 A 
ATOM     13  C   UNL A   1      39.904  33.949  31.759  1.00  0.00     0.073 A 
ATOM     14  C   UNL A   1      40.606  33.339  32.795  1.00  0.00     0.039 A 
BRANCH   9  15
ATOM     15  C   UNL A   1      37.402  32.801  36.536  1.00  0.00     0.041 C 
ATOM     16  C   UNL A   1      38.283  31.872  37.302  1.00  0.00     0.011 C 
ATOM     17  C   UNL A   1      38.362  33.343  37.566  1.00  0.00     0.011 C 
ENDBRANCH   9  15
BRANCH  12  18
ATOM     18  C   UNL A   1      40.886  32.383  35.058  1.00  0.00     0.373 C 
ATOM     19  F   UNL A   1      41.090  33.129  36.173  1.00  0.00    -0.205 F 
ATOM     20  F   UNL A   1      40.402  31.177  35.453  1.00  0.00    -0.205 F 
ENDBRANCH  12  18
BRANCH  13  21
ATOM     21  C   UNL A   1      40.624  34.226  30.501  1.00  0.00     0.000 A 
ATOM     22  C   UNL A   1      40.021  34.953  29.462  1.00  0.00     0.012 A 
ATOM     23  C   UNL A   1      42.000  33.933  30.388  1.00  0.00     0.012 A 
ATOM     24  C   UNL A   1      40.781  35.436  28.388  1.00  0.00     0.021 A 
ATOM     25  C   UNL A   1      42.760  34.412  29.316  1.00  0.00     0.021 A 
ATOM     26  C   UNL A   1      42.149  35.179  28.330  1.00  0.00     0.041 A 
ATOM     27  Cl  UNL A   1      43.096  35.841  27.055  1.00  0.00    -0.084 Cl
ENDBRANCH  13  21
ENDBRANCH   5   6
ENDBRANCH   3   5
ENDBRANCH   2   3
ENDBRANCH   1   2
BRANCH   1  28
ATOM     28  C   UNL A   1      34.510  34.105  27.979  1.00  0.00     0.275 C 
BRANCH  28  29
ATOM     29  O   UNL A   1      35.652  33.259  28.006  1.00  0.00    -0.458 OA
BRANCH  29  30
ATOM     30  C   UNL A   1      35.403  31.928  28.002  1.00  0.00     0.338 C 
ATOM     31  O   UNL A   1      34.486  31.343  27.475  1.00  0.00    -0.246 OA
BRANCH  30  32
ATOM     32  C   UNL A   1      36.444  31.286  28.811  1.00  0.00     0.060 A 
ATOM     33  C   UNL A   1      37.564  32.045  29.159  1.00  0.00     0.016 A 
ATOM     34  C   UNL A   1      36.389  29.899  29.009  1.00  0.00     0.016 A 
ATOM     35  C   UNL A   1      38.719  31.375  29.499  1.00  0.00     0.010 A 
ATOM     36  C   UNL A   1      37.543  29.233  29.312  1.00  0.00     0.010 A 
ATOM     37  C   UNL A   1      38.706  29.977  29.463  1.00  0.00    -0.014 A 
BRANCH  37  38
ATOM     38  C   UNL A   1      39.951  29.263  29.596  1.00  0.00     0.031 A 
ATOM     39  C   UNL A   1      40.413  29.151  30.994  1.00  0.00     0.074 A 
ATOM     40  C   UNL A   1      40.532  28.677  28.533  1.00  0.00     0.049 A 
ATOM     41  N   UNL A   1      41.441  29.726  31.518  1.00  0.00    -0.248 NA
ATOM     42  C   UNL A   1      39.547  28.462  31.963  1.00  0.00     0.031 C 
ATOM     43  C   UNL A   1      40.004  28.506  27.176  1.00  0.00     0.029 A 
ATOM     44  N   UNL A   1      41.724  28.030  28.476  1.00  0.00    -0.354 N 
ATOM     45  C   UNL A   1      41.464  29.314  32.843  1.00  0.00     0.074 A 
ATOM     46  C   UNL A   1      40.189  28.699  33.106  1.00  0.00     0.031 C 
ATOM     47  C   UNL A   1      40.778  27.623  26.501  1.00  0.00     0.029 A 
ATOM     48  C   UNL A   1      41.924  27.279  27.326  1.00  0.00     0.049 A 
ATOM     49  H   UNL A   1      42.396  28.090  29.194  1.00  0.00     0.167 HD
ATOM     50  C   UNL A   1      42.632  29.283  33.538  1.00  0.00     0.037 A 
ATOM     51  C   UNL A   1      42.936  26.396  27.126  1.00  0.00     0.037 A 
ATOM     52  C   UNL A   1      43.639  30.088  32.895  1.00  0.00     0.049 A 
ATOM     53  C   UNL A   1      44.013  26.751  28.089  1.00  0.00     0.074 A 
ATOM     54  C   UNL A   1      43.762  31.433  32.608  1.00  0.00     0.029 A 
ATOM     55  N   UNL A   1      44.548  29.447  32.091  1.00  0.00    -0.354 N 
ATOM     56  N   UNL A   1      44.706  27.854  28.023  1.00  0.00    -0.248 NA
ATOM     57  C   UNL A   1      43.984  26.108  29.395  1.00  0.00     0.031 C 
ATOM     58  C   UNL A   1      44.394  31.484  31.330  1.00  0.00     0.029 A 
ATOM     59  C   UNL A   1      44.681  30.175  30.938  1.00  0.00     0.049 A 
ATOM     60  H   UNL A   1      45.022  28.610  32.305  1.00  0.00     0.167 HD
ATOM     61  C   UNL A   1      44.836  28.269  29.341  1.00  0.00     0.074 A 
ATOM     62  C   UNL A   1      44.435  27.116  30.145  1.00  0.00     0.031 C 
ATOM     63  C   UNL A   1      44.971  29.592  29.648  1.00  0.00     0.037 A 
BRANCH  50  64
ATOM     64  C   UNL A   1      42.966  28.236  34.564  1.00  0.00     0.064 A 
ATOM     65  C   UNL A   1      43.337  28.641  35.859  1.00  0.00     0.173 A 
ATOM     66  C   UNL A   1      43.220  26.882  34.251  1.00  0.00     0.173 A 
ATOM     67  F   UNL A   1      43.169  29.914  36.250  1.00  0.00    -0.203 F 
ATOM     68  C   UNL A   1      43.975  27.773  36.747  1.00  0.00     0.198 A 
ATOM     69  C   UNL A   1      43.803  26.004  35.161  1.00  0.00     0.198 A 
ATOM     70  F   UNL A   1      43.025  26.381  33.025  1.00  0.00    -0.203 F 
ATOM     71  F   UNL A   1      44.424  28.236  37.922  1.00  0.00    -0.200 F 
ATOM     72  C   UNL A   1      44.209  26.455  36.397  1.00  0.00     0.200 A 
ATOM     73  F   UNL A   1      44.044  24.737  34.791  1.00  0.00    -0.200 F 
ATOM     74  F   UNL A   1      44.871  25.637  37.224  1.00  0.00    -0.200 F 
ENDBRANCH  50  64
BRANCH  51  75
ATOM     75  C   UNL A   1      42.880  25.065  26.469  1.00  0.00     0.064 A 
ATOM     76  C   UNL A   1      43.766  24.743  25.426  1.00  0.00     0.173 A 
ATOM     77  C   UNL A   1      42.180  23.989  27.047  1.00  0.00     0.173 A 
ATOM     78  F   UNL A   1      44.503  25.703  24.847  1.00  0.00    -0.203 F 
ATOM     79  C   UNL A   1      43.971  23.421  25.017  1.00  0.00     0.198 A 
ATOM     80  C   UNL A   1      42.383  22.671  26.634  1.00  0.00     0.198 A 
ATOM     81  F   UNL A   1      41.363  24.180  28.092  1.00  0.00    -0.203 F 
ATOM     82  F   UNL A   1      44.879  23.147  24.069  1.00  0.00    -0.200 F 
ATOM     83  C   UNL A   1      43.290  22.384  25.631  1.00  0.00     0.200 A 
ATOM     84  F   UNL A   1      41.743  21.673  27.263  1.00  0.00    -0.200 F 
ATOM     85  F   UNL A   1      43.538  21.112  25.291  1.00  0.00    -0.200 F 
ENDBRANCH  51  75
BRANCH  63  86
ATOM     86  C   UNL A   1      45.224  30.551  28.517  1.00  0.00     0.064 A 
ATOM     87  C   UNL A   1      44.211  31.220  27.808  1.00  0.00     0.173 A 
ATOM     88  C   UNL A   1      46.548  30.925  28.251  1.00  0.00     0.173 A 
ATOM     89  F   UNL A   1      42.919  30.987  28.067  1.00  0.00    -0.203 F 
ATOM     90  C   UNL A   1      44.514  32.195  26.858  1.00  0.00     0.198 A 
ATOM     91  C   UNL A   1      46.846  31.924  27.330  1.00  0.00     0.198 A 
ATOM     92  F   UNL A   1      47.554  30.357  28.934  1.00  0.00    -0.203 F 
ATOM     93  F   UNL A   1      43.529  32.817  26.192  1.00  0.00    -0.200 F 
ATOM     94  C   UNL A   1      45.832  32.553  26.628  1.00  0.00     0.200 A 
ATOM     95  F   UNL A   1      48.120  32.300  27.148  1.00  0.00    -0.200 F 
ATOM     96  F   UNL A   1      46.123  33.525  25.751  1.00  0.00    -0.200 F 
ENDBRANCH  63  86
ENDBRANCH  37  38
ENDBRANCH  30  32
ENDBRANCH  29  30
ENDBRANCH  28  29
ENDBRANCH   1  28
TORSDOF 15
ENDMDL
MODEL 3
REMARK VINA RESULT:     -10.5      3.962     10.941
REMARK SMILES O=C(Cn1nc(C2CC2)c2c(C(F)F)cc(-c3ccc(Cl)cc3)nc21)OCCOC(=O)c1ccc(-c2c3nc(c(-c4c(F)c(F)c(F)c(F)c4F)c4ccc([nH]4)c(-c4c(F)c(F)c(F)c(F)c4F)c4nc(c(-c5c(F)c(F)c(F)c(F)c5F)c5ccc2[nH]5)C=C4)C=C3)cc1
REMARK SMILES IDX 27 1 26 2 2 3 1 4 3 5 4 6 5 7 25 8 6 9 10 10 24 11 11 12
REMARK SMILES IDX 16 13 15 14 7 15 8 16 9 17 12 18 13 19 14 20 17 21 18 22
REMARK SMILES IDX 23 23 19 24 22 25 20 26 21 27 28 28 29 29 30 30 31 31 32 32
REMARK SMILES IDX 33 33 94 34 34 35 93 36 35 37 36 38 37 39 87 40 38 41 92 42
REMARK SMILES IDX 86 43 88 44 39 45 91 46 85 47 84 48 40 50 72 51 52 52 71 53
REMARK SMILES IDX 53 54 56 55 70 56 89 57 54 58 55 59 69 61 90 62 57 63 41 64
REMARK SMILES IDX 42 65 50 66 43 67 44 68 48 69 51 70 45 71 46 72 49 73 47 74
REMARK SMILES IDX 73 75 74 76 82 77 75 78 76 79 80 80 83 81 77 82 78 83 81 84
REMARK SMILES IDX 79 85 58 86 59 87 67 88 60 89 61 90 65 91 68 92 62 93 63 94
REMARK SMILES IDX 66 95 64 96
REMARK H PARENT 88 49 56 60
REMARK Flexibility Score: inf
ROOT
ATOM      1  C   UNL A   1      34.056  34.164  29.313  1.00  0.00     0.274 C 
ENDROOT
BRANCH   1   2
ATOM      2  O   UNL A   1      35.057  34.305  30.346  1.00  0.00    -0.461 OA
BRANCH   2   3
ATOM      3  C   UNL A   1      34.895  34.136  31.683  1.00  0.00     0.327 C 
ATOM      4  O   UNL A   1      34.158  33.235  32.091  1.00  0.00    -0.250 OA
BRANCH   3   5
ATOM      5  C   UNL A   1      35.549  35.072  32.671  1.00  0.00     0.269 C 
BRANCH   5   6
ATOM      6  N   UNL A   1      36.528  34.451  33.529  1.00  0.00    -0.236 N 
ATOM      7  N   UNL A   1      36.167  34.048  34.743  1.00  0.00    -0.174 NA
ATOM      8  C   UNL A   1      37.841  34.194  33.235  1.00  0.00     0.159 A 
ATOM      9  C   UNL A   1      37.291  33.617  35.314  1.00  0.00     0.076 A 
ATOM     10  C   UNL A   1      38.402  33.668  34.412  1.00  0.00     0.051 A 
ATOM     11  N   UNL A   1      38.441  34.428  32.040  1.00  0.00    -0.228 NA
ATOM     12  C   UNL A   1      39.783  33.361  34.354  1.00  0.00     0.033 A 
ATOM     13  C   UNL A   1      39.742  34.077  32.008  1.00  0.00     0.073 A 
ATOM     14  C   UNL A   1      40.420  33.568  33.112  1.00  0.00     0.039 A 
BRANCH   9  15
ATOM     15  C   UNL A   1      37.092  33.225  36.767  1.00  0.00     0.041 C 
ATOM     16  C   UNL A   1      37.919  32.310  37.607  1.00  0.00     0.011 C 
ATOM     17  C   UNL A   1      38.064  33.790  37.772  1.00  0.00     0.011 C 
ENDBRANCH   9  15
BRANCH  12  18
ATOM     18  C   UNL A   1      40.639  32.797  35.451  1.00  0.00     0.373 C 
ATOM     19  F   UNL A   1      41.599  31.947  35.008  1.00  0.00    -0.205 F 
ATOM     20  F   UNL A   1      41.251  33.763  36.184  1.00  0.00    -0.205 F 
ENDBRANCH  12  18
BRANCH  13  21
ATOM     21  C   UNL A   1      40.502  34.279  30.758  1.00  0.00     0.000 A 
ATOM     22  C   UNL A   1      39.949  34.983  29.676  1.00  0.00     0.012 A 
ATOM     23  C   UNL A   1      41.869  33.935  30.693  1.00  0.00     0.012 A 
ATOM     24  C   UNL A   1      40.751  35.395  28.604  1.00  0.00     0.021 A 
ATOM     25  C   UNL A   1      42.670  34.344  29.622  1.00  0.00     0.021 A 
ATOM     26  C   UNL A   1      42.111  35.090  28.591  1.00  0.00     0.041 A 
ATOM     27  Cl  UNL A   1      43.110  35.668  27.315  1.00  0.00    -0.084 Cl
ENDBRANCH  13  21
ENDBRANCH   5   6
ENDBRANCH   3   5
ENDBRANCH   2   3
ENDBRANCH   1   2
BRANCH   1  28
ATOM     28  C   UNL A   1      34.692  34.062  27.939  1.00  0.00     0.275 C 
BRANCH  28  29
ATOM     29  O   UNL A   1      35.830  33.212  28.019  1.00  0.00    -0.458 OA
BRANCH  29  30
ATOM     30  C   UNL A   1      35.586  31.885  27.908  1.00  0.00     0.338 C 
ATOM     31  O   UNL A   1      34.678  31.341  27.325  1.00  0.00    -0.246 OA
BRANCH  30  32
ATOM     32  C   UNL A   1      36.621  31.185  28.676  1.00  0.00     0.060 A 
ATOM     33  C   UNL A   1      37.681  31.938  29.186  1.00  0.00     0.016 A 
ATOM     34  C   UNL A   1      36.631  29.783  28.678  1.00  0.00     0.016 A 
ATOM     35  C   UNL A   1      38.853  31.281  29.493  1.00  0.00     0.010 A 
ATOM     36  C   UNL A   1      37.802  29.134  28.949  1.00  0.00     0.010 A 
ATOM     37  C   UNL A   1      38.916  29.903  29.264  1.00  0.00    -0.014 A 
BRANCH  37  38
ATOM     38  C   UNL A   1      40.189  29.236  29.365  1.00  0.00     0.031 A 
ATOM     39  C   UNL A   1      40.612  28.993  30.759  1.00  0.00     0.074 A 
ATOM     40  C   UNL A   1      40.831  28.796  28.267  1.00  0.00     0.049 A 
ATOM     41  N   UNL A   1      41.594  29.554  31.379  1.00  0.00    -0.248 NA
ATOM     42  C   UNL A   1      39.750  28.164  31.616  1.00  0.00     0.031 C 
ATOM     43  C   UNL A   1      40.355  28.751  26.881  1.00  0.00     0.029 A 
ATOM     44  N   UNL A   1      42.055  28.214  28.185  1.00  0.00    -0.354 N 
ATOM     45  C   UNL A   1      41.594  29.000  32.653  1.00  0.00     0.074 A 
ATOM     46  C   UNL A   1      40.343  28.304  32.801  1.00  0.00     0.031 C 
ATOM     47  C   UNL A   1      41.193  27.982  26.144  1.00  0.00     0.029 A 
ATOM     48  C   UNL A   1      42.327  27.602  26.969  1.00  0.00     0.049 A 
ATOM     49  H   UNL A   1      42.700  28.225  28.930  1.00  0.00     0.167 HD
ATOM     50  C   UNL A   1      42.740  28.947  33.382  1.00  0.00     0.037 A 
ATOM     51  C   UNL A   1      43.387  26.794  26.713  1.00  0.00     0.037 A 
ATOM     52  C   UNL A   1      43.726  29.862  32.867  1.00  0.00     0.049 A 
ATOM     53  C   UNL A   1      44.415  27.089  27.748  1.00  0.00     0.074 A 
ATOM     54  C   UNL A   1      43.792  31.234  32.731  1.00  0.00     0.029 A 
ATOM     55  N   UNL A   1      44.691  29.353  32.033  1.00  0.00    -0.354 N 
ATOM     56  N   UNL A   1      45.055  28.223  27.826  1.00  0.00    -0.248 NA
ATOM     57  C   UNL A   1      44.375  26.306  28.975  1.00  0.00     0.031 C 
ATOM     58  C   UNL A   1      44.461  31.453  31.490  1.00  0.00     0.029 A 
ATOM     59  C   UNL A   1      44.824  30.209  30.970  1.00  0.00     0.049 A 
ATOM     60  H   UNL A   1      45.198  28.520  32.173  1.00  0.00     0.167 HD
ATOM     61  C   UNL A   1      45.123  28.497  29.184  1.00  0.00     0.074 A 
ATOM     62  C   UNL A   1      44.753  27.246  29.845  1.00  0.00     0.031 C 
ATOM     63  C   UNL A   1      45.183  29.784  29.637  1.00  0.00     0.037 A 
BRANCH  50  64
ATOM     64  C   UNL A   1      43.092  27.810  34.302  1.00  0.00     0.064 A 
ATOM     65  C   UNL A   1      43.388  26.550  33.748  1.00  0.00     0.173 A 
ATOM     66  C   UNL A   1      42.867  27.827  35.696  1.00  0.00     0.173 A 
ATOM     67  F   UNL A   1      43.589  26.415  32.429  1.00  0.00    -0.203 F 
ATOM     68  C   UNL A   1      43.390  25.389  34.524  1.00  0.00     0.198 A 
ATOM     69  C   UNL A   1      42.928  26.675  36.475  1.00  0.00     0.198 A 
ATOM     70  F   UNL A   1      42.466  28.929  36.343  1.00  0.00    -0.203 F 
ATOM     71  F   UNL A   1      43.552  24.197  33.933  1.00  0.00    -0.200 F 
ATOM     72  C   UNL A   1      43.158  25.452  35.886  1.00  0.00     0.200 A 
ATOM     73  F   UNL A   1      42.676  26.756  37.790  1.00  0.00    -0.200 F 
ATOM     74  F   UNL A   1      43.104  24.334  36.620  1.00  0.00    -0.200 F 
ENDBRANCH  50  64
BRANCH  51  75
ATOM     75  C   UNL A   1      43.417  25.541  25.915  1.00  0.00     0.064 A 
ATOM     76  C   UNL A   1      44.550  25.202  25.155  1.00  0.00     0.173 A 
ATOM     77  C   UNL A   1      42.477  24.514  26.123  1.00  0.00     0.173 A 
ATOM     78  F   UNL A   1      45.516  26.109  24.943  1.00  0.00    -0.203 F 
ATOM     79  C   UNL A   1      44.751  23.905  24.671  1.00  0.00     0.198 A 
ATOM     80  C   UNL A   1      42.676  23.221  25.635  1.00  0.00     0.198 A 
ATOM     81  F   UNL A   1      41.396  24.714  26.890  1.00  0.00    -0.203 F 
ATOM     82  F   UNL A   1      45.879  23.602  24.014  1.00  0.00    -0.200 F 
ATOM     83  C   UNL A   1      43.821  22.912  24.924  1.00  0.00     0.200 A 
ATOM     84  F   UNL A   1      41.785  22.259  25.919  1.00  0.00    -0.200 F 
ATOM     85  F   UNL A   1      44.045  21.652  24.524  1.00  0.00    -0.200 F 
ENDBRANCH  51  75
BRANCH  63  86
ATOM     86  C   UNL A   1      45.424  30.871  28.625  1.00  0.00     0.064 A 
ATOM     87  C   UNL A   1      46.697  31.252  28.165  1.00  0.00     0.173 A 
ATOM     88  C   UNL A   1      44.314  31.433  27.982  1.00  0.00     0.173 A 
ATOM     89  F   UNL A   1      47.807  30.692  28.663  1.00  0.00    -0.203 F 
ATOM     90  C   UNL A   1      46.848  32.175  27.131  1.00  0.00     0.198 A 
ATOM     91  C   UNL A   1      44.466  32.326  26.926  1.00  0.00     0.198 A 
ATOM     92  F   UNL A   1      43.075  31.068  28.345  1.00  0.00    -0.203 F 
ATOM     93  F   UNL A   1      48.073  32.524  26.712  1.00  0.00    -0.200 F 
ATOM     94  C   UNL A   1      45.731  32.703  26.505  1.00  0.00     0.200 A 
ATOM     95  F   UNL A   1      43.382  32.796  26.293  1.00  0.00    -0.200 F 
ATOM     96  F   UNL A   1      45.872  33.553  25.478  1.00  0.00    -0.200 F 
ENDBRANCH  63  86
ENDBRANCH  37  38
ENDBRANCH  30  32
ENDBRANCH  29  30
ENDBRANCH  28  29
ENDBRANCH   1  28
TORSDOF 15
ENDMDL
