MODEL 1
REMARK VINA RESULT:     -12.2      0.000      0.000
REMARK SMILES CC[C@@H]1SC[C@@H](C(=O)OCCOC(=O)c2ccc(-c3c4nc(c(-c5c(F)c(F)c(F)c(F)c5F)c5ccc([nH]5)c(-c5c(F)c(F)c(F)c(F)c5F)c5nc(c(-c6c(F)c(F)c(F)c(F)c6F)c6ccc3[nH]6)C=C5)C=C4)cc2)N1C(=O)c1nc(C(C)(C)C)n[nH]1
REMARK SMILES IDX 10 1 9 2 7 3 8 4 6 5 3 6 4 7 78 8 5 9 2 10 1 11 79 12 80 13
REMARK SMILES IDX 81 14 82 15 89 16 83 17 88 18 84 20 85 21 86 22 87 23 11 24
REMARK SMILES IDX 12 25 13 26 14 27 15 28 16 29 77 30 17 31 76 32 18 33 19 34
REMARK SMILES IDX 20 35 70 36 21 37 75 38 69 39 71 40 22 41 74 42 68 43 67 44
REMARK SMILES IDX 23 46 55 47 35 48 54 49 36 50 39 51 53 52 72 53 37 54 38 55
REMARK SMILES IDX 52 57 73 58 40 59 24 60 25 61 33 62 26 63 27 64 31 65 34 66
REMARK SMILES IDX 28 67 29 68 32 69 30 70 56 71 57 72 65 73 58 74 59 75 63 76
REMARK SMILES IDX 66 77 60 78 61 79 64 80 62 81 41 82 42 83 50 84 43 85 44 86
REMARK SMILES IDX 48 87 51 88 45 89 46 90 49 91 47 92
REMARK H PARENT 89 19 71 45 39 56
REMARK Flexibility Score: inf
ROOT
ATOM      1  C   UNL A   1      31.926  28.240  27.465  1.00  0.00     0.274 C 
ENDROOT
BRANCH   1   2
ATOM      2  O   UNL A   1      30.818  27.432  27.017  1.00  0.00    -0.461 OA
BRANCH   2   3
ATOM      3  C   UNL A   1      31.147  26.292  26.353  1.00  0.00     0.329 C 
ATOM      4  O   UNL A   1      31.650  25.302  26.877  1.00  0.00    -0.250 OA
BRANCH   3   5
ATOM      5  C   UNL A   1      30.912  26.373  24.837  1.00  0.00     0.206 C 
ATOM      6  C   UNL A   1      32.855  25.462  23.653  1.00  0.00     0.144 C 
ATOM      7  S   UNL A   1      31.641  24.073  23.745  1.00  0.00    -0.134 SA
ATOM      8  N   UNL A   1      32.080  26.658  23.985  1.00  0.00    -0.309 N 
ATOM      9  C   UNL A   1      30.277  25.072  24.380  1.00  0.00     0.109 C 
BRANCH   6  10
ATOM     10  C   UNL A   1      33.547  25.392  22.283  1.00  0.00     0.033 C 
ATOM     11  C   UNL A   1      32.532  25.578  21.159  1.00  0.00     0.007 C 
ENDBRANCH   6  10
BRANCH   8  12
ATOM     12  C   UNL A   1      32.374  28.007  23.755  1.00  0.00     0.292 C 
ATOM     13  O   UNL A   1      33.447  28.461  24.155  1.00  0.00    -0.265 OA
BRANCH  12  14
ATOM     14  C   UNL A   1      31.383  28.910  23.225  1.00  0.00     0.214 A 
ATOM     15  N   UNL A   1      30.211  29.230  23.744  1.00  0.00    -0.207 NA
ATOM     16  N   UNL A   1      31.434  29.384  21.947  1.00  0.00    -0.255 N 
ATOM     17  C   UNL A   1      29.576  29.905  22.720  1.00  0.00     0.156 A 
ATOM     18  N   UNL A   1      30.328  30.063  21.620  1.00  0.00    -0.158 NA
ATOM     19  H   UNL A   1      32.193  29.244  21.337  1.00  0.00     0.192 HD
BRANCH  17  20
ATOM     20  C   UNL A   1      28.122  30.320  22.763  1.00  0.00     0.024 C 
ATOM     21  C   UNL A   1      27.255  29.095  23.122  1.00  0.00     0.019 C 
ATOM     22  C   UNL A   1      27.882  31.417  23.816  1.00  0.00     0.019 C 
ATOM     23  C   UNL A   1      27.653  30.864  21.396  1.00  0.00     0.019 C 
ENDBRANCH  17  20
ENDBRANCH  12  14
ENDBRANCH   8  12
ENDBRANCH   3   5
ENDBRANCH   2   3
ENDBRANCH   1   2
BRANCH   1  24
ATOM     24  C   UNL A   1      31.781  29.690  27.010  1.00  0.00     0.275 C 
BRANCH  24  25
ATOM     25  O   UNL A   1      33.030  30.191  26.502  1.00  0.00    -0.458 OA
BRANCH  25  26
ATOM     26  C   UNL A   1      33.502  31.285  27.143  1.00  0.00     0.338 C 
ATOM     27  O   UNL A   1      32.956  32.365  27.273  1.00  0.00    -0.246 OA
BRANCH  26  28
ATOM     28  C   UNL A   1      34.816  30.976  27.718  1.00  0.00     0.060 A 
ATOM     29  C   UNL A   1      35.109  29.659  28.075  1.00  0.00     0.016 A 
ATOM     30  C   UNL A   1      35.705  32.006  28.019  1.00  0.00     0.016 A 
ATOM     31  C   UNL A   1      36.267  29.370  28.787  1.00  0.00     0.010 A 
ATOM     32  C   UNL A   1      36.891  31.709  28.692  1.00  0.00     0.010 A 
ATOM     33  C   UNL A   1      37.167  30.393  29.106  1.00  0.00    -0.014 A 
BRANCH  33  34
ATOM     34  C   UNL A   1      38.368  30.101  29.925  1.00  0.00     0.031 A 
ATOM     35  C   UNL A   1      39.429  29.185  29.384  1.00  0.00     0.074 A 
ATOM     36  C   UNL A   1      38.514  30.663  31.138  1.00  0.00     0.049 A 
ATOM     37  N   UNL A   1      40.464  28.663  29.994  1.00  0.00    -0.248 NA
ATOM     38  C   UNL A   1      39.309  28.802  27.968  1.00  0.00     0.031 C 
ATOM     39  C   UNL A   1      37.588  31.621  31.743  1.00  0.00     0.029 A 
ATOM     40  N   UNL A   1      39.494  30.501  32.085  1.00  0.00    -0.354 N 
ATOM     41  C   UNL A   1      41.101  27.874  29.047  1.00  0.00     0.074 A 
ATOM     42  C   UNL A   1      40.333  27.972  27.824  1.00  0.00     0.031 C 
ATOM     43  C   UNL A   1      38.041  31.958  32.961  1.00  0.00     0.029 A 
ATOM     44  C   UNL A   1      39.252  31.195  33.246  1.00  0.00     0.049 A 
ATOM     45  H   UNL A   1      40.293  29.942  31.947  1.00  0.00     0.167 HD
ATOM     46  C   UNL A   1      42.229  27.136  29.189  1.00  0.00     0.037 A 
ATOM     47  C   UNL A   1      39.910  31.181  34.420  1.00  0.00     0.037 A 
ATOM     48  C   UNL A   1      42.998  27.058  30.402  1.00  0.00     0.049 A 
ATOM     49  C   UNL A   1      41.121  30.299  34.571  1.00  0.00     0.074 A 
ATOM     50  C   UNL A   1      44.134  26.310  30.661  1.00  0.00     0.029 A 
ATOM     51  N   UNL A   1      42.714  27.767  31.560  1.00  0.00    -0.354 N 
ATOM     52  N   UNL A   1      41.687  29.512  33.690  1.00  0.00    -0.248 NA
ATOM     53  C   UNL A   1      41.778  30.298  35.886  1.00  0.00     0.031 C 
ATOM     54  C   UNL A   1      44.525  26.549  31.983  1.00  0.00     0.029 A 
ATOM     55  C   UNL A   1      43.654  27.475  32.535  1.00  0.00     0.049 A 
ATOM     56  H   UNL A   1      41.957  28.386  31.673  1.00  0.00     0.167 HD
ATOM     57  C   UNL A   1      42.778  28.944  34.331  1.00  0.00     0.074 A 
ATOM     58  C   UNL A   1      42.804  29.486  35.673  1.00  0.00     0.031 C 
ATOM     59  C   UNL A   1      43.675  28.047  33.855  1.00  0.00     0.037 A 
BRANCH  46  60
ATOM     60  C   UNL A   1      42.693  26.340  28.007  1.00  0.00     0.064 A 
ATOM     61  C   UNL A   1      42.259  25.025  27.793  1.00  0.00     0.173 A 
ATOM     62  C   UNL A   1      43.538  26.918  27.047  1.00  0.00     0.173 A 
ATOM     63  F   UNL A   1      41.460  24.423  28.687  1.00  0.00    -0.203 F 
ATOM     64  C   UNL A   1      42.662  24.312  26.665  1.00  0.00     0.198 A 
ATOM     65  C   UNL A   1      43.922  26.212  25.911  1.00  0.00     0.198 A 
ATOM     66  F   UNL A   1      43.978  28.177  27.204  1.00  0.00    -0.203 F 
ATOM     67  F   UNL A   1      42.258  23.047  26.494  1.00  0.00    -0.200 F 
ATOM     68  C   UNL A   1      43.486  24.910  25.722  1.00  0.00     0.200 A 
ATOM     69  F   UNL A   1      44.706  26.795  24.993  1.00  0.00    -0.200 F 
ATOM     70  F   UNL A   1      43.862  24.227  24.631  1.00  0.00    -0.200 F 
ENDBRANCH  46  60
BRANCH  47  71
ATOM     71  C   UNL A   1      39.417  31.993  35.563  1.00  0.00     0.064 A 
ATOM     72  C   UNL A   1      39.859  33.307  35.759  1.00  0.00     0.173 A 
ATOM     73  C   UNL A   1      38.518  31.458  36.498  1.00  0.00     0.173 A 
ATOM     74  F   UNL A   1      40.739  33.852  34.906  1.00  0.00    -0.203 F 
ATOM     75  C   UNL A   1      39.440  34.050  36.862  1.00  0.00     0.198 A 
ATOM     76  C   UNL A   1      38.075  32.212  37.583  1.00  0.00     0.198 A 
ATOM     77  F   UNL A   1      38.065  30.205  36.357  1.00  0.00    -0.203 F 
ATOM     78  F   UNL A   1      39.921  35.284  37.056  1.00  0.00    -0.200 F 
ATOM     79  C   UNL A   1      38.545  33.503  37.770  1.00  0.00     0.200 A 
ATOM     80  F   UNL A   1      37.203  31.685  38.452  1.00  0.00    -0.200 F 
ATOM     81  F   UNL A   1      38.146  34.216  38.831  1.00  0.00    -0.200 F 
ENDBRANCH  47  71
BRANCH  59  82
ATOM     82  C   UNL A   1      44.790  27.641  34.772  1.00  0.00     0.064 A 
ATOM     83  C   UNL A   1      45.989  28.365  34.837  1.00  0.00     0.173 A 
ATOM     84  C   UNL A   1      44.640  26.535  35.620  1.00  0.00     0.173 A 
ATOM     85  F   UNL A   1      46.184  29.421  34.032  1.00  0.00    -0.203 F 
ATOM     86  C   UNL A   1      47.007  27.981  35.704  1.00  0.00     0.198 A 
ATOM     87  C   UNL A   1      45.650  26.169  36.503  1.00  0.00     0.198 A 
ATOM     88  F   UNL A   1      43.509  25.812  35.597  1.00  0.00    -0.203 F 
ATOM     89  F   UNL A   1      48.162  28.663  35.721  1.00  0.00    -0.200 F 
ATOM     90  C   UNL A   1      46.835  26.889  36.541  1.00  0.00     0.200 A 
ATOM     91  F   UNL A   1      45.480  25.117  37.318  1.00  0.00    -0.200 F 
ATOM     92  F   UNL A   1      47.816  26.524  37.379  1.00  0.00    -0.200 F 
ENDBRANCH  59  82
ENDBRANCH  33  34
ENDBRANCH  26  28
ENDBRANCH  25  26
ENDBRANCH  24  25
ENDBRANCH   1  24
TORSDOF 15
ENDMDL
MODEL 2
REMARK VINA RESULT:     -12.1      0.908      1.645
REMARK SMILES CC[C@@H]1SC[C@@H](C(=O)OCCOC(=O)c2ccc(-c3c4nc(c(-c5c(F)c(F)c(F)c(F)c5F)c5ccc([nH]5)c(-c5c(F)c(F)c(F)c(F)c5F)c5nc(c(-c6c(F)c(F)c(F)c(F)c6F)c6ccc3[nH]6)C=C5)C=C4)cc2)N1C(=O)c1nc(C(C)(C)C)n[nH]1
REMARK SMILES IDX 10 1 9 2 7 3 8 4 6 5 3 6 4 7 78 8 5 9 2 10 1 11 79 12 80 13
REMARK SMILES IDX 81 14 82 15 89 16 83 17 88 18 84 20 85 21 86 22 87 23 11 24
REMARK SMILES IDX 12 25 13 26 14 27 15 28 16 29 77 30 17 31 76 32 18 33 19 34
REMARK SMILES IDX 20 35 70 36 21 37 75 38 69 39 71 40 22 41 74 42 68 43 67 44
REMARK SMILES IDX 23 46 55 47 35 48 54 49 36 50 39 51 53 52 72 53 37 54 38 55
REMARK SMILES IDX 52 57 73 58 40 59 24 60 25 61 33 62 26 63 27 64 31 65 34 66
REMARK SMILES IDX 28 67 29 68 32 69 30 70 56 71 57 72 65 73 58 74 59 75 63 76
REMARK SMILES IDX 66 77 60 78 61 79 64 80 62 81 41 82 42 83 50 84 43 85 44 86
REMARK SMILES IDX 48 87 51 88 45 89 46 90 49 91 47 92
REMARK H PARENT 89 19 71 45 39 56
REMARK Flexibility Score: inf
ROOT
ATOM      1  C   UNL A   1      31.800  28.734  26.356  1.00  0.00     0.274 C 
ENDROOT
BRANCH   1   2
ATOM      2  O   UNL A   1      33.122  28.171  26.238  1.00  0.00    -0.461 OA
BRANCH   2   3
ATOM      3  C   UNL A   1      33.386  27.516  25.076  1.00  0.00     0.329 C 
ATOM      4  O   UNL A   1      33.959  28.014  24.112  1.00  0.00    -0.250 OA
BRANCH   3   5
ATOM      5  C   UNL A   1      32.818  26.089  25.032  1.00  0.00     0.206 C 
ATOM      6  C   UNL A   1      33.438  25.022  22.915  1.00  0.00     0.144 C 
ATOM      7  S   UNL A   1      34.702  24.457  24.137  1.00  0.00    -0.134 SA
ATOM      8  N   UNL A   1      32.358  25.584  23.727  1.00  0.00    -0.309 N 
ATOM      9  C   UNL A   1      33.865  25.139  25.586  1.00  0.00     0.109 C 
BRANCH   6  10
ATOM     10  C   UNL A   1      33.121  23.839  21.987  1.00  0.00     0.033 C 
ATOM     11  C   UNL A   1      32.850  22.576  22.800  1.00  0.00     0.007 C 
ENDBRANCH   6  10
BRANCH   8  12
ATOM     12  C   UNL A   1      31.028  25.851  23.384  1.00  0.00     0.292 C 
ATOM     13  O   UNL A   1      30.253  24.907  23.216  1.00  0.00    -0.265 OA
BRANCH  12  14
ATOM     14  C   UNL A   1      30.592  27.185  23.052  1.00  0.00     0.214 A 
ATOM     15  N   UNL A   1      29.527  27.828  23.495  1.00  0.00    -0.207 NA
ATOM     16  N   UNL A   1      31.122  27.889  22.011  1.00  0.00    -0.255 N 
ATOM     17  C   UNL A   1      29.451  28.934  22.671  1.00  0.00     0.156 A 
ATOM     18  N   UNL A   1      30.453  29.025  21.784  1.00  0.00    -0.158 NA
ATOM     19  H   UNL A   1      31.903  27.597  21.489  1.00  0.00     0.192 HD
BRANCH  17  20
ATOM     20  C   UNL A   1      28.282  29.895  22.662  1.00  0.00     0.024 C 
ATOM     21  C   UNL A   1      27.012  29.153  23.126  1.00  0.00     0.019 C 
ATOM     22  C   UNL A   1      28.528  31.086  23.606  1.00  0.00     0.019 C 
ATOM     23  C   UNL A   1      28.028  30.455  21.246  1.00  0.00     0.019 C 
ENDBRANCH  17  20
ENDBRANCH  12  14
ENDBRANCH   8  12
ENDBRANCH   3   5
ENDBRANCH   2   3
ENDBRANCH   1   2
BRANCH   1  24
ATOM     24  C   UNL A   1      31.850  30.186  26.826  1.00  0.00     0.275 C 
BRANCH  24  25
ATOM     25  O   UNL A   1      33.101  30.796  26.464  1.00  0.00    -0.458 OA
BRANCH  25  26
ATOM     26  C   UNL A   1      33.527  31.759  27.315  1.00  0.00     0.338 C 
ATOM     27  O   UNL A   1      32.956  32.789  27.617  1.00  0.00    -0.246 OA
BRANCH  26  28
ATOM     28  C   UNL A   1      34.823  31.364  27.878  1.00  0.00     0.060 A 
ATOM     29  C   UNL A   1      34.998  30.054  28.326  1.00  0.00     0.016 A 
ATOM     30  C   UNL A   1      35.815  32.320  28.079  1.00  0.00     0.016 A 
ATOM     31  C   UNL A   1      36.145  29.703  29.029  1.00  0.00     0.010 A 
ATOM     32  C   UNL A   1      36.989  31.957  28.744  1.00  0.00     0.010 A 
ATOM     33  C   UNL A   1      37.149  30.654  29.248  1.00  0.00    -0.014 A 
BRANCH  33  34
ATOM     34  C   UNL A   1      38.343  30.304  30.056  1.00  0.00     0.031 A 
ATOM     35  C   UNL A   1      39.369  29.362  29.494  1.00  0.00     0.074 A 
ATOM     36  C   UNL A   1      38.511  30.837  31.280  1.00  0.00     0.049 A 
ATOM     37  N   UNL A   1      40.387  28.794  30.090  1.00  0.00    -0.248 NA
ATOM     38  C   UNL A   1      39.232  29.011  28.072  1.00  0.00     0.031 C 
ATOM     39  C   UNL A   1      37.621  31.815  31.906  1.00  0.00     0.029 A 
ATOM     40  N   UNL A   1      39.488  30.623  32.220  1.00  0.00    -0.354 N 
ATOM     41  C   UNL A   1      40.994  28.001  29.125  1.00  0.00     0.074 A 
ATOM     42  C   UNL A   1      40.225  28.149  27.907  1.00  0.00     0.031 C 
ATOM     43  C   UNL A   1      38.090  32.113  33.129  1.00  0.00     0.029 A 
ATOM     44  C   UNL A   1      39.274  31.302  33.394  1.00  0.00     0.049 A 
ATOM     45  H   UNL A   1      40.266  30.040  32.067  1.00  0.00     0.167 HD
ATOM     46  C   UNL A   1      42.096  27.223  29.248  1.00  0.00     0.037 A 
ATOM     47  C   UNL A   1      39.935  31.243  34.566  1.00  0.00     0.037 A 
ATOM     48  C   UNL A   1      42.865  27.094  30.458  1.00  0.00     0.049 A 
ATOM     49  C   UNL A   1      41.114  30.317  34.695  1.00  0.00     0.074 A 
ATOM     50  C   UNL A   1      43.975  26.302  30.697  1.00  0.00     0.029 A 
ATOM     51  N   UNL A   1      42.610  27.790  31.630  1.00  0.00    -0.354 N 
ATOM     52  N   UNL A   1      41.650  29.528  33.797  1.00  0.00    -0.248 NA
ATOM     53  C   UNL A   1      41.776  30.268  36.007  1.00  0.00     0.031 C 
ATOM     54  C   UNL A   1      44.379  26.503  32.022  1.00  0.00     0.029 A 
ATOM     55  C   UNL A   1      43.542  27.447  32.595  1.00  0.00     0.049 A 
ATOM     56  H   UNL A   1      41.875  28.432  31.757  1.00  0.00     0.167 HD
ATOM     57  C   UNL A   1      42.723  28.910  34.423  1.00  0.00     0.074 A 
ATOM     58  C   UNL A   1      42.772  29.425  35.775  1.00  0.00     0.031 C 
ATOM     59  C   UNL A   1      43.587  27.992  33.926  1.00  0.00     0.037 A 
BRANCH  46  60
ATOM     60  C   UNL A   1      42.528  26.434  28.050  1.00  0.00     0.064 A 
ATOM     61  C   UNL A   1      42.021  25.152  27.793  1.00  0.00     0.173 A 
ATOM     62  C   UNL A   1      43.418  26.988  27.117  1.00  0.00     0.173 A 
ATOM     63  F   UNL A   1      41.177  24.574  28.661  1.00  0.00    -0.203 F 
ATOM     64  C   UNL A   1      42.397  24.450  26.650  1.00  0.00     0.198 A 
ATOM     65  C   UNL A   1      43.775  26.292  25.965  1.00  0.00     0.198 A 
ATOM     66  F   UNL A   1      43.928  28.214  27.315  1.00  0.00    -0.203 F 
ATOM     67  F   UNL A   1      41.922  23.215  26.439  1.00  0.00    -0.200 F 
ATOM     68  C   UNL A   1      43.266  25.024  25.734  1.00  0.00     0.200 A 
ATOM     69  F   UNL A   1      44.604  26.854  25.074  1.00  0.00    -0.200 F 
ATOM     70  F   UNL A   1      43.616  24.351  24.628  1.00  0.00    -0.200 F 
ENDBRANCH  46  60
BRANCH  47  71
ATOM     71  C   UNL A   1      39.473  32.049  35.726  1.00  0.00     0.064 A 
ATOM     72  C   UNL A   1      40.040  33.299  36.007  1.00  0.00     0.173 A 
ATOM     73  C   UNL A   1      38.480  31.570  36.593  1.00  0.00     0.173 A 
ATOM     74  F   UNL A   1      41.011  33.786  35.222  1.00  0.00    -0.203 F 
ATOM     75  C   UNL A   1      39.647  34.030  37.127  1.00  0.00     0.198 A 
ATOM     76  C   UNL A   1      38.066  32.316  37.695  1.00  0.00     0.198 A 
ATOM     77  F   UNL A   1      37.907  30.379  36.369  1.00  0.00    -0.203 F 
ATOM     78  F   UNL A   1      40.243  35.197  37.405  1.00  0.00    -0.200 F 
ATOM     79  C   UNL A   1      38.657  33.540  37.967  1.00  0.00     0.200 A 
ATOM     80  F   UNL A   1      37.103  31.844  38.497  1.00  0.00    -0.200 F 
ATOM     81  F   UNL A   1      38.283  34.242  39.045  1.00  0.00    -0.200 F 
ENDBRANCH  47  71
BRANCH  59  82
ATOM     82  C   UNL A   1      44.690  27.530  34.831  1.00  0.00     0.064 A 
ATOM     83  C   UNL A   1      44.550  26.393  35.638  1.00  0.00     0.173 A 
ATOM     84  C   UNL A   1      45.913  28.215  34.861  1.00  0.00     0.173 A 
ATOM     85  F   UNL A   1      43.392  25.715  35.656  1.00  0.00    -0.203 F 
ATOM     86  C   UNL A   1      45.590  25.971  36.462  1.00  0.00     0.198 A 
ATOM     87  C   UNL A   1      46.959  27.775  35.666  1.00  0.00     0.198 A 
ATOM     88  F   UNL A   1      46.097  29.307  34.102  1.00  0.00    -0.203 F 
ATOM     89  F   UNL A   1      45.421  24.905  37.258  1.00  0.00    -0.200 F 
ATOM     90  C   UNL A   1      46.795  26.657  36.470  1.00  0.00     0.200 A 
ATOM     91  F   UNL A   1      48.126  28.435  35.667  1.00  0.00    -0.200 F 
ATOM     92  F   UNL A   1      47.796  26.246  37.260  1.00  0.00    -0.200 F 
ENDBRANCH  59  82
ENDBRANCH  33  34
ENDBRANCH  26  28
ENDBRANCH  25  26
ENDBRANCH  24  25
ENDBRANCH   1  24
TORSDOF 15
ENDMDL
MODEL 3
REMARK VINA RESULT:     -12.0      4.928     10.087
REMARK SMILES CC[C@@H]1SC[C@@H](C(=O)OCCOC(=O)c2ccc(-c3c4nc(c(-c5c(F)c(F)c(F)c(F)c5F)c5ccc([nH]5)c(-c5c(F)c(F)c(F)c(F)c5F)c5nc(c(-c6c(F)c(F)c(F)c(F)c6F)c6ccc3[nH]6)C=C5)C=C4)cc2)N1C(=O)c1nc(C(C)(C)C)n[nH]1
REMARK SMILES IDX 10 1 9 2 7 3 8 4 6 5 3 6 4 7 78 8 5 9 2 10 1 11 79 12 80 13
REMARK SMILES IDX 81 14 82 15 89 16 83 17 88 18 84 20 85 21 86 22 87 23 11 24
REMARK SMILES IDX 12 25 13 26 14 27 15 28 16 29 77 30 17 31 76 32 18 33 19 34
REMARK SMILES IDX 20 35 70 36 21 37 75 38 69 39 71 40 22 41 74 42 68 43 67 44
REMARK SMILES IDX 23 46 55 47 35 48 54 49 36 50 39 51 53 52 72 53 37 54 38 55
REMARK SMILES IDX 52 57 73 58 40 59 24 60 25 61 33 62 26 63 27 64 31 65 34 66
REMARK SMILES IDX 28 67 29 68 32 69 30 70 56 71 57 72 65 73 58 74 59 75 63 76
REMARK SMILES IDX 66 77 60 78 61 79 64 80 62 81 41 82 42 83 50 84 43 85 44 86
REMARK SMILES IDX 48 87 51 88 45 89 46 90 49 91 47 92
REMARK H PARENT 89 19 71 45 39 56
REMARK Flexibility Score: inf
ROOT
ATOM      1  C   UNL A   1      36.989  22.576  23.659  1.00  0.00     0.274 C 
ENDROOT
BRANCH   1   2
ATOM      2  O   UNL A   1      35.578  22.872  23.614  1.00  0.00    -0.461 OA
BRANCH   2   3
ATOM      3  C   UNL A   1      35.178  23.962  24.322  1.00  0.00     0.329 C 
ATOM      4  O   UNL A   1      35.801  24.449  25.260  1.00  0.00    -0.250 OA
BRANCH   3   5
ATOM      5  C   UNL A   1      33.802  24.500  23.897  1.00  0.00     0.206 C 
ATOM      6  C   UNL A   1      32.307  24.554  25.838  1.00  0.00     0.144 C 
ATOM      7  S   UNL A   1      32.993  26.262  25.700  1.00  0.00    -0.134 SA
ATOM      8  N   UNL A   1      32.618  23.921  24.555  1.00  0.00    -0.309 N 
ATOM      9  C   UNL A   1      33.793  26.004  24.101  1.00  0.00     0.109 C 
BRANCH   6  10
ATOM     10  C   UNL A   1      30.834  24.671  26.261  1.00  0.00     0.033 C 
ATOM     11  C   UNL A   1      30.232  25.979  25.753  1.00  0.00     0.007 C 
ENDBRANCH   6  10
BRANCH   8  12
ATOM     12  C   UNL A   1      32.069  22.777  23.965  1.00  0.00     0.292 C 
ATOM     13  O   UNL A   1      31.174  22.909  23.126  1.00  0.00    -0.265 OA
BRANCH  12  14
ATOM     14  C   UNL A   1      32.397  21.457  24.441  1.00  0.00     0.214 A 
ATOM     15  N   UNL A   1      33.025  20.491  23.795  1.00  0.00    -0.207 NA
ATOM     16  N   UNL A   1      31.867  20.939  25.586  1.00  0.00    -0.255 N 
ATOM     17  C   UNL A   1      32.839  19.386  24.604  1.00  0.00     0.156 A 
ATOM     18  N   UNL A   1      32.176  19.646  25.740  1.00  0.00    -0.158 NA
ATOM     19  H   UNL A   1      31.322  21.454  26.223  1.00  0.00     0.192 HD
BRANCH  17  20
ATOM     20  C   UNL A   1      33.219  17.978  24.201  1.00  0.00     0.024 C 
ATOM     21  C   UNL A   1      32.734  17.712  22.762  1.00  0.00     0.019 C 
ATOM     22  C   UNL A   1      34.745  17.774  24.251  1.00  0.00     0.019 C 
ATOM     23  C   UNL A   1      32.570  16.934  25.135  1.00  0.00     0.019 C 
ENDBRANCH  17  20
ENDBRANCH  12  14
ENDBRANCH   8  12
ENDBRANCH   3   5
ENDBRANCH   2   3
ENDBRANCH   1   2
BRANCH   1  24
ATOM     24  C   UNL A   1      37.273  21.333  24.499  1.00  0.00     0.275 C 
BRANCH  24  25
ATOM     25  O   UNL A   1      37.652  21.698  25.837  1.00  0.00    -0.458 OA
BRANCH  25  26
ATOM     26  C   UNL A   1      38.956  21.486  26.132  1.00  0.00     0.338 C 
ATOM     27  O   UNL A   1      39.601  20.469  25.966  1.00  0.00    -0.246 OA
BRANCH  26  28
ATOM     28  C   UNL A   1      39.530  22.719  26.683  1.00  0.00     0.060 A 
ATOM     29  C   UNL A   1      39.074  23.951  26.211  1.00  0.00     0.016 A 
ATOM     30  C   UNL A   1      40.604  22.653  27.568  1.00  0.00     0.016 A 
ATOM     31  C   UNL A   1      39.726  25.124  26.577  1.00  0.00     0.010 A 
ATOM     32  C   UNL A   1      41.229  23.834  27.973  1.00  0.00     0.010 A 
ATOM     33  C   UNL A   1      40.812  25.075  27.458  1.00  0.00    -0.014 A 
BRANCH  33  34
ATOM     34  C   UNL A   1      41.553  26.314  27.797  1.00  0.00     0.031 A 
ATOM     35  C   UNL A   1      40.875  27.387  28.601  1.00  0.00     0.074 A 
ATOM     36  C   UNL A   1      42.827  26.472  27.397  1.00  0.00     0.049 A 
ATOM     37  N   UNL A   1      41.274  28.607  28.858  1.00  0.00    -0.248 NA
ATOM     38  C   UNL A   1      39.573  27.042  29.195  1.00  0.00     0.031 C 
ATOM     39  C   UNL A   1      43.615  25.475  26.672  1.00  0.00     0.029 A 
ATOM     40  N   UNL A   1      43.682  27.536  27.539  1.00  0.00    -0.354 N 
ATOM     41  C   UNL A   1      40.264  29.181  29.619  1.00  0.00     0.074 A 
ATOM     42  C   UNL A   1      39.227  28.183  29.773  1.00  0.00     0.031 C 
ATOM     43  C   UNL A   1      44.837  25.977  26.427  1.00  0.00     0.029 A 
ATOM     44  C   UNL A   1      44.895  27.348  26.923  1.00  0.00     0.049 A 
ATOM     45  H   UNL A   1      43.449  28.354  28.034  1.00  0.00     0.167 HD
ATOM     46  C   UNL A   1      40.213  30.430  30.143  1.00  0.00     0.037 A 
ATOM     47  C   UNL A   1      45.920  28.202  26.741  1.00  0.00     0.037 A 
ATOM     48  C   UNL A   1      41.255  31.411  30.001  1.00  0.00     0.049 A 
ATOM     49  C   UNL A   1      45.807  29.605  27.274  1.00  0.00     0.074 A 
ATOM     50  C   UNL A   1      41.284  32.717  30.460  1.00  0.00     0.029 A 
ATOM     51  N   UNL A   1      42.465  31.186  29.359  1.00  0.00    -0.354 N 
ATOM     52  N   UNL A   1      44.827  30.161  27.944  1.00  0.00    -0.248 NA
ATOM     53  C   UNL A   1      46.941  30.504  27.016  1.00  0.00     0.031 C 
ATOM     54  C   UNL A   1      42.502  33.289  30.077  1.00  0.00     0.029 A 
ATOM     55  C   UNL A   1      43.246  32.328  29.412  1.00  0.00     0.049 A 
ATOM     56  H   UNL A   1      42.728  30.341  28.930  1.00  0.00     0.167 HD
ATOM     57  C   UNL A   1      45.235  31.460  28.210  1.00  0.00     0.074 A 
ATOM     58  C   UNL A   1      46.557  31.608  27.641  1.00  0.00     0.031 C 
ATOM     59  C   UNL A   1      44.571  32.445  28.861  1.00  0.00     0.037 A 
BRANCH  46  60
ATOM     60  C   UNL A   1      38.981  30.815  30.905  1.00  0.00     0.064 A 
ATOM     61  C   UNL A   1      38.880  30.609  32.288  1.00  0.00     0.173 A 
ATOM     62  C   UNL A   1      37.911  31.448  30.255  1.00  0.00     0.173 A 
ATOM     63  F   UNL A   1      39.871  29.997  32.953  1.00  0.00    -0.203 F 
ATOM     64  C   UNL A   1      37.748  31.014  32.991  1.00  0.00     0.198 A 
ATOM     65  C   UNL A   1      36.791  31.872  30.964  1.00  0.00     0.198 A 
ATOM     66  F   UNL A   1      37.961  31.672  28.932  1.00  0.00    -0.203 F 
ATOM     67  F   UNL A   1      37.660  30.783  34.308  1.00  0.00    -0.200 F 
ATOM     68  C   UNL A   1      36.709  31.652  32.330  1.00  0.00     0.200 A 
ATOM     69  F   UNL A   1      35.793  32.501  30.326  1.00  0.00    -0.200 F 
ATOM     70  F   UNL A   1      35.626  32.054  33.011  1.00  0.00    -0.200 F 
ENDBRANCH  46  60
BRANCH  47  71
ATOM     71  C   UNL A   1      47.125  27.774  25.984  1.00  0.00     0.064 A 
ATOM     72  C   UNL A   1      47.143  27.795  24.583  1.00  0.00     0.173 A 
ATOM     73  C   UNL A   1      48.270  27.306  26.647  1.00  0.00     0.173 A 
ATOM     74  F   UNL A   1      46.062  28.209  23.905  1.00  0.00    -0.203 F 
ATOM     75  C   UNL A   1      48.252  27.340  23.872  1.00  0.00     0.198 A 
ATOM     76  C   UNL A   1      49.390  26.881  25.935  1.00  0.00     0.198 A 
ATOM     77  F   UNL A   1      48.303  27.265  27.986  1.00  0.00    -0.203 F 
ATOM     78  F   UNL A   1      48.223  27.318  22.533  1.00  0.00    -0.200 F 
ATOM     79  C   UNL A   1      49.376  26.888  24.549  1.00  0.00     0.200 A 
ATOM     80  F   UNL A   1      50.477  26.456  26.593  1.00  0.00    -0.200 F 
ATOM     81  F   UNL A   1      50.440  26.449  23.864  1.00  0.00    -0.200 F 
ENDBRANCH  47  71
BRANCH  59  82
ATOM     82  C   UNL A   1      45.287  33.750  29.041  1.00  0.00     0.064 A 
ATOM     83  C   UNL A   1      45.165  34.790  28.109  1.00  0.00     0.173 A 
ATOM     84  C   UNL A   1      46.075  33.972  30.179  1.00  0.00     0.173 A 
ATOM     85  F   UNL A   1      44.436  34.617  26.996  1.00  0.00    -0.203 F 
ATOM     86  C   UNL A   1      45.827  35.999  28.299  1.00  0.00     0.198 A 
ATOM     87  C   UNL A   1      46.715  35.192  30.379  1.00  0.00     0.198 A 
ATOM     88  F   UNL A   1      46.219  33.009  31.103  1.00  0.00    -0.203 F 
ATOM     89  F   UNL A   1      45.731  36.966  27.375  1.00  0.00    -0.200 F 
ATOM     90  C   UNL A   1      46.595  36.202  29.436  1.00  0.00     0.200 A 
ATOM     91  F   UNL A   1      47.450  35.390  31.482  1.00  0.00    -0.200 F 
ATOM     92  F   UNL A   1      47.227  37.370  29.620  1.00  0.00    -0.200 F 
ENDBRANCH  59  82
ENDBRANCH  33  34
ENDBRANCH  26  28
ENDBRANCH  25  26
ENDBRANCH  24  25
ENDBRANCH   1  24
TORSDOF 15
ENDMDL
