MODEL 1
REMARK VINA RESULT:     -10.5      0.000      0.000
REMARK SMILES O=C(Cc1ccc(F)c(F)c1)NC1(C(=O)OCCOC(=O)c2ccc(-c3c4nc(c(-c5c(F)c(F)c(F)c(F)c5F)c5ccc([nH]5)c(-c5c(F)c(F)c(F)c(F)c5F)c5nc(c(-c6c(F)c(F)c(F)c(F)c6F)c6ccc3[nH]6)C=C5)C=C4)cc2)CCCC1
REMARK SMILES IDX 17 1 16 2 14 3 15 4 13 5 85 6 88 7 86 8 87 9 12 10 1 11 2 12
REMARK SMILES IDX 3 14 4 15 5 16 11 17 6 18 9 19 7 20 10 21 8 22 18 23 19 24
REMARK SMILES IDX 20 25 21 26 22 27 23 28 84 29 24 30 83 31 25 32 26 33 27 34
REMARK SMILES IDX 77 35 28 36 82 37 76 38 78 39 29 40 81 41 75 42 74 43 30 45
REMARK SMILES IDX 62 46 42 47 61 48 43 49 46 50 60 51 79 52 44 53 45 54 59 56
REMARK SMILES IDX 80 57 47 58 31 59 32 60 40 61 33 62 34 63 38 64 41 65 35 66
REMARK SMILES IDX 36 67 39 68 37 69 63 70 64 71 72 72 65 73 66 74 70 75 73 76
REMARK SMILES IDX 67 77 68 78 71 79 69 80 48 81 49 82 57 83 50 84 51 85 55 86
REMARK SMILES IDX 58 87 52 88 53 89 56 90 54 91
REMARK H PARENT 12 13 78 44 46 55
REMARK Flexibility Score: inf
ROOT
ATOM      1  C   UNL A   1      41.794  19.115  26.440  1.00  0.00     0.274 C 
ENDROOT
BRANCH   1   2
ATOM      2  O   UNL A   1      42.683  20.237  26.625  1.00  0.00    -0.460 OA
BRANCH   2   3
ATOM      3  C   UNL A   1      43.562  20.502  25.610  1.00  0.00     0.331 C 
ATOM      4  O   UNL A   1      43.782  19.708  24.706  1.00  0.00    -0.249 OA
BRANCH   3   5
ATOM      5  C   UNL A   1      44.300  21.880  25.805  1.00  0.00     0.138 C 
ATOM      6  C   UNL A   1      43.779  22.889  24.776  1.00  0.00     0.040 C 
ATOM      7  C   UNL A   1      45.803  21.771  25.439  1.00  0.00     0.040 C 
ATOM      8  C   UNL A   1      44.554  22.578  23.500  1.00  0.00     0.003 C 
ATOM      9  C   UNL A   1      45.922  22.079  23.951  1.00  0.00     0.003 C 
BRANCH   5  10
ATOM     10  N   UNL A   1      44.253  22.449  27.174  1.00  0.00    -0.340 N 
ATOM     11  O   UNL A   1      46.247  23.571  27.284  1.00  0.00    -0.275 OA
ATOM     12  C   UNL A   1      45.189  23.232  27.798  1.00  0.00     0.225 C 
ATOM     13  H   UNL A   1      43.448  22.238  27.699  1.00  0.00     0.164 HD
BRANCH  12  14
ATOM     14  C   UNL A   1      44.877  23.581  29.251  1.00  0.00     0.135 C 
BRANCH  14  15
ATOM     15  C   UNL A   1      44.963  25.023  29.741  1.00  0.00    -0.036 A 
ATOM     16  C   UNL A   1      46.079  25.868  29.607  1.00  0.00     0.007 A 
ATOM     17  C   UNL A   1      43.805  25.570  30.335  1.00  0.00     0.046 A 
ATOM     18  C   UNL A   1      46.034  27.206  30.017  1.00  0.00     0.043 A 
ATOM     19  C   UNL A   1      43.771  26.901  30.753  1.00  0.00     0.159 A 
ATOM     20  C   UNL A   1      44.876  27.717  30.581  1.00  0.00     0.158 A 
ATOM     21  F   UNL A   1      42.653  27.385  31.309  1.00  0.00    -0.204 F 
ATOM     22  F   UNL A   1      44.847  29.001  30.962  1.00  0.00    -0.204 F 
ENDBRANCH  14  15
ENDBRANCH  12  14
ENDBRANCH   5  10
ENDBRANCH   3   5
ENDBRANCH   2   3
ENDBRANCH   1   2
BRANCH   1  23
ATOM     23  C   UNL A   1      40.400  19.581  26.026  1.00  0.00     0.275 C 
BRANCH  23  24
ATOM     24  O   UNL A   1      39.983  20.666  26.872  1.00  0.00    -0.458 OA
BRANCH  24  25
ATOM     25  C   UNL A   1      39.325  21.670  26.260  1.00  0.00     0.338 C 
ATOM     26  O   UNL A   1      38.471  21.592  25.389  1.00  0.00    -0.246 OA
BRANCH  25  27
ATOM     27  C   UNL A   1      39.717  22.951  26.863  1.00  0.00     0.060 A 
ATOM     28  C   UNL A   1      39.162  24.115  26.343  1.00  0.00     0.016 A 
ATOM     29  C   UNL A   1      40.750  23.019  27.799  1.00  0.00     0.016 A 
ATOM     30  C   UNL A   1      39.709  25.347  26.680  1.00  0.00     0.010 A 
ATOM     31  C   UNL A   1      41.264  24.270  28.172  1.00  0.00     0.010 A 
ATOM     32  C   UNL A   1      40.796  25.445  27.559  1.00  0.00    -0.014 A 
BRANCH  32  33
ATOM     33  C   UNL A   1      41.514  26.750  27.687  1.00  0.00     0.031 A 
ATOM     34  C   UNL A   1      40.932  27.845  28.550  1.00  0.00     0.074 A 
ATOM     35  C   UNL A   1      42.750  26.923  27.175  1.00  0.00     0.049 A 
ATOM     36  N   UNL A   1      41.364  29.068  28.744  1.00  0.00    -0.248 NA
ATOM     37  C   UNL A   1      39.714  27.519  29.311  1.00  0.00     0.031 C 
ATOM     38  C   UNL A   1      43.504  25.920  26.423  1.00  0.00     0.029 A 
ATOM     39  N   UNL A   1      43.612  27.993  27.253  1.00  0.00    -0.354 N 
ATOM     40  C   UNL A   1      40.464  29.656  29.626  1.00  0.00     0.074 A 
ATOM     41  C   UNL A   1      39.452  28.666  29.921  1.00  0.00     0.031 C 
ATOM     42  C   UNL A   1      44.735  26.393  26.170  1.00  0.00     0.029 A 
ATOM     43  C   UNL A   1      44.830  27.767  26.656  1.00  0.00     0.049 A 
ATOM     44  H   UNL A   1      43.377  28.842  27.693  1.00  0.00     0.167 HD
ATOM     45  C   UNL A   1      40.477  30.903  30.149  1.00  0.00     0.037 A 
ATOM     46  C   UNL A   1      45.893  28.580  26.489  1.00  0.00     0.037 A 
ATOM     47  C   UNL A   1      41.493  31.889  29.900  1.00  0.00     0.049 A 
ATOM     48  C   UNL A   1      45.822  30.005  26.965  1.00  0.00     0.074 A 
ATOM     49  C   UNL A   1      41.544  33.204  30.331  1.00  0.00     0.029 A 
ATOM     50  N   UNL A   1      42.650  31.659  29.177  1.00  0.00    -0.354 N 
ATOM     51  N   UNL A   1      44.901  30.592  27.686  1.00  0.00    -0.248 NA
ATOM     52  C   UNL A   1      46.923  30.895  26.562  1.00  0.00     0.031 C 
ATOM     53  C   UNL A   1      42.720  33.779  29.842  1.00  0.00     0.029 A 
ATOM     54  C   UNL A   1      43.412  32.815  29.129  1.00  0.00     0.049 A 
ATOM     55  H   UNL A   1      42.895  30.801  28.760  1.00  0.00     0.167 HD
ATOM     56  C   UNL A   1      45.305  31.914  27.818  1.00  0.00     0.074 A 
ATOM     57  C   UNL A   1      46.571  32.040  27.130  1.00  0.00     0.031 C 
ATOM     58  C   UNL A   1      44.669  32.934  28.441  1.00  0.00     0.037 A 
BRANCH  45  59
ATOM     59  C   UNL A   1      39.329  31.302  31.024  1.00  0.00     0.064 A 
ATOM     60  C   UNL A   1      39.351  31.000  32.394  1.00  0.00     0.173 A 
ATOM     61  C   UNL A   1      38.183  31.916  30.500  1.00  0.00     0.173 A 
ATOM     62  F   UNL A   1      40.424  30.405  32.937  1.00  0.00    -0.203 F 
ATOM     63  C   UNL A   1      38.259  31.286  33.207  1.00  0.00     0.198 A 
ATOM     64  C   UNL A   1      37.100  32.219  31.321  1.00  0.00     0.198 A 
ATOM     65  F   UNL A   1      38.119  32.228  29.199  1.00  0.00    -0.203 F 
ATOM     66  F   UNL A   1      38.290  30.965  34.507  1.00  0.00    -0.200 F 
ATOM     67  C   UNL A   1      37.135  31.897  32.670  1.00  0.00     0.200 A 
ATOM     68  F   UNL A   1      36.019  32.824  30.808  1.00  0.00    -0.200 F 
ATOM     69  F   UNL A   1      36.086  32.177  33.456  1.00  0.00    -0.200 F 
ENDBRANCH  45  59
BRANCH  46  70
ATOM     70  C   UNL A   1      47.106  28.084  25.789  1.00  0.00     0.064 A 
ATOM     71  C   UNL A   1      48.265  27.727  26.495  1.00  0.00     0.173 A 
ATOM     72  C   UNL A   1      47.122  27.939  24.394  1.00  0.00     0.173 A 
ATOM     73  F   UNL A   1      48.295  27.832  27.832  1.00  0.00    -0.203 F 
ATOM     74  C   UNL A   1      49.401  27.270  25.833  1.00  0.00     0.198 A 
ATOM     75  C   UNL A   1      48.250  27.453  23.735  1.00  0.00     0.198 A 
ATOM     76  F   UNL A   1      46.028  28.234  23.678  1.00  0.00    -0.203 F 
ATOM     77  F   UNL A   1      50.502  26.964  26.531  1.00  0.00    -0.200 F 
ATOM     78  C   UNL A   1      49.391  27.127  24.455  1.00  0.00     0.200 A 
ATOM     79  F   UNL A   1      48.226  27.286  22.406  1.00  0.00    -0.200 F 
ATOM     80  F   UNL A   1      50.477  26.666  23.819  1.00  0.00    -0.200 F 
ENDBRANCH  46  70
BRANCH  58  81
ATOM     81  C   UNL A   1      45.309  34.288  28.401  1.00  0.00     0.064 A 
ATOM     82  C   UNL A   1      46.221  34.682  29.392  1.00  0.00     0.173 A 
ATOM     83  C   UNL A   1      44.941  35.230  27.431  1.00  0.00     0.173 A 
ATOM     84  F   UNL A   1      46.598  33.818  30.346  1.00  0.00    -0.203 F 
ATOM     85  C   UNL A   1      46.728  35.978  29.420  1.00  0.00     0.198 A 
ATOM     86  C   UNL A   1      45.465  36.519  27.451  1.00  0.00     0.198 A 
ATOM     87  F   UNL A   1      44.081  34.895  26.458  1.00  0.00    -0.203 F 
ATOM     88  F   UNL A   1      47.574  36.344  30.394  1.00  0.00    -0.200 F 
ATOM     89  C   UNL A   1      46.350  36.895  28.451  1.00  0.00     0.200 A 
ATOM     90  F   UNL A   1      45.112  37.400  26.504  1.00  0.00    -0.200 F 
ATOM     91  F   UNL A   1      46.837  38.142  28.481  1.00  0.00    -0.200 F 
ENDBRANCH  58  81
ENDBRANCH  32  33
ENDBRANCH  25  27
ENDBRANCH  24  25
ENDBRANCH  23  24
ENDBRANCH   1  23
TORSDOF 14
ENDMDL
MODEL 2
REMARK VINA RESULT:     -10.4      6.357     12.485
REMARK SMILES O=C(Cc1ccc(F)c(F)c1)NC1(C(=O)OCCOC(=O)c2ccc(-c3c4nc(c(-c5c(F)c(F)c(F)c(F)c5F)c5ccc([nH]5)c(-c5c(F)c(F)c(F)c(F)c5F)c5nc(c(-c6c(F)c(F)c(F)c(F)c6F)c6ccc3[nH]6)C=C5)C=C4)cc2)CCCC1
REMARK SMILES IDX 17 1 16 2 14 3 15 4 13 5 85 6 88 7 86 8 87 9 12 10 1 11 2 12
REMARK SMILES IDX 3 14 4 15 5 16 11 17 6 18 9 19 7 20 10 21 8 22 18 23 19 24
REMARK SMILES IDX 20 25 21 26 22 27 23 28 84 29 24 30 83 31 25 32 26 33 27 34
REMARK SMILES IDX 77 35 28 36 82 37 76 38 78 39 29 40 81 41 75 42 74 43 30 45
REMARK SMILES IDX 62 46 42 47 61 48 43 49 46 50 60 51 79 52 44 53 45 54 59 56
REMARK SMILES IDX 80 57 47 58 31 59 32 60 40 61 33 62 34 63 38 64 41 65 35 66
REMARK SMILES IDX 36 67 39 68 37 69 63 70 64 71 72 72 65 73 66 74 70 75 73 76
REMARK SMILES IDX 67 77 68 78 71 79 69 80 48 81 49 82 57 83 50 84 51 85 55 86
REMARK SMILES IDX 58 87 52 88 53 89 56 90 54 91
REMARK H PARENT 12 13 78 44 46 55
REMARK Flexibility Score: inf
ROOT
ATOM      1  C   UNL A   1      32.644  29.669  25.127  1.00  0.00     0.274 C 
ENDROOT
BRANCH   1   2
ATOM      2  O   UNL A   1      32.478  28.354  25.700  1.00  0.00    -0.460 OA
BRANCH   2   3
ATOM      3  C   UNL A   1      32.687  27.288  24.868  1.00  0.00     0.331 C 
ATOM      4  O   UNL A   1      33.722  27.141  24.233  1.00  0.00    -0.249 OA
BRANCH   3   5
ATOM      5  C   UNL A   1      31.422  26.355  24.767  1.00  0.00     0.138 C 
ATOM      6  C   UNL A   1      31.177  25.676  26.119  1.00  0.00     0.040 C 
ATOM      7  C   UNL A   1      31.685  25.149  23.827  1.00  0.00     0.040 C 
ATOM      8  C   UNL A   1      32.134  24.490  26.137  1.00  0.00     0.003 C 
ATOM      9  C   UNL A   1      32.264  24.033  24.689  1.00  0.00     0.003 C 
BRANCH   5  10
ATOM     10  N   UNL A   1      30.183  27.000  24.267  1.00  0.00    -0.340 N 
ATOM     11  O   UNL A   1      30.763  27.523  22.113  1.00  0.00    -0.275 OA
ATOM     12  C   UNL A   1      29.940  27.515  23.020  1.00  0.00     0.225 C 
ATOM     13  H   UNL A   1      29.442  27.064  24.911  1.00  0.00     0.164 HD
BRANCH  12  14
ATOM     14  C   UNL A   1      28.584  28.195  22.852  1.00  0.00     0.135 C 
BRANCH  14  15
ATOM     15  C   UNL A   1      28.483  29.712  22.729  1.00  0.00    -0.036 A 
ATOM     16  C   UNL A   1      28.800  30.638  23.738  1.00  0.00     0.007 A 
ATOM     17  C   UNL A   1      28.085  30.229  21.478  1.00  0.00     0.046 A 
ATOM     18  C   UNL A   1      28.752  32.017  23.503  1.00  0.00     0.043 A 
ATOM     19  C   UNL A   1      28.028  31.605  21.253  1.00  0.00     0.159 A 
ATOM     20  C   UNL A   1      28.374  32.493  22.258  1.00  0.00     0.158 A 
ATOM     21  F   UNL A   1      27.648  32.059  20.052  1.00  0.00    -0.204 F 
ATOM     22  F   UNL A   1      28.340  33.815  22.047  1.00  0.00    -0.204 F 
ENDBRANCH  14  15
ENDBRANCH  12  14
ENDBRANCH   5  10
ENDBRANCH   3   5
ENDBRANCH   2   3
ENDBRANCH   1   2
BRANCH   1  23
ATOM     23  C   UNL A   1      31.841  30.712  25.901  1.00  0.00     0.275 C 
BRANCH  23  24
ATOM     24  O   UNL A   1      32.376  30.844  27.229  1.00  0.00    -0.458 OA
BRANCH  24  25
ATOM     25  C   UNL A   1      33.171  31.912  27.440  1.00  0.00     0.338 C 
ATOM     26  O   UNL A   1      32.864  33.094  27.429  1.00  0.00    -0.246 OA
BRANCH  25  27
ATOM     27  C   UNL A   1      34.521  31.454  27.794  1.00  0.00     0.060 A 
ATOM     28  C   UNL A   1      34.707  30.099  28.044  1.00  0.00     0.016 A 
ATOM     29  C   UNL A   1      35.545  32.365  28.055  1.00  0.00     0.016 A 
ATOM     30  C   UNL A   1      35.879  29.666  28.653  1.00  0.00     0.010 A 
ATOM     31  C   UNL A   1      36.745  31.914  28.624  1.00  0.00     0.010 A 
ATOM     32  C   UNL A   1      36.896  30.567  28.997  1.00  0.00    -0.014 A 
BRANCH  32  33
ATOM     33  C   UNL A   1      38.011  30.105  29.878  1.00  0.00     0.031 A 
ATOM     34  C   UNL A   1      39.110  29.240  29.306  1.00  0.00     0.074 A 
ATOM     35  C   UNL A   1      38.147  30.568  31.138  1.00  0.00     0.049 A 
ATOM     36  N   UNL A   1      40.130  28.683  29.913  1.00  0.00    -0.248 NA
ATOM     37  C   UNL A   1      39.069  28.980  27.857  1.00  0.00     0.031 C 
ATOM     38  C   UNL A   1      37.241  31.507  31.799  1.00  0.00     0.029 A 
ATOM     39  N   UNL A   1      39.131  30.346  32.074  1.00  0.00    -0.354 N 
ATOM     40  C   UNL A   1      40.832  27.997  28.929  1.00  0.00     0.074 A 
ATOM     41  C   UNL A   1      40.119  28.190  27.686  1.00  0.00     0.031 C 
ATOM     42  C   UNL A   1      37.744  31.834  32.999  1.00  0.00     0.029 A 
ATOM     43  C   UNL A   1      38.959  31.058  33.237  1.00  0.00     0.049 A 
ATOM     44  H   UNL A   1      39.887  29.733  31.925  1.00  0.00     0.167 HD
ATOM     45  C   UNL A   1      41.971  27.275  29.043  1.00  0.00     0.037 A 
ATOM     46  C   UNL A   1      39.675  31.066  34.379  1.00  0.00     0.037 A 
ATOM     47  C   UNL A   1      42.717  27.102  30.259  1.00  0.00     0.049 A 
ATOM     48  C   UNL A   1      40.859  30.148  34.522  1.00  0.00     0.074 A 
ATOM     49  C   UNL A   1      43.841  26.324  30.479  1.00  0.00     0.029 A 
ATOM     50  N   UNL A   1      42.430  27.739  31.454  1.00  0.00    -0.354 N 
ATOM     51  N   UNL A   1      41.437  29.397  33.619  1.00  0.00    -0.248 NA
ATOM     52  C   UNL A   1      41.463  30.047  35.861  1.00  0.00     0.031 C 
ATOM     53  C   UNL A   1      44.217  26.467  31.817  1.00  0.00     0.029 A 
ATOM     54  C   UNL A   1      43.342  27.353  32.422  1.00  0.00     0.049 A 
ATOM     55  H   UNL A   1      41.689  28.372  31.593  1.00  0.00     0.167 HD
ATOM     56  C   UNL A   1      42.463  28.733  34.277  1.00  0.00     0.074 A 
ATOM     57  C   UNL A   1      42.452  29.190  35.649  1.00  0.00     0.031 C 
ATOM     58  C   UNL A   1      43.325  27.811  33.786  1.00  0.00     0.037 A 
BRANCH  45  59
ATOM     59  C   UNL A   1      42.473  26.571  27.820  1.00  0.00     0.064 A 
ATOM     60  C   UNL A   1      42.068  25.256  27.549  1.00  0.00     0.173 A 
ATOM     61  C   UNL A   1      43.406  27.167  26.960  1.00  0.00     0.173 A 
ATOM     62  F   UNL A   1      41.184  24.643  28.350  1.00  0.00    -0.203 F 
ATOM     63  C   UNL A   1      42.589  24.556  26.465  1.00  0.00     0.198 A 
ATOM     64  C   UNL A   1      43.910  26.470  25.864  1.00  0.00     0.198 A 
ATOM     65  F   UNL A   1      43.819  28.423  27.176  1.00  0.00    -0.203 F 
ATOM     66  F   UNL A   1      42.208  23.291  26.239  1.00  0.00    -0.200 F 
ATOM     67  C   UNL A   1      43.508  25.165  25.623  1.00  0.00     0.200 A 
ATOM     68  F   UNL A   1      44.787  27.062  25.040  1.00  0.00    -0.200 F 
ATOM     69  F   UNL A   1      44.006  24.491  24.576  1.00  0.00    -0.200 F 
ENDBRANCH  45  59
BRANCH  46  70
ATOM     70  C   UNL A   1      39.263  31.937  35.511  1.00  0.00     0.064 A 
ATOM     71  C   UNL A   1      38.382  31.480  36.503  1.00  0.00     0.173 A 
ATOM     72  C   UNL A   1      39.761  33.242  35.632  1.00  0.00     0.173 A 
ATOM     73  F   UNL A   1      37.891  30.234  36.443  1.00  0.00    -0.203 F 
ATOM     74  C   UNL A   1      37.994  32.303  37.557  1.00  0.00     0.198 A 
ATOM     75  C   UNL A   1      39.394  34.055  36.703  1.00  0.00     0.198 A 
ATOM     76  F   UNL A   1      40.632  33.713  34.727  1.00  0.00    -0.203 F 
ATOM     77  F   UNL A   1      37.130  31.849  38.474  1.00  0.00    -0.200 F 
ATOM     78  C   UNL A   1      38.505  33.587  37.660  1.00  0.00     0.200 A 
ATOM     79  F   UNL A   1      39.915  35.284  36.817  1.00  0.00    -0.200 F 
ATOM     80  F   UNL A   1      38.149  34.371  38.686  1.00  0.00    -0.200 F 
ENDBRANCH  46  70
BRANCH  58  81
ATOM     81  C   UNL A   1      44.322  27.211  34.728  1.00  0.00     0.064 A 
ATOM     82  C   UNL A   1      45.589  27.789  34.899  1.00  0.00     0.173 A 
ATOM     83  C   UNL A   1      44.053  26.004  35.389  1.00  0.00     0.173 A 
ATOM     84  F   UNL A   1      45.896  28.939  34.281  1.00  0.00    -0.203 F 
ATOM     85  C   UNL A   1      46.556  27.169  35.686  1.00  0.00     0.198 A 
ATOM     86  C   UNL A   1      45.016  25.398  36.191  1.00  0.00     0.198 A 
ATOM     87  F   UNL A   1      42.852  25.420  35.266  1.00  0.00    -0.203 F 
ATOM     88  F   UNL A   1      47.772  27.722  35.810  1.00  0.00    -0.200 F 
ATOM     89  C   UNL A   1      46.270  25.975  36.330  1.00  0.00     0.200 A 
ATOM     90  F   UNL A   1      44.732  24.253  36.827  1.00  0.00    -0.200 F 
ATOM     91  F   UNL A   1      47.202  25.380  37.085  1.00  0.00    -0.200 F 
ENDBRANCH  58  81
ENDBRANCH  32  33
ENDBRANCH  25  27
ENDBRANCH  24  25
ENDBRANCH  23  24
ENDBRANCH   1  23
TORSDOF 14
ENDMDL
MODEL 3
REMARK VINA RESULT:     -10.3      4.024      6.699
REMARK SMILES O=C(Cc1ccc(F)c(F)c1)NC1(C(=O)OCCOC(=O)c2ccc(-c3c4nc(c(-c5c(F)c(F)c(F)c(F)c5F)c5ccc([nH]5)c(-c5c(F)c(F)c(F)c(F)c5F)c5nc(c(-c6c(F)c(F)c(F)c(F)c6F)c6ccc3[nH]6)C=C5)C=C4)cc2)CCCC1
REMARK SMILES IDX 17 1 16 2 14 3 15 4 13 5 85 6 88 7 86 8 87 9 12 10 1 11 2 12
REMARK SMILES IDX 3 14 4 15 5 16 11 17 6 18 9 19 7 20 10 21 8 22 18 23 19 24
REMARK SMILES IDX 20 25 21 26 22 27 23 28 84 29 24 30 83 31 25 32 26 33 27 34
REMARK SMILES IDX 77 35 28 36 82 37 76 38 78 39 29 40 81 41 75 42 74 43 30 45
REMARK SMILES IDX 62 46 42 47 61 48 43 49 46 50 60 51 79 52 44 53 45 54 59 56
REMARK SMILES IDX 80 57 47 58 31 59 32 60 40 61 33 62 34 63 38 64 41 65 35 66
REMARK SMILES IDX 36 67 39 68 37 69 63 70 64 71 72 72 65 73 66 74 70 75 73 76
REMARK SMILES IDX 67 77 68 78 71 79 69 80 48 81 49 82 57 83 50 84 51 85 55 86
REMARK SMILES IDX 58 87 52 88 53 89 56 90 54 91
REMARK H PARENT 12 13 78 44 46 55
REMARK Flexibility Score: inf
ROOT
ATOM      1  C   UNL A   1      36.713  22.665  23.600  1.00  0.00     0.274 C 
ENDROOT
BRANCH   1   2
ATOM      2  O   UNL A   1      35.746  23.450  24.331  1.00  0.00    -0.460 OA
BRANCH   2   3
ATOM      3  C   UNL A   1      34.520  23.617  23.749  1.00  0.00     0.331 C 
ATOM      4  O   UNL A   1      34.386  23.927  22.574  1.00  0.00    -0.249 OA
BRANCH   3   5
ATOM      5  C   UNL A   1      33.342  23.455  24.783  1.00  0.00     0.138 C 
ATOM      6  C   UNL A   1      32.121  24.242  24.295  1.00  0.00     0.040 C 
ATOM      7  C   UNL A   1      33.674  24.149  26.130  1.00  0.00     0.040 C 
ATOM      8  C   UNL A   1      32.389  25.680  24.724  1.00  0.00     0.003 C 
ATOM      9  C   UNL A   1      33.189  25.590  26.018  1.00  0.00     0.003 C 
BRANCH   5  10
ATOM     10  N   UNL A   1      32.971  22.060  25.123  1.00  0.00    -0.340 N 
ATOM     11  O   UNL A   1      32.391  21.216  23.074  1.00  0.00    -0.275 OA
ATOM     12  C   UNL A   1      32.543  21.067  24.280  1.00  0.00     0.225 C 
ATOM     13  H   UNL A   1      33.042  21.816  26.074  1.00  0.00     0.164 HD
BRANCH  12  14
ATOM     14  C   UNL A   1      32.153  19.759  24.964  1.00  0.00     0.135 C 
BRANCH  14  15
ATOM     15  C   UNL A   1      33.080  18.549  24.915  1.00  0.00    -0.036 A 
ATOM     16  C   UNL A   1      34.441  18.574  24.562  1.00  0.00     0.007 A 
ATOM     17  C   UNL A   1      32.535  17.307  25.305  1.00  0.00     0.046 A 
ATOM     18  C   UNL A   1      35.232  17.420  24.625  1.00  0.00     0.043 A 
ATOM     19  C   UNL A   1      33.326  16.158  25.354  1.00  0.00     0.159 A 
ATOM     20  C   UNL A   1      34.670  16.219  25.029  1.00  0.00     0.158 A 
ATOM     21  F   UNL A   1      32.774  14.998  25.732  1.00  0.00    -0.204 F 
ATOM     22  F   UNL A   1      35.442  15.126  25.091  1.00  0.00    -0.204 F 
ENDBRANCH  14  15
ENDBRANCH  12  14
ENDBRANCH   5  10
ENDBRANCH   3   5
ENDBRANCH   2   3
ENDBRANCH   1   2
BRANCH   1  23
ATOM     23  C   UNL A   1      37.090  21.401  24.369  1.00  0.00     0.275 C 
BRANCH  23  24
ATOM     24  O   UNL A   1      37.454  21.746  25.715  1.00  0.00    -0.458 OA
BRANCH  24  25
ATOM     25  C   UNL A   1      38.748  21.558  26.043  1.00  0.00     0.338 C 
ATOM     26  O   UNL A   1      39.462  20.603  25.777  1.00  0.00    -0.246 OA
BRANCH  25  27
ATOM     27  C   UNL A   1      39.257  22.754  26.727  1.00  0.00     0.060 A 
ATOM     28  C   UNL A   1      38.645  23.972  26.457  1.00  0.00     0.016 A 
ATOM     29  C   UNL A   1      40.432  22.707  27.479  1.00  0.00     0.016 A 
ATOM     30  C   UNL A   1      39.263  25.154  26.849  1.00  0.00     0.010 A 
ATOM     31  C   UNL A   1      41.024  23.902  27.914  1.00  0.00     0.010 A 
ATOM     32  C   UNL A   1      40.482  25.144  27.539  1.00  0.00    -0.014 A 
BRANCH  32  33
ATOM     33  C   UNL A   1      41.235  26.424  27.707  1.00  0.00     0.031 A 
ATOM     34  C   UNL A   1      40.649  27.534  28.549  1.00  0.00     0.074 A 
ATOM     35  C   UNL A   1      42.499  26.558  27.254  1.00  0.00     0.049 A 
ATOM     36  N   UNL A   1      41.111  28.741  28.769  1.00  0.00    -0.248 NA
ATOM     37  C   UNL A   1      39.388  27.244  29.251  1.00  0.00     0.031 C 
ATOM     38  C   UNL A   1      43.254  25.535  26.533  1.00  0.00     0.029 A 
ATOM     39  N   UNL A   1      43.390  27.600  27.378  1.00  0.00    -0.354 N 
ATOM     40  C   UNL A   1      40.190  29.354  29.611  1.00  0.00     0.074 A 
ATOM     41  C   UNL A   1      39.134  28.397  29.853  1.00  0.00     0.031 C 
ATOM     42  C   UNL A   1      44.510  25.968  26.340  1.00  0.00     0.029 A 
ATOM     43  C   UNL A   1      44.626  27.337  26.838  1.00  0.00     0.049 A 
ATOM     44  H   UNL A   1      43.163  28.454  27.811  1.00  0.00     0.167 HD
ATOM     45  C   UNL A   1      40.219  30.599  30.141  1.00  0.00     0.037 A 
ATOM     46  C   UNL A   1      45.722  28.115  26.725  1.00  0.00     0.037 A 
ATOM     47  C   UNL A   1      41.277  31.552  29.945  1.00  0.00     0.049 A 
ATOM     48  C   UNL A   1      45.675  29.540  27.204  1.00  0.00     0.074 A 
ATOM     49  C   UNL A   1      41.350  32.863  30.385  1.00  0.00     0.029 A 
ATOM     50  N   UNL A   1      42.459  31.287  29.275  1.00  0.00    -0.354 N 
ATOM     51  N   UNL A   1      44.740  30.154  27.885  1.00  0.00    -0.248 NA
ATOM     52  C   UNL A   1      46.822  30.395  26.857  1.00  0.00     0.031 C 
ATOM     53  C   UNL A   1      42.565  33.402  29.954  1.00  0.00     0.029 A 
ATOM     54  C   UNL A   1      43.258  32.418  29.269  1.00  0.00     0.049 A 
ATOM     55  H   UNL A   1      42.695  30.424  28.865  1.00  0.00     0.167 HD
ATOM     56  C   UNL A   1      45.180  31.461  28.043  1.00  0.00     0.074 A 
ATOM     57  C   UNL A   1      46.480  31.549  27.415  1.00  0.00     0.031 C 
ATOM     58  C   UNL A   1      44.550  32.499  28.641  1.00  0.00     0.037 A 
BRANCH  45  59
ATOM     59  C   UNL A   1      39.045  31.032  30.964  1.00  0.00     0.064 A 
ATOM     60  C   UNL A   1      39.025  30.784  32.345  1.00  0.00     0.173 A 
ATOM     61  C   UNL A   1      37.916  31.624  30.381  1.00  0.00     0.173 A 
ATOM     62  F   UNL A   1      40.080  30.211  32.944  1.00  0.00    -0.203 F 
ATOM     63  C   UNL A   1      37.909  31.101  33.112  1.00  0.00     0.198 A 
ATOM     64  C   UNL A   1      36.809  31.959  31.156  1.00  0.00     0.198 A 
ATOM     65  F   UNL A   1      37.892  31.884  29.067  1.00  0.00    -0.203 F 
ATOM     66  F   UNL A   1      37.899  30.831  34.425  1.00  0.00    -0.200 F 
ATOM     67  C   UNL A   1      36.802  31.690  32.517  1.00  0.00     0.200 A 
ATOM     68  F   UNL A   1      35.744  32.542  30.586  1.00  0.00    -0.200 F 
ATOM     69  F   UNL A   1      35.729  32.000  33.259  1.00  0.00    -0.200 F 
ENDBRANCH  45  59
BRANCH  46  70
ATOM     70  C   UNL A   1      46.950  27.583  26.079  1.00  0.00     0.064 A 
ATOM     71  C   UNL A   1      47.964  26.968  26.829  1.00  0.00     0.173 A 
ATOM     72  C   UNL A   1      47.124  27.663  24.690  1.00  0.00     0.173 A 
ATOM     73  F   UNL A   1      47.838  26.852  28.159  1.00  0.00    -0.203 F 
ATOM     74  C   UNL A   1      49.115  26.478  26.219  1.00  0.00     0.198 A 
ATOM     75  C   UNL A   1      48.263  27.145  24.077  1.00  0.00     0.198 A 
ATOM     76  F   UNL A   1      46.167  28.211  23.926  1.00  0.00    -0.203 F 
ATOM     77  F   UNL A   1      50.079  25.921  26.964  1.00  0.00    -0.200 F 
ATOM     78  C   UNL A   1      49.262  26.561  24.843  1.00  0.00     0.200 A 
ATOM     79  F   UNL A   1      48.387  27.199  22.744  1.00  0.00    -0.200 F 
ATOM     80  F   UNL A   1      50.360  26.069  24.254  1.00  0.00    -0.200 F 
ENDBRANCH  46  70
BRANCH  58  81
ATOM     81  C   UNL A   1      45.234  33.832  28.638  1.00  0.00     0.064 A 
ATOM     82  C   UNL A   1      45.110  34.702  27.544  1.00  0.00     0.173 A 
ATOM     83  C   UNL A   1      46.092  34.203  29.683  1.00  0.00     0.173 A 
ATOM     84  F   UNL A   1      44.307  34.386  26.518  1.00  0.00    -0.203 F 
ATOM     85  C   UNL A   1      45.836  35.888  27.491  1.00  0.00     0.198 A 
ATOM     86  C   UNL A   1      46.801  35.400  29.634  1.00  0.00     0.198 A 
ATOM     87  F   UNL A   1      46.233  33.409  30.755  1.00  0.00    -0.203 F 
ATOM     88  F   UNL A   1      45.728  36.691  26.422  1.00  0.00    -0.200 F 
ATOM     89  C   UNL A   1      46.680  36.236  28.535  1.00  0.00     0.200 A 
ATOM     90  F   UNL A   1      47.604  35.743  30.652  1.00  0.00    -0.200 F 
ATOM     91  F   UNL A   1      47.379  37.378  28.480  1.00  0.00    -0.200 F 
ENDBRANCH  58  81
ENDBRANCH  32  33
ENDBRANCH  25  27
ENDBRANCH  24  25
ENDBRANCH  23  24
ENDBRANCH   1  23
TORSDOF 14
ENDMDL
