MODEL 1
REMARK VINA RESULT:     -11.6      0.000      0.000
REMARK SMILES COc1ccc([C@H](CC(=O)OCCOC(=O)c2ccc(-c3c4nc(c(-c5c(F)c(F)c(F)c(F)c5F)c5ccc([nH]5)c(-c5c(F)c(F)c(F)c(F)c5F)c5nc(c(-c6c(F)c(F)c(F)c(F)c6F)c6ccc3[nH]6)C=C5)C=C4)cc2)NC(C)=O)cc1
REMARK SMILES IDX 12 1 11 2 9 3 10 4 8 5 7 6 6 7 3 8 4 9 85 10 5 11 84 12 2 13
REMARK SMILES IDX 1 14 80 15 81 16 82 18 83 19 13 20 14 21 15 22 16 23 17 24
REMARK SMILES IDX 18 25 79 26 19 27 78 28 20 29 21 30 22 31 72 32 23 33 77 34
REMARK SMILES IDX 71 35 73 36 24 37 76 38 70 39 69 40 25 42 57 43 37 44 56 45
REMARK SMILES IDX 38 46 41 47 55 48 74 49 39 50 40 51 54 53 75 54 42 55 26 56
REMARK SMILES IDX 27 57 35 58 28 59 29 60 33 61 36 62 30 63 31 64 34 65 32 66
REMARK SMILES IDX 58 67 59 68 67 69 60 70 61 71 65 72 68 73 62 74 63 75 66 76
REMARK SMILES IDX 64 77 43 78 44 79 52 80 45 81 46 82 50 83 53 84 47 85 48 86
REMARK SMILES IDX 51 87 49 88
REMARK H PARENT 80 17 73 41 41 52
REMARK Flexibility Score: inf
ROOT
ATOM      1  C   UNL A   1      36.137  20.404  24.885  1.00  0.00     0.274 C 
ENDROOT
BRANCH   1   2
ATOM      2  O   UNL A   1      35.843  21.772  24.536  1.00  0.00    -0.462 OA
BRANCH   2   3
ATOM      3  C   UNL A   1      34.624  22.237  24.904  1.00  0.00     0.308 C 
ATOM      4  O   UNL A   1      34.429  22.964  25.873  1.00  0.00    -0.252 OA
BRANCH   3   5
ATOM      5  C   UNL A   1      33.522  21.935  23.910  1.00  0.00     0.152 C 
BRANCH   5   6
ATOM      6  C   UNL A   1      32.333  21.056  24.328  1.00  0.00     0.123 C 
BRANCH   6   7
ATOM      7  C   UNL A   1      32.555  19.549  24.371  1.00  0.00    -0.025 A 
ATOM      8  C   UNL A   1      33.142  16.798  24.424  1.00  0.00     0.118 A 
ATOM      9  C   UNL A   1      32.970  17.492  25.616  1.00  0.00     0.047 A 
ATOM     10  C   UNL A   1      32.901  17.429  23.210  1.00  0.00     0.047 A 
ATOM     11  C   UNL A   1      32.679  18.858  25.589  1.00  0.00     0.010 A 
ATOM     12  C   UNL A   1      32.592  18.791  23.187  1.00  0.00     0.010 A 
BRANCH   8  13
ATOM     13  O   UNL A   1      33.506  15.481  24.504  1.00  0.00    -0.497 OA
ATOM     14  C   UNL A   1      32.710  14.783  25.463  1.00  0.00     0.278 C 
ENDBRANCH   8  13
ENDBRANCH   6   7
BRANCH   6  15
ATOM     15  N   UNL A   1      31.753  21.581  25.561  1.00  0.00    -0.349 N 
ATOM     16  C   UNL A   1      30.957  22.705  25.552  1.00  0.00     0.217 C 
ATOM     17  H   UNL A   1      31.933  21.123  26.413  1.00  0.00     0.164 HD
ATOM     18  C   UNL A   1      30.435  23.105  26.902  1.00  0.00     0.114 C 
ATOM     19  O   UNL A   1      30.669  23.324  24.533  1.00  0.00    -0.275 OA
ENDBRANCH   6  15
ENDBRANCH   5   6
ENDBRANCH   3   5
ENDBRANCH   2   3
ENDBRANCH   1   2
BRANCH   1  20
ATOM     20  C   UNL A   1      37.653  20.213  24.986  1.00  0.00     0.275 C 
BRANCH  20  21
ATOM     21  O   UNL A   1      38.193  21.149  25.939  1.00  0.00    -0.458 OA
BRANCH  21  22
ATOM     22  C   UNL A   1      39.499  20.977  26.246  1.00  0.00     0.338 C 
ATOM     23  O   UNL A   1      40.138  19.938  26.138  1.00  0.00    -0.246 OA
BRANCH  22  24
ATOM     24  C   UNL A   1      40.072  22.236  26.778  1.00  0.00     0.060 A 
ATOM     25  C   UNL A   1      41.069  22.246  27.760  1.00  0.00     0.016 A 
ATOM     26  C   UNL A   1      39.593  23.447  26.271  1.00  0.00     0.016 A 
ATOM     27  C   UNL A   1      41.581  23.456  28.237  1.00  0.00     0.010 A 
ATOM     28  C   UNL A   1      40.154  24.653  26.696  1.00  0.00     0.010 A 
ATOM     29  C   UNL A   1      41.160  24.670  27.674  1.00  0.00    -0.014 A 
BRANCH  29  30
ATOM     30  C   UNL A   1      41.827  25.954  28.015  1.00  0.00     0.031 A 
ATOM     31  C   UNL A   1      41.085  27.036  28.747  1.00  0.00     0.074 A 
ATOM     32  C   UNL A   1      43.077  26.178  27.559  1.00  0.00     0.049 A 
ATOM     33  N   UNL A   1      41.429  28.281  28.958  1.00  0.00    -0.248 NA
ATOM     34  C   UNL A   1      39.770  26.675  29.299  1.00  0.00     0.031 C 
ATOM     35  C   UNL A   1      43.891  25.211  26.820  1.00  0.00     0.029 A 
ATOM     36  N   UNL A   1      43.870  27.296  27.623  1.00  0.00    -0.354 N 
ATOM     37  C   UNL A   1      40.364  28.862  29.635  1.00  0.00     0.074 A 
ATOM     38  C   UNL A   1      39.355  27.835  29.791  1.00  0.00     0.031 C 
ATOM     39  C   UNL A   1      45.064  25.775  26.497  1.00  0.00     0.029 A 
ATOM     40  C   UNL A   1      45.064  27.159  26.955  1.00  0.00     0.049 A 
ATOM     41  H   UNL A   1      43.610  28.117  28.100  1.00  0.00     0.167 HD
ATOM     42  C   UNL A   1      40.245  30.136  30.083  1.00  0.00     0.037 A 
ATOM     43  C   UNL A   1      46.035  28.057  26.706  1.00  0.00     0.037 A 
ATOM     44  C   UNL A   1      41.268  31.143  29.942  1.00  0.00     0.049 A 
ATOM     45  C   UNL A   1      45.872  29.463  27.211  1.00  0.00     0.074 A 
ATOM     46  C   UNL A   1      41.266  32.448  30.403  1.00  0.00     0.029 A 
ATOM     47  N   UNL A   1      42.477  30.954  29.286  1.00  0.00    -0.354 N 
ATOM     48  N   UNL A   1      44.873  29.992  27.874  1.00  0.00    -0.248 NA
ATOM     49  C   UNL A   1      46.970  30.397  26.930  1.00  0.00     0.031 C 
ATOM     50  C   UNL A   1      42.454  33.062  29.992  1.00  0.00     0.029 A 
ATOM     51  C   UNL A   1      43.219  32.125  29.315  1.00  0.00     0.049 A 
ATOM     52  H   UNL A   1      42.765  30.113  28.864  1.00  0.00     0.167 HD
ATOM     53  C   UNL A   1      45.230  31.312  28.109  1.00  0.00     0.074 A 
ATOM     54  C   UNL A   1      46.547  31.497  27.536  1.00  0.00     0.031 C 
ATOM     55  C   UNL A   1      44.528  32.286  28.739  1.00  0.00     0.037 A 
BRANCH  42  56
ATOM     56  C   UNL A   1      38.962  30.529  30.757  1.00  0.00     0.064 A 
ATOM     57  C   UNL A   1      38.812  30.476  32.150  1.00  0.00     0.173 A 
ATOM     58  C   UNL A   1      37.889  31.029  30.003  1.00  0.00     0.173 A 
ATOM     59  F   UNL A   1      39.804  29.998  32.918  1.00  0.00    -0.203 F 
ATOM     60  C   UNL A   1      37.631  30.892  32.762  1.00  0.00     0.198 A 
ATOM     61  C   UNL A   1      36.719  31.469  30.618  1.00  0.00     0.198 A 
ATOM     62  F   UNL A   1      37.980  31.109  28.667  1.00  0.00    -0.203 F 
ATOM     63  F   UNL A   1      37.499  30.802  34.092  1.00  0.00    -0.200 F 
ATOM     64  C   UNL A   1      36.590  31.395  31.997  1.00  0.00     0.200 A 
ATOM     65  F   UNL A   1      35.720  31.969  29.879  1.00  0.00    -0.200 F 
ATOM     66  F   UNL A   1      35.460  31.808  32.588  1.00  0.00    -0.200 F 
ENDBRANCH  42  56
BRANCH  43  67
ATOM     67  C   UNL A   1      47.242  27.655  25.938  1.00  0.00     0.064 A 
ATOM     68  C   UNL A   1      48.400  27.219  26.595  1.00  0.00     0.173 A 
ATOM     69  C   UNL A   1      47.266  27.696  24.535  1.00  0.00     0.173 A 
ATOM     70  F   UNL A   1      48.434  27.183  27.935  1.00  0.00    -0.203 F 
ATOM     71  C   UNL A   1      49.542  26.859  25.883  1.00  0.00     0.198 A 
ATOM     72  C   UNL A   1      48.397  27.306  23.822  1.00  0.00     0.198 A 
ATOM     73  F   UNL A   1      46.182  28.102  23.857  1.00  0.00    -0.203 F 
ATOM     74  F   UNL A   1      50.650  26.492  26.539  1.00  0.00    -0.200 F 
ATOM     75  C   UNL A   1      49.537  26.896  24.497  1.00  0.00     0.200 A 
ATOM     76  F   UNL A   1      48.383  27.329  22.483  1.00  0.00    -0.200 F 
ATOM     77  F   UNL A   1      50.633  26.545  23.811  1.00  0.00    -0.200 F 
ENDBRANCH  43  67
BRANCH  55  78
ATOM     78  C   UNL A   1      45.194  33.625  28.864  1.00  0.00     0.064 A 
ATOM     79  C   UNL A   1      45.003  34.632  27.906  1.00  0.00     0.173 A 
ATOM     80  C   UNL A   1      46.028  33.904  29.956  1.00  0.00     0.173 A 
ATOM     81  F   UNL A   1      44.229  34.405  26.833  1.00  0.00    -0.203 F 
ATOM     82  C   UNL A   1      45.650  35.859  28.021  1.00  0.00     0.198 A 
ATOM     83  C   UNL A   1      46.650  35.142  30.083  1.00  0.00     0.198 A 
ATOM     84  F   UNL A   1      46.238  32.975  30.901  1.00  0.00    -0.203 F 
ATOM     85  F   UNL A   1      45.499  36.786  27.065  1.00  0.00    -0.200 F 
ATOM     86  C   UNL A   1      46.468  36.115  29.111  1.00  0.00     0.200 A 
ATOM     87  F   UNL A   1      47.432  35.392  31.143  1.00  0.00    -0.200 F 
ATOM     88  F   UNL A   1      47.092  37.296  29.219  1.00  0.00    -0.200 F 
ENDBRANCH  55  78
ENDBRANCH  29  30
ENDBRANCH  22  24
ENDBRANCH  21  22
ENDBRANCH  20  21
ENDBRANCH   1  20
TORSDOF 15
ENDMDL
MODEL 2
REMARK VINA RESULT:     -11.3      4.530      9.748
REMARK SMILES COc1ccc([C@H](CC(=O)OCCOC(=O)c2ccc(-c3c4nc(c(-c5c(F)c(F)c(F)c(F)c5F)c5ccc([nH]5)c(-c5c(F)c(F)c(F)c(F)c5F)c5nc(c(-c6c(F)c(F)c(F)c(F)c6F)c6ccc3[nH]6)C=C5)C=C4)cc2)NC(C)=O)cc1
REMARK SMILES IDX 12 1 11 2 9 3 10 4 8 5 7 6 6 7 3 8 4 9 85 10 5 11 84 12 2 13
REMARK SMILES IDX 1 14 80 15 81 16 82 18 83 19 13 20 14 21 15 22 16 23 17 24
REMARK SMILES IDX 18 25 79 26 19 27 78 28 20 29 21 30 22 31 72 32 23 33 77 34
REMARK SMILES IDX 71 35 73 36 24 37 76 38 70 39 69 40 25 42 57 43 37 44 56 45
REMARK SMILES IDX 38 46 41 47 55 48 74 49 39 50 40 51 54 53 75 54 42 55 26 56
REMARK SMILES IDX 27 57 35 58 28 59 29 60 33 61 36 62 30 63 31 64 34 65 32 66
REMARK SMILES IDX 58 67 59 68 67 69 60 70 61 71 65 72 68 73 62 74 63 75 66 76
REMARK SMILES IDX 64 77 43 78 44 79 52 80 45 81 46 82 50 83 53 84 47 85 48 86
REMARK SMILES IDX 51 87 49 88
REMARK H PARENT 80 17 73 41 41 52
REMARK Flexibility Score: inf
ROOT
ATOM      1  C   UNL A   1      31.377  29.292  24.614  1.00  0.00     0.274 C 
ENDROOT
BRANCH   1   2
ATOM      2  O   UNL A   1      31.196  27.876  24.821  1.00  0.00    -0.462 OA
BRANCH   2   3
ATOM      3  C   UNL A   1      30.694  27.175  23.776  1.00  0.00     0.308 C 
ATOM      4  O   UNL A   1      30.370  27.676  22.703  1.00  0.00    -0.252 OA
BRANCH   3   5
ATOM      5  C   UNL A   1      30.729  25.673  23.967  1.00  0.00     0.152 C 
BRANCH   5   6
ATOM      6  C   UNL A   1      31.848  24.844  23.315  1.00  0.00     0.123 C 
BRANCH   6   7
ATOM      7  C   UNL A   1      32.021  23.404  23.786  1.00  0.00    -0.025 A 
ATOM      8  C   UNL A   1      32.156  20.735  24.666  1.00  0.00     0.118 A 
ATOM      9  C   UNL A   1      32.275  21.025  23.312  1.00  0.00     0.047 A 
ATOM     10  C   UNL A   1      32.099  21.767  25.595  1.00  0.00     0.047 A 
ATOM     11  C   UNL A   1      32.207  22.350  22.875  1.00  0.00     0.010 A 
ATOM     12  C   UNL A   1      32.048  23.092  25.157  1.00  0.00     0.010 A 
BRANCH   8  13
ATOM     13  O   UNL A   1      32.148  19.418  25.034  1.00  0.00    -0.497 OA
ATOM     14  C   UNL A   1      33.452  18.844  24.930  1.00  0.00     0.278 C 
ENDBRANCH   8  13
ENDBRANCH   6   7
BRANCH   6  15
ATOM     15  N   UNL A   1      31.754  24.960  21.863  1.00  0.00    -0.349 N 
ATOM     16  C   UNL A   1      32.761  25.544  21.128  1.00  0.00     0.217 C 
ATOM     17  H   UNL A   1      30.957  24.613  21.401  1.00  0.00     0.164 HD
ATOM     18  C   UNL A   1      32.510  25.576  19.648  1.00  0.00     0.114 C 
ATOM     19  O   UNL A   1      33.794  25.985  21.622  1.00  0.00    -0.275 OA
ENDBRANCH   6  15
ENDBRANCH   5   6
ENDBRANCH   3   5
ENDBRANCH   2   3
ENDBRANCH   1   2
BRANCH   1  20
ATOM     20  C   UNL A   1      32.729  29.727  25.186  1.00  0.00     0.275 C 
BRANCH  20  21
ATOM     21  O   UNL A   1      32.616  29.898  26.611  1.00  0.00    -0.458 OA
BRANCH  21  22
ATOM     22  C   UNL A   1      33.101  31.063  27.097  1.00  0.00     0.338 C 
ATOM     23  O   UNL A   1      32.543  32.152  27.059  1.00  0.00    -0.246 OA
BRANCH  22  24
ATOM     24  C   UNL A   1      34.452  30.858  27.673  1.00  0.00     0.060 A 
ATOM     25  C   UNL A   1      35.329  31.921  27.913  1.00  0.00     0.016 A 
ATOM     26  C   UNL A   1      34.848  29.554  27.982  1.00  0.00     0.016 A 
ATOM     27  C   UNL A   1      36.595  31.684  28.456  1.00  0.00     0.010 A 
ATOM     28  C   UNL A   1      36.084  29.325  28.589  1.00  0.00     0.010 A 
ATOM     29  C   UNL A   1      36.966  30.387  28.841  1.00  0.00    -0.014 A 
BRANCH  29  30
ATOM     30  C   UNL A   1      38.218  30.133  29.601  1.00  0.00     0.031 A 
ATOM     31  C   UNL A   1      39.262  29.191  29.071  1.00  0.00     0.074 A 
ATOM     32  C   UNL A   1      38.355  30.675  30.829  1.00  0.00     0.049 A 
ATOM     33  N   UNL A   1      40.315  28.697  29.671  1.00  0.00    -0.248 NA
ATOM     34  C   UNL A   1      39.088  28.727  27.686  1.00  0.00     0.031 C 
ATOM     35  C   UNL A   1      37.399  31.589  31.458  1.00  0.00     0.029 A 
ATOM     36  N   UNL A   1      39.333  30.515  31.778  1.00  0.00    -0.354 N 
ATOM     37  C   UNL A   1      40.910  27.840  28.754  1.00  0.00     0.074 A 
ATOM     38  C   UNL A   1      40.094  27.872  27.558  1.00  0.00     0.031 C 
ATOM     39  C   UNL A   1      37.835  31.908  32.686  1.00  0.00     0.029 A 
ATOM     40  C   UNL A   1      39.068  31.177  32.954  1.00  0.00     0.049 A 
ATOM     41  H   UNL A   1      40.145  29.979  31.633  1.00  0.00     0.167 HD
ATOM     42  C   UNL A   1      42.034  27.097  28.902  1.00  0.00     0.037 A 
ATOM     43  C   UNL A   1      39.723  31.170  34.128  1.00  0.00     0.037 A 
ATOM     44  C   UNL A   1      42.851  27.092  30.091  1.00  0.00     0.049 A 
ATOM     45  C   UNL A   1      40.964  30.332  34.264  1.00  0.00     0.074 A 
ATOM     46  C   UNL A   1      44.035  26.413  30.324  1.00  0.00     0.029 A 
ATOM     47  N   UNL A   1      42.565  27.802  31.249  1.00  0.00    -0.354 N 
ATOM     48  N   UNL A   1      41.531  29.548  33.380  1.00  0.00    -0.248 NA
ATOM     49  C   UNL A   1      41.652  30.376  35.560  1.00  0.00     0.031 C 
ATOM     50  C   UNL A   1      44.443  26.678  31.635  1.00  0.00     0.029 A 
ATOM     51  C   UNL A   1      43.539  27.561  32.205  1.00  0.00     0.049 A 
ATOM     52  H   UNL A   1      41.785  28.390  31.372  1.00  0.00     0.167 HD
ATOM     53  C   UNL A   1      42.654  29.022  34.004  1.00  0.00     0.074 A 
ATOM     54  C   UNL A   1      42.698  29.595  35.334  1.00  0.00     0.031 C 
ATOM     55  C   UNL A   1      43.564  28.142  33.521  1.00  0.00     0.037 A 
BRANCH  42  56
ATOM     56  C   UNL A   1      42.449  26.212  27.762  1.00  0.00     0.064 A 
ATOM     57  C   UNL A   1      41.873  24.950  27.557  1.00  0.00     0.173 A 
ATOM     58  C   UNL A   1      43.390  26.661  26.822  1.00  0.00     0.173 A 
ATOM     59  F   UNL A   1      40.975  24.469  28.431  1.00  0.00    -0.203 F 
ATOM     60  C   UNL A   1      42.234  24.164  26.465  1.00  0.00     0.198 A 
ATOM     61  C   UNL A   1      43.730  25.884  25.717  1.00  0.00     0.198 A 
ATOM     62  F   UNL A   1      43.968  27.863  26.964  1.00  0.00    -0.203 F 
ATOM     63  F   UNL A   1      41.694  22.947  26.309  1.00  0.00    -0.200 F 
ATOM     64  C   UNL A   1      43.155  24.634  25.542  1.00  0.00     0.200 A 
ATOM     65  F   UNL A   1      44.610  26.347  24.818  1.00  0.00    -0.200 F 
ATOM     66  F   UNL A   1      43.492  23.883  24.485  1.00  0.00    -0.200 F 
ENDBRANCH  42  56
BRANCH  43  67
ATOM     67  C   UNL A   1      39.216  31.976  35.270  1.00  0.00     0.064 A 
ATOM     68  C   UNL A   1      39.500  33.345  35.364  1.00  0.00     0.173 A 
ATOM     69  C   UNL A   1      38.439  31.400  36.287  1.00  0.00     0.173 A 
ATOM     70  F   UNL A   1      40.257  33.937  34.429  1.00  0.00    -0.203 F 
ATOM     71  C   UNL A   1      39.045  34.103  36.441  1.00  0.00     0.198 A 
ATOM     72  C   UNL A   1      37.958  32.166  37.347  1.00  0.00     0.198 A 
ATOM     73  F   UNL A   1      38.136  30.094  36.242  1.00  0.00    -0.203 F 
ATOM     74  F   UNL A   1      39.372  35.399  36.530  1.00  0.00    -0.200 F 
ATOM     75  C   UNL A   1      38.269  33.514  37.428  1.00  0.00     0.200 A 
ATOM     76  F   UNL A   1      37.195  31.596  38.289  1.00  0.00    -0.200 F 
ATOM     77  F   UNL A   1      37.826  34.244  38.460  1.00  0.00    -0.200 F 
ENDBRANCH  43  67
BRANCH  55  78
ATOM     78  C   UNL A   1      44.698  27.775  34.433  1.00  0.00     0.064 A 
ATOM     79  C   UNL A   1      45.879  28.531  34.477  1.00  0.00     0.173 A 
ATOM     80  C   UNL A   1      44.598  26.658  35.276  1.00  0.00     0.173 A 
ATOM     81  F   UNL A   1      46.029  29.597  33.676  1.00  0.00    -0.203 F 
ATOM     82  C   UNL A   1      46.933  28.161  35.308  1.00  0.00     0.198 A 
ATOM     83  C   UNL A   1      45.643  26.309  36.127  1.00  0.00     0.198 A 
ATOM     84  F   UNL A   1      43.488  25.906  35.274  1.00  0.00    -0.203 F 
ATOM     85  F   UNL A   1      48.074  28.865  35.293  1.00  0.00    -0.200 F 
ATOM     86  C   UNL A   1      46.812  27.055  36.135  1.00  0.00     0.200 A 
ATOM     87  F   UNL A   1      45.521  25.246  36.933  1.00  0.00    -0.200 F 
ATOM     88  F   UNL A   1      47.829  26.699  36.933  1.00  0.00    -0.200 F 
ENDBRANCH  55  78
ENDBRANCH  29  30
ENDBRANCH  22  24
ENDBRANCH  21  22
ENDBRANCH  20  21
ENDBRANCH   1  20
TORSDOF 15
ENDMDL
MODEL 3
REMARK VINA RESULT:     -11.3      4.540      9.823
REMARK SMILES COc1ccc([C@H](CC(=O)OCCOC(=O)c2ccc(-c3c4nc(c(-c5c(F)c(F)c(F)c(F)c5F)c5ccc([nH]5)c(-c5c(F)c(F)c(F)c(F)c5F)c5nc(c(-c6c(F)c(F)c(F)c(F)c6F)c6ccc3[nH]6)C=C5)C=C4)cc2)NC(C)=O)cc1
REMARK SMILES IDX 12 1 11 2 9 3 10 4 8 5 7 6 6 7 3 8 4 9 85 10 5 11 84 12 2 13
REMARK SMILES IDX 1 14 80 15 81 16 82 18 83 19 13 20 14 21 15 22 16 23 17 24
REMARK SMILES IDX 18 25 79 26 19 27 78 28 20 29 21 30 22 31 72 32 23 33 77 34
REMARK SMILES IDX 71 35 73 36 24 37 76 38 70 39 69 40 25 42 57 43 37 44 56 45
REMARK SMILES IDX 38 46 41 47 55 48 74 49 39 50 40 51 54 53 75 54 42 55 26 56
REMARK SMILES IDX 27 57 35 58 28 59 29 60 33 61 36 62 30 63 31 64 34 65 32 66
REMARK SMILES IDX 58 67 59 68 67 69 60 70 61 71 65 72 68 73 62 74 63 75 66 76
REMARK SMILES IDX 64 77 43 78 44 79 52 80 45 81 46 82 50 83 53 84 47 85 48 86
REMARK SMILES IDX 51 87 49 88
REMARK H PARENT 80 17 73 41 41 52
REMARK Flexibility Score: inf
ROOT
ATOM      1  C   UNL A   1      31.552  28.839  24.716  1.00  0.00     0.274 C 
ENDROOT
BRANCH   1   2
ATOM      2  O   UNL A   1      30.986  27.674  25.353  1.00  0.00    -0.462 OA
BRANCH   2   3
ATOM      3  C   UNL A   1      31.541  27.306  26.533  1.00  0.00     0.308 C 
ATOM      4  O   UNL A   1      31.027  27.509  27.629  1.00  0.00    -0.252 OA
BRANCH   3   5
ATOM      5  C   UNL A   1      32.783  26.450  26.390  1.00  0.00     0.152 C 
BRANCH   5   6
ATOM      6  C   UNL A   1      32.648  24.958  26.044  1.00  0.00     0.123 C 
BRANCH   6   7
ATOM      7  C   UNL A   1      33.922  24.120  26.044  1.00  0.00    -0.025 A 
ATOM      8  C   UNL A   1      36.196  22.468  25.914  1.00  0.00     0.118 A 
ATOM      9  C   UNL A   1      36.191  23.694  25.258  1.00  0.00     0.047 A 
ATOM     10  C   UNL A   1      35.133  22.115  26.735  1.00  0.00     0.047 A 
ATOM     11  C   UNL A   1      35.061  24.513  25.322  1.00  0.00     0.010 A 
ATOM     12  C   UNL A   1      34.011  22.945  26.812  1.00  0.00     0.010 A 
BRANCH   8  13
ATOM     13  O   UNL A   1      37.294  21.668  25.753  1.00  0.00    -0.497 OA
ATOM     14  C   UNL A   1      37.347  21.123  24.434  1.00  0.00     0.278 C 
ENDBRANCH   8  13
ENDBRANCH   6   7
BRANCH   6  15
ATOM     15  N   UNL A   1      31.580  24.369  26.846  1.00  0.00    -0.349 N 
ATOM     16  C   UNL A   1      30.655  23.516  26.286  1.00  0.00     0.217 C 
ATOM     17  H   UNL A   1      31.520  24.585  27.804  1.00  0.00     0.164 HD
ATOM     18  C   UNL A   1      29.630  22.994  27.250  1.00  0.00     0.114 C 
ATOM     19  O   UNL A   1      30.669  23.182  25.106  1.00  0.00    -0.275 OA
ENDBRANCH   6  15
ENDBRANCH   5   6
ENDBRANCH   3   5
ENDBRANCH   2   3
ENDBRANCH   1   2
BRANCH   1  20
ATOM     20  C   UNL A   1      31.603  29.998  25.715  1.00  0.00     0.275 C 
BRANCH  20  21
ATOM     21  O   UNL A   1      32.973  30.386  25.932  1.00  0.00    -0.458 OA
BRANCH  21  22
ATOM     22  C   UNL A   1      33.181  31.231  26.967  1.00  0.00     0.338 C 
ATOM     23  O   UNL A   1      32.408  32.091  27.367  1.00  0.00    -0.246 OA
BRANCH  22  24
ATOM     24  C   UNL A   1      34.520  30.998  27.560  1.00  0.00     0.060 A 
ATOM     25  C   UNL A   1      35.404  32.045  27.841  1.00  0.00     0.016 A 
ATOM     26  C   UNL A   1      34.899  29.682  27.842  1.00  0.00     0.016 A 
ATOM     27  C   UNL A   1      36.659  31.782  28.397  1.00  0.00     0.010 A 
ATOM     28  C   UNL A   1      36.123  29.426  28.463  1.00  0.00     0.010 A 
ATOM     29  C   UNL A   1      37.011  30.473  28.756  1.00  0.00    -0.014 A 
BRANCH  29  30
ATOM     30  C   UNL A   1      38.248  30.187  29.530  1.00  0.00     0.031 A 
ATOM     31  C   UNL A   1      39.279  29.228  29.005  1.00  0.00     0.074 A 
ATOM     32  C   UNL A   1      38.381  30.718  30.762  1.00  0.00     0.049 A 
ATOM     33  N   UNL A   1      40.314  28.707  29.615  1.00  0.00    -0.248 NA
ATOM     34  C   UNL A   1      39.112  28.777  27.615  1.00  0.00     0.031 C 
ATOM     35  C   UNL A   1      37.436  31.647  31.386  1.00  0.00     0.029 A 
ATOM     36  N   UNL A   1      39.343  30.531  31.723  1.00  0.00    -0.354 N 
ATOM     37  C   UNL A   1      40.902  27.844  28.699  1.00  0.00     0.074 A 
ATOM     38  C   UNL A   1      40.102  27.902  27.494  1.00  0.00     0.031 C 
ATOM     39  C   UNL A   1      37.863  31.948  32.622  1.00  0.00     0.029 A 
ATOM     40  C   UNL A   1      39.077  31.190  32.900  1.00  0.00     0.049 A 
ATOM     41  H   UNL A   1      40.146  29.979  31.583  1.00  0.00     0.167 HD
ATOM     42  C   UNL A   1      42.009  27.077  28.856  1.00  0.00     0.037 A 
ATOM     43  C   UNL A   1      39.718  31.161  34.082  1.00  0.00     0.037 A 
ATOM     44  C   UNL A   1      42.810  27.047  30.054  1.00  0.00     0.049 A 
ATOM     45  C   UNL A   1      40.939  30.297  34.227  1.00  0.00     0.074 A 
ATOM     46  C   UNL A   1      43.977  26.342  30.296  1.00  0.00     0.029 A 
ATOM     47  N   UNL A   1      42.524  27.755  31.213  1.00  0.00    -0.354 N 
ATOM     48  N   UNL A   1      41.501  29.508  33.345  1.00  0.00    -0.248 NA
ATOM     49  C   UNL A   1      41.612  30.317  35.532  1.00  0.00     0.031 C 
ATOM     50  C   UNL A   1      44.374  26.589  31.615  1.00  0.00     0.029 A 
ATOM     51  C   UNL A   1      43.482  27.487  32.179  1.00  0.00     0.049 A 
ATOM     52  H   UNL A   1      41.756  28.358  31.331  1.00  0.00     0.167 HD
ATOM     53  C   UNL A   1      42.605  28.954  33.979  1.00  0.00     0.074 A 
ATOM     54  C   UNL A   1      42.644  29.516  35.313  1.00  0.00     0.031 C 
ATOM     55  C   UNL A   1      43.503  28.058  33.501  1.00  0.00     0.037 A 
BRANCH  42  56
ATOM     56  C   UNL A   1      42.419  26.192  27.714  1.00  0.00     0.064 A 
ATOM     57  C   UNL A   1      43.426  26.565  26.813  1.00  0.00     0.173 A 
ATOM     58  C   UNL A   1      41.842  24.921  27.560  1.00  0.00     0.173 A 
ATOM     59  F   UNL A   1      44.005  27.773  26.911  1.00  0.00    -0.203 F 
ATOM     60  C   UNL A   1      43.829  25.709  25.790  1.00  0.00     0.198 A 
ATOM     61  C   UNL A   1      42.265  24.057  26.552  1.00  0.00     0.198 A 
ATOM     62  F   UNL A   1      40.880  24.509  28.397  1.00  0.00    -0.203 F 
ATOM     63  F   UNL A   1      44.770  26.102  24.921  1.00  0.00    -0.200 F 
ATOM     64  C   UNL A   1      43.254  24.454  25.666  1.00  0.00     0.200 A 
ATOM     65  F   UNL A   1      41.718  22.838  26.443  1.00  0.00    -0.200 F 
ATOM     66  F   UNL A   1      43.652  23.626  24.690  1.00  0.00    -0.200 F 
ENDBRANCH  42  56
BRANCH  43  67
ATOM     67  C   UNL A   1      39.214  31.970  35.223  1.00  0.00     0.064 A 
ATOM     68  C   UNL A   1      38.445  31.381  36.236  1.00  0.00     0.173 A 
ATOM     69  C   UNL A   1      39.488  33.342  35.327  1.00  0.00     0.173 A 
ATOM     70  F   UNL A   1      38.138  30.078  36.170  1.00  0.00    -0.203 F 
ATOM     71  C   UNL A   1      37.953  32.136  37.299  1.00  0.00     0.198 A 
ATOM     72  C   UNL A   1      39.022  34.090  36.407  1.00  0.00     0.198 A 
ATOM     73  F   UNL A   1      40.222  33.954  34.386  1.00  0.00    -0.203 F 
ATOM     74  F   UNL A   1      37.181  31.557  38.227  1.00  0.00    -0.200 F 
ATOM     75  C   UNL A   1      38.247  33.488  37.386  1.00  0.00     0.200 A 
ATOM     76  F   UNL A   1      39.321  35.393  36.495  1.00  0.00    -0.200 F 
ATOM     77  F   UNL A   1      37.778  34.213  38.411  1.00  0.00    -0.200 F 
ENDBRANCH  43  67
BRANCH  55  78
ATOM     78  C   UNL A   1      44.617  27.662  34.423  1.00  0.00     0.064 A 
ATOM     79  C   UNL A   1      44.507  26.551  35.273  1.00  0.00     0.173 A 
ATOM     80  C   UNL A   1      45.810  28.399  34.453  1.00  0.00     0.173 A 
ATOM     81  F   UNL A   1      43.377  25.826  35.294  1.00  0.00    -0.203 F 
ATOM     82  C   UNL A   1      45.539  26.212  36.144  1.00  0.00     0.198 A 
ATOM     83  C   UNL A   1      46.851  28.039  35.304  1.00  0.00     0.198 A 
ATOM     84  F   UNL A   1      45.966  29.466  33.657  1.00  0.00    -0.203 F 
ATOM     85  F   UNL A   1      45.390  25.182  36.987  1.00  0.00    -0.200 F 
ATOM     86  C   UNL A   1      46.711  26.953  36.155  1.00  0.00     0.200 A 
ATOM     87  F   UNL A   1      47.988  28.750  35.307  1.00  0.00    -0.200 F 
ATOM     88  F   UNL A   1      47.703  26.628  36.996  1.00  0.00    -0.200 F 
ENDBRANCH  55  78
ENDBRANCH  29  30
ENDBRANCH  22  24
ENDBRANCH  21  22
ENDBRANCH  20  21
ENDBRANCH   1  20
TORSDOF 15
ENDMDL
