MODEL 1
REMARK VINA RESULT:     -12.1      0.000      0.000
REMARK SMILES CCNC(=O)N1CC[C@H](Cc2cccc(C(=O)OCCOC(=O)c3ccc(-c4c5nc(c(-c6c(F)c(F)c(F)c(F)c6F)c6ccc([nH]6)c(-c6c(F)c(F)c(F)c(F)c6F)c6nc(c(-c7c(F)c(F)c(F)c(F)c7F)c7ccc4[nH]7)C=C6)C=C5)cc3)c2)C1
REMARK SMILES IDX 19 1 18 2 16 3 17 4 15 5 11 6 12 7 87 8 13 9 14 10 10 11
REMARK SMILES IDX 9 12 6 13 7 14 88 15 8 16 4 17 3 18 5 20 2 21 1 22 20 23
REMARK SMILES IDX 21 24 22 25 23 26 24 27 25 28 86 29 26 30 85 31 27 32 28 33
REMARK SMILES IDX 29 34 79 35 30 36 84 37 78 38 80 39 31 40 83 41 77 42 76 43
REMARK SMILES IDX 32 45 64 46 44 47 63 48 45 49 48 50 62 51 81 52 46 53 47 54
REMARK SMILES IDX 61 56 82 57 49 58 33 59 34 60 42 61 35 62 36 63 40 64 43 65
REMARK SMILES IDX 37 66 38 67 41 68 39 69 65 70 66 71 74 72 67 73 68 74 72 75
REMARK SMILES IDX 75 76 69 77 70 78 73 79 71 80 50 81 51 82 59 83 52 84 53 85
REMARK SMILES IDX 57 86 60 87 54 88 55 89 58 90 56 91
REMARK H PARENT 3 19 80 44 48 55
REMARK Flexibility Score: inf
ROOT
ATOM      1  C   UNL A   1      41.828  20.123  26.468  1.00  0.00     0.275 C 
ENDROOT
BRANCH   1   2
ATOM      2  O   UNL A   1      40.573  20.812  26.620  1.00  0.00    -0.458 OA
BRANCH   2   3
ATOM      3  C   UNL A   1      39.558  20.398  25.824  1.00  0.00     0.338 C 
ATOM      4  O   UNL A   1      39.372  19.266  25.410  1.00  0.00    -0.246 OA
BRANCH   3   5
ATOM      5  C   UNL A   1      38.616  21.515  25.570  1.00  0.00     0.060 A 
ATOM      6  C   UNL A   1      36.625  22.408  24.515  1.00  0.00    -0.047 A 
ATOM      7  C   UNL A   1      36.807  23.614  25.204  1.00  0.00     0.004 A 
ATOM      8  C   UNL A   1      37.574  21.385  24.650  1.00  0.00     0.019 A 
ATOM      9  C   UNL A   1      37.861  23.760  26.101  1.00  0.00     0.001 A 
ATOM     10  C   UNL A   1      38.732  22.695  26.318  1.00  0.00     0.016 A 
BRANCH   6  11
ATOM     11  C   UNL A   1      35.335  22.144  23.775  1.00  0.00     0.041 C 
BRANCH  11  12
ATOM     12  C   UNL A   1      34.195  21.810  24.753  1.00  0.00     0.015 C 
ATOM     13  N   UNL A   1      32.879  19.867  25.043  1.00  0.00    -0.325 N 
ATOM     14  C   UNL A   1      31.960  20.980  24.935  1.00  0.00     0.121 C 
ATOM     15  C   UNL A   1      34.231  20.353  25.237  1.00  0.00     0.125 C 
ATOM     16  C   UNL A   1      32.782  21.972  24.145  1.00  0.00     0.027 C 
BRANCH  13  17
ATOM     17  C   UNL A   1      32.578  18.549  25.173  1.00  0.00     0.317 C 
ATOM     18  N   UNL A   1      32.390  17.807  24.054  1.00  0.00    -0.338 N 
ATOM     19  H   UNL A   1      31.707  17.099  24.110  1.00  0.00     0.165 HD
ATOM     20  O   UNL A   1      32.511  17.992  26.267  1.00  0.00    -0.249 OA
BRANCH  18  21
ATOM     21  C   UNL A   1      33.078  17.935  22.780  1.00  0.00     0.114 C 
ATOM     22  C   UNL A   1      32.131  18.422  21.696  1.00  0.00     0.027 C 
ENDBRANCH  18  21
ENDBRANCH  13  17
ENDBRANCH  11  12
ENDBRANCH   6  11
ENDBRANCH   3   5
ENDBRANCH   2   3
ENDBRANCH   1   2
BRANCH   1  23
ATOM     23  C   UNL A   1      42.841  21.016  25.755  1.00  0.00     0.275 C 
BRANCH  23  24
ATOM     24  O   UNL A   1      42.207  22.244  25.355  1.00  0.00    -0.458 OA
BRANCH  24  25
ATOM     25  C   UNL A   1      43.020  23.317  25.231  1.00  0.00     0.338 C 
ATOM     26  O   UNL A   1      43.959  23.468  24.472  1.00  0.00    -0.246 OA
BRANCH  25  27
ATOM     27  C   UNL A   1      42.573  24.355  26.171  1.00  0.00     0.060 A 
ATOM     28  C   UNL A   1      42.945  25.677  25.940  1.00  0.00     0.016 A 
ATOM     29  C   UNL A   1      41.874  24.014  27.324  1.00  0.00     0.016 A 
ATOM     30  C   UNL A   1      42.669  26.666  26.878  1.00  0.00     0.010 A 
ATOM     31  C   UNL A   1      41.533  25.018  28.236  1.00  0.00     0.010 A 
ATOM     32  C   UNL A   1      41.946  26.350  28.032  1.00  0.00    -0.014 A 
BRANCH  32  33
ATOM     33  C   UNL A   1      41.654  27.387  29.054  1.00  0.00     0.031 A 
ATOM     34  C   UNL A   1      42.517  27.478  30.281  1.00  0.00     0.074 A 
ATOM     35  C   UNL A   1      40.622  28.238  28.900  1.00  0.00     0.049 A 
ATOM     36  N   UNL A   1      42.295  28.107  31.406  1.00  0.00    -0.248 NA
ATOM     37  C   UNL A   1      43.797  26.754  30.234  1.00  0.00     0.031 C 
ATOM     38  C   UNL A   1      39.751  28.314  27.726  1.00  0.00     0.029 A 
ATOM     39  N   UNL A   1      40.122  29.197  29.746  1.00  0.00    -0.354 N 
ATOM     40  C   UNL A   1      43.376  27.805  32.223  1.00  0.00     0.074 A 
ATOM     41  C   UNL A   1      44.259  26.947  31.462  1.00  0.00     0.031 C 
ATOM     42  C   UNL A   1      38.828  29.268  27.925  1.00  0.00     0.029 A 
ATOM     43  C   UNL A   1      38.988  29.809  29.271  1.00  0.00     0.049 A 
ATOM     44  H   UNL A   1      40.536  29.424  30.611  1.00  0.00     0.167 HD
ATOM     45  C   UNL A   1      43.599  28.201  33.498  1.00  0.00     0.037 A 
ATOM     46  C   UNL A   1      38.136  30.662  29.871  1.00  0.00     0.037 A 
ATOM     47  C   UNL A   1      42.739  29.092  34.231  1.00  0.00     0.049 A 
ATOM     48  C   UNL A   1      38.382  31.060  31.300  1.00  0.00     0.074 A 
ATOM     49  C   UNL A   1      42.866  29.544  35.533  1.00  0.00     0.029 A 
ATOM     50  N   UNL A   1      41.597  29.684  33.711  1.00  0.00    -0.354 N 
ATOM     51  N   UNL A   1      39.356  30.701  32.101  1.00  0.00    -0.248 NA
ATOM     52  C   UNL A   1      37.401  31.964  31.916  1.00  0.00     0.031 C 
ATOM     53  C   UNL A   1      41.788  30.393  35.809  1.00  0.00     0.029 A 
ATOM     54  C   UNL A   1      41.009  30.497  34.666  1.00  0.00     0.049 A 
ATOM     55  H   UNL A   1      41.255  29.546  32.798  1.00  0.00     0.167 HD
ATOM     56  C   UNL A   1      39.111  31.339  33.309  1.00  0.00     0.074 A 
ATOM     57  C   UNL A   1      37.905  32.121  33.132  1.00  0.00     0.031 C 
ATOM     58  C   UNL A   1      39.817  31.276  34.463  1.00  0.00     0.037 A 
BRANCH  45  59
ATOM     59  C   UNL A   1      44.803  27.644  34.198  1.00  0.00     0.064 A 
ATOM     60  C   UNL A   1      44.758  26.429  34.894  1.00  0.00     0.173 A 
ATOM     61  C   UNL A   1      46.028  28.325  34.140  1.00  0.00     0.173 A 
ATOM     62  F   UNL A   1      43.605  25.749  34.992  1.00  0.00    -0.203 F 
ATOM     63  C   UNL A   1      45.893  25.924  35.524  1.00  0.00     0.198 A 
ATOM     64  C   UNL A   1      47.167  27.806  34.750  1.00  0.00     0.198 A 
ATOM     65  F   UNL A   1      46.124  29.491  33.483  1.00  0.00    -0.203 F 
ATOM     66  F   UNL A   1      45.819  24.780  36.218  1.00  0.00    -0.200 F 
ATOM     67  C   UNL A   1      47.097  26.609  35.446  1.00  0.00     0.200 A 
ATOM     68  F   UNL A   1      48.331  28.465  34.665  1.00  0.00    -0.200 F 
ATOM     69  F   UNL A   1      48.190  26.118  36.047  1.00  0.00    -0.200 F 
ENDBRANCH  45  59
BRANCH  46  70
ATOM     70  C   UNL A   1      36.937  31.143  29.139  1.00  0.00     0.064 A 
ATOM     71  C   UNL A   1      36.852  32.464  28.681  1.00  0.00     0.173 A 
ATOM     72  C   UNL A   1      35.858  30.287  28.871  1.00  0.00     0.173 A 
ATOM     73  F   UNL A   1      37.846  33.327  28.938  1.00  0.00    -0.203 F 
ATOM     74  C   UNL A   1      35.729  32.914  27.990  1.00  0.00     0.198 A 
ATOM     75  C   UNL A   1      34.749  30.729  28.154  1.00  0.00     0.198 A 
ATOM     76  F   UNL A   1      35.890  29.014  29.290  1.00  0.00    -0.203 F 
ATOM     77  F   UNL A   1      35.656  34.193  27.594  1.00  0.00    -0.200 F 
ATOM     78  C   UNL A   1      34.683  32.044  27.718  1.00  0.00     0.200 A 
ATOM     79  F   UNL A   1      33.746  29.883  27.884  1.00  0.00    -0.200 F 
ATOM     80  F   UNL A   1      33.608  32.474  27.043  1.00  0.00    -0.200 F 
ENDBRANCH  46  70
BRANCH  58  81
ATOM     81  C   UNL A   1      39.324  32.099  35.614  1.00  0.00     0.064 A 
ATOM     82  C   UNL A   1      38.487  31.554  36.597  1.00  0.00     0.173 A 
ATOM     83  C   UNL A   1      39.740  33.429  35.762  1.00  0.00     0.173 A 
ATOM     84  F   UNL A   1      38.052  30.289  36.488  1.00  0.00    -0.203 F 
ATOM     85  C   UNL A   1      38.073  32.318  37.684  1.00  0.00     0.198 A 
ATOM     86  C   UNL A   1      39.341  34.185  36.860  1.00  0.00     0.198 A 
ATOM     87  F   UNL A   1      40.545  33.992  34.847  1.00  0.00    -0.203 F 
ATOM     88  F   UNL A   1      37.249  31.789  38.598  1.00  0.00    -0.200 F 
ATOM     89  C   UNL A   1      38.506  33.629  37.818  1.00  0.00     0.200 A 
ATOM     90  F   UNL A   1      39.765  35.448  36.993  1.00  0.00    -0.200 F 
ATOM     91  F   UNL A   1      38.113  34.361  38.870  1.00  0.00    -0.200 F 
ENDBRANCH  58  81
ENDBRANCH  32  33
ENDBRANCH  25  27
ENDBRANCH  24  25
ENDBRANCH  23  24
ENDBRANCH   1  23
TORSDOF 15
ENDMDL
MODEL 2
REMARK VINA RESULT:     -11.9      3.716      8.386
REMARK SMILES CCNC(=O)N1CC[C@H](Cc2cccc(C(=O)OCCOC(=O)c3ccc(-c4c5nc(c(-c6c(F)c(F)c(F)c(F)c6F)c6ccc([nH]6)c(-c6c(F)c(F)c(F)c(F)c6F)c6nc(c(-c7c(F)c(F)c(F)c(F)c7F)c7ccc4[nH]7)C=C6)C=C5)cc3)c2)C1
REMARK SMILES IDX 19 1 18 2 16 3 17 4 15 5 11 6 12 7 87 8 13 9 14 10 10 11
REMARK SMILES IDX 9 12 6 13 7 14 88 15 8 16 4 17 3 18 5 20 2 21 1 22 20 23
REMARK SMILES IDX 21 24 22 25 23 26 24 27 25 28 86 29 26 30 85 31 27 32 28 33
REMARK SMILES IDX 29 34 79 35 30 36 84 37 78 38 80 39 31 40 83 41 77 42 76 43
REMARK SMILES IDX 32 45 64 46 44 47 63 48 45 49 48 50 62 51 81 52 46 53 47 54
REMARK SMILES IDX 61 56 82 57 49 58 33 59 34 60 42 61 35 62 36 63 40 64 43 65
REMARK SMILES IDX 37 66 38 67 41 68 39 69 65 70 66 71 74 72 67 73 68 74 72 75
REMARK SMILES IDX 75 76 69 77 70 78 73 79 71 80 50 81 51 82 59 83 52 84 53 85
REMARK SMILES IDX 57 86 60 87 54 88 55 89 58 90 56 91
REMARK H PARENT 3 19 80 44 48 55
REMARK Flexibility Score: inf
ROOT
ATOM      1  C   UNL A   1      31.731  29.216  24.165  1.00  0.00     0.275 C 
ENDROOT
BRANCH   1   2
ATOM      2  O   UNL A   1      30.538  28.416  24.065  1.00  0.00    -0.458 OA
BRANCH   2   3
ATOM      3  C   UNL A   1      30.614  27.317  23.276  1.00  0.00     0.338 C 
ATOM      4  O   UNL A   1      30.753  27.298  22.064  1.00  0.00    -0.246 OA
BRANCH   3   5
ATOM      5  C   UNL A   1      30.585  26.087  24.105  1.00  0.00     0.060 A 
ATOM      6  C   UNL A   1      31.053  23.730  24.411  1.00  0.00    -0.047 A 
ATOM      7  C   UNL A   1      30.610  23.819  25.738  1.00  0.00     0.004 A 
ATOM      8  C   UNL A   1      30.972  24.854  23.578  1.00  0.00     0.019 A 
ATOM      9  C   UNL A   1      30.194  25.041  26.259  1.00  0.00     0.001 A 
ATOM     10  C   UNL A   1      30.230  26.179  25.457  1.00  0.00     0.016 A 
BRANCH   6  11
ATOM     11  C   UNL A   1      31.771  22.490  23.934  1.00  0.00     0.041 C 
BRANCH  11  12
ATOM     12  C   UNL A   1      33.054  22.246  24.748  1.00  0.00     0.015 C 
ATOM     13  N   UNL A   1      35.344  22.422  24.181  1.00  0.00    -0.325 N 
ATOM     14  C   UNL A   1      35.161  21.116  24.778  1.00  0.00     0.121 C 
ATOM     15  C   UNL A   1      34.172  23.245  24.412  1.00  0.00     0.125 C 
ATOM     16  C   UNL A   1      33.698  20.861  24.501  1.00  0.00     0.027 C 
BRANCH  13  17
ATOM     17  C   UNL A   1      36.483  22.947  23.661  1.00  0.00     0.317 C 
ATOM     18  N   UNL A   1      37.376  23.532  24.498  1.00  0.00    -0.338 N 
ATOM     19  H   UNL A   1      37.859  24.313  24.143  1.00  0.00     0.165 HD
ATOM     20  O   UNL A   1      36.757  22.876  22.464  1.00  0.00    -0.249 OA
BRANCH  18  21
ATOM     21  C   UNL A   1      37.702  23.139  25.859  1.00  0.00     0.114 C 
ATOM     22  C   UNL A   1      38.489  24.230  26.566  1.00  0.00     0.027 C 
ENDBRANCH  18  21
ENDBRANCH  13  17
ENDBRANCH  11  12
ENDBRANCH   6  11
ENDBRANCH   3   5
ENDBRANCH   2   3
ENDBRANCH   1   2
BRANCH   1  23
ATOM     23  C   UNL A   1      31.642  30.150  25.370  1.00  0.00     0.275 C 
BRANCH  23  24
ATOM     24  O   UNL A   1      32.853  30.062  26.143  1.00  0.00    -0.458 OA
BRANCH  24  25
ATOM     25  C   UNL A   1      33.133  31.125  26.928  1.00  0.00     0.338 C 
ATOM     26  O   UNL A   1      32.442  32.102  27.150  1.00  0.00    -0.246 OA
BRANCH  25  27
ATOM     27  C   UNL A   1      34.453  30.920  27.543  1.00  0.00     0.060 A 
ATOM     28  C   UNL A   1      34.814  29.637  27.948  1.00  0.00     0.016 A 
ATOM     29  C   UNL A   1      35.289  32.000  27.806  1.00  0.00     0.016 A 
ATOM     30  C   UNL A   1      35.987  29.423  28.663  1.00  0.00     0.010 A 
ATOM     31  C   UNL A   1      36.503  31.778  28.463  1.00  0.00     0.010 A 
ATOM     32  C   UNL A   1      36.854  30.491  28.917  1.00  0.00    -0.014 A 
BRANCH  32  33
ATOM     33  C   UNL A   1      38.104  30.288  29.692  1.00  0.00     0.031 A 
ATOM     34  C   UNL A   1      39.199  29.434  29.119  1.00  0.00     0.074 A 
ATOM     35  C   UNL A   1      38.263  30.850  30.906  1.00  0.00     0.049 A 
ATOM     36  N   UNL A   1      40.238  28.906  29.713  1.00  0.00    -0.248 NA
ATOM     37  C   UNL A   1      39.102  29.126  27.683  1.00  0.00     0.031 C 
ATOM     38  C   UNL A   1      37.318  31.763  31.550  1.00  0.00     0.029 A 
ATOM     39  N   UNL A   1      39.279  30.723  31.821  1.00  0.00    -0.354 N 
ATOM     40  C   UNL A   1      40.883  28.154  28.741  1.00  0.00     0.074 A 
ATOM     41  C   UNL A   1      40.128  28.303  27.515  1.00  0.00     0.031 C 
ATOM     42  C   UNL A   1      37.799  32.115  32.753  1.00  0.00     0.029 A 
ATOM     43  C   UNL A   1      39.040  31.387  33.000  1.00  0.00     0.049 A 
ATOM     44  H   UNL A   1      40.100  30.205  31.650  1.00  0.00     0.167 HD
ATOM     45  C   UNL A   1      42.000  27.401  28.869  1.00  0.00     0.037 A 
ATOM     46  C   UNL A   1      39.708  31.366  34.168  1.00  0.00     0.037 A 
ATOM     47  C   UNL A   1      42.771  27.296  30.080  1.00  0.00     0.049 A 
ATOM     48  C   UNL A   1      40.925  30.493  34.301  1.00  0.00     0.074 A 
ATOM     49  C   UNL A   1      43.910  26.547  30.321  1.00  0.00     0.029 A 
ATOM     50  N   UNL A   1      42.488  27.983  31.252  1.00  0.00    -0.354 N 
ATOM     51  N   UNL A   1      41.482  29.711  33.408  1.00  0.00    -0.248 NA
ATOM     52  C   UNL A   1      41.593  30.480  35.610  1.00  0.00     0.031 C 
ATOM     53  C   UNL A   1      44.304  26.763  31.647  1.00  0.00     0.029 A 
ATOM     54  C   UNL A   1      43.430  27.675  32.219  1.00  0.00     0.049 A 
ATOM     55  H   UNL A   1      41.730  28.598  31.377  1.00  0.00     0.167 HD
ATOM     56  C   UNL A   1      42.568  29.122  34.040  1.00  0.00     0.074 A 
ATOM     57  C   UNL A   1      42.602  29.648  35.390  1.00  0.00     0.031 C 
ATOM     58  C   UNL A   1      43.452  28.220  33.551  1.00  0.00     0.037 A 
BRANCH  45  59
ATOM     59  C   UNL A   1      42.436  26.596  27.681  1.00  0.00     0.064 A 
ATOM     60  C   UNL A   1      43.323  27.107  26.725  1.00  0.00     0.173 A 
ATOM     61  C   UNL A   1      41.979  25.279  27.518  1.00  0.00     0.173 A 
ATOM     62  F   UNL A   1      43.774  28.367  26.828  1.00  0.00    -0.203 F 
ATOM     63  C   UNL A   1      43.723  26.335  25.637  1.00  0.00     0.198 A 
ATOM     64  C   UNL A   1      42.400  24.501  26.443  1.00  0.00     0.198 A 
ATOM     65  F   UNL A   1      41.130  24.743  28.408  1.00  0.00    -0.203 F 
ATOM     66  F   UNL A   1      44.542  26.856  24.713  1.00  0.00    -0.200 F 
ATOM     67  C   UNL A   1      43.268  25.032  25.500  1.00  0.00     0.200 A 
ATOM     68  F   UNL A   1      41.965  23.240  26.319  1.00  0.00    -0.200 F 
ATOM     69  F   UNL A   1      43.660  24.289  24.457  1.00  0.00    -0.200 F 
ENDBRANCH  45  59
BRANCH  46  70
ATOM     70  C   UNL A   1      39.199  32.150  35.322  1.00  0.00     0.064 A 
ATOM     71  C   UNL A   1      38.411  31.549  36.312  1.00  0.00     0.173 A 
ATOM     72  C   UNL A   1      39.502  33.512  35.464  1.00  0.00     0.173 A 
ATOM     73  F   UNL A   1      38.072  30.257  36.205  1.00  0.00    -0.203 F 
ATOM     74  C   UNL A   1      37.938  32.284  37.398  1.00  0.00     0.198 A 
ATOM     75  C   UNL A   1      39.053  34.239  36.564  1.00  0.00     0.198 A 
ATOM     76  F   UNL A   1      40.251  34.135  34.542  1.00  0.00    -0.203 F 
ATOM     77  F   UNL A   1      37.155  31.696  38.313  1.00  0.00    -0.200 F 
ATOM     78  C   UNL A   1      38.267  33.626  37.528  1.00  0.00     0.200 A 
ATOM     79  F   UNL A   1      39.383  35.531  36.692  1.00  0.00    -0.200 F 
ATOM     80  F   UNL A   1      37.821  34.329  38.578  1.00  0.00    -0.200 F 
ENDBRANCH  46  70
BRANCH  58  81
ATOM     81  C   UNL A   1      44.550  27.770  34.465  1.00  0.00     0.064 A 
ATOM     82  C   UNL A   1      44.415  26.626  35.262  1.00  0.00     0.173 A 
ATOM     83  C   UNL A   1      45.769  28.461  34.500  1.00  0.00     0.173 A 
ATOM     84  F   UNL A   1      43.260  25.942  35.271  1.00  0.00    -0.203 F 
ATOM     85  C   UNL A   1      45.460  26.195  36.074  1.00  0.00     0.198 A 
ATOM     86  C   UNL A   1      46.820  28.017  35.297  1.00  0.00     0.198 A 
ATOM     87  F   UNL A   1      45.945  29.561  33.750  1.00  0.00    -0.203 F 
ATOM     88  F   UNL A   1      45.301  25.115  36.851  1.00  0.00    -0.200 F 
ATOM     89  C   UNL A   1      46.663  26.886  36.085  1.00  0.00     0.200 A 
ATOM     90  F   UNL A   1      47.983  28.680  35.301  1.00  0.00    -0.200 F 
ATOM     91  F   UNL A   1      47.671  26.465  36.860  1.00  0.00    -0.200 F 
ENDBRANCH  58  81
ENDBRANCH  32  33
ENDBRANCH  25  27
ENDBRANCH  24  25
ENDBRANCH  23  24
ENDBRANCH   1  23
TORSDOF 15
ENDMDL
MODEL 3
REMARK VINA RESULT:     -11.8      4.810      9.716
REMARK SMILES CCNC(=O)N1CC[C@H](Cc2cccc(C(=O)OCCOC(=O)c3ccc(-c4c5nc(c(-c6c(F)c(F)c(F)c(F)c6F)c6ccc([nH]6)c(-c6c(F)c(F)c(F)c(F)c6F)c6nc(c(-c7c(F)c(F)c(F)c(F)c7F)c7ccc4[nH]7)C=C6)C=C5)cc3)c2)C1
REMARK SMILES IDX 19 1 18 2 16 3 17 4 15 5 11 6 12 7 87 8 13 9 14 10 10 11
REMARK SMILES IDX 9 12 6 13 7 14 88 15 8 16 4 17 3 18 5 20 2 21 1 22 20 23
REMARK SMILES IDX 21 24 22 25 23 26 24 27 25 28 86 29 26 30 85 31 27 32 28 33
REMARK SMILES IDX 29 34 79 35 30 36 84 37 78 38 80 39 31 40 83 41 77 42 76 43
REMARK SMILES IDX 32 45 64 46 44 47 63 48 45 49 48 50 62 51 81 52 46 53 47 54
REMARK SMILES IDX 61 56 82 57 49 58 33 59 34 60 42 61 35 62 36 63 40 64 43 65
REMARK SMILES IDX 37 66 38 67 41 68 39 69 65 70 66 71 74 72 67 73 68 74 72 75
REMARK SMILES IDX 75 76 69 77 70 78 73 79 71 80 50 81 51 82 59 83 52 84 53 85
REMARK SMILES IDX 57 86 60 87 54 88 55 89 58 90 56 91
REMARK H PARENT 3 19 80 44 48 55
REMARK Flexibility Score: inf
ROOT
ATOM      1  C   UNL A   1      33.072  34.424  28.667  1.00  0.00     0.275 C 
ENDROOT
BRANCH   1   2
ATOM      2  O   UNL A   1      34.326  34.286  27.974  1.00  0.00    -0.458 OA
BRANCH   2   3
ATOM      3  C   UNL A   1      35.311  33.631  28.635  1.00  0.00     0.338 C 
ATOM      4  O   UNL A   1      36.017  34.081  29.522  1.00  0.00    -0.246 OA
BRANCH   3   5
ATOM      5  C   UNL A   1      35.380  32.219  28.186  1.00  0.00     0.060 A 
ATOM      6  C   UNL A   1      34.336  30.241  27.254  1.00  0.00    -0.047 A 
ATOM      7  C   UNL A   1      35.578  29.592  27.252  1.00  0.00     0.004 A 
ATOM      8  C   UNL A   1      34.231  31.533  27.789  1.00  0.00     0.019 A 
ATOM      9  C   UNL A   1      36.722  30.263  27.675  1.00  0.00     0.001 A 
ATOM     10  C   UNL A   1      36.628  31.588  28.093  1.00  0.00     0.016 A 
BRANCH   6  11
ATOM     11  C   UNL A   1      33.159  29.628  26.532  1.00  0.00     0.041 C 
BRANCH  11  12
ATOM     12  C   UNL A   1      33.541  28.280  25.897  1.00  0.00     0.015 C 
ATOM     13  N   UNL A   1      32.972  27.289  23.827  1.00  0.00    -0.325 N 
ATOM     14  C   UNL A   1      32.692  26.305  24.851  1.00  0.00     0.121 C 
ATOM     15  C   UNL A   1      33.758  28.375  24.380  1.00  0.00     0.125 C 
ATOM     16  C   UNL A   1      32.461  27.184  26.057  1.00  0.00     0.027 C 
BRANCH  13  17
ATOM     17  C   UNL A   1      32.758  27.183  22.490  1.00  0.00     0.317 C 
ATOM     18  N   UNL A   1      31.525  27.463  22.000  1.00  0.00    -0.338 N 
ATOM     19  H   UNL A   1      31.227  26.921  21.234  1.00  0.00     0.165 HD
ATOM     20  O   UNL A   1      33.652  26.883  21.700  1.00  0.00    -0.249 OA
BRANCH  18  21
ATOM     21  C   UNL A   1      30.591  28.471  22.475  1.00  0.00     0.114 C 
ATOM     22  C   UNL A   1      29.429  27.830  23.214  1.00  0.00     0.027 C 
ENDBRANCH  18  21
ENDBRANCH  13  17
ENDBRANCH  11  12
ENDBRANCH   6  11
ENDBRANCH   3   5
ENDBRANCH   2   3
ENDBRANCH   1   2
BRANCH   1  23
ATOM     23  C   UNL A   1      33.113  35.631  29.602  1.00  0.00     0.275 C 
BRANCH  23  24
ATOM     24  O   UNL A   1      32.242  35.405  30.725  1.00  0.00    -0.458 OA
BRANCH  24  25
ATOM     25  C   UNL A   1      32.619  35.974  31.891  1.00  0.00     0.338 C 
ATOM     26  O   UNL A   1      32.157  36.961  32.432  1.00  0.00    -0.246 OA
BRANCH  25  27
ATOM     27  C   UNL A   1      33.709  35.177  32.471  1.00  0.00     0.060 A 
ATOM     28  C   UNL A   1      34.994  35.714  32.500  1.00  0.00     0.016 A 
ATOM     29  C   UNL A   1      33.484  33.871  32.896  1.00  0.00     0.016 A 
ATOM     30  C   UNL A   1      36.077  34.941  32.904  1.00  0.00     0.010 A 
ATOM     31  C   UNL A   1      34.560  33.115  33.371  1.00  0.00     0.010 A 
ATOM     32  C   UNL A   1      35.871  33.634  33.359  1.00  0.00    -0.014 A 
BRANCH  32  33
ATOM     33  C   UNL A   1      37.015  32.787  33.780  1.00  0.00     0.031 A 
ATOM     34  C   UNL A   1      37.649  33.016  35.122  1.00  0.00     0.074 A 
ATOM     35  C   UNL A   1      37.495  31.824  32.971  1.00  0.00     0.049 A 
ATOM     36  N   UNL A   1      38.799  32.594  35.580  1.00  0.00    -0.248 NA
ATOM     37  C   UNL A   1      36.886  33.841  36.073  1.00  0.00     0.031 C 
ATOM     38  C   UNL A   1      36.930  31.440  31.677  1.00  0.00     0.029 A 
ATOM     39  N   UNL A   1      38.584  30.998  33.116  1.00  0.00    -0.354 N 
ATOM     40  C   UNL A   1      38.927  33.152  36.844  1.00  0.00     0.074 A 
ATOM     41  C   UNL A   1      37.732  33.933  37.089  1.00  0.00     0.031 C 
ATOM     42  C   UNL A   1      37.672  30.454  31.148  1.00  0.00     0.029 A 
ATOM     43  C   UNL A   1      38.812  30.198  32.023  1.00  0.00     0.049 A 
ATOM     44  H   UNL A   1      39.147  30.982  33.924  1.00  0.00     0.167 HD
ATOM     45  C   UNL A   1      39.957  33.028  37.715  1.00  0.00     0.037 A 
ATOM     46  C   UNL A   1      39.852  29.395  31.728  1.00  0.00     0.037 A 
ATOM     47  C   UNL A   1      41.119  32.212  37.482  1.00  0.00     0.049 A 
ATOM     48  C   UNL A   1      41.003  29.301  32.691  1.00  0.00     0.074 A 
ATOM     49  C   UNL A   1      42.227  32.031  38.292  1.00  0.00     0.029 A 
ATOM     50  N   UNL A   1      41.311  31.423  36.358  1.00  0.00    -0.354 N 
ATOM     51  N   UNL A   1      41.164  29.901  33.846  1.00  0.00    -0.248 NA
ATOM     52  C   UNL A   1      42.126  28.438  32.301  1.00  0.00     0.031 C 
ATOM     53  C   UNL A   1      43.100  31.148  37.647  1.00  0.00     0.029 A 
ATOM     54  C   UNL A   1      42.519  30.752  36.452  1.00  0.00     0.049 A 
ATOM     55  H   UNL A   1      40.682  31.350  35.604  1.00  0.00     0.167 HD
ATOM     56  C   UNL A   1      42.398  29.483  34.324  1.00  0.00     0.074 A 
ATOM     57  C   UNL A   1      42.938  28.566  33.342  1.00  0.00     0.031 C 
ATOM     58  C   UNL A   1      43.030  29.834  35.469  1.00  0.00     0.037 A 
BRANCH  45  59
ATOM     59  C   UNL A   1      39.893  33.826  38.983  1.00  0.00     0.064 A 
ATOM     60  C   UNL A   1      40.454  35.105  39.083  1.00  0.00     0.173 A 
ATOM     61  C   UNL A   1      39.229  33.308  40.106  1.00  0.00     0.173 A 
ATOM     62  F   UNL A   1      41.114  35.637  38.042  1.00  0.00    -0.203 F 
ATOM     63  C   UNL A   1      40.369  35.832  40.268  1.00  0.00     0.198 A 
ATOM     64  C   UNL A   1      39.125  34.047  41.282  1.00  0.00     0.198 A 
ATOM     65  F   UNL A   1      38.674  32.087  40.060  1.00  0.00    -0.203 F 
ATOM     66  F   UNL A   1      40.946  37.039  40.355  1.00  0.00    -0.200 F 
ATOM     67  C   UNL A   1      39.700  35.306  41.363  1.00  0.00     0.200 A 
ATOM     68  F   UNL A   1      38.470  33.539  42.335  1.00  0.00    -0.200 F 
ATOM     69  F   UNL A   1      39.614  36.009  42.500  1.00  0.00    -0.200 F 
ENDBRANCH  45  59
BRANCH  46  70
ATOM     70  C   UNL A   1      39.876  28.666  30.434  1.00  0.00     0.064 A 
ATOM     71  C   UNL A   1      40.502  29.217  29.307  1.00  0.00     0.173 A 
ATOM     72  C   UNL A   1      39.285  27.401  30.300  1.00  0.00     0.173 A 
ATOM     73  F   UNL A   1      41.057  30.435  29.378  1.00  0.00    -0.203 F 
ATOM     74  C   UNL A   1      40.529  28.531  28.094  1.00  0.00     0.198 A 
ATOM     75  C   UNL A   1      39.338  26.704  29.096  1.00  0.00     0.198 A 
ATOM     76  F   UNL A   1      38.671  26.833  31.349  1.00  0.00    -0.203 F 
ATOM     77  F   UNL A   1      41.103  29.094  27.021  1.00  0.00    -0.200 F 
ATOM     78  C   UNL A   1      39.956  27.272  27.992  1.00  0.00     0.200 A 
ATOM     79  F   UNL A   1      38.793  25.484  29.005  1.00  0.00    -0.200 F 
ATOM     80  F   UNL A   1      39.992  26.609  26.828  1.00  0.00    -0.200 F 
ENDBRANCH  46  70
BRANCH  58  81
ATOM     81  C   UNL A   1      44.360  29.200  35.739  1.00  0.00     0.064 A 
ATOM     82  C   UNL A   1      44.462  27.970  36.404  1.00  0.00     0.173 A 
ATOM     83  C   UNL A   1      45.539  29.804  35.279  1.00  0.00     0.173 A 
ATOM     84  F   UNL A   1      43.362  27.364  36.874  1.00  0.00    -0.203 F 
ATOM     85  C   UNL A   1      45.703  27.372  36.609  1.00  0.00     0.198 A 
ATOM     86  C   UNL A   1      46.775  29.194  35.469  1.00  0.00     0.198 A 
ATOM     87  F   UNL A   1      45.488  30.980  34.635  1.00  0.00    -0.203 F 
ATOM     88  F   UNL A   1      45.782  26.210  37.272  1.00  0.00    -0.200 F 
ATOM     89  C   UNL A   1      46.856  27.980  36.135  1.00  0.00     0.200 A 
ATOM     90  F   UNL A   1      47.887  29.778  35.004  1.00  0.00    -0.200 F 
ATOM     91  F   UNL A   1      48.048  27.399  36.326  1.00  0.00    -0.200 F 
ENDBRANCH  58  81
ENDBRANCH  32  33
ENDBRANCH  25  27
ENDBRANCH  24  25
ENDBRANCH  23  24
ENDBRANCH   1  23
TORSDOF 15
ENDMDL
