MODEL 1
REMARK VINA RESULT:     -13.9      0.000      0.000
REMARK SMILES C[C@@H](C(=O)OCCOC(=O)c1ccc(-c2c3nc(c(-c4c(F)c(F)c(F)c(F)c4F)c4ccc([nH]4)c(-c4c(F)c(F)c(F)c(F)c4F)c4nc(c(-c5c(F)c(F)c(F)c(F)c5F)c5ccc2[nH]5)C=C4)C=C3)cc1)c1ccc(-c2cccc(OC(=O)Nc3ccccc3)c2)c(F)c1
REMARK SMILES IDX 5 1 3 2 4 3 2 4 1 5 74 6 75 7 96 8 76 9 94 10 77 11 95 12
REMARK SMILES IDX 78 13 79 14 93 15 80 16 82 17 81 18 83 19 84 20 85 21 86 22
REMARK SMILES IDX 87 24 88 25 92 26 89 27 91 28 90 29 6 30 7 31 8 32 9 33
REMARK SMILES IDX 10 34 11 35 12 36 73 37 13 38 72 39 14 40 15 41 16 42 66 43
REMARK SMILES IDX 17 44 71 45 65 46 67 47 18 48 70 49 64 50 63 51 19 53 51 54
REMARK SMILES IDX 31 55 50 56 32 57 35 58 49 59 68 60 33 61 34 62 48 64 69 65
REMARK SMILES IDX 36 66 20 67 21 68 29 69 22 70 23 71 27 72 30 73 24 74 25 75
REMARK SMILES IDX 28 76 26 77 52 78 53 79 61 80 54 81 55 82 59 83 62 84 56 85
REMARK SMILES IDX 57 86 60 87 58 88 37 89 38 90 46 91 39 92 40 93 44 94 47 95
REMARK SMILES IDX 41 96 42 97 45 98 43 99
REMARK H PARENT 86 23 67 52 35 63
REMARK Flexibility Score: inf
ROOT
ATOM      1  O   UNL A   1      33.750  33.524  30.633  1.00  0.00    -0.462 OA
ENDROOT
BRANCH   1   2
ATOM      2  C   UNL A   1      33.897  33.704  29.285  1.00  0.00     0.313 C 
ATOM      3  O   UNL A   1      33.392  34.639  28.675  1.00  0.00    -0.252 OA
BRANCH   2   4
ATOM      4  C   UNL A   1      34.688  32.545  28.606  1.00  0.00     0.126 C 
ATOM      5  C   UNL A   1      36.005  33.072  28.001  1.00  0.00     0.025 C 
BRANCH   4   6
ATOM      6  C   UNL A   1      33.858  31.675  27.622  1.00  0.00    -0.031 A 
ATOM      7  C   UNL A   1      32.526  31.974  27.271  1.00  0.00     0.005 A 
ATOM      8  C   UNL A   1      34.411  30.544  26.996  1.00  0.00     0.044 A 
ATOM      9  C   UNL A   1      31.756  31.130  26.436  1.00  0.00     0.012 A 
ATOM     10  C   UNL A   1      33.636  29.699  26.169  1.00  0.00     0.131 A 
ATOM     11  C   UNL A   1      32.278  29.943  25.904  1.00  0.00     0.018 A 
ATOM     12  F   UNL A   1      34.227  28.602  25.672  1.00  0.00    -0.206 F 
BRANCH  11  13
ATOM     13  C   UNL A   1      31.406  28.950  25.220  1.00  0.00    -0.012 A 
ATOM     14  C   UNL A   1      30.599  29.274  24.123  1.00  0.00     0.009 A 
ATOM     15  C   UNL A   1      31.396  27.604  25.642  1.00  0.00     0.056 A 
ATOM     16  C   UNL A   1      29.841  28.281  23.461  1.00  0.00     0.004 A 
ATOM     17  C   UNL A   1      30.698  26.613  24.931  1.00  0.00     0.133 A 
ATOM     18  C   UNL A   1      29.900  26.935  23.842  1.00  0.00     0.047 A 
BRANCH  17  19
ATOM     19  O   UNL A   1      31.042  24.996  25.199  1.00  0.00    -0.410 OA
BRANCH  19  20
ATOM     20  C   UNL A   1      31.254  23.346  25.164  1.00  0.00     0.417 C 
ATOM     21  O   UNL A   1      30.782  22.626  26.043  1.00  0.00    -0.224 OA
ATOM     22  N   UNL A   1      31.969  22.827  24.121  1.00  0.00    -0.291 N 
ATOM     23  H   UNL A   1      31.875  23.266  23.245  1.00  0.00     0.173 HD
BRANCH  22  24
ATOM     24  C   UNL A   1      32.827  21.716  24.198  1.00  0.00     0.044 A 
ATOM     25  C   UNL A   1      34.127  21.923  24.659  1.00  0.00     0.026 A 
ATOM     26  C   UNL A   1      32.385  20.408  23.990  1.00  0.00     0.026 A 
ATOM     27  C   UNL A   1      34.938  20.838  25.002  1.00  0.00     0.002 A 
ATOM     28  C   UNL A   1      33.199  19.324  24.315  1.00  0.00     0.002 A 
ATOM     29  C   UNL A   1      34.463  19.539  24.852  1.00  0.00     0.000 A 
ENDBRANCH  22  24
ENDBRANCH  19  20
ENDBRANCH  17  19
ENDBRANCH  11  13
ENDBRANCH   4   6
ENDBRANCH   2   4
ENDBRANCH   1   2
BRANCH   1  30
ATOM     30  C   UNL A   1      34.490  34.391  31.530  1.00  0.00     0.274 C 
BRANCH  30  31
ATOM     31  C   UNL A   1      34.724  33.728  32.891  1.00  0.00     0.275 C 
BRANCH  31  32
ATOM     32  O   UNL A   1      35.270  32.414  32.699  1.00  0.00    -0.458 OA
BRANCH  32  33
ATOM     33  C   UNL A   1      36.441  32.177  33.333  1.00  0.00     0.338 C 
ATOM     34  O   UNL A   1      36.662  32.163  34.528  1.00  0.00    -0.246 OA
BRANCH  33  35
ATOM     35  C   UNL A   1      37.351  31.611  32.333  1.00  0.00     0.060 A 
ATOM     36  C   UNL A   1      38.564  31.152  32.830  1.00  0.00     0.016 A 
ATOM     37  C   UNL A   1      37.047  31.505  30.974  1.00  0.00     0.016 A 
ATOM     38  C   UNL A   1      39.462  30.542  31.978  1.00  0.00     0.010 A 
ATOM     39  C   UNL A   1      37.980  30.920  30.105  1.00  0.00     0.010 A 
ATOM     40  C   UNL A   1      39.188  30.429  30.610  1.00  0.00    -0.014 A 
BRANCH  40  41
ATOM     41  C   UNL A   1      40.295  29.925  29.763  1.00  0.00     0.031 A 
ATOM     42  C   UNL A   1      41.537  30.941  29.674  1.00  0.00     0.074 A 
ATOM     43  C   UNL A   1      40.228  28.588  29.426  1.00  0.00     0.049 A 
ATOM     44  N   UNL A   1      42.708  30.803  29.111  1.00  0.00    -0.248 NA
ATOM     45  C   UNL A   1      41.486  32.257  30.350  1.00  0.00     0.031 C 
ATOM     46  C   UNL A   1      39.150  27.593  29.601  1.00  0.00     0.029 A 
ATOM     47  N   UNL A   1      41.186  27.756  28.926  1.00  0.00    -0.354 N 
ATOM     48  C   UNL A   1      43.556  31.855  29.387  1.00  0.00     0.074 A 
ATOM     49  C   UNL A   1      42.710  32.768  30.138  1.00  0.00     0.031 C 
ATOM     50  C   UNL A   1      39.556  26.369  29.148  1.00  0.00     0.029 A 
ATOM     51  C   UNL A   1      40.923  26.453  28.622  1.00  0.00     0.049 A 
ATOM     52  H   UNL A   1      42.094  28.108  28.779  1.00  0.00     0.167 HD
ATOM     53  C   UNL A   1      44.863  32.015  28.981  1.00  0.00     0.037 A 
ATOM     54  C   UNL A   1      41.741  25.554  27.978  1.00  0.00     0.037 A 
ATOM     55  C   UNL A   1      45.713  31.064  28.202  1.00  0.00     0.049 A 
ATOM     56  C   UNL A   1      43.193  25.872  27.363  1.00  0.00     0.074 A 
ATOM     57  C   UNL A   1      46.825  31.302  27.404  1.00  0.00     0.029 A 
ATOM     58  N   UNL A   1      45.592  29.670  28.136  1.00  0.00    -0.354 N 
ATOM     59  N   UNL A   1      44.079  26.801  27.645  1.00  0.00    -0.248 NA
ATOM     60  C   UNL A   1      43.716  25.006  26.286  1.00  0.00     0.031 C 
ATOM     61  C   UNL A   1      47.144  30.117  26.687  1.00  0.00     0.029 A 
ATOM     62  C   UNL A   1      46.290  29.086  27.077  1.00  0.00     0.049 A 
ATOM     63  H   UNL A   1      45.060  29.146  28.778  1.00  0.00     0.167 HD
ATOM     64  C   UNL A   1      45.142  26.775  26.753  1.00  0.00     0.074 A 
ATOM     65  C   UNL A   1      44.917  25.535  26.023  1.00  0.00     0.031 C 
ATOM     66  C   UNL A   1      46.132  27.707  26.509  1.00  0.00     0.037 A 
BRANCH  53  67
ATOM     67  C   UNL A   1      45.410  33.411  29.128  1.00  0.00     0.064 A 
ATOM     68  C   UNL A   1      45.170  34.428  28.201  1.00  0.00     0.173 A 
ATOM     69  C   UNL A   1      46.137  33.744  30.286  1.00  0.00     0.173 A 
ATOM     70  F   UNL A   1      44.501  34.164  27.069  1.00  0.00    -0.203 F 
ATOM     71  C   UNL A   1      45.626  35.728  28.434  1.00  0.00     0.198 A 
ATOM     72  C   UNL A   1      46.570  35.044  30.528  1.00  0.00     0.198 A 
ATOM     73  F   UNL A   1      46.408  32.807  31.203  1.00  0.00    -0.203 F 
ATOM     74  F   UNL A   1      45.398  36.688  27.527  1.00  0.00    -0.200 F 
ATOM     75  C   UNL A   1      46.314  36.036  29.601  1.00  0.00     0.200 A 
ATOM     76  F   UNL A   1      47.222  35.330  31.664  1.00  0.00    -0.200 F 
ATOM     77  F   UNL A   1      46.732  37.289  29.829  1.00  0.00    -0.200 F 
ENDBRANCH  53  67
BRANCH  54  78
ATOM     78  C   UNL A   1      41.234  24.177  27.700  1.00  0.00     0.064 A 
ATOM     79  C   UNL A   1      41.895  23.066  28.251  1.00  0.00     0.173 A 
ATOM     80  C   UNL A   1      40.199  23.923  26.788  1.00  0.00     0.173 A 
ATOM     81  F   UNL A   1      42.931  23.246  29.084  1.00  0.00    -0.203 F 
ATOM     82  C   UNL A   1      41.553  21.765  27.889  1.00  0.00     0.198 A 
ATOM     83  C   UNL A   1      39.836  22.618  26.451  1.00  0.00     0.198 A 
ATOM     84  F   UNL A   1      39.561  24.936  26.183  1.00  0.00    -0.203 F 
ATOM     85  F   UNL A   1      42.254  20.730  28.373  1.00  0.00    -0.200 F 
ATOM     86  C   UNL A   1      40.519  21.541  26.994  1.00  0.00     0.200 A 
ATOM     87  F   UNL A   1      38.844  22.404  25.575  1.00  0.00    -0.200 F 
ATOM     88  F   UNL A   1      40.202  20.290  26.632  1.00  0.00    -0.200 F 
ENDBRANCH  54  78
BRANCH  66  89
ATOM     89  C   UNL A   1      47.176  27.325  25.466  1.00  0.00     0.064 A 
ATOM     90  C   UNL A   1      47.110  27.711  24.114  1.00  0.00     0.173 A 
ATOM     91  C   UNL A   1      48.325  26.619  25.862  1.00  0.00     0.173 A 
ATOM     92  F   UNL A   1      46.029  28.340  23.636  1.00  0.00    -0.203 F 
ATOM     93  C   UNL A   1      48.132  27.405  23.212  1.00  0.00     0.198 A 
ATOM     94  C   UNL A   1      49.358  26.337  24.966  1.00  0.00     0.198 A 
ATOM     95  F   UNL A   1      48.464  26.218  27.135  1.00  0.00    -0.203 F 
ATOM     96  F   UNL A   1      48.014  27.758  21.924  1.00  0.00    -0.200 F 
ATOM     97  C   UNL A   1      49.259  26.727  23.641  1.00  0.00     0.200 A 
ATOM     98  F   UNL A   1      50.452  25.690  25.390  1.00  0.00    -0.200 F 
ATOM     99  F   UNL A   1      50.245  26.444  22.778  1.00  0.00    -0.200 F 
ENDBRANCH  66  89
ENDBRANCH  40  41
ENDBRANCH  33  35
ENDBRANCH  32  33
ENDBRANCH  31  32
ENDBRANCH  30  31
ENDBRANCH   1  30
TORSDOF 16
ENDMDL
MODEL 2
REMARK VINA RESULT:     -13.9      5.526     12.474
REMARK SMILES C[C@@H](C(=O)OCCOC(=O)c1ccc(-c2c3nc(c(-c4c(F)c(F)c(F)c(F)c4F)c4ccc([nH]4)c(-c4c(F)c(F)c(F)c(F)c4F)c4nc(c(-c5c(F)c(F)c(F)c(F)c5F)c5ccc2[nH]5)C=C4)C=C3)cc1)c1ccc(-c2cccc(OC(=O)Nc3ccccc3)c2)c(F)c1
REMARK SMILES IDX 5 1 3 2 4 3 2 4 1 5 74 6 75 7 96 8 76 9 94 10 77 11 95 12
REMARK SMILES IDX 78 13 79 14 93 15 80 16 82 17 81 18 83 19 84 20 85 21 86 22
REMARK SMILES IDX 87 24 88 25 92 26 89 27 91 28 90 29 6 30 7 31 8 32 9 33
REMARK SMILES IDX 10 34 11 35 12 36 73 37 13 38 72 39 14 40 15 41 16 42 66 43
REMARK SMILES IDX 17 44 71 45 65 46 67 47 18 48 70 49 64 50 63 51 19 53 51 54
REMARK SMILES IDX 31 55 50 56 32 57 35 58 49 59 68 60 33 61 34 62 48 64 69 65
REMARK SMILES IDX 36 66 20 67 21 68 29 69 22 70 23 71 27 72 30 73 24 74 25 75
REMARK SMILES IDX 28 76 26 77 52 78 53 79 61 80 54 81 55 82 59 83 62 84 56 85
REMARK SMILES IDX 57 86 60 87 58 88 37 89 38 90 46 91 39 92 40 93 44 94 47 95
REMARK SMILES IDX 41 96 42 97 45 98 43 99
REMARK H PARENT 86 23 67 52 35 63
REMARK Flexibility Score: inf
ROOT
ATOM      1  O   UNL A   1      43.255  21.717  25.027  1.00  0.00    -0.462 OA
ENDROOT
BRANCH   1   2
ATOM      2  C   UNL A   1      42.836  20.644  25.766  1.00  0.00     0.313 C 
ATOM      3  O   UNL A   1      42.832  19.497  25.337  1.00  0.00    -0.252 OA
BRANCH   2   4
ATOM      4  C   UNL A   1      42.277  21.056  27.162  1.00  0.00     0.126 C 
ATOM      5  C   UNL A   1      41.146  20.101  27.593  1.00  0.00     0.025 C 
BRANCH   4   6
ATOM      6  C   UNL A   1      41.907  22.558  27.301  1.00  0.00    -0.031 A 
ATOM      7  C   UNL A   1      42.755  23.503  27.915  1.00  0.00     0.005 A 
ATOM      8  C   UNL A   1      40.703  23.069  26.787  1.00  0.00     0.044 A 
ATOM      9  C   UNL A   1      42.373  24.852  28.106  1.00  0.00     0.012 A 
ATOM     10  C   UNL A   1      40.321  24.415  26.987  1.00  0.00     0.131 A 
ATOM     11  C   UNL A   1      41.123  25.329  27.690  1.00  0.00     0.018 A 
ATOM     12  F   UNL A   1      39.121  24.797  26.523  1.00  0.00    -0.206 F 
BRANCH  11  13
ATOM     13  C   UNL A   1      40.635  26.677  28.091  1.00  0.00    -0.012 A 
ATOM     14  C   UNL A   1      40.342  27.687  27.168  1.00  0.00     0.009 A 
ATOM     15  C   UNL A   1      40.407  26.973  29.452  1.00  0.00     0.056 A 
ATOM     16  C   UNL A   1      39.814  28.928  27.592  1.00  0.00     0.004 A 
ATOM     17  C   UNL A   1      39.812  28.181  29.854  1.00  0.00     0.133 A 
ATOM     18  C   UNL A   1      39.520  29.180  28.938  1.00  0.00     0.047 A 
BRANCH  17  19
ATOM     19  O   UNL A   1      39.176  28.323  31.398  1.00  0.00    -0.410 OA
BRANCH  19  20
ATOM     20  C   UNL A   1      38.436  28.758  32.823  1.00  0.00     0.417 C 
ATOM     21  O   UNL A   1      37.403  28.203  33.197  1.00  0.00    -0.224 OA
ATOM     22  N   UNL A   1      39.022  29.750  33.558  1.00  0.00    -0.291 N 
ATOM     23  H   UNL A   1      40.006  29.795  33.554  1.00  0.00     0.173 HD
BRANCH  22  24
ATOM     24  C   UNL A   1      38.335  30.711  34.319  1.00  0.00     0.044 A 
ATOM     25  C   UNL A   1      38.615  30.790  35.683  1.00  0.00     0.026 A 
ATOM     26  C   UNL A   1      37.517  31.684  33.740  1.00  0.00     0.026 A 
ATOM     27  C   UNL A   1      38.168  31.879  36.435  1.00  0.00     0.002 A 
ATOM     28  C   UNL A   1      37.055  32.762  34.494  1.00  0.00     0.002 A 
ATOM     29  C   UNL A   1      37.407  32.876  35.833  1.00  0.00     0.000 A 
ENDBRANCH  22  24
ENDBRANCH  19  20
ENDBRANCH  17  19
ENDBRANCH  11  13
ENDBRANCH   4   6
ENDBRANCH   2   4
ENDBRANCH   1   2
BRANCH   1  30
ATOM     30  C   UNL A   1      44.635  21.752  24.584  1.00  0.00     0.274 C 
BRANCH  30  31
ATOM     31  C   UNL A   1      45.432  22.845  25.306  1.00  0.00     0.275 C 
BRANCH  31  32
ATOM     32  O   UNL A   1      44.964  24.137  24.889  1.00  0.00    -0.458 OA
BRANCH  32  33
ATOM     33  C   UNL A   1      45.880  25.130  24.947  1.00  0.00     0.338 C 
ATOM     34  O   UNL A   1      46.862  25.292  24.249  1.00  0.00    -0.246 OA
BRANCH  33  35
ATOM     35  C   UNL A   1      45.308  26.177  25.800  1.00  0.00     0.060 A 
ATOM     36  C   UNL A   1      46.121  26.598  26.843  1.00  0.00     0.016 A 
ATOM     37  C   UNL A   1      44.050  26.746  25.595  1.00  0.00     0.016 A 
ATOM     38  C   UNL A   1      45.699  27.626  27.663  1.00  0.00     0.010 A 
ATOM     39  C   UNL A   1      43.608  27.764  26.455  1.00  0.00     0.010 A 
ATOM     40  C   UNL A   1      44.440  28.211  27.487  1.00  0.00    -0.014 A 
BRANCH  40  41
ATOM     41  C   UNL A   1      44.018  29.174  28.532  1.00  0.00     0.031 A 
ATOM     42  C   UNL A   1      43.882  28.509  29.988  1.00  0.00     0.074 A 
ATOM     43  C   UNL A   1      44.083  30.507  28.177  1.00  0.00     0.049 A 
ATOM     44  N   UNL A   1      43.630  29.053  31.149  1.00  0.00    -0.248 NA
ATOM     45  C   UNL A   1      44.116  27.060  30.182  1.00  0.00     0.031 C 
ATOM     46  C   UNL A   1      44.326  31.155  26.872  1.00  0.00     0.029 A 
ATOM     47  N   UNL A   1      44.052  31.627  28.953  1.00  0.00    -0.354 N 
ATOM     48  C   UNL A   1      43.746  28.156  32.191  1.00  0.00     0.074 A 
ATOM     49  C   UNL A   1      44.011  26.899  31.511  1.00  0.00     0.031 C 
ATOM     50  C   UNL A   1      44.344  32.515  27.014  1.00  0.00     0.029 A 
ATOM     51  C   UNL A   1      44.099  32.880  28.414  1.00  0.00     0.049 A 
ATOM     52  H   UNL A   1      43.992  31.530  29.931  1.00  0.00     0.167 HD
ATOM     53  C   UNL A   1      43.580  28.399  33.537  1.00  0.00     0.037 A 
ATOM     54  C   UNL A   1      43.925  34.083  29.057  1.00  0.00     0.037 A 
ATOM     55  C   UNL A   1      43.302  29.702  34.215  1.00  0.00     0.049 A 
ATOM     56  C   UNL A   1      43.546  34.278  30.608  1.00  0.00     0.074 A 
ATOM     57  C   UNL A   1      42.706  29.965  35.442  1.00  0.00     0.029 A 
ATOM     58  N   UNL A   1      43.626  30.987  33.759  1.00  0.00    -0.354 N 
ATOM     59  N   UNL A   1      43.712  33.500  31.654  1.00  0.00    -0.248 NA
ATOM     60  C   UNL A   1      42.899  35.537  31.030  1.00  0.00     0.031 C 
ATOM     61  C   UNL A   1      42.449  31.360  35.543  1.00  0.00     0.029 A 
ATOM     62  C   UNL A   1      42.947  32.013  34.418  1.00  0.00     0.049 A 
ATOM     63  H   UNL A   1      44.275  31.152  33.037  1.00  0.00     0.167 HD
ATOM     64  C   UNL A   1      43.097  34.030  32.781  1.00  0.00     0.074 A 
ATOM     65  C   UNL A   1      42.737  35.372  32.348  1.00  0.00     0.031 C 
ATOM     66  C   UNL A   1      42.792  33.444  33.994  1.00  0.00     0.037 A 
BRANCH  53  67
ATOM     67  C   UNL A   1      43.414  27.169  34.391  1.00  0.00     0.064 A 
ATOM     68  C   UNL A   1      42.182  26.550  34.610  1.00  0.00     0.173 A 
ATOM     69  C   UNL A   1      44.556  26.558  34.941  1.00  0.00     0.173 A 
ATOM     70  F   UNL A   1      41.057  27.099  34.128  1.00  0.00    -0.203 F 
ATOM     71  C   UNL A   1      42.100  25.360  35.337  1.00  0.00     0.198 A 
ATOM     72  C   UNL A   1      44.477  25.360  35.644  1.00  0.00     0.198 A 
ATOM     73  F   UNL A   1      45.764  27.113  34.774  1.00  0.00    -0.203 F 
ATOM     74  F   UNL A   1      40.907  24.787  35.548  1.00  0.00    -0.200 F 
ATOM     75  C   UNL A   1      43.247  24.761  35.842  1.00  0.00     0.200 A 
ATOM     76  F   UNL A   1      45.593  24.787  36.115  1.00  0.00    -0.200 F 
ATOM     77  F   UNL A   1      43.166  23.608  36.521  1.00  0.00    -0.200 F 
ENDBRANCH  53  67
BRANCH  54  78
ATOM     78  C   UNL A   1      43.971  35.347  28.262  1.00  0.00     0.064 A 
ATOM     79  C   UNL A   1      45.172  36.071  28.172  1.00  0.00     0.173 A 
ATOM     80  C   UNL A   1      42.823  35.933  27.709  1.00  0.00     0.173 A 
ATOM     81  F   UNL A   1      46.291  35.589  28.734  1.00  0.00    -0.203 F 
ATOM     82  C   UNL A   1      45.217  37.330  27.577  1.00  0.00     0.198 A 
ATOM     83  C   UNL A   1      42.876  37.180  27.085  1.00  0.00     0.198 A 
ATOM     84  F   UNL A   1      41.633  35.322  27.806  1.00  0.00    -0.203 F 
ATOM     85  F   UNL A   1      46.361  38.028  27.577  1.00  0.00    -0.200 F 
ATOM     86  C   UNL A   1      44.071  37.882  27.029  1.00  0.00     0.200 A 
ATOM     87  F   UNL A   1      41.763  37.717  26.566  1.00  0.00    -0.200 F 
ATOM     88  F   UNL A   1      44.111  39.101  26.473  1.00  0.00    -0.200 F 
ENDBRANCH  54  78
BRANCH  66  89
ATOM     89  C   UNL A   1      42.137  34.347  35.033  1.00  0.00     0.064 A 
ATOM     90  C   UNL A   1      42.851  35.042  36.027  1.00  0.00     0.173 A 
ATOM     91  C   UNL A   1      40.753  34.586  34.970  1.00  0.00     0.173 A 
ATOM     92  F   UNL A   1      44.162  34.837  36.195  1.00  0.00    -0.203 F 
ATOM     93  C   UNL A   1      42.216  35.922  36.907  1.00  0.00     0.198 A 
ATOM     94  C   UNL A   1      40.124  35.485  35.834  1.00  0.00     0.198 A 
ATOM     95  F   UNL A   1      40.003  33.962  34.049  1.00  0.00    -0.203 F 
ATOM     96  F   UNL A   1      42.925  36.538  37.864  1.00  0.00    -0.200 F 
ATOM     97  C   UNL A   1      40.855  36.150  36.803  1.00  0.00     0.200 A 
ATOM     98  F   UNL A   1      38.808  35.711  35.720  1.00  0.00    -0.200 F 
ATOM     99  F   UNL A   1      40.249  37.004  37.640  1.00  0.00    -0.200 F 
ENDBRANCH  66  89
ENDBRANCH  40  41
ENDBRANCH  33  35
ENDBRANCH  32  33
ENDBRANCH  31  32
ENDBRANCH  30  31
ENDBRANCH   1  30
TORSDOF 16
ENDMDL
MODEL 3
REMARK VINA RESULT:     -13.8      4.578      7.553
REMARK SMILES C[C@@H](C(=O)OCCOC(=O)c1ccc(-c2c3nc(c(-c4c(F)c(F)c(F)c(F)c4F)c4ccc([nH]4)c(-c4c(F)c(F)c(F)c(F)c4F)c4nc(c(-c5c(F)c(F)c(F)c(F)c5F)c5ccc2[nH]5)C=C4)C=C3)cc1)c1ccc(-c2cccc(OC(=O)Nc3ccccc3)c2)c(F)c1
REMARK SMILES IDX 5 1 3 2 4 3 2 4 1 5 74 6 75 7 96 8 76 9 94 10 77 11 95 12
REMARK SMILES IDX 78 13 79 14 93 15 80 16 82 17 81 18 83 19 84 20 85 21 86 22
REMARK SMILES IDX 87 24 88 25 92 26 89 27 91 28 90 29 6 30 7 31 8 32 9 33
REMARK SMILES IDX 10 34 11 35 12 36 73 37 13 38 72 39 14 40 15 41 16 42 66 43
REMARK SMILES IDX 17 44 71 45 65 46 67 47 18 48 70 49 64 50 63 51 19 53 51 54
REMARK SMILES IDX 31 55 50 56 32 57 35 58 49 59 68 60 33 61 34 62 48 64 69 65
REMARK SMILES IDX 36 66 20 67 21 68 29 69 22 70 23 71 27 72 30 73 24 74 25 75
REMARK SMILES IDX 28 76 26 77 52 78 53 79 61 80 54 81 55 82 59 83 62 84 56 85
REMARK SMILES IDX 57 86 60 87 58 88 37 89 38 90 46 91 39 92 40 93 44 94 47 95
REMARK SMILES IDX 41 96 42 97 45 98 43 99
REMARK H PARENT 86 23 67 52 35 63
REMARK Flexibility Score: inf
ROOT
ATOM      1  O   UNL A   1      32.977  34.258  29.281  1.00  0.00    -0.462 OA
ENDROOT
BRANCH   1   2
ATOM      2  C   UNL A   1      33.232  35.546  29.667  1.00  0.00     0.313 C 
ATOM      3  O   UNL A   1      33.556  36.428  28.881  1.00  0.00    -0.252 OA
BRANCH   2   4
ATOM      4  C   UNL A   1      33.161  35.736  31.212  1.00  0.00     0.126 C 
ATOM      5  C   UNL A   1      33.187  37.235  31.573  1.00  0.00     0.025 C 
BRANCH   4   6
ATOM      6  C   UNL A   1      34.177  34.885  32.023  1.00  0.00    -0.031 A 
ATOM      7  C   UNL A   1      33.811  34.128  33.155  1.00  0.00     0.005 A 
ATOM      8  C   UNL A   1      35.528  34.799  31.647  1.00  0.00     0.044 A 
ATOM      9  C   UNL A   1      34.760  33.421  33.932  1.00  0.00     0.012 A 
ATOM     10  C   UNL A   1      36.474  34.098  32.430  1.00  0.00     0.131 A 
ATOM     11  C   UNL A   1      36.125  33.430  33.615  1.00  0.00     0.018 A 
ATOM     12  F   UNL A   1      37.756  34.130  32.033  1.00  0.00    -0.206 F 
BRANCH  11  13
ATOM     13  C   UNL A   1      37.142  32.880  34.552  1.00  0.00    -0.012 A 
ATOM     14  C   UNL A   1      37.287  33.333  35.869  1.00  0.00     0.009 A 
ATOM     15  C   UNL A   1      37.988  31.827  34.144  1.00  0.00     0.056 A 
ATOM     16  C   UNL A   1      38.219  32.732  36.745  1.00  0.00     0.004 A 
ATOM     17  C   UNL A   1      38.857  31.188  35.045  1.00  0.00     0.133 A 
ATOM     18  C   UNL A   1      38.998  31.637  36.351  1.00  0.00     0.047 A 
BRANCH  17  19
ATOM     19  O   UNL A   1      39.519  29.701  34.652  1.00  0.00    -0.410 OA
BRANCH  19  20
ATOM     20  C   UNL A   1      40.324  28.390  34.017  1.00  0.00     0.417 C 
ATOM     21  O   UNL A   1      39.906  27.814  33.013  1.00  0.00    -0.224 OA
ATOM     22  N   UNL A   1      41.464  27.986  34.653  1.00  0.00    -0.291 N 
ATOM     23  H   UNL A   1      42.030  28.683  35.054  1.00  0.00     0.173 HD
BRANCH  22  24
ATOM     24  C   UNL A   1      41.894  26.653  34.779  1.00  0.00     0.044 A 
ATOM     25  C   UNL A   1      43.145  26.316  34.264  1.00  0.00     0.026 A 
ATOM     26  C   UNL A   1      41.197  25.708  35.534  1.00  0.00     0.026 A 
ATOM     27  C   UNL A   1      43.735  25.091  34.583  1.00  0.00     0.002 A 
ATOM     28  C   UNL A   1      41.777  24.476  35.838  1.00  0.00     0.002 A 
ATOM     29  C   UNL A   1      43.059  24.181  35.390  1.00  0.00     0.000 A 
ENDBRANCH  22  24
ENDBRANCH  19  20
ENDBRANCH  17  19
ENDBRANCH  11  13
ENDBRANCH   4   6
ENDBRANCH   2   4
ENDBRANCH   1   2
BRANCH   1  30
ATOM     30  C   UNL A   1      33.685  33.729  28.132  1.00  0.00     0.274 C 
BRANCH  30  31
ATOM     31  C   UNL A   1      33.336  32.258  27.881  1.00  0.00     0.275 C 
BRANCH  31  32
ATOM     32  O   UNL A   1      34.506  31.554  27.435  1.00  0.00    -0.458 OA
BRANCH  32  33
ATOM     33  C   UNL A   1      34.515  30.227  27.694  1.00  0.00     0.338 C 
ATOM     34  O   UNL A   1      33.712  29.385  27.342  1.00  0.00    -0.246 OA
BRANCH  33  35
ATOM     35  C   UNL A   1      35.851  29.910  28.209  1.00  0.00     0.060 A 
ATOM     36  C   UNL A   1      36.893  30.117  27.315  1.00  0.00     0.016 A 
ATOM     37  C   UNL A   1      36.097  29.452  29.504  1.00  0.00     0.016 A 
ATOM     38  C   UNL A   1      38.194  29.910  27.726  1.00  0.00     0.010 A 
ATOM     39  C   UNL A   1      37.419  29.205  29.906  1.00  0.00     0.010 A 
ATOM     40  C   UNL A   1      38.472  29.444  29.017  1.00  0.00    -0.014 A 
BRANCH  40  41
ATOM     41  C   UNL A   1      39.883  29.084  29.289  1.00  0.00     0.031 A 
ATOM     42  C   UNL A   1      40.575  30.026  30.392  1.00  0.00     0.074 A 
ATOM     43  C   UNL A   1      40.294  27.863  28.793  1.00  0.00     0.049 A 
ATOM     44  N   UNL A   1      41.756  29.954  30.949  1.00  0.00    -0.248 NA
ATOM     45  C   UNL A   1      39.834  31.157  30.993  1.00  0.00     0.031 C 
ATOM     46  C   UNL A   1      39.634  26.914  27.874  1.00  0.00     0.029 A 
ATOM     47  N   UNL A   1      41.393  27.114  29.095  1.00  0.00    -0.354 N 
ATOM     48  C   UNL A   1      41.917  30.870  31.967  1.00  0.00     0.074 A 
ATOM     49  C   UNL A   1      40.682  31.635  31.917  1.00  0.00     0.031 C 
ATOM     50  C   UNL A   1      40.411  25.803  27.700  1.00  0.00     0.029 A 
ATOM     51  C   UNL A   1      41.652  25.929  28.472  1.00  0.00     0.049 A 
ATOM     52  H   UNL A   1      42.019  27.440  29.783  1.00  0.00     0.167 HD
ATOM     53  C   UNL A   1      43.018  31.046  32.778  1.00  0.00     0.037 A 
ATOM     54  C   UNL A   1      42.785  25.155  28.567  1.00  0.00     0.037 A 
ATOM     55  C   UNL A   1      44.282  30.250  32.808  1.00  0.00     0.049 A 
ATOM     56  C   UNL A   1      44.114  25.524  29.395  1.00  0.00     0.074 A 
ATOM     57  C   UNL A   1      45.553  30.601  33.246  1.00  0.00     0.029 A 
ATOM     58  N   UNL A   1      44.458  28.915  32.421  1.00  0.00    -0.354 N 
ATOM     59  N   UNL A   1      44.311  26.316  30.425  1.00  0.00    -0.248 NA
ATOM     60  C   UNL A   1      45.393  24.895  29.007  1.00  0.00     0.031 C 
ATOM     61  C   UNL A   1      46.474  29.591  32.854  1.00  0.00     0.029 A 
ATOM     62  C   UNL A   1      45.792  28.547  32.232  1.00  0.00     0.049 A 
ATOM     63  H   UNL A   1      43.708  28.289  32.292  1.00  0.00     0.167 HD
ATOM     64  C   UNL A   1      45.662  26.433  30.721  1.00  0.00     0.074 A 
ATOM     65  C   UNL A   1      46.264  25.403  29.887  1.00  0.00     0.031 C 
ATOM     66  C   UNL A   1      46.330  27.342  31.520  1.00  0.00     0.037 A 
BRANCH  53  67
ATOM     67  C   UNL A   1      43.043  32.342  33.546  1.00  0.00     0.064 A 
ATOM     68  C   UNL A   1      43.446  33.556  32.985  1.00  0.00     0.173 A 
ATOM     69  C   UNL A   1      42.570  32.363  34.871  1.00  0.00     0.173 A 
ATOM     70  F   UNL A   1      43.926  33.594  31.733  1.00  0.00    -0.203 F 
ATOM     71  C   UNL A   1      43.363  34.742  33.717  1.00  0.00     0.198 A 
ATOM     72  C   UNL A   1      42.465  33.548  35.591  1.00  0.00     0.198 A 
ATOM     73  F   UNL A   1      42.181  31.227  35.465  1.00  0.00    -0.203 F 
ATOM     74  F   UNL A   1      43.766  35.897  33.168  1.00  0.00    -0.200 F 
ATOM     75  C   UNL A   1      42.862  34.739  35.013  1.00  0.00     0.200 A 
ATOM     76  F   UNL A   1      41.968  33.532  36.836  1.00  0.00    -0.200 F 
ATOM     77  F   UNL A   1      42.765  35.883  35.705  1.00  0.00    -0.200 F 
ENDBRANCH  53  67
BRANCH  54  78
ATOM     78  C   UNL A   1      42.883  23.904  27.756  1.00  0.00     0.064 A 
ATOM     79  C   UNL A   1      43.187  23.982  26.386  1.00  0.00     0.173 A 
ATOM     80  C   UNL A   1      42.541  22.644  28.268  1.00  0.00     0.173 A 
ATOM     81  F   UNL A   1      43.463  25.170  25.827  1.00  0.00    -0.203 F 
ATOM     82  C   UNL A   1      43.129  22.858  25.565  1.00  0.00     0.198 A 
ATOM     83  C   UNL A   1      42.515  21.513  27.451  1.00  0.00     0.198 A 
ATOM     84  F   UNL A   1      42.188  22.504  29.555  1.00  0.00    -0.203 F 
ATOM     85  F   UNL A   1      43.349  22.982  24.248  1.00  0.00    -0.200 F 
ATOM     86  C   UNL A   1      42.800  21.623  26.098  1.00  0.00     0.200 A 
ATOM     87  F   UNL A   1      42.185  20.321  27.967  1.00  0.00    -0.200 F 
ATOM     88  F   UNL A   1      42.728  20.546  25.304  1.00  0.00    -0.200 F 
ENDBRANCH  54  78
BRANCH  66  89
ATOM     89  C   UNL A   1      47.837  27.148  31.648  1.00  0.00     0.064 A 
ATOM     90  C   UNL A   1      48.779  27.759  30.800  1.00  0.00     0.173 A 
ATOM     91  C   UNL A   1      48.350  26.388  32.714  1.00  0.00     0.173 A 
ATOM     92  F   UNL A   1      48.382  28.457  29.729  1.00  0.00    -0.203 F 
ATOM     93  C   UNL A   1      50.154  27.616  31.006  1.00  0.00     0.198 A 
ATOM     94  C   UNL A   1      49.724  26.267  32.934  1.00  0.00     0.198 A 
ATOM     95  F   UNL A   1      47.515  25.776  33.567  1.00  0.00    -0.203 F 
ATOM     96  F   UNL A   1      51.020  28.184  30.154  1.00  0.00    -0.200 F 
ATOM     97  C   UNL A   1      50.624  26.879  32.078  1.00  0.00     0.200 A 
ATOM     98  F   UNL A   1      50.173  25.561  33.980  1.00  0.00    -0.200 F 
ATOM     99  F   UNL A   1      51.943  26.751  32.282  1.00  0.00    -0.200 F 
ENDBRANCH  66  89
ENDBRANCH  40  41
ENDBRANCH  33  35
ENDBRANCH  32  33
ENDBRANCH  31  32
ENDBRANCH  30  31
ENDBRANCH   1  30
TORSDOF 16
ENDMDL
