MODEL 1
REMARK VINA RESULT:     -12.4      0.000      0.000
REMARK SMILES CCCCOC(=O)[C@@H]1[C@H]2c3ccccc3[C@H](c3ccccc32)[C@@H]1C(=O)OCCOC(=O)c1ccc(-c2c3nc(c(-c4c(F)c(F)c(F)c(F)c4F)c4ccc([nH]4)c(-c4c(F)c(F)c(F)c(F)c4F)c4nc(c(-c5c(F)c(F)c(F)c(F)c5F)c5ccc2[nH]5)C=C4)C=C3)cc1
REMARK SMILES IDX 26 1 24 2 25 3 23 4 8 5 9 6 22 7 10 8 16 9 21 10 17 11 15 12
REMARK SMILES IDX 11 13 20 14 18 15 14 16 12 17 19 18 13 19 6 20 7 21 5 22
REMARK SMILES IDX 4 23 3 24 2 25 1 26 27 27 28 28 29 29 30 30 31 31 32 32
REMARK SMILES IDX 33 33 94 34 34 35 93 36 35 37 36 38 37 39 87 40 38 41 92 42
REMARK SMILES IDX 86 43 88 44 39 45 91 46 85 47 84 48 40 50 72 51 52 52 71 53
REMARK SMILES IDX 53 54 56 55 70 56 89 57 54 58 55 59 69 61 90 62 57 63 41 64
REMARK SMILES IDX 42 65 50 66 43 67 44 68 48 69 51 70 45 71 46 72 49 73 47 74
REMARK SMILES IDX 73 75 74 76 82 77 75 78 76 79 80 80 83 81 77 82 78 83 81 84
REMARK SMILES IDX 79 85 58 86 59 87 67 88 60 89 61 90 65 91 68 92 62 93 63 94
REMARK SMILES IDX 66 95 64 96
REMARK H PARENT 88 49 56 60
REMARK Flexibility Score: inf
ROOT
ATOM      1  O   UNL A   1      32.678  28.413  25.502  1.00  0.00    -0.462 OA
ENDROOT
BRANCH   1   2
ATOM      2  C   UNL A   1      32.513  27.130  25.885  1.00  0.00     0.310 C 
ATOM      3  O   UNL A   1      31.731  26.764  26.758  1.00  0.00    -0.252 OA
BRANCH   2   4
ATOM      4  C   UNL A   1      33.441  26.157  25.182  1.00  0.00     0.126 C 
ATOM      5  C   UNL A   1      32.927  25.698  23.772  1.00  0.00     0.126 C 
ATOM      6  C   UNL A   1      33.026  24.146  23.655  1.00  0.00     0.065 C 
ATOM      7  C   UNL A   1      32.235  23.542  24.815  1.00  0.00    -0.036 A 
ATOM      8  C   UNL A   1      34.506  23.829  23.916  1.00  0.00    -0.036 A 
ATOM      9  C   UNL A   1      33.865  24.922  26.038  1.00  0.00     0.065 C 
ATOM     10  C   UNL A   1      31.130  22.710  24.697  1.00  0.00     0.004 A 
ATOM     11  C   UNL A   1      32.688  23.954  26.091  1.00  0.00    -0.036 A 
ATOM     12  C   UNL A   1      34.954  24.240  25.204  1.00  0.00    -0.036 A 
ATOM     13  C   UNL A   1      35.376  23.200  23.039  1.00  0.00     0.004 A 
ATOM     14  C   UNL A   1      30.475  22.295  25.858  1.00  0.00     0.000 A 
ATOM     15  C   UNL A   1      32.050  23.521  27.246  1.00  0.00     0.004 A 
ATOM     16  C   UNL A   1      36.262  24.012  25.610  1.00  0.00     0.004 A 
ATOM     17  C   UNL A   1      36.694  22.978  23.450  1.00  0.00     0.000 A 
ATOM     18  C   UNL A   1      30.934  22.694  27.123  1.00  0.00     0.000 A 
ATOM     19  C   UNL A   1      37.131  23.377  24.723  1.00  0.00     0.000 A 
BRANCH   5  20
ATOM     20  C   UNL A   1      31.534  26.217  23.478  1.00  0.00     0.310 C 
ATOM     21  O   UNL A   1      30.506  25.815  23.998  1.00  0.00    -0.252 OA
BRANCH  20  22
ATOM     22  O   UNL A   1      31.605  27.274  22.621  1.00  0.00    -0.465 OA
BRANCH  22  23
ATOM     23  C   UNL A   1      30.362  27.940  22.340  1.00  0.00     0.233 C 
BRANCH  23  24
ATOM     24  C   UNL A   1      30.542  29.446  22.161  1.00  0.00     0.041 C 
BRANCH  24  25
ATOM     25  C   UNL A   1      29.242  30.247  22.092  1.00  0.00     0.000 C 
ATOM     26  C   UNL A   1      28.874  30.922  23.407  1.00  0.00     0.004 C 
ENDBRANCH  24  25
ENDBRANCH  23  24
ENDBRANCH  22  23
ENDBRANCH  20  22
ENDBRANCH   5  20
ENDBRANCH   2   4
ENDBRANCH   1   2
BRANCH   1  27
ATOM     27  C   UNL A   1      31.541  29.290  25.599  1.00  0.00     0.274 C 
BRANCH  27  28
ATOM     28  C   UNL A   1      31.869  30.534  26.429  1.00  0.00     0.275 C 
BRANCH  28  29
ATOM     29  O   UNL A   1      33.290  30.746  26.505  1.00  0.00    -0.458 OA
BRANCH  29  30
ATOM     30  C   UNL A   1      33.682  31.790  27.278  1.00  0.00     0.338 C 
ATOM     31  O   UNL A   1      33.057  32.801  27.526  1.00  0.00    -0.246 OA
BRANCH  30  32
ATOM     32  C   UNL A   1      34.938  31.426  27.961  1.00  0.00     0.060 A 
ATOM     33  C   UNL A   1      35.980  32.342  28.106  1.00  0.00     0.016 A 
ATOM     34  C   UNL A   1      35.062  30.121  28.455  1.00  0.00     0.016 A 
ATOM     35  C   UNL A   1      37.158  31.940  28.737  1.00  0.00     0.010 A 
ATOM     36  C   UNL A   1      36.245  29.714  29.065  1.00  0.00     0.010 A 
ATOM     37  C   UNL A   1      37.297  30.623  29.210  1.00  0.00    -0.014 A 
BRANCH  37  38
ATOM     38  C   UNL A   1      38.512  30.229  29.951  1.00  0.00     0.031 A 
ATOM     39  C   UNL A   1      38.775  30.734  31.333  1.00  0.00     0.074 A 
ATOM     40  C   UNL A   1      39.382  29.405  29.344  1.00  0.00     0.049 A 
ATOM     41  N   UNL A   1      39.704  30.365  32.178  1.00  0.00    -0.248 NA
ATOM     42  C   UNL A   1      37.893  31.798  31.828  1.00  0.00     0.031 C 
ATOM     43  C   UNL A   1      39.245  28.911  27.975  1.00  0.00     0.029 A 
ATOM     44  N   UNL A   1      40.537  28.828  29.800  1.00  0.00    -0.354 N 
ATOM     45  C   UNL A   1      39.496  31.123  33.320  1.00  0.00     0.074 A 
ATOM     46  C   UNL A   1      38.397  32.023  33.035  1.00  0.00     0.031 C 
ATOM     47  C   UNL A   1      40.254  28.067  27.714  1.00  0.00     0.029 A 
ATOM     48  C   UNL A   1      41.105  27.967  28.897  1.00  0.00     0.049 A 
ATOM     49  H   UNL A   1      40.921  29.014  30.688  1.00  0.00     0.167 HD
ATOM     50  C   UNL A   1      40.149  31.048  34.504  1.00  0.00     0.037 A 
ATOM     51  C   UNL A   1      42.174  27.159  29.024  1.00  0.00     0.037 A 
ATOM     52  C   UNL A   1      41.264  30.169  34.756  1.00  0.00     0.049 A 
ATOM     53  C   UNL A   1      42.904  27.115  30.335  1.00  0.00     0.074 A 
ATOM     54  C   UNL A   1      41.971  29.982  35.931  1.00  0.00     0.029 A 
ATOM     55  N   UNL A   1      41.846  29.341  33.804  1.00  0.00    -0.354 N 
ATOM     56  N   UNL A   1      42.640  27.755  31.447  1.00  0.00    -0.248 NA
ATOM     57  C   UNL A   1      44.073  26.229  30.410  1.00  0.00     0.031 C 
ATOM     58  C   UNL A   1      43.010  29.078  35.676  1.00  0.00     0.029 A 
ATOM     59  C   UNL A   1      42.924  28.666  34.356  1.00  0.00     0.049 A 
ATOM     60  H   UNL A   1      41.540  29.249  32.873  1.00  0.00     0.167 HD
ATOM     61  C   UNL A   1      43.599  27.345  32.362  1.00  0.00     0.074 A 
ATOM     62  C   UNL A   1      44.442  26.384  31.676  1.00  0.00     0.031 C 
ATOM     63  C   UNL A   1      43.765  27.729  33.651  1.00  0.00     0.037 A 
BRANCH  50  64
ATOM     64  C   UNL A   1      39.663  31.926  35.619  1.00  0.00     0.064 A 
ATOM     65  C   UNL A   1      38.652  31.496  36.493  1.00  0.00     0.173 A 
ATOM     66  C   UNL A   1      40.230  33.189  35.847  1.00  0.00     0.173 A 
ATOM     67  F   UNL A   1      38.072  30.299  36.318  1.00  0.00    -0.203 F 
ATOM     68  C   UNL A   1      38.208  32.307  37.534  1.00  0.00     0.198 A 
ATOM     69  C   UNL A   1      39.803  33.986  36.906  1.00  0.00     0.198 A 
ATOM     70  F   UNL A   1      41.207  33.646  35.049  1.00  0.00    -0.203 F 
ATOM     71  F   UNL A   1      37.212  31.890  38.329  1.00  0.00    -0.200 F 
ATOM     72  C   UNL A   1      38.787  33.549  37.744  1.00  0.00     0.200 A 
ATOM     73  F   UNL A   1      40.373  35.181  37.116  1.00  0.00    -0.200 F 
ATOM     74  F   UNL A   1      38.364  34.327  38.749  1.00  0.00    -0.200 F 
ENDBRANCH  50  64
BRANCH  51  75
ATOM     75  C   UNL A   1      42.535  26.267  27.896  1.00  0.00     0.064 A 
ATOM     76  C   UNL A   1      41.867  25.050  27.713  1.00  0.00     0.173 A 
ATOM     77  C   UNL A   1      43.479  26.650  26.934  1.00  0.00     0.173 A 
ATOM     78  F   UNL A   1      40.962  24.641  28.615  1.00  0.00    -0.203 F 
ATOM     79  C   UNL A   1      42.125  24.249  26.604  1.00  0.00     0.198 A 
ATOM     80  C   UNL A   1      43.722  25.858  25.813  1.00  0.00     0.198 A 
ATOM     81  F   UNL A   1      44.134  27.813  27.061  1.00  0.00    -0.203 F 
ATOM     82  F   UNL A   1      41.477  23.086  26.454  1.00  0.00    -0.200 F 
ATOM     83  C   UNL A   1      43.045  24.659  25.650  1.00  0.00     0.200 A 
ATOM     84  F   UNL A   1      44.597  26.265  24.885  1.00  0.00    -0.200 F 
ATOM     85  F   UNL A   1      43.274  23.900  24.570  1.00  0.00    -0.200 F 
ENDBRANCH  51  75
BRANCH  63  86
ATOM     86  C   UNL A   1      44.910  27.122  34.406  1.00  0.00     0.064 A 
ATOM     87  C   UNL A   1      44.787  25.873  35.033  1.00  0.00     0.173 A 
ATOM     88  C   UNL A   1      46.157  27.761  34.449  1.00  0.00     0.173 A 
ATOM     89  F   UNL A   1      43.610  25.231  35.034  1.00  0.00    -0.203 F 
ATOM     90  C   UNL A   1      45.871  25.292  35.686  1.00  0.00     0.198 A 
ATOM     91  C   UNL A   1      47.245  27.165  35.080  1.00  0.00     0.198 A 
ATOM     92  F   UNL A   1      46.327  28.955  33.860  1.00  0.00    -0.203 F 
ATOM     93  F   UNL A   1      45.723  24.114  36.306  1.00  0.00    -0.200 F 
ATOM     94  C   UNL A   1      47.100  25.933  35.700  1.00  0.00     0.200 A 
ATOM     95  F   UNL A   1      48.437  27.780  35.082  1.00  0.00    -0.200 F 
ATOM     96  F   UNL A   1      48.147  25.365  36.316  1.00  0.00    -0.200 F 
ENDBRANCH  63  86
ENDBRANCH  37  38
ENDBRANCH  30  32
ENDBRANCH  29  30
ENDBRANCH  28  29
ENDBRANCH  27  28
ENDBRANCH   1  27
TORSDOF 16
ENDMDL
MODEL 2
REMARK VINA RESULT:     -12.3      0.264      1.572
REMARK SMILES CCCCOC(=O)[C@@H]1[C@H]2c3ccccc3[C@H](c3ccccc32)[C@@H]1C(=O)OCCOC(=O)c1ccc(-c2c3nc(c(-c4c(F)c(F)c(F)c(F)c4F)c4ccc([nH]4)c(-c4c(F)c(F)c(F)c(F)c4F)c4nc(c(-c5c(F)c(F)c(F)c(F)c5F)c5ccc2[nH]5)C=C4)C=C3)cc1
REMARK SMILES IDX 26 1 24 2 25 3 23 4 8 5 9 6 22 7 10 8 16 9 21 10 17 11 15 12
REMARK SMILES IDX 11 13 20 14 18 15 14 16 12 17 19 18 13 19 6 20 7 21 5 22
REMARK SMILES IDX 4 23 3 24 2 25 1 26 27 27 28 28 29 29 30 30 31 31 32 32
REMARK SMILES IDX 33 33 94 34 34 35 93 36 35 37 36 38 37 39 87 40 38 41 92 42
REMARK SMILES IDX 86 43 88 44 39 45 91 46 85 47 84 48 40 50 72 51 52 52 71 53
REMARK SMILES IDX 53 54 56 55 70 56 89 57 54 58 55 59 69 61 90 62 57 63 41 64
REMARK SMILES IDX 42 65 50 66 43 67 44 68 48 69 51 70 45 71 46 72 49 73 47 74
REMARK SMILES IDX 73 75 74 76 82 77 75 78 76 79 80 80 83 81 77 82 78 83 81 84
REMARK SMILES IDX 79 85 58 86 59 87 67 88 60 89 61 90 65 91 68 92 62 93 63 94
REMARK SMILES IDX 66 95 64 96
REMARK H PARENT 88 49 56 60
REMARK Flexibility Score: inf
ROOT
ATOM      1  O   UNL A   1      32.563  28.464  25.463  1.00  0.00    -0.462 OA
ENDROOT
BRANCH   1   2
ATOM      2  C   UNL A   1      32.414  27.186  25.871  1.00  0.00     0.310 C 
ATOM      3  O   UNL A   1      31.639  26.828  26.753  1.00  0.00    -0.252 OA
BRANCH   2   4
ATOM      4  C   UNL A   1      33.352  26.211  25.184  1.00  0.00     0.126 C 
ATOM      5  C   UNL A   1      32.854  25.742  23.771  1.00  0.00     0.126 C 
ATOM      6  C   UNL A   1      32.958  24.190  23.665  1.00  0.00     0.065 C 
ATOM      7  C   UNL A   1      32.155  23.591  24.820  1.00  0.00    -0.036 A 
ATOM      8  C   UNL A   1      34.435  23.877  23.944  1.00  0.00    -0.036 A 
ATOM      9  C   UNL A   1      33.769  24.982  26.052  1.00  0.00     0.065 C 
ATOM     10  C   UNL A   1      31.053  22.756  24.695  1.00  0.00     0.004 A 
ATOM     11  C   UNL A   1      32.593  24.011  26.098  1.00  0.00    -0.036 A 
ATOM     12  C   UNL A   1      34.868  24.297  25.234  1.00  0.00    -0.036 A 
ATOM     13  C   UNL A   1      35.316  23.245  23.080  1.00  0.00     0.004 A 
ATOM     14  C   UNL A   1      30.387  22.347  25.852  1.00  0.00     0.000 A 
ATOM     15  C   UNL A   1      31.945  23.584  27.250  1.00  0.00     0.004 A 
ATOM     16  C   UNL A   1      36.172  24.075  25.655  1.00  0.00     0.004 A 
ATOM     17  C   UNL A   1      36.630  23.028  23.506  1.00  0.00     0.000 A 
ATOM     18  C   UNL A   1      30.831  22.754  27.119  1.00  0.00     0.000 A 
ATOM     19  C   UNL A   1      37.052  23.436  24.781  1.00  0.00     0.000 A 
BRANCH   5  20
ATOM     20  C   UNL A   1      31.463  26.256  23.459  1.00  0.00     0.310 C 
ATOM     21  O   UNL A   1      30.431  25.860  23.977  1.00  0.00    -0.252 OA
BRANCH  20  22
ATOM     22  O   UNL A   1      31.540  27.302  22.589  1.00  0.00    -0.465 OA
BRANCH  22  23
ATOM     23  C   UNL A   1      30.319  28.029  22.371  1.00  0.00     0.233 C 
BRANCH  23  24
ATOM     24  C   UNL A   1      30.574  29.502  22.059  1.00  0.00     0.041 C 
BRANCH  24  25
ATOM     25  C   UNL A   1      29.316  30.336  21.815  1.00  0.00     0.000 C 
ATOM     26  C   UNL A   1      28.054  29.720  22.405  1.00  0.00     0.004 C 
ENDBRANCH  24  25
ENDBRANCH  23  24
ENDBRANCH  22  23
ENDBRANCH  20  22
ENDBRANCH   5  20
ENDBRANCH   2   4
ENDBRANCH   1   2
BRANCH   1  27
ATOM     27  C   UNL A   1      31.434  29.345  25.604  1.00  0.00     0.274 C 
BRANCH  27  28
ATOM     28  C   UNL A   1      31.778  30.553  26.477  1.00  0.00     0.275 C 
BRANCH  28  29
ATOM     29  O   UNL A   1      33.197  30.789  26.498  1.00  0.00    -0.458 OA
BRANCH  29  30
ATOM     30  C   UNL A   1      33.605  31.821  27.280  1.00  0.00     0.338 C 
ATOM     31  O   UNL A   1      32.991  32.836  27.542  1.00  0.00    -0.246 OA
BRANCH  30  32
ATOM     32  C   UNL A   1      34.861  31.438  27.950  1.00  0.00     0.060 A 
ATOM     33  C   UNL A   1      35.913  32.343  28.099  1.00  0.00     0.016 A 
ATOM     34  C   UNL A   1      34.976  30.127  28.429  1.00  0.00     0.016 A 
ATOM     35  C   UNL A   1      37.091  31.922  28.717  1.00  0.00     0.010 A 
ATOM     36  C   UNL A   1      36.159  29.701  29.027  1.00  0.00     0.010 A 
ATOM     37  C   UNL A   1      37.220  30.599  29.176  1.00  0.00    -0.014 A 
BRANCH  37  38
ATOM     38  C   UNL A   1      38.436  30.185  29.904  1.00  0.00     0.031 A 
ATOM     39  C   UNL A   1      38.697  30.646  31.302  1.00  0.00     0.074 A 
ATOM     40  C   UNL A   1      39.310  29.384  29.271  1.00  0.00     0.049 A 
ATOM     41  N   UNL A   1      39.627  30.253  32.135  1.00  0.00    -0.248 NA
ATOM     42  C   UNL A   1      37.811  31.691  31.831  1.00  0.00     0.031 C 
ATOM     43  C   UNL A   1      39.175  28.935  27.886  1.00  0.00     0.029 A 
ATOM     44  N   UNL A   1      40.467  28.797  29.709  1.00  0.00    -0.354 N 
ATOM     45  C   UNL A   1      39.415  30.972  33.301  1.00  0.00     0.074 A 
ATOM     46  C   UNL A   1      38.313  31.877  33.044  1.00  0.00     0.031 C 
ATOM     47  C   UNL A   1      40.188  28.103  27.600  1.00  0.00     0.029 A 
ATOM     48  C   UNL A   1      41.038  27.967  28.779  1.00  0.00     0.049 A 
ATOM     49  H   UNL A   1      40.850  28.955  30.603  1.00  0.00     0.167 HD
ATOM     50  C   UNL A   1      40.068  30.862  34.483  1.00  0.00     0.037 A 
ATOM     51  C   UNL A   1      42.109  27.160  28.881  1.00  0.00     0.037 A 
ATOM     52  C   UNL A   1      41.185  29.979  34.706  1.00  0.00     0.049 A 
ATOM     53  C   UNL A   1      42.839  27.075  30.190  1.00  0.00     0.074 A 
ATOM     54  C   UNL A   1      41.893  29.756  35.875  1.00  0.00     0.029 A 
ATOM     55  N   UNL A   1      41.771  29.184  33.728  1.00  0.00    -0.354 N 
ATOM     56  N   UNL A   1      42.572  27.678  31.322  1.00  0.00    -0.248 NA
ATOM     57  C   UNL A   1      44.010  26.192  30.238  1.00  0.00     0.031 C 
ATOM     58  C   UNL A   1      42.935  28.865  35.592  1.00  0.00     0.029 A 
ATOM     59  C   UNL A   1      42.851  28.495  34.259  1.00  0.00     0.049 A 
ATOM     60  H   UNL A   1      41.465  29.121  32.795  1.00  0.00     0.167 HD
ATOM     61  C   UNL A   1      43.532  27.242  32.224  1.00  0.00     0.074 A 
ATOM     62  C   UNL A   1      44.378  26.307  31.507  1.00  0.00     0.031 C 
ATOM     63  C   UNL A   1      43.695  27.584  33.525  1.00  0.00     0.037 A 
BRANCH  50  64
ATOM     64  C   UNL A   1      39.578  31.702  35.625  1.00  0.00     0.064 A 
ATOM     65  C   UNL A   1      38.524  31.267  36.444  1.00  0.00     0.173 A 
ATOM     66  C   UNL A   1      40.183  32.928  35.934  1.00  0.00     0.173 A 
ATOM     67  F   UNL A   1      37.906  30.103  36.191  1.00  0.00    -0.203 F 
ATOM     68  C   UNL A   1      38.076  32.043  37.511  1.00  0.00     0.198 A 
ATOM     69  C   UNL A   1      39.750  33.688  37.019  1.00  0.00     0.198 A 
ATOM     70  F   UNL A   1      41.201  33.387  35.192  1.00  0.00    -0.203 F 
ATOM     71  F   UNL A   1      37.039  31.625  38.252  1.00  0.00    -0.200 F 
ATOM     72  C   UNL A   1      38.693  33.250  37.801  1.00  0.00     0.200 A 
ATOM     73  F   UNL A   1      40.357  34.848  37.307  1.00  0.00    -0.200 F 
ATOM     74  F   UNL A   1      38.265  33.992  38.831  1.00  0.00    -0.200 F 
ENDBRANCH  50  64
BRANCH  51  75
ATOM     75  C   UNL A   1      42.474  26.306  27.724  1.00  0.00     0.064 A 
ATOM     76  C   UNL A   1      43.479  26.710  26.836  1.00  0.00     0.173 A 
ATOM     77  C   UNL A   1      41.900  25.042  27.537  1.00  0.00     0.173 A 
ATOM     78  F   UNL A   1      44.050  27.916  26.973  1.00  0.00    -0.203 F 
ATOM     79  C   UNL A   1      43.901  25.876  25.804  1.00  0.00     0.198 A 
ATOM     80  C   UNL A   1      42.337  24.200  26.517  1.00  0.00     0.198 A 
ATOM     81  F   UNL A   1      40.943  24.609  28.371  1.00  0.00    -0.203 F 
ATOM     82  F   UNL A   1      44.861  26.286  24.963  1.00  0.00    -0.200 F 
ATOM     83  C   UNL A   1      43.338  24.618  25.652  1.00  0.00     0.200 A 
ATOM     84  F   UNL A   1      41.803  22.979  26.384  1.00  0.00    -0.200 F 
ATOM     85  F   UNL A   1      43.763  23.806  24.675  1.00  0.00    -0.200 F 
ENDBRANCH  51  75
BRANCH  63  86
ATOM     86  C   UNL A   1      44.842  26.957  34.261  1.00  0.00     0.064 A 
ATOM     87  C   UNL A   1      46.082  27.605  34.361  1.00  0.00     0.173 A 
ATOM     88  C   UNL A   1      44.682  25.733  34.925  1.00  0.00     0.173 A 
ATOM     89  F   UNL A   1      46.289  28.770  33.730  1.00  0.00    -0.203 F 
ATOM     90  C   UNL A   1      47.125  27.042  35.092  1.00  0.00     0.198 A 
ATOM     91  C   UNL A   1      45.719  25.186  35.677  1.00  0.00     0.198 A 
ATOM     92  F   UNL A   1      43.513  25.077  34.864  1.00  0.00    -0.203 F 
ATOM     93  F   UNL A   1      48.311  27.662  35.148  1.00  0.00    -0.200 F 
ATOM     94  C   UNL A   1      46.939  25.839  35.756  1.00  0.00     0.200 A 
ATOM     95  F   UNL A   1      45.534  24.030  36.329  1.00  0.00    -0.200 F 
ATOM     96  F   UNL A   1      47.940  25.306  36.472  1.00  0.00    -0.200 F 
ENDBRANCH  63  86
ENDBRANCH  37  38
ENDBRANCH  30  32
ENDBRANCH  29  30
ENDBRANCH  28  29
ENDBRANCH  27  28
ENDBRANCH   1  27
TORSDOF 16
ENDMDL
MODEL 3
REMARK VINA RESULT:     -12.1      4.411      9.654
REMARK SMILES CCCCOC(=O)[C@@H]1[C@H]2c3ccccc3[C@H](c3ccccc32)[C@@H]1C(=O)OCCOC(=O)c1ccc(-c2c3nc(c(-c4c(F)c(F)c(F)c(F)c4F)c4ccc([nH]4)c(-c4c(F)c(F)c(F)c(F)c4F)c4nc(c(-c5c(F)c(F)c(F)c(F)c5F)c5ccc2[nH]5)C=C4)C=C3)cc1
REMARK SMILES IDX 26 1 24 2 25 3 23 4 8 5 9 6 22 7 10 8 16 9 21 10 17 11 15 12
REMARK SMILES IDX 11 13 20 14 18 15 14 16 12 17 19 18 13 19 6 20 7 21 5 22
REMARK SMILES IDX 4 23 3 24 2 25 1 26 27 27 28 28 29 29 30 30 31 31 32 32
REMARK SMILES IDX 33 33 94 34 34 35 93 36 35 37 36 38 37 39 87 40 38 41 92 42
REMARK SMILES IDX 86 43 88 44 39 45 91 46 85 47 84 48 40 50 72 51 52 52 71 53
REMARK SMILES IDX 53 54 56 55 70 56 89 57 54 58 55 59 69 61 90 62 57 63 41 64
REMARK SMILES IDX 42 65 50 66 43 67 44 68 48 69 51 70 45 71 46 72 49 73 47 74
REMARK SMILES IDX 73 75 74 76 82 77 75 78 76 79 80 80 83 81 77 82 78 83 81 84
REMARK SMILES IDX 79 85 58 86 59 87 67 88 60 89 61 90 65 91 68 92 62 93 63 94
REMARK SMILES IDX 66 95 64 96
REMARK H PARENT 88 49 56 60
REMARK Flexibility Score: inf
ROOT
ATOM      1  O   UNL A   1      35.671  22.800  25.180  1.00  0.00    -0.462 OA
ENDROOT
BRANCH   1   2
ATOM      2  C   UNL A   1      35.013  23.694  24.412  1.00  0.00     0.310 C 
ATOM      3  O   UNL A   1      35.128  23.774  23.193  1.00  0.00    -0.252 OA
BRANCH   2   4
ATOM      4  C   UNL A   1      34.150  24.660  25.202  1.00  0.00     0.126 C 
ATOM      5  C   UNL A   1      32.677  24.164  25.416  1.00  0.00     0.126 C 
ATOM      6  C   UNL A   1      31.679  25.309  25.057  1.00  0.00     0.065 C 
ATOM      7  C   UNL A   1      31.970  25.745  23.622  1.00  0.00    -0.036 A 
ATOM      8  C   UNL A   1      32.084  26.478  25.966  1.00  0.00    -0.036 A 
ATOM      9  C   UNL A   1      34.162  26.130  24.674  1.00  0.00     0.065 C 
ATOM     10  C   UNL A   1      31.080  25.681  22.559  1.00  0.00     0.004 A 
ATOM     11  C   UNL A   1      33.298  26.190  23.418  1.00  0.00    -0.036 A 
ATOM     12  C   UNL A   1      33.419  26.925  25.752  1.00  0.00    -0.036 A 
ATOM     13  C   UNL A   1      31.283  27.094  26.915  1.00  0.00     0.004 A 
ATOM     14  C   UNL A   1      31.523  26.058  21.289  1.00  0.00     0.000 A 
ATOM     15  C   UNL A   1      33.730  26.587  22.159  1.00  0.00     0.004 A 
ATOM     16  C   UNL A   1      33.941  27.987  26.478  1.00  0.00     0.004 A 
ATOM     17  C   UNL A   1      31.814  28.160  27.648  1.00  0.00     0.000 A 
ATOM     18  C   UNL A   1      32.836  26.510  21.092  1.00  0.00     0.000 A 
ATOM     19  C   UNL A   1      33.127  28.604  27.429  1.00  0.00     0.000 A 
BRANCH   5  20
ATOM     20  C   UNL A   1      32.392  22.884  24.656  1.00  0.00     0.310 C 
ATOM     21  O   UNL A   1      32.200  22.803  23.454  1.00  0.00    -0.252 OA
BRANCH  20  22
ATOM     22  O   UNL A   1      32.485  21.817  25.499  1.00  0.00    -0.465 OA
BRANCH  22  23
ATOM     23  C   UNL A   1      32.151  20.538  24.931  1.00  0.00     0.233 C 
BRANCH  23  24
ATOM     24  C   UNL A   1      33.011  19.413  25.501  1.00  0.00     0.041 C 
BRANCH  24  25
ATOM     25  C   UNL A   1      32.882  18.073  24.776  1.00  0.00     0.000 C 
ATOM     26  C   UNL A   1      32.548  18.212  23.297  1.00  0.00     0.004 C 
ENDBRANCH  24  25
ENDBRANCH  23  24
ENDBRANCH  22  23
ENDBRANCH  20  22
ENDBRANCH   5  20
ENDBRANCH   2   4
ENDBRANCH   1   2
BRANCH   1  27
ATOM     27  C   UNL A   1      35.928  21.500  24.619  1.00  0.00     0.274 C 
BRANCH  27  28
ATOM     28  C   UNL A   1      37.329  21.005  24.985  1.00  0.00     0.275 C 
BRANCH  28  29
ATOM     29  O   UNL A   1      37.919  21.828  26.006  1.00  0.00    -0.458 OA
BRANCH  29  30
ATOM     30  C   UNL A   1      39.211  21.545  26.309  1.00  0.00     0.338 C 
ATOM     31  O   UNL A   1      39.806  20.505  26.111  1.00  0.00    -0.246 OA
BRANCH  30  32
ATOM     32  C   UNL A   1      39.876  22.786  26.750  1.00  0.00     0.060 A 
ATOM     33  C   UNL A   1      40.850  22.775  27.748  1.00  0.00     0.016 A 
ATOM     34  C   UNL A   1      39.492  23.988  26.141  1.00  0.00     0.016 A 
ATOM     35  C   UNL A   1      41.430  23.980  28.147  1.00  0.00     0.010 A 
ATOM     36  C   UNL A   1      40.055  25.192  26.553  1.00  0.00     0.010 A 
ATOM     37  C   UNL A   1      41.028  25.192  27.557  1.00  0.00    -0.014 A 
BRANCH  37  38
ATOM     38  C   UNL A   1      41.706  26.452  27.924  1.00  0.00     0.031 A 
ATOM     39  C   UNL A   1      43.108  26.733  27.492  1.00  0.00     0.074 A 
ATOM     40  C   UNL A   1      41.024  27.342  28.665  1.00  0.00     0.049 A 
ATOM     41  N   UNL A   1      43.790  27.845  27.591  1.00  0.00    -0.248 NA
ATOM     42  C   UNL A   1      43.848  25.620  26.883  1.00  0.00     0.031 C 
ATOM     43  C   UNL A   1      39.676  27.132  29.189  1.00  0.00     0.029 A 
ATOM     44  N   UNL A   1      41.363  28.599  29.092  1.00  0.00    -0.354 N 
ATOM     45  C   UNL A   1      45.026  27.581  27.022  1.00  0.00     0.074 A 
ATOM     46  C   UNL A   1      45.026  26.182  26.644  1.00  0.00     0.031 C 
ATOM     47  C   UNL A   1      39.280  28.242  29.830  1.00  0.00     0.029 A 
ATOM     48  C   UNL A   1      40.350  29.234  29.762  1.00  0.00     0.049 A 
ATOM     49  H   UNL A   1      42.246  29.005  28.932  1.00  0.00     0.167 HD
ATOM     50  C   UNL A   1      46.052  28.440  26.813  1.00  0.00     0.037 A 
ATOM     51  C   UNL A   1      40.280  30.491  30.238  1.00  0.00     0.037 A 
ATOM     52  C   UNL A   1      46.045  29.820  27.229  1.00  0.00     0.049 A 
ATOM     53  C   UNL A   1      41.441  31.418  30.025  1.00  0.00     0.074 A 
ATOM     54  C   UNL A   1      47.013  30.789  27.030  1.00  0.00     0.029 A 
ATOM     55  N   UNL A   1      45.021  30.421  27.950  1.00  0.00    -0.354 N 
ATOM     56  N   UNL A   1      42.568  31.196  29.392  1.00  0.00    -0.248 NA
ATOM     57  C   UNL A   1      41.317  32.771  30.580  1.00  0.00     0.031 C 
ATOM     58  C   UNL A   1      46.596  31.962  27.671  1.00  0.00     0.029 A 
ATOM     59  C   UNL A   1      45.347  31.739  28.231  1.00  0.00     0.049 A 
ATOM     60  H   UNL A   1      44.186  29.977  28.222  1.00  0.00     0.167 HD
ATOM     61  C   UNL A   1      43.285  32.381  29.461  1.00  0.00     0.074 A 
ATOM     62  C   UNL A   1      42.455  33.326  30.183  1.00  0.00     0.031 C 
ATOM     63  C   UNL A   1      44.517  32.660  28.970  1.00  0.00     0.037 A 
BRANCH  50  64
ATOM     64  C   UNL A   1      47.257  27.916  26.087  1.00  0.00     0.064 A 
ATOM     65  C   UNL A   1      48.391  27.475  26.789  1.00  0.00     0.173 A 
ATOM     66  C   UNL A   1      47.272  27.813  24.689  1.00  0.00     0.173 A 
ATOM     67  F   UNL A   1      48.431  27.555  28.127  1.00  0.00    -0.203 F 
ATOM     68  C   UNL A   1      49.504  26.980  26.115  1.00  0.00     0.198 A 
ATOM     69  C   UNL A   1      48.377  27.291  24.021  1.00  0.00     0.198 A 
ATOM     70  F   UNL A   1      46.212  28.209  23.969  1.00  0.00    -0.203 F 
ATOM     71  F   UNL A   1      50.591  26.605  26.806  1.00  0.00    -0.200 F 
ATOM     72  C   UNL A   1      49.495  26.882  24.732  1.00  0.00     0.200 A 
ATOM     73  F   UNL A   1      48.362  27.184  22.684  1.00  0.00    -0.200 F 
ATOM     74  F   UNL A   1      50.565  26.399  24.086  1.00  0.00    -0.200 F 
ENDBRANCH  50  64
BRANCH  51  75
ATOM     75  C   UNL A   1      39.020  30.947  30.872  1.00  0.00     0.064 A 
ATOM     76  C   UNL A   1      37.968  31.433  30.086  1.00  0.00     0.173 A 
ATOM     77  C   UNL A   1      38.807  30.822  32.252  1.00  0.00     0.173 A 
ATOM     78  F   UNL A   1      38.131  31.578  28.763  1.00  0.00    -0.203 F 
ATOM     79  C   UNL A   1      36.744  31.772  30.657  1.00  0.00     0.198 A 
ATOM     80  C   UNL A   1      37.576  31.142  32.819  1.00  0.00     0.198 A 
ATOM     81  F   UNL A   1      39.783  30.348  33.041  1.00  0.00    -0.203 F 
ATOM     82  F   UNL A   1      35.754  32.241  29.886  1.00  0.00    -0.200 F 
ATOM     83  C   UNL A   1      36.546  31.616  32.021  1.00  0.00     0.200 A 
ATOM     84  F   UNL A   1      37.382  30.972  34.133  1.00  0.00    -0.200 F 
ATOM     85  F   UNL A   1      35.359  31.918  32.566  1.00  0.00    -0.200 F 
ENDBRANCH  51  75
BRANCH  63  86
ATOM     86  C   UNL A   1      45.055  34.039  29.208  1.00  0.00     0.064 A 
ATOM     87  C   UNL A   1      44.808  35.082  28.303  1.00  0.00     0.173 A 
ATOM     88  C   UNL A   1      45.767  34.338  30.379  1.00  0.00     0.173 A 
ATOM     89  F   UNL A   1      44.147  34.843  27.161  1.00  0.00    -0.203 F 
ATOM     90  C   UNL A   1      45.265  36.372  28.558  1.00  0.00     0.198 A 
ATOM     91  C   UNL A   1      46.198  35.635  30.643  1.00  0.00     0.198 A 
ATOM     92  F   UNL A   1      46.024  33.376  31.278  1.00  0.00    -0.203 F 
ATOM     93  F   UNL A   1      45.045  37.347  27.664  1.00  0.00    -0.200 F 
ATOM     94  C   UNL A   1      45.950  36.649  29.731  1.00  0.00     0.200 A 
ATOM     95  F   UNL A   1      46.850  35.904  31.783  1.00  0.00    -0.200 F 
ATOM     96  F   UNL A   1      46.376  37.896  29.981  1.00  0.00    -0.200 F 
ENDBRANCH  63  86
ENDBRANCH  37  38
ENDBRANCH  30  32
ENDBRANCH  29  30
ENDBRANCH  28  29
ENDBRANCH  27  28
ENDBRANCH   1  27
TORSDOF 16
ENDMDL
