MODEL 1
REMARK VINA RESULT:     -13.3      0.000      0.000
REMARK SMILES C[C@]12CC[C@H]3[C@@H](CCC4=CC(=O)C=C[C@@]43C)[C@@H]1CC[C@H]2O[C@@H]1O[C@H](C(=O)OCCOC(=O)c2ccc(-c3c4nc(c(-c5c(F)c(F)c(F)c(F)c5F)c5ccc([nH]5)c(-c5c(F)c(F)c(F)c(F)c5F)c5nc(c(-c6c(F)c(F)c(F)c(F)c6F)c6ccc3[nH]6)C=C5)C=C4)cc2)[C@@H](O)[C@H](O)[C@H]1O
REMARK SMILES IDX 28 1 27 2 25 3 26 4 24 5 22 6 23 7 100 8 98 9 96 10 21 11
REMARK SMILES IDX 20 12 1 13 2 14 3 15 17 16 4 17 6 18 18 19 19 20 5 21 7 22
REMARK SMILES IDX 15 23 8 24 9 25 14 26 16 27 10 28 13 29 11 30 12 31 101 32
REMARK SMILES IDX 99 34 97 36 29 38 30 39 31 40 32 41 33 42 34 43 95 44 35 45
REMARK SMILES IDX 94 46 36 47 37 48 38 49 88 50 39 51 93 52 87 53 89 54 40 55
REMARK SMILES IDX 92 56 86 57 85 58 41 60 73 61 53 62 72 63 54 64 57 65 71 66
REMARK SMILES IDX 90 67 55 68 56 69 70 71 91 72 58 73 42 74 43 75 51 76 44 77
REMARK SMILES IDX 45 78 49 79 52 80 46 81 47 82 50 83 48 84 74 85 75 86 83 87
REMARK SMILES IDX 76 88 77 89 81 90 84 91 78 92 79 93 82 94 80 95 59 96 60 97
REMARK SMILES IDX 68 98 61 99 62 100 66 101 69 102 63 103 64 104 67 105 65 106
REMARK H PARENT 101 33 99 35 97 37 89 59 57 70
REMARK Flexibility Score: inf
ROOT
ATOM      1  C   UNL A   1      42.765  19.049  26.416  1.00  0.00     0.274 C 
ENDROOT
BRANCH   1   2
ATOM      2  O   UNL A   1      41.954  20.064  25.789  1.00  0.00    -0.460 OA
BRANCH   2   3
ATOM      3  C   UNL A   1      40.620  19.852  25.752  1.00  0.00     0.338 C 
ATOM      4  O   UNL A   1      40.076  18.751  25.749  1.00  0.00    -0.249 OA
BRANCH   3   5
ATOM      5  C   UNL A   1      39.804  21.149  25.726  1.00  0.00     0.262 C 
ATOM      6  C   UNL A   1      37.765  22.293  25.148  1.00  0.00     0.282 C 
ATOM      7  O   UNL A   1      38.453  21.046  25.288  1.00  0.00    -0.332 OA
ATOM      8  C   UNL A   1      38.008  23.316  26.294  1.00  0.00     0.202 C 
ATOM      9  C   UNL A   1      39.426  23.273  26.877  1.00  0.00     0.180 C 
ATOM     10  C   UNL A   1      39.849  21.814  27.103  1.00  0.00     0.186 C 
BRANCH   6  11
ATOM     11  O   UNL A   1      36.391  22.128  24.755  1.00  0.00    -0.346 OA
BRANCH  11  12
ATOM     12  C   UNL A   1      35.286  21.668  25.541  1.00  0.00     0.127 C 
ATOM     13  C   UNL A   1      33.391  22.180  27.165  1.00  0.00     0.014 C 
ATOM     14  C   UNL A   1      34.168  22.688  25.909  1.00  0.00    -0.003 C 
ATOM     15  C   UNL A   1      34.599  24.128  26.170  1.00  0.00     0.010 C 
ATOM     16  C   UNL A   1      33.317  22.610  24.638  1.00  0.00     0.001 C 
ATOM     17  C   UNL A   1      33.384  25.075  26.253  1.00  0.00     0.006 C 
ATOM     18  C   UNL A   1      32.078  23.506  24.632  1.00  0.00    -0.003 C 
ATOM     19  C   UNL A   1      33.186  21.103  24.373  1.00  0.00     0.007 C 
ATOM     20  C   UNL A   1      34.463  20.481  25.001  1.00  0.00     0.033 C 
ATOM     21  C   UNL A   1      32.452  24.980  25.020  1.00  0.00     0.006 C 
ATOM     22  C   UNL A   1      31.450  23.521  23.223  1.00  0.00     0.009 C 
ATOM     23  C   UNL A   1      31.169  25.897  25.062  1.00  0.00     0.010 C 
ATOM     24  C   UNL A   1      30.237  24.442  23.125  1.00  0.00     0.032 C 
ATOM     25  C   UNL A   1      30.507  25.823  23.675  1.00  0.00    -0.056 C 
ATOM     26  C   UNL A   1      31.491  27.340  25.439  1.00  0.00    -0.012 C 
ATOM     27  C   UNL A   1      30.150  25.436  26.123  1.00  0.00     0.021 C 
ATOM     28  C   UNL A   1      30.199  26.910  22.943  1.00  0.00     0.052 C 
ATOM     29  C   UNL A   1      31.162  28.419  24.717  1.00  0.00     0.048 C 
ATOM     30  C   UNL A   1      30.505  28.279  23.404  1.00  0.00     0.178 C 
ATOM     31  O   UNL A   1      30.289  29.253  22.695  1.00  0.00    -0.290 OA
ENDBRANCH  11  12
ENDBRANCH   6  11
BRANCH   8  32
ATOM     32  O   UNL A   1      37.662  24.646  25.881  1.00  0.00    -0.385 OA
ATOM     33  H   UNL A   1      37.775  25.256  26.628  1.00  0.00     0.211 HD
ENDBRANCH   8  32
BRANCH   9  34
ATOM     34  O   UNL A   1      39.472  24.018  28.102  1.00  0.00    -0.387 OA
ATOM     35  H   UNL A   1      40.393  24.238  28.313  1.00  0.00     0.211 HD
ENDBRANCH   9  34
BRANCH  10  36
ATOM     36  O   UNL A   1      41.112  21.767  27.761  1.00  0.00    -0.387 OA
ATOM     37  H   UNL A   1      41.503  22.655  27.773  1.00  0.00     0.211 HD
ENDBRANCH  10  36
ENDBRANCH   3   5
ENDBRANCH   2   3
ENDBRANCH   1   2
BRANCH   1  38
ATOM     38  C   UNL A   1      43.687  18.400  25.383  1.00  0.00     0.275 C 
BRANCH  38  39
ATOM     39  O   UNL A   1      43.894  19.300  24.297  1.00  0.00    -0.458 OA
BRANCH  39  40
ATOM     40  C   UNL A   1      45.175  19.695  24.125  1.00  0.00     0.338 C 
ATOM     41  O   UNL A   1      46.063  19.161  23.492  1.00  0.00    -0.246 OA
BRANCH  40  42
ATOM     42  C   UNL A   1      45.200  21.070  24.611  1.00  0.00     0.060 A 
ATOM     43  C   UNL A   1      44.661  22.060  23.784  1.00  0.00     0.016 A 
ATOM     44  C   UNL A   1      45.631  21.342  25.910  1.00  0.00     0.016 A 
ATOM     45  C   UNL A   1      44.525  23.346  24.270  1.00  0.00     0.010 A 
ATOM     46  C   UNL A   1      45.512  22.632  26.393  1.00  0.00     0.010 A 
ATOM     47  C   UNL A   1      44.980  23.631  25.562  1.00  0.00    -0.014 A 
BRANCH  47  48
ATOM     48  C   UNL A   1      45.118  25.033  25.967  1.00  0.00     0.031 A 
ATOM     49  C   UNL A   1      46.473  25.647  25.808  1.00  0.00     0.074 A 
ATOM     50  C   UNL A   1      44.055  25.698  26.441  1.00  0.00     0.049 A 
ATOM     51  N   UNL A   1      46.899  26.821  26.177  1.00  0.00    -0.248 NA
ATOM     52  C   UNL A   1      47.500  24.810  25.156  1.00  0.00     0.031 C 
ATOM     53  C   UNL A   1      42.705  25.148  26.576  1.00  0.00     0.029 A 
ATOM     54  N   UNL A   1      43.947  26.979  26.901  1.00  0.00    -0.354 N 
ATOM     55  C   UNL A   1      48.243  26.852  25.829  1.00  0.00     0.074 A 
ATOM     56  C   UNL A   1      48.574  25.575  25.245  1.00  0.00     0.031 C 
ATOM     57  C   UNL A   1      41.901  26.091  27.096  1.00  0.00     0.029 A 
ATOM     58  C   UNL A   1      42.692  27.286  27.366  1.00  0.00     0.049 A 
ATOM     59  H   UNL A   1      44.695  27.618  26.901  1.00  0.00     0.167 HD
ATOM     60  C   UNL A   1      49.112  27.874  25.987  1.00  0.00     0.037 A 
ATOM     61  C   UNL A   1      42.264  28.411  27.966  1.00  0.00     0.037 A 
ATOM     62  C   UNL A   1      48.729  29.131  26.564  1.00  0.00     0.049 A 
ATOM     63  C   UNL A   1      43.264  29.526  28.146  1.00  0.00     0.074 A 
ATOM     64  C   UNL A   1      49.498  30.256  26.784  1.00  0.00     0.029 A 
ATOM     65  N   UNL A   1      47.444  29.423  27.011  1.00  0.00    -0.354 N 
ATOM     66  N   UNL A   1      44.535  29.561  27.817  1.00  0.00    -0.248 NA
ATOM     67  C   UNL A   1      42.772  30.759  28.768  1.00  0.00     0.031 C 
ATOM     68  C   UNL A   1      48.690  31.212  27.409  1.00  0.00     0.029 A 
ATOM     69  C   UNL A   1      47.401  30.708  27.516  1.00  0.00     0.049 A 
ATOM     70  H   UNL A   1      46.680  28.805  26.975  1.00  0.00     0.167 HD
ATOM     71  C   UNL A   1      44.987  30.827  28.157  1.00  0.00     0.074 A 
ATOM     72  C   UNL A   1      43.845  31.533  28.705  1.00  0.00     0.031 C 
ATOM     73  C   UNL A   1      46.227  31.366  28.032  1.00  0.00     0.037 A 
BRANCH  60  74
ATOM     74  C   UNL A   1      50.535  27.653  25.568  1.00  0.00     0.064 A 
ATOM     75  C   UNL A   1      50.960  27.838  24.243  1.00  0.00     0.173 A 
ATOM     76  C   UNL A   1      51.494  27.252  26.510  1.00  0.00     0.173 A 
ATOM     77  F   UNL A   1      50.078  28.192  23.295  1.00  0.00    -0.203 F 
ATOM     78  C   UNL A   1      52.284  27.614  23.875  1.00  0.00     0.198 A 
ATOM     79  C   UNL A   1      52.824  27.057  26.145  1.00  0.00     0.198 A 
ATOM     80  F   UNL A   1      51.141  27.045  27.789  1.00  0.00    -0.203 F 
ATOM     81  F   UNL A   1      52.654  27.748  22.593  1.00  0.00    -0.200 F 
ATOM     82  C   UNL A   1      53.217  27.233  24.827  1.00  0.00     0.200 A 
ATOM     83  F   UNL A   1      53.724  26.695  27.069  1.00  0.00    -0.200 F 
ATOM     84  F   UNL A   1      54.492  27.026  24.474  1.00  0.00    -0.200 F 
ENDBRANCH  60  74
BRANCH  61  85
ATOM     85  C   UNL A   1      40.858  28.531  28.433  1.00  0.00     0.064 A 
ATOM     86  C   UNL A   1      39.844  28.989  27.579  1.00  0.00     0.173 A 
ATOM     87  C   UNL A   1      40.495  28.198  29.747  1.00  0.00     0.173 A 
ATOM     88  F   UNL A   1      40.138  29.332  26.316  1.00  0.00    -0.203 F 
ATOM     89  C   UNL A   1      38.534  29.141  28.029  1.00  0.00     0.198 A 
ATOM     90  C   UNL A   1      39.177  28.318  30.187  1.00  0.00     0.198 A 
ATOM     91  F   UNL A   1      41.420  27.746  30.606  1.00  0.00    -0.203 F 
ATOM     92  F   UNL A   1      37.598  29.634  27.205  1.00  0.00    -0.200 F 
ATOM     93  C   UNL A   1      38.200  28.800  29.331  1.00  0.00     0.200 A 
ATOM     94  F   UNL A   1      38.857  27.969  31.440  1.00  0.00    -0.200 F 
ATOM     95  F   UNL A   1      36.939  28.945  29.762  1.00  0.00    -0.200 F 
ENDBRANCH  61  85
BRANCH  73  96
ATOM     96  C   UNL A   1      46.379  32.801  28.437  1.00  0.00     0.064 A 
ATOM     97  C   UNL A   1      46.750  33.168  29.738  1.00  0.00     0.173 A 
ATOM     98  C   UNL A   1      46.190  33.818  27.489  1.00  0.00     0.173 A 
ATOM     99  F   UNL A   1      46.930  32.230  30.680  1.00  0.00    -0.203 F 
ATOM    100  C   UNL A   1      46.886  34.507  30.085  1.00  0.00     0.198 A 
ATOM    101  C   UNL A   1      46.366  35.154  27.831  1.00  0.00     0.198 A 
ATOM    102  F   UNL A   1      45.849  33.513  26.227  1.00  0.00    -0.203 F 
ATOM    103  F   UNL A   1      47.180  34.841  31.350  1.00  0.00    -0.200 F 
ATOM    104  C   UNL A   1      46.703  35.498  29.130  1.00  0.00     0.200 A 
ATOM    105  F   UNL A   1      46.209  36.107  26.902  1.00  0.00    -0.200 F 
ATOM    106  F   UNL A   1      46.843  36.787  29.467  1.00  0.00    -0.200 F 
ENDBRANCH  73  96
ENDBRANCH  47  48
ENDBRANCH  40  42
ENDBRANCH  39  40
ENDBRANCH  38  39
ENDBRANCH   1  38
TORSDOF 16
ENDMDL
MODEL 2
REMARK VINA RESULT:     -13.1      6.528     12.378
REMARK SMILES C[C@]12CC[C@H]3[C@@H](CCC4=CC(=O)C=C[C@@]43C)[C@@H]1CC[C@H]2O[C@@H]1O[C@H](C(=O)OCCOC(=O)c2ccc(-c3c4nc(c(-c5c(F)c(F)c(F)c(F)c5F)c5ccc([nH]5)c(-c5c(F)c(F)c(F)c(F)c5F)c5nc(c(-c6c(F)c(F)c(F)c(F)c6F)c6ccc3[nH]6)C=C5)C=C4)cc2)[C@@H](O)[C@H](O)[C@H]1O
REMARK SMILES IDX 28 1 27 2 25 3 26 4 24 5 22 6 23 7 100 8 98 9 96 10 21 11
REMARK SMILES IDX 20 12 1 13 2 14 3 15 17 16 4 17 6 18 18 19 19 20 5 21 7 22
REMARK SMILES IDX 15 23 8 24 9 25 14 26 16 27 10 28 13 29 11 30 12 31 101 32
REMARK SMILES IDX 99 34 97 36 29 38 30 39 31 40 32 41 33 42 34 43 95 44 35 45
REMARK SMILES IDX 94 46 36 47 37 48 38 49 88 50 39 51 93 52 87 53 89 54 40 55
REMARK SMILES IDX 92 56 86 57 85 58 41 60 73 61 53 62 72 63 54 64 57 65 71 66
REMARK SMILES IDX 90 67 55 68 56 69 70 71 91 72 58 73 42 74 43 75 51 76 44 77
REMARK SMILES IDX 45 78 49 79 52 80 46 81 47 82 50 83 48 84 74 85 75 86 83 87
REMARK SMILES IDX 76 88 77 89 81 90 84 91 78 92 79 93 82 94 80 95 59 96 60 97
REMARK SMILES IDX 68 98 61 99 62 100 66 101 69 102 63 103 64 104 67 105 65 106
REMARK H PARENT 101 33 99 35 97 37 89 59 57 70
REMARK Flexibility Score: inf
ROOT
ATOM      1  C   UNL A   1      33.554  35.705  29.305  1.00  0.00     0.274 C 
ENDROOT
BRANCH   1   2
ATOM      2  O   UNL A   1      33.428  34.269  29.359  1.00  0.00    -0.460 OA
BRANCH   2   3
ATOM      3  C   UNL A   1      32.925  33.652  28.267  1.00  0.00     0.338 C 
ATOM      4  O   UNL A   1      32.132  34.150  27.473  1.00  0.00    -0.249 OA
BRANCH   3   5
ATOM      5  C   UNL A   1      33.451  32.225  28.084  1.00  0.00     0.262 C 
ATOM      6  C   UNL A   1      33.113  29.991  27.250  1.00  0.00     0.282 C 
ATOM      7  O   UNL A   1      32.662  31.348  27.287  1.00  0.00    -0.332 OA
ATOM      8  C   UNL A   1      34.650  29.808  27.101  1.00  0.00     0.202 C 
ATOM      9  C   UNL A   1      35.478  30.883  27.818  1.00  0.00     0.180 C 
ATOM     10  C   UNL A   1      34.880  32.269  27.539  1.00  0.00     0.186 C 
BRANCH   6  11
ATOM     11  O   UNL A   1      32.312  29.162  26.390  1.00  0.00    -0.346 OA
BRANCH  11  12
ATOM     12  C   UNL A   1      32.263  29.143  24.959  1.00  0.00     0.127 C 
ATOM     13  C   UNL A   1      33.177  28.263  22.749  1.00  0.00     0.014 C 
ATOM     14  C   UNL A   1      32.810  27.886  24.220  1.00  0.00    -0.003 C 
ATOM     15  C   UNL A   1      34.013  27.182  24.841  1.00  0.00     0.010 C 
ATOM     16  C   UNL A   1      31.573  26.985  24.290  1.00  0.00     0.001 C 
ATOM     17  C   UNL A   1      34.278  25.818  24.171  1.00  0.00     0.006 C 
ATOM     18  C   UNL A   1      31.735  25.612  23.637  1.00  0.00    -0.003 C 
ATOM     19  C   UNL A   1      30.419  27.910  23.876  1.00  0.00     0.007 C 
ATOM     20  C   UNL A   1      30.891  29.333  24.281  1.00  0.00     0.033 C 
ATOM     21  C   UNL A   1      33.034  24.897  24.152  1.00  0.00     0.006 C 
ATOM     22  C   UNL A   1      30.523  24.723  23.984  1.00  0.00     0.009 C 
ATOM     23  C   UNL A   1      33.229  23.500  23.446  1.00  0.00     0.010 C 
ATOM     24  C   UNL A   1      30.641  23.312  23.412  1.00  0.00     0.032 C 
ATOM     25  C   UNL A   1      31.969  22.664  23.726  1.00  0.00    -0.056 C 
ATOM     26  C   UNL A   1      34.485  22.774  23.918  1.00  0.00    -0.012 C 
ATOM     27  C   UNL A   1      33.407  23.633  21.920  1.00  0.00     0.021 C 
ATOM     28  C   UNL A   1      32.004  21.427  24.255  1.00  0.00     0.052 C 
ATOM     29  C   UNL A   1      34.516  21.533  24.424  1.00  0.00     0.048 C 
ATOM     30  C   UNL A   1      33.270  20.775  24.644  1.00  0.00     0.178 C 
ATOM     31  O   UNL A   1      33.282  19.682  25.194  1.00  0.00    -0.290 OA
ENDBRANCH  11  12
ENDBRANCH   6  11
BRANCH   8  32
ATOM     32  O   UNL A   1      35.056  28.493  27.505  1.00  0.00    -0.385 OA
ATOM     33  H   UNL A   1      35.833  28.557  28.083  1.00  0.00     0.211 HD
ENDBRANCH   8  32
BRANCH   9  34
ATOM     34  O   UNL A   1      36.844  30.815  27.386  1.00  0.00    -0.387 OA
ATOM     35  H   UNL A   1      36.939  30.113  26.723  1.00  0.00     0.211 HD
ENDBRANCH   9  34
BRANCH  10  36
ATOM     36  O   UNL A   1      35.713  33.282  28.094  1.00  0.00    -0.387 OA
ATOM     37  H   UNL A   1      35.391  33.518  28.979  1.00  0.00     0.211 HD
ENDBRANCH  10  36
ENDBRANCH   3   5
ENDBRANCH   2   3
ENDBRANCH   1   2
BRANCH   1  38
ATOM     38  C   UNL A   1      32.598  36.356  30.305  1.00  0.00     0.275 C 
BRANCH  38  39
ATOM     39  O   UNL A   1      32.406  35.484  31.416  1.00  0.00    -0.458 OA
BRANCH  39  40
ATOM     40  C   UNL A   1      32.925  35.929  32.581  1.00  0.00     0.338 C 
ATOM     41  O   UNL A   1      32.424  36.654  33.417  1.00  0.00    -0.246 OA
BRANCH  40  42
ATOM     42  C   UNL A   1      34.116  35.111  32.785  1.00  0.00     0.060 A 
ATOM     43  C   UNL A   1      33.930  33.786  33.190  1.00  0.00     0.016 A 
ATOM     44  C   UNL A   1      35.374  35.617  32.454  1.00  0.00     0.016 A 
ATOM     45  C   UNL A   1      35.018  32.938  33.244  1.00  0.00     0.010 A 
ATOM     46  C   UNL A   1      36.468  34.774  32.524  1.00  0.00     0.010 A 
ATOM     47  C   UNL A   1      36.286  33.445  32.939  1.00  0.00    -0.014 A 
BRANCH  47  48
ATOM     48  C   UNL A   1      37.466  32.646  33.283  1.00  0.00     0.031 A 
ATOM     49  C   UNL A   1      38.122  32.948  34.593  1.00  0.00     0.074 A 
ATOM     50  C   UNL A   1      37.896  31.695  32.441  1.00  0.00     0.049 A 
ATOM     51  N   UNL A   1      39.227  32.474  35.096  1.00  0.00    -0.248 NA
ATOM     52  C   UNL A   1      37.446  33.941  35.452  1.00  0.00     0.031 C 
ATOM     53  C   UNL A   1      37.263  31.342  31.170  1.00  0.00     0.029 A 
ATOM     54  N   UNL A   1      38.971  30.858  32.529  1.00  0.00    -0.354 N 
ATOM     55  C   UNL A   1      39.390  33.128  36.310  1.00  0.00     0.074 A 
ATOM     56  C   UNL A   1      38.292  34.051  36.461  1.00  0.00     0.031 C 
ATOM     57  C   UNL A   1      37.971  30.358  30.589  1.00  0.00     0.029 A 
ATOM     58  C   UNL A   1      39.123  30.051  31.429  1.00  0.00     0.049 A 
ATOM     59  H   UNL A   1      39.578  30.836  33.304  1.00  0.00     0.167 HD
ATOM     60  C   UNL A   1      40.379  32.953  37.213  1.00  0.00     0.037 A 
ATOM     61  C   UNL A   1      40.113  29.186  31.145  1.00  0.00     0.037 A 
ATOM     62  C   UNL A   1      41.444  32.010  37.020  1.00  0.00     0.049 A 
ATOM     63  C   UNL A   1      41.213  29.029  32.164  1.00  0.00     0.074 A 
ATOM     64  C   UNL A   1      42.511  31.724  37.848  1.00  0.00     0.029 A 
ATOM     65  N   UNL A   1      41.565  31.191  35.902  1.00  0.00    -0.354 N 
ATOM     66  N   UNL A   1      41.371  29.643  33.314  1.00  0.00    -0.248 NA
ATOM     67  C   UNL A   1      42.264  28.054  31.856  1.00  0.00     0.031 C 
ATOM     68  C   UNL A   1      43.304  30.765  37.208  1.00  0.00     0.029 A 
ATOM     69  C   UNL A   1      42.695  30.404  36.014  1.00  0.00     0.049 A 
ATOM     70  H   UNL A   1      40.939  31.175  35.143  1.00  0.00     0.167 HD
ATOM     71  C   UNL A   1      42.516  29.108  33.883  1.00  0.00     0.074 A 
ATOM     72  C   UNL A   1      43.003  28.105  32.954  1.00  0.00     0.031 C 
ATOM     73  C   UNL A   1      43.118  29.407  35.063  1.00  0.00     0.037 A 
BRANCH  60  74
ATOM     74  C   UNL A   1      40.363  33.813  38.442  1.00  0.00     0.064 A 
ATOM     75  C   UNL A   1      39.643  33.457  39.592  1.00  0.00     0.173 A 
ATOM     76  C   UNL A   1      41.086  35.016  38.472  1.00  0.00     0.173 A 
ATOM     77  F   UNL A   1      38.909  32.333  39.608  1.00  0.00    -0.203 F 
ATOM     78  C   UNL A   1      39.632  34.279  40.717  1.00  0.00     0.198 A 
ATOM     79  C   UNL A   1      41.098  35.820  39.608  1.00  0.00     0.198 A 
ATOM     80  F   UNL A   1      41.781  35.413  37.394  1.00  0.00    -0.203 F 
ATOM     81  F   UNL A   1      38.895  33.941  41.785  1.00  0.00    -0.200 F 
ATOM     82  C   UNL A   1      40.367  35.454  40.727  1.00  0.00     0.200 A 
ATOM     83  F   UNL A   1      41.814  36.953  39.617  1.00  0.00    -0.200 F 
ATOM     84  F   UNL A   1      40.364  36.239  41.813  1.00  0.00    -0.200 F 
ENDBRANCH  60  74
BRANCH  61  85
ATOM     85  C   UNL A   1      40.108  28.425  29.867  1.00  0.00     0.064 A 
ATOM     86  C   UNL A   1      39.484  27.174  29.766  1.00  0.00     0.173 A 
ATOM     87  C   UNL A   1      40.736  28.928  28.717  1.00  0.00     0.173 A 
ATOM     88  F   UNL A   1      38.878  26.640  30.838  1.00  0.00    -0.203 F 
ATOM     89  C   UNL A   1      39.516  26.443  28.581  1.00  0.00     0.198 A 
ATOM     90  C   UNL A   1      40.738  28.212  27.521  1.00  0.00     0.198 A 
ATOM     91  F   UNL A   1      41.342  30.124  28.750  1.00  0.00    -0.203 F 
ATOM     92  F   UNL A   1      38.958  25.225  28.531  1.00  0.00    -0.200 F 
ATOM     93  C   UNL A   1      40.138  26.965  27.457  1.00  0.00     0.200 A 
ATOM     94  F   UNL A   1      41.325  28.730  26.434  1.00  0.00    -0.200 F 
ATOM     95  F   UNL A   1      40.167  26.262  26.316  1.00  0.00    -0.200 F 
ENDBRANCH  61  85
BRANCH  73  96
ATOM     96  C   UNL A   1      44.322  28.592  35.429  1.00  0.00     0.064 A 
ATOM     97  C   UNL A   1      44.215  27.408  36.172  1.00  0.00     0.173 A 
ATOM     98  C   UNL A   1      45.594  28.987  34.988  1.00  0.00     0.173 A 
ATOM     99  F   UNL A   1      43.021  26.998  36.623  1.00  0.00    -0.203 F 
ATOM    100  C   UNL A   1      45.349  26.670  36.495  1.00  0.00     0.198 A 
ATOM    101  C   UNL A   1      46.719  28.225  35.280  1.00  0.00     0.198 A 
ATOM    102  F   UNL A   1      45.742  30.106  34.262  1.00  0.00    -0.203 F 
ATOM    103  F   UNL A   1      45.235  25.575  37.259  1.00  0.00    -0.200 F 
ATOM    104  C   UNL A   1      46.597  27.074  36.042  1.00  0.00     0.200 A 
ATOM    105  F   UNL A   1      47.920  28.605  34.825  1.00  0.00    -0.200 F 
ATOM    106  F   UNL A   1      47.685  26.356  36.349  1.00  0.00    -0.200 F 
ENDBRANCH  73  96
ENDBRANCH  47  48
ENDBRANCH  40  42
ENDBRANCH  39  40
ENDBRANCH  38  39
ENDBRANCH   1  38
TORSDOF 16
ENDMDL
MODEL 3
REMARK VINA RESULT:     -13.0      6.878     12.616
REMARK SMILES C[C@]12CC[C@H]3[C@@H](CCC4=CC(=O)C=C[C@@]43C)[C@@H]1CC[C@H]2O[C@@H]1O[C@H](C(=O)OCCOC(=O)c2ccc(-c3c4nc(c(-c5c(F)c(F)c(F)c(F)c5F)c5ccc([nH]5)c(-c5c(F)c(F)c(F)c(F)c5F)c5nc(c(-c6c(F)c(F)c(F)c(F)c6F)c6ccc3[nH]6)C=C5)C=C4)cc2)[C@@H](O)[C@H](O)[C@H]1O
REMARK SMILES IDX 28 1 27 2 25 3 26 4 24 5 22 6 23 7 100 8 98 9 96 10 21 11
REMARK SMILES IDX 20 12 1 13 2 14 3 15 17 16 4 17 6 18 18 19 19 20 5 21 7 22
REMARK SMILES IDX 15 23 8 24 9 25 14 26 16 27 10 28 13 29 11 30 12 31 101 32
REMARK SMILES IDX 99 34 97 36 29 38 30 39 31 40 32 41 33 42 34 43 95 44 35 45
REMARK SMILES IDX 94 46 36 47 37 48 38 49 88 50 39 51 93 52 87 53 89 54 40 55
REMARK SMILES IDX 92 56 86 57 85 58 41 60 73 61 53 62 72 63 54 64 57 65 71 66
REMARK SMILES IDX 90 67 55 68 56 69 70 71 91 72 58 73 42 74 43 75 51 76 44 77
REMARK SMILES IDX 45 78 49 79 52 80 46 81 47 82 50 83 48 84 74 85 75 86 83 87
REMARK SMILES IDX 76 88 77 89 81 90 84 91 78 92 79 93 82 94 80 95 59 96 60 97
REMARK SMILES IDX 68 98 61 99 62 100 66 101 69 102 63 103 64 104 67 105 65 106
REMARK H PARENT 101 33 99 35 97 37 89 59 57 70
REMARK Flexibility Score: inf
ROOT
ATOM      1  C   UNL A   1      33.538  36.189  29.041  1.00  0.00     0.274 C 
ENDROOT
BRANCH   1   2
ATOM      2  O   UNL A   1      33.994  34.834  29.231  1.00  0.00    -0.460 OA
BRANCH   2   3
ATOM      3  C   UNL A   1      33.523  33.898  28.377  1.00  0.00     0.338 C 
ATOM      4  O   UNL A   1      32.531  34.024  27.664  1.00  0.00    -0.249 OA
BRANCH   3   5
ATOM      5  C   UNL A   1      34.365  32.619  28.359  1.00  0.00     0.262 C 
ATOM      6  C   UNL A   1      34.655  30.349  27.610  1.00  0.00     0.282 C 
ATOM      7  O   UNL A   1      33.924  31.574  27.499  1.00  0.00    -0.332 OA
ATOM      8  C   UNL A   1      36.199  30.506  27.714  1.00  0.00     0.202 C 
ATOM      9  C   UNL A   1      36.647  31.751  28.490  1.00  0.00     0.180 C 
ATOM     10  C   UNL A   1      35.821  32.965  28.043  1.00  0.00     0.186 C 
BRANCH   6  11
ATOM     11  O   UNL A   1      34.203  29.346  26.683  1.00  0.00    -0.346 OA
BRANCH  11  12
ATOM     12  C   UNL A   1      32.922  29.224  26.053  1.00  0.00     0.127 C 
ATOM     13  C   UNL A   1      31.489  28.269  24.175  1.00  0.00     0.014 C 
ATOM     14  C   UNL A   1      32.650  27.967  25.176  1.00  0.00    -0.003 C 
ATOM     15  C   UNL A   1      33.825  27.406  24.380  1.00  0.00     0.010 C 
ATOM     16  C   UNL A   1      32.225  26.977  26.265  1.00  0.00     0.001 C 
ATOM     17  C   UNL A   1      33.492  26.024  23.779  1.00  0.00     0.006 C 
ATOM     18  C   UNL A   1      31.862  25.579  25.763  1.00  0.00    -0.003 C 
ATOM     19  C   UNL A   1      31.234  27.776  27.123  1.00  0.00     0.007 C 
ATOM     20  C   UNL A   1      31.670  29.257  26.952  1.00  0.00     0.033 C 
ATOM     21  C   UNL A   1      32.989  25.008  24.833  1.00  0.00     0.006 C 
ATOM     22  C   UNL A   1      31.690  24.623  26.961  1.00  0.00     0.009 C 
ATOM     23  C   UNL A   1      32.595  23.585  24.275  1.00  0.00     0.010 C 
ATOM     24  C   UNL A   1      31.381  23.190  26.535  1.00  0.00     0.032 C 
ATOM     25  C   UNL A   1      32.338  22.672  25.486  1.00  0.00    -0.056 C 
ATOM     26  C   UNL A   1      33.666  22.996  23.363  1.00  0.00    -0.012 C 
ATOM     27  C   UNL A   1      31.322  23.626  23.406  1.00  0.00     0.021 C 
ATOM     28  C   UNL A   1      32.941  21.482  25.657  1.00  0.00     0.052 C 
ATOM     29  C   UNL A   1      34.247  21.800  23.525  1.00  0.00     0.048 C 
ATOM     30  C   UNL A   1      33.937  20.962  24.699  1.00  0.00     0.178 C 
ATOM     31  O   UNL A   1      34.534  19.913  24.905  1.00  0.00    -0.290 OA
ENDBRANCH  11  12
ENDBRANCH   6  11
BRANCH   8  32
ATOM     32  O   UNL A   1      36.804  29.320  28.250  1.00  0.00    -0.385 OA
ATOM     33  H   UNL A   1      36.111  28.705  28.538  1.00  0.00     0.211 HD
ENDBRANCH   8  32
BRANCH   9  34
ATOM     34  O   UNL A   1      38.049  31.976  28.281  1.00  0.00    -0.387 OA
ATOM     35  H   UNL A   1      38.221  32.929  28.238  1.00  0.00     0.211 HD
ENDBRANCH   9  34
BRANCH  10  36
ATOM     36  O   UNL A   1      36.315  34.148  28.664  1.00  0.00    -0.387 OA
ATOM     37  H   UNL A   1      35.962  34.926  28.205  1.00  0.00     0.211 HD
ENDBRANCH  10  36
ENDBRANCH   3   5
ENDBRANCH   2   3
ENDBRANCH   1   2
BRANCH   1  38
ATOM     38  C   UNL A   1      32.557  36.575  30.149  1.00  0.00     0.275 C 
BRANCH  38  39
ATOM     39  O   UNL A   1      33.229  36.556  31.406  1.00  0.00    -0.458 OA
BRANCH  39  40
ATOM     40  C   UNL A   1      32.745  35.660  32.294  1.00  0.00     0.338 C 
ATOM     41  O   UNL A   1      31.593  35.348  32.518  1.00  0.00    -0.246 OA
BRANCH  40  42
ATOM     42  C   UNL A   1      33.918  34.908  32.727  1.00  0.00     0.060 A 
ATOM     43  C   UNL A   1      35.153  35.562  32.701  1.00  0.00     0.016 A 
ATOM     44  C   UNL A   1      33.766  33.631  33.268  1.00  0.00     0.016 A 
ATOM     45  C   UNL A   1      36.258  34.940  33.248  1.00  0.00     0.010 A 
ATOM     46  C   UNL A   1      34.874  32.998  33.800  1.00  0.00     0.010 A 
ATOM     47  C   UNL A   1      36.119  33.648  33.767  1.00  0.00    -0.014 A 
BRANCH  47  48
ATOM     48  C   UNL A   1      37.327  32.874  34.065  1.00  0.00     0.031 A 
ATOM     49  C   UNL A   1      38.012  33.173  35.360  1.00  0.00     0.074 A 
ATOM     50  C   UNL A   1      37.756  31.947  33.197  1.00  0.00     0.049 A 
ATOM     51  N   UNL A   1      39.142  32.720  35.825  1.00  0.00    -0.248 NA
ATOM     52  C   UNL A   1      37.336  34.136  36.253  1.00  0.00     0.031 C 
ATOM     53  C   UNL A   1      37.096  31.597  31.939  1.00  0.00     0.029 A 
ATOM     54  N   UNL A   1      38.854  31.136  33.241  1.00  0.00    -0.354 N 
ATOM     55  C   UNL A   1      39.323  33.360  37.044  1.00  0.00     0.074 A 
ATOM     56  C   UNL A   1      38.208  34.253  37.240  1.00  0.00     0.031 C 
ATOM     57  C   UNL A   1      37.811  30.640  31.323  1.00  0.00     0.029 A 
ATOM     58  C   UNL A   1      38.994  30.349  32.125  1.00  0.00     0.049 A 
ATOM     59  H   UNL A   1      39.482  31.118  33.999  1.00  0.00     0.167 HD
ATOM     60  C   UNL A   1      40.342  33.197  37.916  1.00  0.00     0.037 A 
ATOM     61  C   UNL A   1      39.996  29.513  31.800  1.00  0.00     0.037 A 
ATOM     62  C   UNL A   1      41.424  32.284  37.679  1.00  0.00     0.049 A 
ATOM     63  C   UNL A   1      41.128  29.369  32.786  1.00  0.00     0.074 A 
ATOM     64  C   UNL A   1      42.521  32.012  38.472  1.00  0.00     0.029 A 
ATOM     65  N   UNL A   1      41.533  31.484  36.546  1.00  0.00    -0.354 N 
ATOM     66  N   UNL A   1      41.304  29.971  33.940  1.00  0.00    -0.248 NA
ATOM     67  C   UNL A   1      42.194  28.426  32.434  1.00  0.00     0.031 C 
ATOM     68  C   UNL A   1      43.318  31.083  37.796  1.00  0.00     0.029 A 
ATOM     69  C   UNL A   1      42.685  30.725  36.614  1.00  0.00     0.049 A 
ATOM     70  H   UNL A   1      40.886  31.464  35.804  1.00  0.00     0.167 HD
ATOM     71  C   UNL A   1      42.478  29.456  34.469  1.00  0.00     0.074 A 
ATOM     72  C   UNL A   1      42.962  28.480  33.512  1.00  0.00     0.031 C 
ATOM     73  C   UNL A   1      43.106  29.753  35.636  1.00  0.00     0.037 A 
BRANCH  60  74
ATOM     74  C   UNL A   1      40.339  34.038  39.158  1.00  0.00     0.064 A 
ATOM     75  C   UNL A   1      39.764  33.594  40.358  1.00  0.00     0.173 A 
ATOM     76  C   UNL A   1      40.928  35.312  39.149  1.00  0.00     0.173 A 
ATOM     77  F   UNL A   1      39.160  32.397  40.415  1.00  0.00    -0.203 F 
ATOM     78  C   UNL A   1      39.762  34.399  41.495  1.00  0.00     0.198 A 
ATOM     79  C   UNL A   1      40.952  36.102  40.295  1.00  0.00     0.198 A 
ATOM     80  F   UNL A   1      41.481  35.794  38.024  1.00  0.00    -0.203 F 
ATOM     81  F   UNL A   1      39.161  33.973  42.616  1.00  0.00    -0.200 F 
ATOM     82  C   UNL A   1      40.365  35.647  41.466  1.00  0.00     0.200 A 
ATOM     83  F   UNL A   1      41.540  37.306  40.265  1.00  0.00    -0.200 F 
ATOM     84  F   UNL A   1      40.370  36.417  42.562  1.00  0.00    -0.200 F 
ENDBRANCH  60  74
BRANCH  61  85
ATOM     85  C   UNL A   1      39.974  28.772  30.512  1.00  0.00     0.064 A 
ATOM     86  C   UNL A   1      40.521  29.324  29.344  1.00  0.00     0.173 A 
ATOM     87  C   UNL A   1      39.397  27.496  30.414  1.00  0.00     0.173 A 
ATOM     88  F   UNL A   1      41.076  30.545  29.379  1.00  0.00    -0.203 F 
ATOM     89  C   UNL A   1      40.464  28.647  28.128  1.00  0.00     0.198 A 
ATOM     90  C   UNL A   1      39.369  26.804  29.204  1.00  0.00     0.198 A 
ATOM     91  F   UNL A   1      38.865  26.914  31.499  1.00  0.00    -0.203 F 
ATOM     92  F   UNL A   1      40.946  29.224  27.019  1.00  0.00    -0.200 F 
ATOM     93  C   UNL A   1      39.893  27.385  28.060  1.00  0.00     0.200 A 
ATOM     94  F   UNL A   1      38.833  25.579  29.148  1.00  0.00    -0.200 F 
ATOM     95  F   UNL A   1      39.838  26.734  26.890  1.00  0.00    -0.200 F 
ENDBRANCH  61  85
BRANCH  73  96
ATOM     96  C   UNL A   1      44.339  28.963  35.955  1.00  0.00     0.064 A 
ATOM     97  C   UNL A   1      44.276  27.728  36.615  1.00  0.00     0.173 A 
ATOM     98  C   UNL A   1      45.596  29.437  35.553  1.00  0.00     0.173 A 
ATOM     99  F   UNL A   1      43.096  27.241  37.028  1.00  0.00    -0.203 F 
ATOM    100  C   UNL A   1      45.436  27.015  36.897  1.00  0.00     0.198 A 
ATOM    101  C   UNL A   1      46.749  28.702  35.802  1.00  0.00     0.198 A 
ATOM    102  F   UNL A   1      45.703  30.608  34.906  1.00  0.00    -0.203 F 
ATOM    103  F   UNL A   1      45.362  25.866  37.584  1.00  0.00    -0.200 F 
ATOM    104  C   UNL A   1      46.669  27.498  36.483  1.00  0.00     0.200 A 
ATOM    105  F   UNL A   1      47.936  29.160  35.383  1.00  0.00    -0.200 F 
ATOM    106  F   UNL A   1      47.784  26.804  36.749  1.00  0.00    -0.200 F 
ENDBRANCH  73  96
ENDBRANCH  47  48
ENDBRANCH  40  42
ENDBRANCH  39  40
ENDBRANCH  38  39
ENDBRANCH   1  38
TORSDOF 16
ENDMDL
