MODEL 1
REMARK VINA RESULT:     -10.4      0.000      0.000
REMARK SMILES N#Cc1cc(-c2cncc(C(=O)OCCOC(=O)c3ccc(-c4c5nc(c(-c6c(F)c(F)c(F)c(F)c6F)c6ccc([nH]6)c(-c6c(F)c(F)c(F)c(F)c6F)c6nc(c(-c7c(F)c(F)c(F)c(F)c7F)c7ccc4[nH]7)C=C6)C=C5)cc3)c2)ccc1Cl
REMARK SMILES IDX 14 1 13 2 11 3 12 4 10 5 6 6 7 7 82 8 8 9 9 10 5 11 3 12
REMARK SMILES IDX 4 13 85 14 84 15 86 16 83 17 2 18 1 19 15 20 16 21 17 22
REMARK SMILES IDX 18 23 19 24 20 25 81 26 21 27 80 28 22 29 23 30 24 31 74 32
REMARK SMILES IDX 25 33 79 34 73 35 75 36 26 37 78 38 72 39 71 40 27 42 59 43
REMARK SMILES IDX 39 44 58 45 40 46 43 47 57 48 76 49 41 50 42 51 56 53 77 54
REMARK SMILES IDX 44 55 28 56 29 57 37 58 30 59 31 60 35 61 38 62 32 63 33 64
REMARK SMILES IDX 36 65 34 66 60 67 61 68 69 69 62 70 63 71 67 72 70 73 64 74
REMARK SMILES IDX 65 75 68 76 66 77 45 78 46 79 54 80 47 81 48 82 52 83 55 84
REMARK SMILES IDX 49 85 50 86 53 87 51 88
REMARK H PARENT 75 41 43 52
REMARK Flexibility Score: inf
ROOT
ATOM      1  C   UNL A   1      42.215  19.553  26.069  1.00  0.00     0.275 C 
ENDROOT
BRANCH   1   2
ATOM      2  O   UNL A   1      42.693  20.791  25.497  1.00  0.00    -0.458 OA
BRANCH   2   3
ATOM      3  C   UNL A   1      43.966  20.783  25.033  1.00  0.00     0.339 C 
ATOM      4  O   UNL A   1      44.421  20.042  24.176  1.00  0.00    -0.246 OA
BRANCH   3   5
ATOM      5  C   UNL A   1      44.764  21.859  25.652  1.00  0.00     0.079 A 
ATOM      6  C   UNL A   1      45.288  23.371  27.459  1.00  0.00     0.001 A 
ATOM      7  C   UNL A   1      46.428  23.741  26.739  1.00  0.00     0.119 A 
ATOM      8  C   UNL A   1      44.430  22.426  26.876  1.00  0.00     0.027 A 
ATOM      9  N   UNL A   1      46.778  23.217  25.551  1.00  0.00    -0.263 NA
ATOM     10  C   UNL A   1      45.952  22.266  25.058  1.00  0.00     0.126 A 
BRANCH   6  11
ATOM     11  C   UNL A   1      45.055  23.895  28.802  1.00  0.00    -0.015 A 
ATOM     12  C   UNL A   1      45.187  25.743  30.395  1.00  0.00     0.071 A 
ATOM     13  C   UNL A   1      45.446  25.204  29.127  1.00  0.00     0.029 A 
ATOM     14  C   UNL A   1      44.528  24.964  31.349  1.00  0.00     0.058 A 
ATOM     15  C   UNL A   1      44.134  23.659  31.036  1.00  0.00     0.022 A 
ATOM     16  Cl  UNL A   1      44.167  25.556  32.929  1.00  0.00    -0.083 Cl
ATOM     17  C   UNL A   1      44.397  23.129  29.773  1.00  0.00     0.010 A 
BRANCH  12  18
ATOM     18  C   UNL A   1      45.607  27.086  30.660  1.00  0.00     0.101 C 
ATOM     19  N   UNL A   1      45.902  28.193  30.857  1.00  0.00    -0.192 NA
ENDBRANCH  12  18
ENDBRANCH   6  11
ENDBRANCH   3   5
ENDBRANCH   2   3
ENDBRANCH   1   2
BRANCH   1  20
ATOM     20  C   UNL A   1      40.694  19.421  25.953  1.00  0.00     0.275 C 
BRANCH  20  21
ATOM     21  O   UNL A   1      40.016  20.295  26.876  1.00  0.00    -0.458 OA
BRANCH  21  22
ATOM     22  C   UNL A   1      39.332  21.299  26.287  1.00  0.00     0.338 C 
ATOM     23  O   UNL A   1      38.429  21.205  25.470  1.00  0.00    -0.246 OA
BRANCH  22  24
ATOM     24  C   UNL A   1      39.707  22.595  26.862  1.00  0.00     0.060 A 
ATOM     25  C   UNL A   1      39.164  23.722  26.267  1.00  0.00     0.016 A 
ATOM     26  C   UNL A   1      40.759  22.722  27.762  1.00  0.00     0.016 A 
ATOM     27  C   UNL A   1      39.780  24.955  26.401  1.00  0.00     0.010 A 
ATOM     28  C   UNL A   1      41.259  24.000  28.044  1.00  0.00     0.010 A 
ATOM     29  C   UNL A   1      40.812  25.128  27.327  1.00  0.00    -0.014 A 
BRANCH  29  30
ATOM     30  C   UNL A   1      41.399  26.482  27.537  1.00  0.00     0.031 A 
ATOM     31  C   UNL A   1      42.759  26.821  26.986  1.00  0.00     0.074 A 
ATOM     32  C   UNL A   1      40.706  27.417  28.220  1.00  0.00     0.049 A 
ATOM     33  N   UNL A   1      43.509  27.872  27.212  1.00  0.00    -0.248 NA
ATOM     34  C   UNL A   1      43.368  25.839  26.077  1.00  0.00     0.031 C 
ATOM     35  C   UNL A   1      39.354  27.250  28.760  1.00  0.00     0.029 A 
ATOM     36  N   UNL A   1      41.037  28.702  28.574  1.00  0.00    -0.354 N 
ATOM     37  C   UNL A   1      44.693  27.651  26.518  1.00  0.00     0.074 A 
ATOM     38  C   UNL A   1      44.575  26.351  25.892  1.00  0.00     0.031 C 
ATOM     39  C   UNL A   1      38.951  28.397  29.321  1.00  0.00     0.029 A 
ATOM     40  C   UNL A   1      40.058  29.341  29.296  1.00  0.00     0.049 A 
ATOM     41  H   UNL A   1      41.894  29.125  28.334  1.00  0.00     0.167 HD
ATOM     42  C   UNL A   1      45.776  28.461  26.414  1.00  0.00     0.037 A 
ATOM     43  C   UNL A   1      40.062  30.532  29.920  1.00  0.00     0.037 A 
ATOM     44  C   UNL A   1      45.868  29.763  27.026  1.00  0.00     0.049 A 
ATOM     45  C   UNL A   1      41.309  31.365  29.876  1.00  0.00     0.074 A 
ATOM     46  C   UNL A   1      46.913  30.669  26.979  1.00  0.00     0.029 A 
ATOM     47  N   UNL A   1      44.874  30.345  27.803  1.00  0.00    -0.354 N 
ATOM     48  N   UNL A   1      42.435  31.137  29.246  1.00  0.00    -0.248 NA
ATOM     49  C   UNL A   1      41.289  32.616  30.643  1.00  0.00     0.031 C 
ATOM     50  C   UNL A   1      46.581  31.763  27.785  1.00  0.00     0.029 A 
ATOM     51  C   UNL A   1      45.297  31.581  28.268  1.00  0.00     0.049 A 
ATOM     52  H   UNL A   1      43.998  29.939  27.994  1.00  0.00     0.167 HD
ATOM     53  C   UNL A   1      43.246  32.231  29.509  1.00  0.00     0.074 A 
ATOM     54  C   UNL A   1      42.474  33.129  30.345  1.00  0.00     0.031 C 
ATOM     55  C   UNL A   1      44.515  32.469  29.094  1.00  0.00     0.037 A 
BRANCH  42  56
ATOM     56  C   UNL A   1      46.966  27.936  25.655  1.00  0.00     0.064 A 
ATOM     57  C   UNL A   1      47.059  28.014  24.257  1.00  0.00     0.173 A 
ATOM     58  C   UNL A   1      48.034  27.335  26.344  1.00  0.00     0.173 A 
ATOM     59  F   UNL A   1      46.069  28.571  23.544  1.00  0.00    -0.203 F 
ATOM     60  C   UNL A   1      48.143  27.463  23.575  1.00  0.00     0.198 A 
ATOM     61  C   UNL A   1      49.138  26.826  25.662  1.00  0.00     0.198 A 
ATOM     62  F   UNL A   1      48.011  27.241  27.682  1.00  0.00    -0.203 F 
ATOM     63  F   UNL A   1      48.167  27.479  22.235  1.00  0.00    -0.200 F 
ATOM     64  C   UNL A   1      49.183  26.875  24.278  1.00  0.00     0.200 A 
ATOM     65  F   UNL A   1      50.150  26.277  26.346  1.00  0.00    -0.200 F 
ATOM     66  F   UNL A   1      50.223  26.343  23.621  1.00  0.00    -0.200 F 
ENDBRANCH  42  56
BRANCH  43  67
ATOM     67  C   UNL A   1      38.853  30.991  30.658  1.00  0.00     0.064 A 
ATOM     68  C   UNL A   1      38.697  30.705  32.020  1.00  0.00     0.173 A 
ATOM     69  C   UNL A   1      37.838  31.726  30.026  1.00  0.00     0.173 A 
ATOM     70  F   UNL A   1      39.631  29.989  32.665  1.00  0.00    -0.203 F 
ATOM     71  C   UNL A   1      37.565  31.118  32.718  1.00  0.00     0.198 A 
ATOM     72  C   UNL A   1      36.724  32.173  30.734  1.00  0.00     0.198 A 
ATOM     73  F   UNL A   1      37.937  32.032  28.724  1.00  0.00    -0.203 F 
ATOM     74  F   UNL A   1      37.418  30.786  34.007  1.00  0.00    -0.200 F 
ATOM     75  C   UNL A   1      36.584  31.859  32.076  1.00  0.00     0.200 A 
ATOM     76  F   UNL A   1      35.790  32.907  30.115  1.00  0.00    -0.200 F 
ATOM     77  F   UNL A   1      35.499  32.264  32.750  1.00  0.00    -0.200 F 
ENDBRANCH  43  67
BRANCH  55  78
ATOM     78  C   UNL A   1      45.126  33.784  29.489  1.00  0.00     0.064 A 
ATOM     79  C   UNL A   1      45.890  33.930  30.656  1.00  0.00     0.173 A 
ATOM     80  C   UNL A   1      44.962  34.912  28.669  1.00  0.00     0.173 A 
ATOM     81  F   UNL A   1      46.063  32.888  31.485  1.00  0.00    -0.203 F 
ATOM     82  C   UNL A   1      46.436  35.162  31.006  1.00  0.00     0.198 A 
ATOM     83  C   UNL A   1      45.545  36.131  29.000  1.00  0.00     0.198 A 
ATOM     84  F   UNL A   1      44.245  34.828  27.538  1.00  0.00    -0.203 F 
ATOM     85  F   UNL A   1      47.106  35.293  32.160  1.00  0.00    -0.200 F 
ATOM     86  C   UNL A   1      46.271  36.258  30.172  1.00  0.00     0.200 A 
ATOM     87  F   UNL A   1      45.400  37.184  28.182  1.00  0.00    -0.200 F 
ATOM     88  F   UNL A   1      46.806  37.442  30.506  1.00  0.00    -0.200 F 
ENDBRANCH  55  78
ENDBRANCH  29  30
ENDBRANCH  22  24
ENDBRANCH  21  22
ENDBRANCH  20  21
ENDBRANCH   1  20
TORSDOF 13
ENDMDL
MODEL 2
REMARK VINA RESULT:     -10.3      4.989     11.587
REMARK SMILES N#Cc1cc(-c2cncc(C(=O)OCCOC(=O)c3ccc(-c4c5nc(c(-c6c(F)c(F)c(F)c(F)c6F)c6ccc([nH]6)c(-c6c(F)c(F)c(F)c(F)c6F)c6nc(c(-c7c(F)c(F)c(F)c(F)c7F)c7ccc4[nH]7)C=C6)C=C5)cc3)c2)ccc1Cl
REMARK SMILES IDX 14 1 13 2 11 3 12 4 10 5 6 6 7 7 82 8 8 9 9 10 5 11 3 12
REMARK SMILES IDX 4 13 85 14 84 15 86 16 83 17 2 18 1 19 15 20 16 21 17 22
REMARK SMILES IDX 18 23 19 24 20 25 81 26 21 27 80 28 22 29 23 30 24 31 74 32
REMARK SMILES IDX 25 33 79 34 73 35 75 36 26 37 78 38 72 39 71 40 27 42 59 43
REMARK SMILES IDX 39 44 58 45 40 46 43 47 57 48 76 49 41 50 42 51 56 53 77 54
REMARK SMILES IDX 44 55 28 56 29 57 37 58 30 59 31 60 35 61 38 62 32 63 33 64
REMARK SMILES IDX 36 65 34 66 60 67 61 68 69 69 62 70 63 71 67 72 70 73 64 74
REMARK SMILES IDX 65 75 68 76 66 77 45 78 46 79 54 80 47 81 48 82 52 83 55 84
REMARK SMILES IDX 49 85 50 86 53 87 51 88
REMARK H PARENT 75 41 43 52
REMARK Flexibility Score: inf
ROOT
ATOM      1  C   UNL A   1      33.421  34.720  29.052  1.00  0.00     0.275 C 
ENDROOT
BRANCH   1   2
ATOM      2  O   UNL A   1      33.939  33.980  30.181  1.00  0.00    -0.458 OA
BRANCH   2   3
ATOM      3  C   UNL A   1      33.884  34.607  31.381  1.00  0.00     0.339 C 
ATOM      4  O   UNL A   1      32.891  35.093  31.901  1.00  0.00    -0.246 OA
BRANCH   3   5
ATOM      5  C   UNL A   1      35.195  34.577  32.056  1.00  0.00     0.079 A 
ATOM      6  C   UNL A   1      37.605  34.451  32.054  1.00  0.00     0.001 A 
ATOM      7  C   UNL A   1      37.561  34.699  33.428  1.00  0.00     0.119 A 
ATOM      8  C   UNL A   1      36.383  34.363  31.369  1.00  0.00     0.027 A 
ATOM      9  N   UNL A   1      36.429  34.905  34.126  1.00  0.00    -0.263 NA
ATOM     10  C   UNL A   1      35.281  34.871  33.412  1.00  0.00     0.126 A 
BRANCH   6  11
ATOM     11  C   UNL A   1      38.885  34.371  31.355  1.00  0.00    -0.015 A 
ATOM     12  C   UNL A   1      41.187  33.555  31.261  1.00  0.00     0.071 A 
ATOM     13  C   UNL A   1      39.966  33.686  31.936  1.00  0.00     0.029 A 
ATOM     14  C   UNL A   1      41.329  34.113  29.988  1.00  0.00     0.058 A 
ATOM     15  C   UNL A   1      40.261  34.796  29.399  1.00  0.00     0.022 A 
ATOM     16  Cl  UNL A   1      42.797  33.990  29.089  1.00  0.00    -0.083 Cl
ATOM     17  C   UNL A   1      39.049  34.924  30.078  1.00  0.00     0.010 A 
BRANCH  12  18
ATOM     18  C   UNL A   1      42.246  32.841  31.906  1.00  0.00     0.101 C 
ATOM     19  N   UNL A   1      43.115  32.303  32.461  1.00  0.00    -0.192 NA
ENDBRANCH  12  18
ENDBRANCH   6  11
ENDBRANCH   3   5
ENDBRANCH   2   3
ENDBRANCH   1   2
BRANCH   1  20
ATOM     20  C   UNL A   1      32.781  33.797  28.010  1.00  0.00     0.275 C 
BRANCH  20  21
ATOM     21  O   UNL A   1      33.778  33.088  27.250  1.00  0.00    -0.458 OA
BRANCH  21  22
ATOM     22  C   UNL A   1      33.758  31.749  27.422  1.00  0.00     0.338 C 
ATOM     23  O   UNL A   1      32.839  30.983  27.181  1.00  0.00    -0.246 OA
BRANCH  22  24
ATOM     24  C   UNL A   1      35.078  31.253  27.824  1.00  0.00     0.060 A 
ATOM     25  C   UNL A   1      35.155  29.925  28.210  1.00  0.00     0.016 A 
ATOM     26  C   UNL A   1      36.139  32.114  28.078  1.00  0.00     0.016 A 
ATOM     27  C   UNL A   1      36.186  29.487  29.023  1.00  0.00     0.010 A 
ATOM     28  C   UNL A   1      37.272  31.617  28.737  1.00  0.00     0.010 A 
ATOM     29  C   UNL A   1      37.288  30.310  29.265  1.00  0.00    -0.014 A 
BRANCH  29  30
ATOM     30  C   UNL A   1      38.440  29.792  30.058  1.00  0.00     0.031 A 
ATOM     31  C   UNL A   1      38.637  30.215  31.489  1.00  0.00     0.074 A 
ATOM     32  C   UNL A   1      39.311  28.931  29.492  1.00  0.00     0.049 A 
ATOM     33  N   UNL A   1      39.663  30.017  32.280  1.00  0.00    -0.248 NA
ATOM     34  C   UNL A   1      37.546  30.982  32.109  1.00  0.00     0.031 C 
ATOM     35  C   UNL A   1      39.213  28.387  28.134  1.00  0.00     0.029 A 
ATOM     36  N   UNL A   1      40.452  28.350  29.989  1.00  0.00    -0.354 N 
ATOM     37  C   UNL A   1      39.363  30.678  33.466  1.00  0.00     0.074 A 
ATOM     38  C   UNL A   1      38.074  31.310  33.278  1.00  0.00     0.031 C 
ATOM     39  C   UNL A   1      40.208  27.516  27.928  1.00  0.00     0.029 A 
ATOM     40  C   UNL A   1      41.088  27.532  29.086  1.00  0.00     0.049 A 
ATOM     41  H   UNL A   1      40.783  28.505  30.904  1.00  0.00     0.167 HD
ATOM     42  C   UNL A   1      40.096  30.747  34.605  1.00  0.00     0.037 A 
ATOM     43  C   UNL A   1      42.276  26.905  29.153  1.00  0.00     0.037 A 
ATOM     44  C   UNL A   1      41.368  30.093  34.783  1.00  0.00     0.049 A 
ATOM     45  C   UNL A   1      43.115  27.081  30.385  1.00  0.00     0.074 A 
ATOM     46  C   UNL A   1      42.190  30.089  35.896  1.00  0.00     0.029 A 
ATOM     47  N   UNL A   1      42.005  29.324  33.817  1.00  0.00    -0.354 N 
ATOM     48  N   UNL A   1      42.840  27.731  31.488  1.00  0.00    -0.248 NA
ATOM     49  C   UNL A   1      44.437  26.444  30.372  1.00  0.00     0.031 C 
ATOM     50  C   UNL A   1      43.355  29.382  35.578  1.00  0.00     0.029 A 
ATOM     51  C   UNL A   1      43.226  28.872  34.297  1.00  0.00     0.049 A 
ATOM     52  H   UNL A   1      41.643  29.128  32.923  1.00  0.00     0.167 HD
ATOM     53  C   UNL A   1      43.938  27.554  32.318  1.00  0.00     0.074 A 
ATOM     54  C   UNL A   1      44.876  26.720  31.592  1.00  0.00     0.031 C 
ATOM     55  C   UNL A   1      44.148  28.037  33.568  1.00  0.00     0.037 A 
BRANCH  42  56
ATOM     56  C   UNL A   1      39.564  31.604  35.723  1.00  0.00     0.064 A 
ATOM     57  C   UNL A   1      38.575  31.151  36.610  1.00  0.00     0.173 A 
ATOM     58  C   UNL A   1      40.050  32.909  35.906  1.00  0.00     0.173 A 
ATOM     59  F   UNL A   1      38.067  29.916  36.483  1.00  0.00    -0.203 F 
ATOM     60  C   UNL A   1      38.055  31.987  37.598  1.00  0.00     0.198 A 
ATOM     61  C   UNL A   1      39.561  33.727  36.923  1.00  0.00     0.198 A 
ATOM     62  F   UNL A   1      41.005  33.397  35.099  1.00  0.00    -0.203 F 
ATOM     63  F   UNL A   1      37.054  31.557  38.378  1.00  0.00    -0.200 F 
ATOM     64  C   UNL A   1      38.552  33.272  37.756  1.00  0.00     0.200 A 
ATOM     65  F   UNL A   1      40.058  34.960  37.086  1.00  0.00    -0.200 F 
ATOM     66  F   UNL A   1      38.048  34.075  38.703  1.00  0.00    -0.200 F 
ENDBRANCH  42  56
BRANCH  43  67
ATOM     67  C   UNL A   1      42.747  26.076  28.011  1.00  0.00     0.064 A 
ATOM     68  C   UNL A   1      43.545  26.636  27.005  1.00  0.00     0.173 A 
ATOM     69  C   UNL A   1      42.419  24.716  27.901  1.00  0.00     0.173 A 
ATOM     70  F   UNL A   1      43.870  27.936  27.054  1.00  0.00    -0.203 F 
ATOM     71  C   UNL A   1      43.982  25.873  25.924  1.00  0.00     0.198 A 
ATOM     72  C   UNL A   1      42.888  23.944  26.839  1.00  0.00     0.198 A 
ATOM     73  F   UNL A   1      41.661  24.127  28.837  1.00  0.00    -0.203 F 
ATOM     74  F   UNL A   1      44.701  26.447  24.950  1.00  0.00    -0.200 F 
ATOM     75  C   UNL A   1      43.660  24.527  25.847  1.00  0.00     0.200 A 
ATOM     76  F   UNL A   1      42.594  22.639  26.781  1.00  0.00    -0.200 F 
ATOM     77  F   UNL A   1      44.088  23.791  24.811  1.00  0.00    -0.200 F 
ENDBRANCH  43  67
BRANCH  55  78
ATOM     78  C   UNL A   1      45.419  27.624  34.254  1.00  0.00     0.064 A 
ATOM     79  C   UNL A   1      46.591  28.390  34.176  1.00  0.00     0.173 A 
ATOM     80  C   UNL A   1      45.454  26.450  35.024  1.00  0.00     0.173 A 
ATOM     81  F   UNL A   1      46.617  29.511  33.438  1.00  0.00    -0.203 F 
ATOM     82  C   UNL A   1      47.759  27.979  34.811  1.00  0.00     0.198 A 
ATOM     83  C   UNL A   1      46.612  26.065  35.693  1.00  0.00     0.198 A 
ATOM     84  F   UNL A   1      44.361  25.682  35.137  1.00  0.00    -0.203 F 
ATOM     85  F   UNL A   1      48.885  28.693  34.668  1.00  0.00    -0.200 F 
ATOM     86  C   UNL A   1      47.766  26.823  35.577  1.00  0.00     0.200 A 
ATOM     87  F   UNL A   1      46.609  24.957  36.448  1.00  0.00    -0.200 F 
ATOM     88  F   UNL A   1      48.889  26.434  36.197  1.00  0.00    -0.200 F 
ENDBRANCH  55  78
ENDBRANCH  29  30
ENDBRANCH  22  24
ENDBRANCH  21  22
ENDBRANCH  20  21
ENDBRANCH   1  20
TORSDOF 13
ENDMDL
MODEL 3
REMARK VINA RESULT:     -10.2      5.457      9.132
REMARK SMILES N#Cc1cc(-c2cncc(C(=O)OCCOC(=O)c3ccc(-c4c5nc(c(-c6c(F)c(F)c(F)c(F)c6F)c6ccc([nH]6)c(-c6c(F)c(F)c(F)c(F)c6F)c6nc(c(-c7c(F)c(F)c(F)c(F)c7F)c7ccc4[nH]7)C=C6)C=C5)cc3)c2)ccc1Cl
REMARK SMILES IDX 14 1 13 2 11 3 12 4 10 5 6 6 7 7 82 8 8 9 9 10 5 11 3 12
REMARK SMILES IDX 4 13 85 14 84 15 86 16 83 17 2 18 1 19 15 20 16 21 17 22
REMARK SMILES IDX 18 23 19 24 20 25 81 26 21 27 80 28 22 29 23 30 24 31 74 32
REMARK SMILES IDX 25 33 79 34 73 35 75 36 26 37 78 38 72 39 71 40 27 42 59 43
REMARK SMILES IDX 39 44 58 45 40 46 43 47 57 48 76 49 41 50 42 51 56 53 77 54
REMARK SMILES IDX 44 55 28 56 29 57 37 58 30 59 31 60 35 61 38 62 32 63 33 64
REMARK SMILES IDX 36 65 34 66 60 67 61 68 69 69 62 70 63 71 67 72 70 73 64 74
REMARK SMILES IDX 65 75 68 76 66 77 45 78 46 79 54 80 47 81 48 82 52 83 55 84
REMARK SMILES IDX 49 85 50 86 53 87 51 88
REMARK H PARENT 75 41 43 52
REMARK Flexibility Score: inf
ROOT
ATOM      1  C   UNL A   1      32.793  29.348  24.869  1.00  0.00     0.275 C 
ENDROOT
BRANCH   1   2
ATOM      2  O   UNL A   1      33.245  28.072  25.377  1.00  0.00    -0.458 OA
BRANCH   2   3
ATOM      3  C   UNL A   1      33.218  27.038  24.502  1.00  0.00     0.339 C 
ATOM      4  O   UNL A   1      33.612  27.054  23.347  1.00  0.00    -0.246 OA
BRANCH   3   5
ATOM      5  C   UNL A   1      32.703  25.813  25.143  1.00  0.00     0.079 A 
ATOM      6  C   UNL A   1      32.646  23.421  25.460  1.00  0.00     0.001 A 
ATOM      7  C   UNL A   1      31.774  23.643  26.529  1.00  0.00     0.119 A 
ATOM      8  C   UNL A   1      33.092  24.541  24.741  1.00  0.00     0.027 A 
ATOM      9  N   UNL A   1      31.372  24.859  26.941  1.00  0.00    -0.263 NA
ATOM     10  C   UNL A   1      31.876  25.910  26.256  1.00  0.00     0.126 A 
BRANCH   6  11
ATOM     11  C   UNL A   1      33.133  22.075  25.166  1.00  0.00    -0.015 A 
ATOM     12  C   UNL A   1      34.999  20.517  24.917  1.00  0.00     0.071 A 
ATOM     13  C   UNL A   1      34.512  21.811  25.148  1.00  0.00     0.029 A 
ATOM     14  C   UNL A   1      34.094  19.474  24.703  1.00  0.00     0.058 A 
ATOM     15  C   UNL A   1      32.719  19.725  24.719  1.00  0.00     0.022 A 
ATOM     16  Cl  UNL A   1      34.612  17.853  24.417  1.00  0.00    -0.083 Cl
ATOM     17  C   UNL A   1      32.242  21.016  24.948  1.00  0.00     0.010 A 
BRANCH  12  18
ATOM     18  C   UNL A   1      36.415  20.314  24.917  1.00  0.00     0.101 C 
ATOM     19  N   UNL A   1      37.558  20.097  24.908  1.00  0.00    -0.192 NA
ENDBRANCH  12  18
ENDBRANCH   6  11
ENDBRANCH   3   5
ENDBRANCH   2   3
ENDBRANCH   1   2
BRANCH   1  20
ATOM     20  C   UNL A   1      31.906  30.082  25.879  1.00  0.00     0.275 C 
BRANCH  20  21
ATOM     21  O   UNL A   1      32.570  30.241  27.148  1.00  0.00    -0.458 OA
BRANCH  21  22
ATOM     22  C   UNL A   1      33.265  31.392  27.269  1.00  0.00     0.338 C 
ATOM     23  O   UNL A   1      32.835  32.532  27.189  1.00  0.00    -0.246 OA
BRANCH  22  24
ATOM     24  C   UNL A   1      34.651  31.126  27.667  1.00  0.00     0.060 A 
ATOM     25  C   UNL A   1      34.964  29.818  27.999  1.00  0.00     0.016 A 
ATOM     26  C   UNL A   1      35.538  32.152  27.970  1.00  0.00     0.016 A 
ATOM     27  C   UNL A   1      36.054  29.539  28.806  1.00  0.00     0.010 A 
ATOM     28  C   UNL A   1      36.739  31.840  28.622  1.00  0.00     0.010 A 
ATOM     29  C   UNL A   1      36.988  30.536  29.096  1.00  0.00    -0.014 A 
BRANCH  29  30
ATOM     30  C   UNL A   1      38.210  30.201  29.881  1.00  0.00     0.031 A 
ATOM     31  C   UNL A   1      39.274  29.308  29.298  1.00  0.00     0.074 A 
ATOM     32  C   UNL A   1      38.372  30.706  31.122  1.00  0.00     0.049 A 
ATOM     33  N   UNL A   1      40.312  28.762  29.883  1.00  0.00    -0.248 NA
ATOM     34  C   UNL A   1      39.143  28.964  27.875  1.00  0.00     0.031 C 
ATOM     35  C   UNL A   1      37.453  31.632  31.791  1.00  0.00     0.029 A 
ATOM     36  N   UNL A   1      39.372  30.521  32.045  1.00  0.00    -0.354 N 
ATOM     37  C   UNL A   1      40.922  27.972  28.915  1.00  0.00     0.074 A 
ATOM     38  C   UNL A   1      40.119  28.084  27.716  1.00  0.00     0.031 C 
ATOM     39  C   UNL A   1      37.955  31.976  32.983  1.00  0.00     0.029 A 
ATOM     40  C   UNL A   1      39.164  31.202  33.220  1.00  0.00     0.049 A 
ATOM     41  H   UNL A   1      40.161  29.955  31.881  1.00  0.00     0.167 HD
ATOM     42  C   UNL A   1      42.050  27.226  29.020  1.00  0.00     0.037 A 
ATOM     43  C   UNL A   1      39.836  31.170  34.385  1.00  0.00     0.037 A 
ATOM     44  C   UNL A   1      42.851  27.143  30.216  1.00  0.00     0.049 A 
ATOM     45  C   UNL A   1      41.021  30.258  34.508  1.00  0.00     0.074 A 
ATOM     46  C   UNL A   1      44.015  26.427  30.430  1.00  0.00     0.029 A 
ATOM     47  N   UNL A   1      42.568  27.803  31.406  1.00  0.00    -0.354 N 
ATOM     48  N   UNL A   1      41.573  29.491  33.601  1.00  0.00    -0.248 NA
ATOM     49  C   UNL A   1      41.667  30.198  35.824  1.00  0.00     0.031 C 
ATOM     50  C   UNL A   1      44.393  26.592  31.766  1.00  0.00     0.029 A 
ATOM     51  C   UNL A   1      43.515  27.480  32.366  1.00  0.00     0.049 A 
ATOM     52  H   UNL A   1      41.807  28.411  31.547  1.00  0.00     0.167 HD
ATOM     53  C   UNL A   1      42.654  28.883  34.224  1.00  0.00     0.074 A 
ATOM     54  C   UNL A   1      42.685  29.386  35.584  1.00  0.00     0.031 C 
ATOM     55  C   UNL A   1      43.540  27.992  33.714  1.00  0.00     0.037 A 
BRANCH  42  56
ATOM     56  C   UNL A   1      42.449  26.398  27.827  1.00  0.00     0.064 A 
ATOM     57  C   UNL A   1      43.395  26.840  26.890  1.00  0.00     0.173 A 
ATOM     58  C   UNL A   1      41.866  25.137  27.616  1.00  0.00     0.173 A 
ATOM     59  F   UNL A   1      43.983  28.037  27.035  1.00  0.00    -0.203 F 
ATOM     60  C   UNL A   1      43.700  26.081  25.761  1.00  0.00     0.198 A 
ATOM     61  C   UNL A   1      42.206  24.360  26.510  1.00  0.00     0.198 A 
ATOM     62  F   UNL A   1      40.964  24.653  28.482  1.00  0.00    -0.203 F 
ATOM     63  F   UNL A   1      44.546  26.563  24.840  1.00  0.00    -0.200 F 
ATOM     64  C   UNL A   1      43.109  24.840  25.574  1.00  0.00     0.200 A 
ATOM     65  F   UNL A   1      41.649  23.154  26.344  1.00  0.00    -0.200 F 
ATOM     66  F   UNL A   1      43.400  24.113  24.487  1.00  0.00    -0.200 F 
ENDBRANCH  42  56
BRANCH  43  67
ATOM     67  C   UNL A   1      39.387  32.010  35.528  1.00  0.00     0.064 A 
ATOM     68  C   UNL A   1      39.842  33.328  35.667  1.00  0.00     0.173 A 
ATOM     69  C   UNL A   1      38.497  31.523  36.498  1.00  0.00     0.173 A 
ATOM     70  F   UNL A   1      40.709  33.834  34.777  1.00  0.00    -0.203 F 
ATOM     71  C   UNL A   1      39.439  34.120  36.740  1.00  0.00     0.198 A 
ATOM     72  C   UNL A   1      38.064  32.328  37.549  1.00  0.00     0.198 A 
ATOM     73  F   UNL A   1      38.026  30.270  36.412  1.00  0.00    -0.203 F 
ATOM     74  F   UNL A   1      39.930  35.359  36.876  1.00  0.00    -0.200 F 
ATOM     75  C   UNL A   1      38.544  33.622  37.675  1.00  0.00     0.200 A 
ATOM     76  F   UNL A   1      37.182  31.851  38.437  1.00  0.00    -0.200 F 
ATOM     77  F   UNL A   1      38.150  34.387  38.702  1.00  0.00    -0.200 F 
ENDBRANCH  43  67
BRANCH  55  78
ATOM     78  C   UNL A   1      44.657  27.548  34.616  1.00  0.00     0.064 A 
ATOM     79  C   UNL A   1      44.551  26.410  35.429  1.00  0.00     0.173 A 
ATOM     80  C   UNL A   1      45.864  28.265  34.647  1.00  0.00     0.173 A 
ATOM     81  F   UNL A   1      43.413  25.700  35.452  1.00  0.00    -0.203 F 
ATOM     82  C   UNL A   1      45.596  26.028  36.265  1.00  0.00     0.198 A 
ATOM     83  C   UNL A   1      46.923  27.854  35.451  1.00  0.00     0.198 A 
ATOM     84  F   UNL A   1      46.022  29.358  33.885  1.00  0.00    -0.203 F 
ATOM     85  F   UNL A   1      45.448  24.975  37.082  1.00  0.00    -0.200 F 
ATOM     86  C   UNL A   1      46.784  26.744  36.267  1.00  0.00     0.200 A 
ATOM     87  F   UNL A   1      48.076  28.537  35.437  1.00  0.00    -0.200 F 
ATOM     88  F   UNL A   1      47.794  26.367  37.065  1.00  0.00    -0.200 F 
ENDBRANCH  55  78
ENDBRANCH  29  30
ENDBRANCH  22  24
ENDBRANCH  21  22
ENDBRANCH  20  21
ENDBRANCH   1  20
TORSDOF 13
ENDMDL
