MODEL 1
REMARK VINA RESULT:     -12.2      0.000      0.000
REMARK SMILES CN(C)Nc1ncnc(Nc2ccc(C(=O)OCCOC(=O)c3ccc(-c4c5nc(c(-c6c(F)c(F)c(F)c(F)c6F)c6ccc([nH]6)c(-c6c(F)c(F)c(F)c(F)c6F)c6nc(c(-c7c(F)c(F)c(F)c(F)c7F)c7ccc4[nH]7)C=C6)C=C5)cc3)cc2)c1[N+](=O)[O-]
REMARK SMILES IDX 18 1 17 2 15 3 16 4 14 5 11 6 12 7 87 8 13 9 86 10 10 11
REMARK SMILES IDX 9 13 5 14 6 15 88 16 7 17 8 18 4 19 2 21 1 22 3 23 89 24
REMARK SMILES IDX 90 25 91 26 19 27 20 28 21 29 22 30 23 31 24 32 85 33 25 34
REMARK SMILES IDX 84 35 26 36 27 37 28 38 78 39 29 40 83 41 77 42 79 43 30 44
REMARK SMILES IDX 82 45 76 46 75 47 31 49 63 50 43 51 62 52 44 53 47 54 61 55
REMARK SMILES IDX 80 56 45 57 46 58 60 60 81 61 48 62 32 63 33 64 41 65 34 66
REMARK SMILES IDX 35 67 39 68 42 69 36 70 37 71 40 72 38 73 64 74 65 75 73 76
REMARK SMILES IDX 66 77 67 78 71 79 74 80 68 81 69 82 72 83 70 84 49 85 50 86
REMARK SMILES IDX 58 87 51 88 52 89 56 90 59 91 53 92 54 93 57 94 55 95
REMARK H PARENT 10 12 4 20 79 48 47 59
REMARK Flexibility Score: inf
ROOT
ATOM      1  C   UNL A   1      30.915  29.446  24.591  1.00  0.00     0.275 C 
ENDROOT
BRANCH   1   2
ATOM      2  O   UNL A   1      30.332  28.150  24.342  1.00  0.00    -0.458 OA
BRANCH   2   3
ATOM      3  C   UNL A   1      30.603  27.632  23.120  1.00  0.00     0.338 C 
ATOM      4  O   UNL A   1      30.328  28.120  22.036  1.00  0.00    -0.246 OA
BRANCH   3   5
ATOM      5  C   UNL A   1      31.381  26.384  23.246  1.00  0.00     0.060 A 
ATOM      6  C   UNL A   1      32.980  24.083  23.132  1.00  0.00     0.040 A 
ATOM      7  C   UNL A   1      33.566  25.336  23.306  1.00  0.00     0.027 A 
ATOM      8  C   UNL A   1      31.579  23.993  23.076  1.00  0.00     0.027 A 
ATOM      9  C   UNL A   1      32.774  26.479  23.331  1.00  0.00     0.018 A 
ATOM     10  C   UNL A   1      30.774  25.135  23.153  1.00  0.00     0.018 A 
BRANCH   6  11
ATOM     11  N   UNL A   1      33.820  22.994  22.846  1.00  0.00    -0.334 N 
ATOM     12  H   UNL A   1      34.004  22.818  21.896  1.00  0.00     0.168 HD
BRANCH  11  13
ATOM     13  C   UNL A   1      34.427  22.127  23.774  1.00  0.00     0.215 A 
ATOM     14  C   UNL A   1      34.604  20.052  24.908  1.00  0.00     0.225 A 
ATOM     15  N   UNL A   1      35.827  20.389  25.369  1.00  0.00    -0.212 NA
ATOM     16  C   UNL A   1      33.839  20.947  24.190  1.00  0.00     0.354 A 
ATOM     17  C   UNL A   1      36.293  21.586  25.012  1.00  0.00     0.227 A 
ATOM     18  N   UNL A   1      35.670  22.444  24.203  1.00  0.00    -0.212 NA
BRANCH  14  19
ATOM     19  N   UNL A   1      34.305  18.700  25.104  1.00  0.00    -0.298 N 
ATOM     20  H   UNL A   1      33.756  18.458  25.885  1.00  0.00     0.184 HD
BRANCH  19  21
ATOM     21  N   UNL A   1      34.744  17.656  24.252  1.00  0.00    -0.228 NA
ATOM     22  C   UNL A   1      35.157  16.469  25.024  1.00  0.00     0.130 C 
ATOM     23  C   UNL A   1      33.602  17.279  23.403  1.00  0.00     0.130 C 
ENDBRANCH  19  21
ENDBRANCH  14  19
BRANCH  16  24
ATOM     24  N   UNL A   1      32.437  20.720  23.989  1.00  0.00     0.070 N 
ATOM     25  O   UNL A   1      31.717  20.648  24.997  1.00  0.00    -0.258 OA
ATOM     26  O   UNL A   1      32.062  20.466  22.835  1.00  0.00    -0.258 OA
ENDBRANCH  16  24
ENDBRANCH  11  13
ENDBRANCH   6  11
ENDBRANCH   3   5
ENDBRANCH   2   3
ENDBRANCH   1   2
BRANCH   1  27
ATOM     27  C   UNL A   1      31.758  29.420  25.866  1.00  0.00     0.275 C 
BRANCH  27  28
ATOM     28  O   UNL A   1      32.858  30.339  25.740  1.00  0.00    -0.458 OA
BRANCH  28  29
ATOM     29  C   UNL A   1      33.081  31.146  26.805  1.00  0.00     0.338 C 
ATOM     30  O   UNL A   1      32.326  31.993  27.249  1.00  0.00    -0.246 OA
BRANCH  29  31
ATOM     31  C   UNL A   1      34.408  30.862  27.400  1.00  0.00     0.060 A 
ATOM     32  C   UNL A   1      34.831  29.554  27.629  1.00  0.00     0.016 A 
ATOM     33  C   UNL A   1      35.205  31.919  27.834  1.00  0.00     0.016 A 
ATOM     34  C   UNL A   1      35.972  29.299  28.395  1.00  0.00     0.010 A 
ATOM     35  C   UNL A   1      36.415  31.662  28.495  1.00  0.00     0.010 A 
ATOM     36  C   UNL A   1      36.796  30.349  28.827  1.00  0.00    -0.014 A 
BRANCH  36  37
ATOM     37  C   UNL A   1      38.019  30.096  29.652  1.00  0.00     0.031 A 
ATOM     38  C   UNL A   1      39.151  29.266  29.095  1.00  0.00     0.074 A 
ATOM     39  C   UNL A   1      38.141  30.595  30.900  1.00  0.00     0.049 A 
ATOM     40  N   UNL A   1      40.165  28.718  29.718  1.00  0.00    -0.248 NA
ATOM     41  C   UNL A   1      39.128  29.000  27.648  1.00  0.00     0.031 C 
ATOM     42  C   UNL A   1      37.167  31.452  31.576  1.00  0.00     0.029 A 
ATOM     43  N   UNL A   1      39.151  30.455  31.824  1.00  0.00    -0.354 N 
ATOM     44  C   UNL A   1      40.847  27.978  28.760  1.00  0.00     0.074 A 
ATOM     45  C   UNL A   1      40.144  28.160  27.508  1.00  0.00     0.031 C 
ATOM     46  C   UNL A   1      37.646  31.803  32.779  1.00  0.00     0.029 A 
ATOM     47  C   UNL A   1      38.914  31.118  33.004  1.00  0.00     0.049 A 
ATOM     48  H   UNL A   1      39.966  29.928  31.656  1.00  0.00     0.167 HD
ATOM     49  C   UNL A   1      41.952  27.208  28.913  1.00  0.00     0.037 A 
ATOM     50  C   UNL A   1      39.609  31.141  34.158  1.00  0.00     0.037 A 
ATOM     51  C   UNL A   1      42.708  27.094  30.132  1.00  0.00     0.049 A 
ATOM     52  C   UNL A   1      40.847  30.303  34.298  1.00  0.00     0.074 A 
ATOM     53  C   UNL A   1      43.843  26.340  30.380  1.00  0.00     0.029 A 
ATOM     54  N   UNL A   1      42.427  27.785  31.300  1.00  0.00    -0.354 N 
ATOM     55  N   UNL A   1      41.416  29.517  33.418  1.00  0.00    -0.248 NA
ATOM     56  C   UNL A   1      41.522  30.329  35.605  1.00  0.00     0.031 C 
ATOM     57  C   UNL A   1      44.242  26.566  31.702  1.00  0.00     0.029 A 
ATOM     58  C   UNL A   1      43.370  27.481  32.268  1.00  0.00     0.049 A 
ATOM     59  H   UNL A   1      41.668  28.401  31.424  1.00  0.00     0.167 HD
ATOM     60  C   UNL A   1      42.507  28.952  34.062  1.00  0.00     0.074 A 
ATOM     61  C   UNL A   1      42.541  29.507  35.399  1.00  0.00     0.031 C 
ATOM     62  C   UNL A   1      43.393  28.042  33.592  1.00  0.00     0.037 A 
BRANCH  49  63
ATOM     63  C   UNL A   1      42.403  26.395  27.736  1.00  0.00     0.064 A 
ATOM     64  C   UNL A   1      43.399  26.846  26.859  1.00  0.00     0.173 A 
ATOM     65  C   UNL A   1      41.864  25.117  27.519  1.00  0.00     0.173 A 
ATOM     66  F   UNL A   1      43.934  28.066  27.017  1.00  0.00    -0.203 F 
ATOM     67  C   UNL A   1      43.829  26.053  25.798  1.00  0.00     0.198 A 
ATOM     68  C   UNL A   1      42.313  24.317  26.472  1.00  0.00     0.198 A 
ATOM     69  F   UNL A   1      40.913  24.637  28.335  1.00  0.00    -0.203 F 
ATOM     70  F   UNL A   1      44.760  26.515  24.953  1.00  0.00    -0.200 F 
ATOM     71  C   UNL A   1      43.292  24.788  25.610  1.00  0.00     0.200 A 
ATOM     72  F   UNL A   1      41.801  23.091  26.299  1.00  0.00    -0.200 F 
ATOM     73  F   UNL A   1      43.715  24.021  24.595  1.00  0.00    -0.200 F 
ENDBRANCH  49  63
BRANCH  50  74
ATOM     74  C   UNL A   1      39.116  31.957  35.299  1.00  0.00     0.064 A 
ATOM     75  C   UNL A   1      38.350  31.377  36.318  1.00  0.00     0.173 A 
ATOM     76  C   UNL A   1      39.410  33.326  35.397  1.00  0.00     0.173 A 
ATOM     77  F   UNL A   1      38.018  30.079  36.251  1.00  0.00    -0.203 F 
ATOM     78  C   UNL A   1      37.891  32.138  37.392  1.00  0.00     0.198 A 
ATOM     79  C   UNL A   1      38.974  34.077  36.485  1.00  0.00     0.198 A 
ATOM     80  F   UNL A   1      40.137  33.926  34.444  1.00  0.00    -0.203 F 
ATOM     81  F   UNL A   1      37.129  31.568  38.336  1.00  0.00    -0.200 F 
ATOM     82  C   UNL A   1      38.212  33.484  37.479  1.00  0.00     0.200 A 
ATOM     83  F   UNL A   1      39.297  35.375  36.571  1.00  0.00    -0.200 F 
ATOM     84  F   UNL A   1      37.779  34.212  38.519  1.00  0.00    -0.200 F 
ENDBRANCH  50  74
BRANCH  62  85
ATOM     85  C   UNL A   1      44.477  27.599  34.525  1.00  0.00     0.064 A 
ATOM     86  C   UNL A   1      45.690  28.296  34.613  1.00  0.00     0.173 A 
ATOM     87  C   UNL A   1      44.291  26.486  35.357  1.00  0.00     0.173 A 
ATOM     88  F   UNL A   1      45.918  29.357  33.825  1.00  0.00    -0.203 F 
ATOM     89  C   UNL A   1      46.689  27.882  35.490  1.00  0.00     0.198 A 
ATOM     90  C   UNL A   1      45.285  26.085  36.246  1.00  0.00     0.198 A 
ATOM     91  F   UNL A   1      43.146  25.789  35.309  1.00  0.00    -0.203 F 
ATOM     92  F   UNL A   1      47.855  28.539  35.534  1.00  0.00    -0.200 F 
ATOM     93  C   UNL A   1      46.484  26.781  36.308  1.00  0.00     0.200 A 
ATOM     94  F   UNL A   1      45.085  25.024  37.039  1.00  0.00    -0.200 F 
ATOM     95  F   UNL A   1      47.447  26.383  37.152  1.00  0.00    -0.200 F 
ENDBRANCH  62  85
ENDBRANCH  36  37
ENDBRANCH  29  31
ENDBRANCH  28  29
ENDBRANCH  27  28
ENDBRANCH   1  27
TORSDOF 16
ENDMDL
MODEL 2
REMARK VINA RESULT:     -12.1      3.313      8.165
REMARK SMILES CN(C)Nc1ncnc(Nc2ccc(C(=O)OCCOC(=O)c3ccc(-c4c5nc(c(-c6c(F)c(F)c(F)c(F)c6F)c6ccc([nH]6)c(-c6c(F)c(F)c(F)c(F)c6F)c6nc(c(-c7c(F)c(F)c(F)c(F)c7F)c7ccc4[nH]7)C=C6)C=C5)cc3)cc2)c1[N+](=O)[O-]
REMARK SMILES IDX 18 1 17 2 15 3 16 4 14 5 11 6 12 7 87 8 13 9 86 10 10 11
REMARK SMILES IDX 9 13 5 14 6 15 88 16 7 17 8 18 4 19 2 21 1 22 3 23 89 24
REMARK SMILES IDX 90 25 91 26 19 27 20 28 21 29 22 30 23 31 24 32 85 33 25 34
REMARK SMILES IDX 84 35 26 36 27 37 28 38 78 39 29 40 83 41 77 42 79 43 30 44
REMARK SMILES IDX 82 45 76 46 75 47 31 49 63 50 43 51 62 52 44 53 47 54 61 55
REMARK SMILES IDX 80 56 45 57 46 58 60 60 81 61 48 62 32 63 33 64 41 65 34 66
REMARK SMILES IDX 35 67 39 68 42 69 36 70 37 71 40 72 38 73 64 74 65 75 73 76
REMARK SMILES IDX 66 77 67 78 71 79 74 80 68 81 69 82 72 83 70 84 49 85 50 86
REMARK SMILES IDX 58 87 51 88 52 89 56 90 59 91 53 92 54 93 57 94 55 95
REMARK H PARENT 10 12 4 20 79 48 47 59
REMARK Flexibility Score: inf
ROOT
ATOM      1  C   UNL A   1      41.696  20.098  26.448  1.00  0.00     0.275 C 
ENDROOT
BRANCH   1   2
ATOM      2  O   UNL A   1      40.417  20.750  26.596  1.00  0.00    -0.458 OA
BRANCH   2   3
ATOM      3  C   UNL A   1      39.446  20.287  25.774  1.00  0.00     0.338 C 
ATOM      4  O   UNL A   1      39.303  19.142  25.376  1.00  0.00    -0.246 OA
BRANCH   3   5
ATOM      5  C   UNL A   1      38.478  21.355  25.458  1.00  0.00     0.060 A 
ATOM      6  C   UNL A   1      36.501  23.328  25.205  1.00  0.00     0.040 A 
ATOM      7  C   UNL A   1      37.636  23.569  25.977  1.00  0.00     0.027 A 
ATOM      8  C   UNL A   1      36.398  22.108  24.514  1.00  0.00     0.027 A 
ATOM      9  C   UNL A   1      38.601  22.578  26.126  1.00  0.00     0.018 A 
ATOM     10  C   UNL A   1      37.391  21.128  24.619  1.00  0.00     0.018 A 
BRANCH   6  11
ATOM     11  N   UNL A   1      35.435  24.238  25.293  1.00  0.00    -0.334 N 
ATOM     12  H   UNL A   1      35.532  25.078  24.788  1.00  0.00     0.168 HD
BRANCH  11  13
ATOM     13  C   UNL A   1      34.243  24.079  26.024  1.00  0.00     0.215 A 
ATOM     14  C   UNL A   1      32.034  24.712  26.606  1.00  0.00     0.225 A 
ATOM     15  N   UNL A   1      31.851  23.541  27.254  1.00  0.00    -0.212 NA
ATOM     16  C   UNL A   1      33.259  25.048  26.069  1.00  0.00     0.354 A 
ATOM     17  C   UNL A   1      32.879  22.692  27.258  1.00  0.00     0.227 A 
ATOM     18  N   UNL A   1      34.042  22.890  26.636  1.00  0.00    -0.212 NA
BRANCH  14  19
ATOM     19  N   UNL A   1      30.843  25.421  26.425  1.00  0.00    -0.298 N 
ATOM     20  H   UNL A   1      30.512  25.968  27.174  1.00  0.00     0.184 HD
BRANCH  19  21
ATOM     21  N   UNL A   1      30.080  25.402  25.231  1.00  0.00    -0.228 NA
ATOM     22  C   UNL A   1      30.118  26.708  24.545  1.00  0.00     0.130 C 
ATOM     23  C   UNL A   1      30.689  24.398  24.342  1.00  0.00     0.130 C 
ENDBRANCH  19  21
ENDBRANCH  14  19
BRANCH  16  24
ATOM     24  N   UNL A   1      33.546  26.399  25.683  1.00  0.00     0.070 N 
ATOM     25  O   UNL A   1      33.286  27.297  26.500  1.00  0.00    -0.258 OA
ATOM     26  O   UNL A   1      33.898  26.593  24.511  1.00  0.00    -0.258 OA
ENDBRANCH  16  24
ENDBRANCH  11  13
ENDBRANCH   6  11
ENDBRANCH   3   5
ENDBRANCH   2   3
ENDBRANCH   1   2
BRANCH   1  27
ATOM     27  C   UNL A   1      42.696  21.026  25.759  1.00  0.00     0.275 C 
BRANCH  27  28
ATOM     28  O   UNL A   1      42.041  22.249  25.376  1.00  0.00    -0.458 OA
BRANCH  28  29
ATOM     29  C   UNL A   1      42.833  23.344  25.287  1.00  0.00     0.338 C 
ATOM     30  O   UNL A   1      43.808  23.483  24.570  1.00  0.00    -0.246 OA
BRANCH  29  31
ATOM     31  C   UNL A   1      42.349  24.407  26.199  1.00  0.00     0.060 A 
ATOM     32  C   UNL A   1      42.764  25.729  26.052  1.00  0.00     0.016 A 
ATOM     33  C   UNL A   1      41.548  24.064  27.287  1.00  0.00     0.016 A 
ATOM     34  C   UNL A   1      42.492  26.675  27.044  1.00  0.00     0.010 A 
ATOM     35  C   UNL A   1      41.170  25.043  28.217  1.00  0.00     0.010 A 
ATOM     36  C   UNL A   1      41.674  26.354  28.137  1.00  0.00    -0.014 A 
BRANCH  36  37
ATOM     37  C   UNL A   1      41.375  27.352  29.211  1.00  0.00     0.031 A 
ATOM     38  C   UNL A   1      42.232  27.409  30.453  1.00  0.00     0.074 A 
ATOM     39  C   UNL A   1      40.345  28.217  29.101  1.00  0.00     0.049 A 
ATOM     40  N   UNL A   1      42.002  28.005  31.597  1.00  0.00    -0.248 NA
ATOM     41  C   UNL A   1      43.511  26.681  30.409  1.00  0.00     0.031 C 
ATOM     42  C   UNL A   1      39.444  28.331  27.954  1.00  0.00     0.029 A 
ATOM     43  N   UNL A   1      39.885  29.176  29.975  1.00  0.00    -0.354 N 
ATOM     44  C   UNL A   1      43.057  27.655  32.430  1.00  0.00     0.074 A 
ATOM     45  C   UNL A   1      43.942  26.810  31.656  1.00  0.00     0.031 C 
ATOM     46  C   UNL A   1      38.578  29.333  28.169  1.00  0.00     0.029 A 
ATOM     47  C   UNL A   1      38.794  29.869  29.508  1.00  0.00     0.049 A 
ATOM     48  H   UNL A   1      40.298  29.349  30.852  1.00  0.00     0.167 HD
ATOM     49  C   UNL A   1      43.265  27.998  33.724  1.00  0.00     0.037 A 
ATOM     50  C   UNL A   1      38.019  30.798  30.102  1.00  0.00     0.037 A 
ATOM     51  C   UNL A   1      42.439  28.910  34.471  1.00  0.00     0.049 A 
ATOM     52  C   UNL A   1      38.283  31.187  31.529  1.00  0.00     0.074 A 
ATOM     53  C   UNL A   1      42.574  29.321  35.788  1.00  0.00     0.029 A 
ATOM     54  N   UNL A   1      41.345  29.585  33.954  1.00  0.00    -0.354 N 
ATOM     55  N   UNL A   1      39.218  30.760  32.341  1.00  0.00    -0.248 NA
ATOM     56  C   UNL A   1      37.362  32.162  32.132  1.00  0.00     0.031 C 
ATOM     57  C   UNL A   1      41.552  30.235  36.070  1.00  0.00     0.029 A 
ATOM     58  C   UNL A   1      40.800  30.413  34.922  1.00  0.00     0.049 A 
ATOM     59  H   UNL A   1      41.004  29.490  33.035  1.00  0.00     0.167 HD
ATOM     60  C   UNL A   1      38.996  31.406  33.548  1.00  0.00     0.074 A 
ATOM     61  C   UNL A   1      37.856  32.278  33.356  1.00  0.00     0.031 C 
ATOM     62  C   UNL A   1      39.668  31.276  34.717  1.00  0.00     0.037 A 
BRANCH  49  63
ATOM     63  C   UNL A   1      44.420  27.362  34.437  1.00  0.00     0.064 A 
ATOM     64  C   UNL A   1      45.677  27.978  34.515  1.00  0.00     0.173 A 
ATOM     65  C   UNL A   1      44.245  26.138  35.103  1.00  0.00     0.173 A 
ATOM     66  F   UNL A   1      45.897  29.141  33.883  1.00  0.00    -0.203 F 
ATOM     67  C   UNL A   1      46.721  27.384  35.219  1.00  0.00     0.198 A 
ATOM     68  C   UNL A   1      45.284  25.559  35.826  1.00  0.00     0.198 A 
ATOM     69  F   UNL A   1      43.059  25.512  35.065  1.00  0.00    -0.203 F 
ATOM     70  F   UNL A   1      47.924  27.974  35.254  1.00  0.00    -0.200 F 
ATOM     71  C   UNL A   1      46.522  26.181  35.880  1.00  0.00     0.200 A 
ATOM     72  F   UNL A   1      45.086  24.403  36.473  1.00  0.00    -0.200 F 
ATOM     73  F   UNL A   1      47.525  25.617  36.567  1.00  0.00    -0.200 F 
ENDBRANCH  49  63
BRANCH  50  74
ATOM     74  C   UNL A   1      36.881  31.395  29.355  1.00  0.00     0.064 A 
ATOM     75  C   UNL A   1      35.755  30.628  29.030  1.00  0.00     0.173 A 
ATOM     76  C   UNL A   1      36.893  32.742  28.961  1.00  0.00     0.173 A 
ATOM     77  F   UNL A   1      35.712  29.328  29.359  1.00  0.00    -0.203 F 
ATOM     78  C   UNL A   1      34.683  31.184  28.335  1.00  0.00     0.198 A 
ATOM     79  C   UNL A   1      35.809  33.303  28.291  1.00  0.00     0.198 A 
ATOM     80  F   UNL A   1      37.950  33.515  29.246  1.00  0.00    -0.203 F 
ATOM     81  F   UNL A   1      33.633  30.421  28.004  1.00  0.00    -0.200 F 
ATOM     82  C   UNL A   1      34.707  32.524  27.976  1.00  0.00     0.200 A 
ATOM     83  F   UNL A   1      35.831  34.601  27.957  1.00  0.00    -0.200 F 
ATOM     84  F   UNL A   1      33.670  33.061  27.317  1.00  0.00    -0.200 F 
ENDBRANCH  50  74
BRANCH  62  85
ATOM     85  C   UNL A   1      39.195  32.103  35.872  1.00  0.00     0.064 A 
ATOM     86  C   UNL A   1      39.657  33.412  36.069  1.00  0.00     0.173 A 
ATOM     87  C   UNL A   1      38.250  31.592  36.775  1.00  0.00     0.173 A 
ATOM     88  F   UNL A   1      40.572  33.935  35.239  1.00  0.00    -0.203 F 
ATOM     89  C   UNL A   1      39.204  34.175  37.140  1.00  0.00     0.198 A 
ATOM     90  C   UNL A   1      37.786  32.365  37.835  1.00  0.00     0.198 A 
ATOM     91  F   UNL A   1      37.778  30.346  36.626  1.00  0.00    -0.203 F 
ATOM     92  F   UNL A   1      39.685  35.411  37.332  1.00  0.00    -0.200 F 
ATOM     93  C   UNL A   1      38.266  33.653  38.019  1.00  0.00     0.200 A 
ATOM     94  F   UNL A   1      36.877  31.862  38.682  1.00  0.00    -0.200 F 
ATOM     95  F   UNL A   1      37.832  34.390  39.052  1.00  0.00    -0.200 F 
ENDBRANCH  62  85
ENDBRANCH  36  37
ENDBRANCH  29  31
ENDBRANCH  28  29
ENDBRANCH  27  28
ENDBRANCH   1  27
TORSDOF 16
ENDMDL
MODEL 3
REMARK VINA RESULT:     -12.1      1.246      2.643
REMARK SMILES CN(C)Nc1ncnc(Nc2ccc(C(=O)OCCOC(=O)c3ccc(-c4c5nc(c(-c6c(F)c(F)c(F)c(F)c6F)c6ccc([nH]6)c(-c6c(F)c(F)c(F)c(F)c6F)c6nc(c(-c7c(F)c(F)c(F)c(F)c7F)c7ccc4[nH]7)C=C6)C=C5)cc3)cc2)c1[N+](=O)[O-]
REMARK SMILES IDX 18 1 17 2 15 3 16 4 14 5 11 6 12 7 87 8 13 9 86 10 10 11
REMARK SMILES IDX 9 13 5 14 6 15 88 16 7 17 8 18 4 19 2 21 1 22 3 23 89 24
REMARK SMILES IDX 90 25 91 26 19 27 20 28 21 29 22 30 23 31 24 32 85 33 25 34
REMARK SMILES IDX 84 35 26 36 27 37 28 38 78 39 29 40 83 41 77 42 79 43 30 44
REMARK SMILES IDX 82 45 76 46 75 47 31 49 63 50 43 51 62 52 44 53 47 54 61 55
REMARK SMILES IDX 80 56 45 57 46 58 60 60 81 61 48 62 32 63 33 64 41 65 34 66
REMARK SMILES IDX 35 67 39 68 42 69 36 70 37 71 40 72 38 73 64 74 65 75 73 76
REMARK SMILES IDX 66 77 67 78 71 79 74 80 68 81 69 82 72 83 70 84 49 85 50 86
REMARK SMILES IDX 58 87 51 88 52 89 56 90 59 91 53 92 54 93 57 94 55 95
REMARK H PARENT 10 12 4 20 79 48 47 59
REMARK Flexibility Score: inf
ROOT
ATOM      1  C   UNL A   1      31.612  29.571  24.386  1.00  0.00     0.275 C 
ENDROOT
BRANCH   1   2
ATOM      2  O   UNL A   1      30.295  29.784  23.838  1.00  0.00    -0.458 OA
BRANCH   2   3
ATOM      3  C   UNL A   1      30.066  29.166  22.655  1.00  0.00     0.338 C 
ATOM      4  O   UNL A   1      29.888  29.696  21.570  1.00  0.00    -0.246 OA
BRANCH   3   5
ATOM      5  C   UNL A   1      30.140  27.700  22.811  1.00  0.00     0.060 A 
ATOM      6  C   UNL A   1      30.422  24.985  23.451  1.00  0.00     0.040 A 
ATOM      7  C   UNL A   1      29.386  25.732  24.009  1.00  0.00     0.027 A 
ATOM      8  C   UNL A   1      31.277  25.601  22.522  1.00  0.00     0.027 A 
ATOM      9  C   UNL A   1      29.266  27.086  23.715  1.00  0.00     0.018 A 
ATOM     10  C   UNL A   1      31.129  26.950  22.182  1.00  0.00     0.018 A 
BRANCH   6  11
ATOM     11  N   UNL A   1      30.669  23.704  23.972  1.00  0.00    -0.334 N 
ATOM     12  H   UNL A   1      30.087  22.979  23.650  1.00  0.00     0.168 HD
BRANCH  11  13
ATOM     13  C   UNL A   1      31.660  23.347  24.905  1.00  0.00     0.215 A 
ATOM     14  C   UNL A   1      33.909  22.916  25.521  1.00  0.00     0.225 A 
ATOM     15  N   UNL A   1      33.572  22.938  26.828  1.00  0.00    -0.212 NA
ATOM     16  C   UNL A   1      32.950  23.017  24.535  1.00  0.00     0.354 A 
ATOM     17  C   UNL A   1      32.290  23.162  27.114  1.00  0.00     0.227 A 
ATOM     18  N   UNL A   1      31.335  23.411  26.216  1.00  0.00    -0.212 NA
BRANCH  14  19
ATOM     19  N   UNL A   1      35.292  22.940  25.317  1.00  0.00    -0.298 N 
ATOM     20  H   UNL A   1      35.677  23.719  24.857  1.00  0.00     0.184 HD
BRANCH  19  21
ATOM     21  N   UNL A   1      36.174  21.910  25.730  1.00  0.00    -0.228 NA
ATOM     22  C   UNL A   1      35.888  20.643  25.030  1.00  0.00     0.130 C 
ATOM     23  C   UNL A   1      37.537  22.336  25.371  1.00  0.00     0.130 C 
ENDBRANCH  19  21
ENDBRANCH  14  19
BRANCH  16  24
ATOM     24  N   UNL A   1      33.253  22.666  23.177  1.00  0.00     0.070 N 
ATOM     25  O   UNL A   1      34.128  23.327  22.595  1.00  0.00    -0.258 OA
ATOM     26  O   UNL A   1      32.524  21.826  22.631  1.00  0.00    -0.258 OA
ENDBRANCH  16  24
ENDBRANCH  11  13
ENDBRANCH   6  11
ENDBRANCH   3   5
ENDBRANCH   2   3
ENDBRANCH   1   2
BRANCH   1  27
ATOM     27  C   UNL A   1      31.757  30.284  25.731  1.00  0.00     0.275 C 
BRANCH  27  28
ATOM     28  O   UNL A   1      33.149  30.383  26.081  1.00  0.00    -0.458 OA
BRANCH  28  29
ATOM     29  C   UNL A   1      33.450  31.250  27.077  1.00  0.00     0.338 C 
ATOM     30  O   UNL A   1      32.765  32.178  27.468  1.00  0.00    -0.246 OA
BRANCH  29  31
ATOM     31  C   UNL A   1      34.767  30.918  27.671  1.00  0.00     0.060 A 
ATOM     32  C   UNL A   1      35.097  29.607  28.008  1.00  0.00     0.016 A 
ATOM     33  C   UNL A   1      35.652  31.946  27.993  1.00  0.00     0.016 A 
ATOM     34  C   UNL A   1      36.236  29.334  28.772  1.00  0.00     0.010 A 
ATOM     35  C   UNL A   1      36.856  31.656  28.651  1.00  0.00     0.010 A 
ATOM     36  C   UNL A   1      37.146  30.351  29.092  1.00  0.00    -0.014 A 
BRANCH  36  37
ATOM     37  C   UNL A   1      38.367  30.079  29.914  1.00  0.00     0.031 A 
ATOM     38  C   UNL A   1      39.485  29.232  29.354  1.00  0.00     0.074 A 
ATOM     39  C   UNL A   1      38.500  30.577  31.162  1.00  0.00     0.049 A 
ATOM     40  N   UNL A   1      40.492  28.669  29.974  1.00  0.00    -0.248 NA
ATOM     41  C   UNL A   1      39.453  28.967  27.906  1.00  0.00     0.031 C 
ATOM     42  C   UNL A   1      37.541  31.447  31.842  1.00  0.00     0.029 A 
ATOM     43  N   UNL A   1      39.511  30.420  32.083  1.00  0.00    -0.354 N 
ATOM     44  C   UNL A   1      41.160  27.918  29.013  1.00  0.00     0.074 A 
ATOM     45  C   UNL A   1      40.456  28.112  27.764  1.00  0.00     0.031 C 
ATOM     46  C   UNL A   1      38.030  31.791  33.043  1.00  0.00     0.029 A 
ATOM     47  C   UNL A   1      39.288  31.087  33.264  1.00  0.00     0.049 A 
ATOM     48  H   UNL A   1      40.317  29.881  31.913  1.00  0.00     0.167 HD
ATOM     49  C   UNL A   1      42.253  27.132  29.162  1.00  0.00     0.037 A 
ATOM     50  C   UNL A   1      39.986  31.098  34.416  1.00  0.00     0.037 A 
ATOM     51  C   UNL A   1      43.011  27.006  30.379  1.00  0.00     0.049 A 
ATOM     52  C   UNL A   1      41.212  30.241  34.552  1.00  0.00     0.074 A 
ATOM     53  C   UNL A   1      44.135  26.234  30.624  1.00  0.00     0.029 A 
ATOM     54  N   UNL A   1      42.744  27.701  31.548  1.00  0.00    -0.354 N 
ATOM     55  N   UNL A   1      41.766  29.447  33.670  1.00  0.00    -0.248 NA
ATOM     56  C   UNL A   1      41.891  30.256  35.857  1.00  0.00     0.031 C 
ATOM     57  C   UNL A   1      44.541  26.453  31.945  1.00  0.00     0.029 A 
ATOM     58  C   UNL A   1      43.685  27.381  32.513  1.00  0.00     0.049 A 
ATOM     59  H   UNL A   1      41.995  28.328  31.675  1.00  0.00     0.167 HD
ATOM     60  C   UNL A   1      42.850  28.865  34.311  1.00  0.00     0.074 A 
ATOM     61  C   UNL A   1      42.896  29.419  35.648  1.00  0.00     0.031 C 
ATOM     62  C   UNL A   1      43.720  27.941  33.838  1.00  0.00     0.037 A 
BRANCH  49  63
ATOM     63  C   UNL A   1      42.688  26.312  27.984  1.00  0.00     0.064 A 
ATOM     64  C   UNL A   1      42.191  25.022  27.752  1.00  0.00     0.173 A 
ATOM     65  C   UNL A   1      43.575  26.856  27.041  1.00  0.00     0.173 A 
ATOM     66  F   UNL A   1      41.352  24.455  28.632  1.00  0.00    -0.203 F 
ATOM     67  C   UNL A   1      42.580  24.300  26.627  1.00  0.00     0.198 A 
ATOM     68  C   UNL A   1      43.943  26.140  25.906  1.00  0.00     0.198 A 
ATOM     69  F   UNL A   1      44.073  28.089  27.215  1.00  0.00    -0.203 F 
ATOM     70  F   UNL A   1      42.119  23.055  26.440  1.00  0.00    -0.200 F 
ATOM     71  C   UNL A   1      43.449  24.861  25.702  1.00  0.00     0.200 A 
ATOM     72  F   UNL A   1      44.773  26.688  25.009  1.00  0.00    -0.200 F 
ATOM     73  F   UNL A   1      43.812  24.167  24.614  1.00  0.00    -0.200 F 
ENDBRANCH  49  63
BRANCH  50  74
ATOM     74  C   UNL A   1      39.510  31.921  35.559  1.00  0.00     0.064 A 
ATOM     75  C   UNL A   1      39.950  33.240  35.726  1.00  0.00     0.173 A 
ATOM     76  C   UNL A   1      38.600  31.409  36.497  1.00  0.00     0.173 A 
ATOM     77  F   UNL A   1      40.844  33.761  34.872  1.00  0.00    -0.203 F 
ATOM     78  C   UNL A   1      39.502  34.017  36.793  1.00  0.00     0.198 A 
ATOM     79  C   UNL A   1      38.132  32.196  37.546  1.00  0.00     0.198 A 
ATOM     80  F   UNL A   1      38.153  30.150  36.381  1.00  0.00    -0.203 F 
ATOM     81  F   UNL A   1      39.966  35.263  36.952  1.00  0.00    -0.200 F 
ATOM     82  C   UNL A   1      38.586  33.497  37.695  1.00  0.00     0.200 A 
ATOM     83  F   UNL A   1      37.238  31.694  38.409  1.00  0.00    -0.200 F 
ATOM     84  F   UNL A   1      38.147  34.249  38.715  1.00  0.00    -0.200 F 
ENDBRANCH  50  74
BRANCH  62  85
ATOM     85  C   UNL A   1      44.801  27.482  34.767  1.00  0.00     0.064 A 
ATOM     86  C   UNL A   1      44.626  26.359  35.588  1.00  0.00     0.173 A 
ATOM     87  C   UNL A   1      46.031  28.153  34.818  1.00  0.00     0.173 A 
ATOM     88  F   UNL A   1      43.459  25.696  35.584  1.00  0.00    -0.203 F 
ATOM     89  C   UNL A   1      45.638  25.934  36.442  1.00  0.00     0.198 A 
ATOM     90  C   UNL A   1      47.048  27.715  35.660  1.00  0.00     0.198 A 
ATOM     91  F   UNL A   1      46.245  29.231  34.050  1.00  0.00    -0.203 F 
ATOM     92  F   UNL A   1      45.439  24.880  37.245  1.00  0.00    -0.200 F 
ATOM     93  C   UNL A   1      46.850  26.609  36.474  1.00  0.00     0.200 A 
ATOM     94  F   UNL A   1      48.221  28.364  35.688  1.00  0.00    -0.200 F 
ATOM     95  F   UNL A   1      47.825  26.199  37.298  1.00  0.00    -0.200 F 
ENDBRANCH  62  85
ENDBRANCH  36  37
ENDBRANCH  29  31
ENDBRANCH  28  29
ENDBRANCH  27  28
ENDBRANCH   1  27
TORSDOF 16
ENDMDL
