MODEL 1
REMARK VINA RESULT:     -11.8      0.000      0.000
REMARK SMILES Cc1nc(C[NH2+][C@@H](C(=O)OCCOC(=O)c2ccc(-c3c4nc(c(-c5c(F)c(F)c(F)c(F)c5F)c5ccc([nH]5)c(-c5c(F)c(F)c(F)c(F)c5F)c5nc(c(-c6c(F)c(F)c(F)c(F)c6F)c6ccc3[nH]6)C=C5)C=C4)cc2)c2ccccc2)sc1C
REMARK SMILES IDX 11 1 10 2 8 3 9 4 7 5 6 6 5 9 4 10 1 11 2 12 3 13 86 14
REMARK SMILES IDX 85 15 87 16 79 17 80 18 84 19 81 20 83 21 82 22 12 23 13 24
REMARK SMILES IDX 14 25 15 26 16 27 17 28 78 29 18 30 77 31 19 32 20 33 21 34
REMARK SMILES IDX 71 35 22 36 76 37 70 38 72 39 23 40 75 41 69 42 68 43 24 45
REMARK SMILES IDX 56 46 36 47 55 48 37 49 40 50 54 51 73 52 38 53 39 54 53 56
REMARK SMILES IDX 74 57 41 58 25 59 26 60 34 61 27 62 28 63 32 64 35 65 29 66
REMARK SMILES IDX 30 67 33 68 31 69 57 70 58 71 66 72 59 73 60 74 64 75 67 76
REMARK SMILES IDX 61 77 62 78 65 79 63 80 42 81 43 82 51 83 44 84 45 85 49 86
REMARK SMILES IDX 52 87 46 88 47 89 50 90 48 91
REMARK H PARENT 6 7 6 8 72 44 40 55
REMARK Flexibility Score: inf
ROOT
ATOM      1  C   UNL A   1      31.692  29.517  25.799  1.00  0.00     0.274 C 
ENDROOT
BRANCH   1   2
ATOM      2  O   UNL A   1      32.489  29.318  24.614  1.00  0.00    -0.457 OA
BRANCH   2   3
ATOM      3  C   UNL A   1      31.826  29.037  23.453  1.00  0.00     0.369 C 
ATOM      4  O   UNL A   1      32.377  28.952  22.360  1.00  0.00    -0.245 OA
BRANCH   3   5
ATOM      5  C   UNL A   1      30.294  28.880  23.668  1.00  0.00     0.325 C 
BRANCH   5   6
ATOM      6  N   UNL A   1      29.783  27.575  23.195  1.00  0.00    -0.325 N 
ATOM      7  H   UNL A   1      28.860  27.718  22.784  1.00  0.00     0.347 HD
ATOM      8  H   UNL A   1      30.453  27.216  22.514  1.00  0.00     0.347 HD
BRANCH   6   9
ATOM      9  C   UNL A   1      29.670  26.579  24.261  1.00  0.00     0.330 C 
BRANCH   9  10
ATOM     10  C   UNL A   1      30.914  25.736  24.336  1.00  0.00     0.148 A 
ATOM     11  C   UNL A   1      33.276  23.620  22.649  1.00  0.00     0.068 C 
ATOM     12  C   UNL A   1      32.568  24.406  23.693  1.00  0.00     0.052 A 
ATOM     13  N   UNL A   1      31.398  25.044  23.324  1.00  0.00    -0.240 NA
ATOM     14  C   UNL A   1      32.939  24.591  25.013  1.00  0.00     0.025 A 
ATOM     15  S   UNL A   1      31.811  25.620  25.795  1.00  0.00    -0.118 S 
ATOM     16  C   UNL A   1      34.113  24.047  25.745  1.00  0.00     0.058 C 
ENDBRANCH   9  10
ENDBRANCH   6   9
ENDBRANCH   5   6
BRANCH   5  17
ATOM     17  C   UNL A   1      29.503  30.042  23.056  1.00  0.00     0.021 A 
ATOM     18  C   UNL A   1      29.152  31.192  23.787  1.00  0.00     0.010 A 
ATOM     19  C   UNL A   1      29.117  29.983  21.704  1.00  0.00     0.010 A 
ATOM     20  C   UNL A   1      28.445  32.240  23.190  1.00  0.00     0.001 A 
ATOM     21  C   UNL A   1      28.404  31.028  21.109  1.00  0.00     0.001 A 
ATOM     22  C   UNL A   1      28.071  32.158  21.852  1.00  0.00     0.000 A 
ENDBRANCH   5  17
ENDBRANCH   3   5
ENDBRANCH   2   3
ENDBRANCH   1   2
BRANCH   1  23
ATOM     23  C   UNL A   1      31.778  30.973  26.249  1.00  0.00     0.275 C 
BRANCH  23  24
ATOM     24  O   UNL A   1      32.498  31.052  27.493  1.00  0.00    -0.458 OA
BRANCH  24  25
ATOM     25  C   UNL A   1      33.304  32.129  27.623  1.00  0.00     0.338 C 
ATOM     26  O   UNL A   1      32.989  33.306  27.626  1.00  0.00    -0.246 OA
BRANCH  25  27
ATOM     27  C   UNL A   1      34.678  31.673  27.873  1.00  0.00     0.060 A 
ATOM     28  C   UNL A   1      34.901  30.306  28.000  1.00  0.00     0.016 A 
ATOM     29  C   UNL A   1      35.694  32.585  28.155  1.00  0.00     0.016 A 
ATOM     30  C   UNL A   1      36.105  29.852  28.527  1.00  0.00     0.010 A 
ATOM     31  C   UNL A   1      36.936  32.114  28.607  1.00  0.00     0.010 A 
ATOM     32  C   UNL A   1      37.134  30.745  28.862  1.00  0.00    -0.014 A 
BRANCH  32  33
ATOM     33  C   UNL A   1      38.337  30.247  29.594  1.00  0.00     0.031 A 
ATOM     34  C   UNL A   1      38.517  30.566  31.059  1.00  0.00     0.074 A 
ATOM     35  C   UNL A   1      39.224  29.422  29.002  1.00  0.00     0.049 A 
ATOM     36  N   UNL A   1      39.548  30.341  31.837  1.00  0.00    -0.248 NA
ATOM     37  C   UNL A   1      37.397  31.238  31.737  1.00  0.00     0.031 C 
ATOM     38  C   UNL A   1      39.157  28.953  27.618  1.00  0.00     0.029 A 
ATOM     39  N   UNL A   1      40.332  28.786  29.512  1.00  0.00    -0.354 N 
ATOM     40  C   UNL A   1      39.237  30.925  33.059  1.00  0.00     0.074 A 
ATOM     41  C   UNL A   1      37.910  31.488  32.933  1.00  0.00     0.031 C 
ATOM     42  C   UNL A   1      40.110  28.029  27.419  1.00  0.00     0.029 A 
ATOM     43  C   UNL A   1      40.909  27.901  28.635  1.00  0.00     0.049 A 
ATOM     44  H   UNL A   1      40.677  28.949  30.419  1.00  0.00     0.167 HD
ATOM     45  C   UNL A   1      39.995  30.996  34.181  1.00  0.00     0.037 A 
ATOM     46  C   UNL A   1      41.966  27.079  28.789  1.00  0.00     0.037 A 
ATOM     47  C   UNL A   1      41.269  30.349  34.350  1.00  0.00     0.049 A 
ATOM     48  C   UNL A   1      42.753  27.111  30.069  1.00  0.00     0.074 A 
ATOM     49  C   UNL A   1      42.138  30.407  35.427  1.00  0.00     0.029 A 
ATOM     50  N   UNL A   1      41.830  29.477  33.432  1.00  0.00    -0.354 N 
ATOM     51  N   UNL A   1      42.535  27.805  31.157  1.00  0.00    -0.248 NA
ATOM     52  C   UNL A   1      43.958  26.270  30.123  1.00  0.00     0.031 C 
ATOM     53  C   UNL A   1      43.223  29.563  35.162  1.00  0.00     0.029 A 
ATOM     54  C   UNL A   1      43.018  28.967  33.930  1.00  0.00     0.049 A 
ATOM     55  H   UNL A   1      41.443  29.252  32.555  1.00  0.00     0.167 HD
ATOM     56  C   UNL A   1      43.576  27.496  32.019  1.00  0.00     0.074 A 
ATOM     57  C   UNL A   1      44.409  26.522  31.344  1.00  0.00     0.031 C 
ATOM     58  C   UNL A   1      43.833  27.996  33.252  1.00  0.00     0.037 A 
BRANCH  45  59
ATOM     59  C   UNL A   1      39.482  31.843  35.305  1.00  0.00     0.064 A 
ATOM     60  C   UNL A   1      38.606  31.341  36.277  1.00  0.00     0.173 A 
ATOM     61  C   UNL A   1      39.902  33.177  35.421  1.00  0.00     0.173 A 
ATOM     62  F   UNL A   1      38.162  30.078  36.196  1.00  0.00    -0.203 F 
ATOM     63  C   UNL A   1      38.153  32.151  37.315  1.00  0.00     0.198 A 
ATOM     64  C   UNL A   1      39.465  33.977  36.473  1.00  0.00     0.198 A 
ATOM     65  F   UNL A   1      40.743  33.702  34.518  1.00  0.00    -0.203 F 
ATOM     66  F   UNL A   1      37.286  31.663  38.213  1.00  0.00    -0.200 F 
ATOM     67  C   UNL A   1      38.587  33.465  37.415  1.00  0.00     0.200 A 
ATOM     68  F   UNL A   1      39.892  35.245  36.572  1.00  0.00    -0.200 F 
ATOM     69  F   UNL A   1      38.152  34.241  38.418  1.00  0.00    -0.200 F 
ENDBRANCH  45  59
BRANCH  46  70
ATOM     70  C   UNL A   1      42.340  26.143  27.702  1.00  0.00     0.064 A 
ATOM     71  C   UNL A   1      41.696  24.903  27.582  1.00  0.00     0.173 A 
ATOM     72  C   UNL A   1      43.340  26.456  26.771  1.00  0.00     0.173 A 
ATOM     73  F   UNL A   1      40.754  24.550  28.468  1.00  0.00    -0.203 F 
ATOM     74  C   UNL A   1      42.042  24.009  26.571  1.00  0.00     0.198 A 
ATOM     75  C   UNL A   1      43.669  25.571  25.747  1.00  0.00     0.198 A 
ATOM     76  F   UNL A   1      43.986  27.628  26.850  1.00  0.00    -0.203 F 
ATOM     77  F   UNL A   1      41.435  22.817  26.497  1.00  0.00    -0.200 F 
ATOM     78  C   UNL A   1      43.023  24.347  25.652  1.00  0.00     0.200 A 
ATOM     79  F   UNL A   1      44.612  25.902  24.856  1.00  0.00    -0.200 F 
ATOM     80  F   UNL A   1      43.351  23.489  24.676  1.00  0.00    -0.200 F 
ENDBRANCH  46  70
BRANCH  58  81
ATOM     81  C   UNL A   1      45.060  27.496  33.948  1.00  0.00     0.064 A 
ATOM     82  C   UNL A   1      46.295  28.142  33.792  1.00  0.00     0.173 A 
ATOM     83  C   UNL A   1      44.998  26.379  34.792  1.00  0.00     0.173 A 
ATOM     84  F   UNL A   1      46.402  29.206  32.983  1.00  0.00    -0.203 F 
ATOM     85  C   UNL A   1      47.431  27.674  34.446  1.00  0.00     0.198 A 
ATOM     86  C   UNL A   1      46.134  25.922  35.455  1.00  0.00     0.198 A 
ATOM     87  F   UNL A   1      43.838  25.729  34.970  1.00  0.00    -0.203 F 
ATOM     88  F   UNL A   1      48.609  28.285  34.258  1.00  0.00    -0.200 F 
ATOM     89  C   UNL A   1      47.350  26.567  35.277  1.00  0.00     0.200 A 
ATOM     90  F   UNL A   1      46.056  24.852  36.259  1.00  0.00    -0.200 F 
ATOM     91  F   UNL A   1      48.446  26.115  35.901  1.00  0.00    -0.200 F 
ENDBRANCH  58  81
ENDBRANCH  32  33
ENDBRANCH  25  27
ENDBRANCH  24  25
ENDBRANCH  23  24
ENDBRANCH   1  23
TORSDOF 15
ENDMDL
MODEL 2
REMARK VINA RESULT:     -11.7      1.165      8.108
REMARK SMILES Cc1nc(C[NH2+][C@@H](C(=O)OCCOC(=O)c2ccc(-c3c4nc(c(-c5c(F)c(F)c(F)c(F)c5F)c5ccc([nH]5)c(-c5c(F)c(F)c(F)c(F)c5F)c5nc(c(-c6c(F)c(F)c(F)c(F)c6F)c6ccc3[nH]6)C=C5)C=C4)cc2)c2ccccc2)sc1C
REMARK SMILES IDX 11 1 10 2 8 3 9 4 7 5 6 6 5 9 4 10 1 11 2 12 3 13 86 14
REMARK SMILES IDX 85 15 87 16 79 17 80 18 84 19 81 20 83 21 82 22 12 23 13 24
REMARK SMILES IDX 14 25 15 26 16 27 17 28 78 29 18 30 77 31 19 32 20 33 21 34
REMARK SMILES IDX 71 35 22 36 76 37 70 38 72 39 23 40 75 41 69 42 68 43 24 45
REMARK SMILES IDX 56 46 36 47 55 48 37 49 40 50 54 51 73 52 38 53 39 54 53 56
REMARK SMILES IDX 74 57 41 58 25 59 26 60 34 61 27 62 28 63 32 64 35 65 29 66
REMARK SMILES IDX 30 67 33 68 31 69 57 70 58 71 66 72 59 73 60 74 64 75 67 76
REMARK SMILES IDX 61 77 62 78 65 79 63 80 42 81 43 82 51 83 44 84 45 85 49 86
REMARK SMILES IDX 52 87 46 88 47 89 50 90 48 91
REMARK H PARENT 6 7 6 8 72 44 40 55
REMARK Flexibility Score: inf
ROOT
ATOM      1  C   UNL A   1      32.736  28.986  25.086  1.00  0.00     0.274 C 
ENDROOT
BRANCH   1   2
ATOM      2  O   UNL A   1      32.363  28.899  23.696  1.00  0.00    -0.457 OA
BRANCH   2   3
ATOM      3  C   UNL A   1      32.330  27.654  23.133  1.00  0.00     0.369 C 
ATOM      4  O   UNL A   1      33.303  27.119  22.610  1.00  0.00    -0.245 OA
BRANCH   3   5
ATOM      5  C   UNL A   1      30.914  27.013  23.193  1.00  0.00     0.325 C 
BRANCH   5   6
ATOM      6  N   UNL A   1      29.888  27.947  23.705  1.00  0.00    -0.325 N 
ATOM      7  H   UNL A   1      29.473  27.545  24.545  1.00  0.00     0.347 HD
ATOM      8  H   UNL A   1      30.354  28.835  23.895  1.00  0.00     0.347 HD
BRANCH   6   9
ATOM      9  C   UNL A   1      28.820  28.215  22.740  1.00  0.00     0.330 C 
BRANCH   9  10
ATOM     10  C   UNL A   1      28.718  29.689  22.455  1.00  0.00     0.148 A 
ATOM     11  C   UNL A   1      27.872  32.300  20.136  1.00  0.00     0.068 C 
ATOM     12  C   UNL A   1      28.317  31.572  21.353  1.00  0.00     0.052 A 
ATOM     13  N   UNL A   1      28.353  30.191  21.292  1.00  0.00    -0.240 NA
ATOM     14  C   UNL A   1      28.704  32.109  22.569  1.00  0.00     0.025 A 
ATOM     15  S   UNL A   1      29.083  30.847  23.668  1.00  0.00    -0.118 S 
ATOM     16  C   UNL A   1      28.801  33.535  22.979  1.00  0.00     0.058 C 
ENDBRANCH   9  10
ENDBRANCH   6   9
ENDBRANCH   5   6
BRANCH   5  17
ATOM     17  C   UNL A   1      30.910  25.697  23.978  1.00  0.00     0.021 A 
ATOM     18  C   UNL A   1      31.138  24.448  23.371  1.00  0.00     0.010 A 
ATOM     19  C   UNL A   1      30.684  25.718  25.368  1.00  0.00     0.010 A 
ATOM     20  C   UNL A   1      31.143  23.270  24.123  1.00  0.00     0.001 A 
ATOM     21  C   UNL A   1      30.682  24.538  26.117  1.00  0.00     0.001 A 
ATOM     22  C   UNL A   1      30.915  23.314  25.495  1.00  0.00     0.000 A 
ENDBRANCH   5  17
ENDBRANCH   3   5
ENDBRANCH   2   3
ENDBRANCH   1   2
BRANCH   1  23
ATOM     23  C   UNL A   1      32.039  30.175  25.742  1.00  0.00     0.275 C 
BRANCH  23  24
ATOM     24  O   UNL A   1      32.529  30.343  27.084  1.00  0.00    -0.458 OA
BRANCH  24  25
ATOM     25  C   UNL A   1      33.258  31.461  27.294  1.00  0.00     0.338 C 
ATOM     26  O   UNL A   1      32.882  32.619  27.250  1.00  0.00    -0.246 OA
BRANCH  25  27
ATOM     27  C   UNL A   1      34.616  31.080  27.703  1.00  0.00     0.060 A 
ATOM     28  C   UNL A   1      34.881  29.733  27.921  1.00  0.00     0.016 A 
ATOM     29  C   UNL A   1      35.561  32.050  28.039  1.00  0.00     0.016 A 
ATOM     30  C   UNL A   1      36.043  29.359  28.588  1.00  0.00     0.010 A 
ATOM     31  C   UNL A   1      36.768  31.658  28.636  1.00  0.00     0.010 A 
ATOM     32  C   UNL A   1      36.994  30.312  28.978  1.00  0.00    -0.014 A 
BRANCH  32  33
ATOM     33  C   UNL A   1      38.136  29.904  29.852  1.00  0.00     0.031 A 
ATOM     34  C   UNL A   1      39.295  29.131  29.271  1.00  0.00     0.074 A 
ATOM     35  C   UNL A   1      38.209  30.305  31.137  1.00  0.00     0.049 A 
ATOM     36  N   UNL A   1      40.312  28.574  29.883  1.00  0.00    -0.248 NA
ATOM     37  C   UNL A   1      39.309  28.947  27.811  1.00  0.00     0.031 C 
ATOM     38  C   UNL A   1      37.214  31.121  31.833  1.00  0.00     0.029 A 
ATOM     39  N   UNL A   1      39.198  30.123  32.075  1.00  0.00    -0.354 N 
ATOM     40  C   UNL A   1      41.025  27.900  28.900  1.00  0.00     0.074 A 
ATOM     41  C   UNL A   1      40.347  28.141  27.645  1.00  0.00     0.031 C 
ATOM     42  C   UNL A   1      37.687  31.455  33.043  1.00  0.00     0.029 A 
ATOM     43  C   UNL A   1      38.981  30.809  33.244  1.00  0.00     0.049 A 
ATOM     44  H   UNL A   1      39.988  29.555  31.922  1.00  0.00     0.167 HD
ATOM     45  C   UNL A   1      42.139  27.139  29.034  1.00  0.00     0.037 A 
ATOM     46  C   UNL A   1      39.735  30.906  34.356  1.00  0.00     0.037 A 
ATOM     47  C   UNL A   1      42.880  26.980  30.257  1.00  0.00     0.049 A 
ATOM     48  C   UNL A   1      41.010  30.116  34.462  1.00  0.00     0.074 A 
ATOM     49  C   UNL A   1      43.987  26.187  30.507  1.00  0.00     0.029 A 
ATOM     50  N   UNL A   1      42.616  27.676  31.426  1.00  0.00    -0.354 N 
ATOM     51  N   UNL A   1      41.582  29.345  33.572  1.00  0.00    -0.248 NA
ATOM     52  C   UNL A   1      41.723  30.184  35.747  1.00  0.00     0.031 C 
ATOM     53  C   UNL A   1      44.398  26.409  31.827  1.00  0.00     0.029 A 
ATOM     54  C   UNL A   1      43.558  27.354  32.389  1.00  0.00     0.049 A 
ATOM     55  H   UNL A   1      41.872  28.307  31.552  1.00  0.00     0.167 HD
ATOM     56  C   UNL A   1      42.711  28.827  34.189  1.00  0.00     0.074 A 
ATOM     57  C   UNL A   1      42.767  29.400  35.518  1.00  0.00     0.031 C 
ATOM     58  C   UNL A   1      43.606  27.934  33.704  1.00  0.00     0.037 A 
BRANCH  45  59
ATOM     59  C   UNL A   1      42.602  26.379  27.828  1.00  0.00     0.064 A 
ATOM     60  C   UNL A   1      43.571  26.889  26.954  1.00  0.00     0.173 A 
ATOM     61  C   UNL A   1      42.081  25.104  27.564  1.00  0.00     0.173 A 
ATOM     62  F   UNL A   1      44.084  28.112  27.154  1.00  0.00    -0.203 F 
ATOM     63  C   UNL A   1      43.988  26.155  25.846  1.00  0.00     0.198 A 
ATOM     64  C   UNL A   1      42.515  24.364  26.469  1.00  0.00     0.198 A 
ATOM     65  F   UNL A   1      41.154  24.571  28.375  1.00  0.00    -0.203 F 
ATOM     66  F   UNL A   1      44.887  26.676  24.999  1.00  0.00    -0.200 F 
ATOM     67  C   UNL A   1      43.464  24.893  25.608  1.00  0.00     0.200 A 
ATOM     68  F   UNL A   1      42.014  23.140  26.245  1.00  0.00    -0.200 F 
ATOM     69  F   UNL A   1      43.870  24.187  24.542  1.00  0.00    -0.200 F 
ENDBRANCH  45  59
BRANCH  46  70
ATOM     70  C   UNL A   1      39.311  31.797  35.463  1.00  0.00     0.064 A 
ATOM     71  C   UNL A   1      39.754  33.127  35.511  1.00  0.00     0.173 A 
ATOM     72  C   UNL A   1      38.469  31.348  36.489  1.00  0.00     0.173 A 
ATOM     73  F   UNL A   1      40.584  33.590  34.567  1.00  0.00    -0.203 F 
ATOM     74  C   UNL A   1      39.371  33.974  36.549  1.00  0.00     0.198 A 
ATOM     75  C   UNL A   1      38.069  32.202  37.514  1.00  0.00     0.198 A 
ATOM     76  F   UNL A   1      38.025  30.083  36.487  1.00  0.00    -0.203 F 
ATOM     77  F   UNL A   1      39.833  35.231  36.590  1.00  0.00    -0.200 F 
ATOM     78  C   UNL A   1      38.524  33.512  37.545  1.00  0.00     0.200 A 
ATOM     79  F   UNL A   1      37.245  31.757  38.471  1.00  0.00    -0.200 F 
ATOM     80  F   UNL A   1      38.151  34.329  38.539  1.00  0.00    -0.200 F 
ENDBRANCH  46  70
BRANCH  58  81
ATOM     81  C   UNL A   1      44.723  27.527  34.613  1.00  0.00     0.064 A 
ATOM     82  C   UNL A   1      45.937  28.229  34.628  1.00  0.00     0.173 A 
ATOM     83  C   UNL A   1      44.574  26.443  35.489  1.00  0.00     0.173 A 
ATOM     84  F   UNL A   1      46.128  29.264  33.797  1.00  0.00    -0.203 F 
ATOM     85  C   UNL A   1      46.971  27.848  35.479  1.00  0.00     0.198 A 
ATOM     86  C   UNL A   1      45.605  26.073  36.348  1.00  0.00     0.198 A 
ATOM     87  F   UNL A   1      43.431  25.741  35.507  1.00  0.00    -0.203 F 
ATOM     88  F   UNL A   1      48.135  28.511  35.456  1.00  0.00    -0.200 F 
ATOM     89  C   UNL A   1      46.803  26.772  36.339  1.00  0.00     0.200 A 
ATOM     90  F   UNL A   1      45.444  25.034  37.179  1.00  0.00    -0.200 F 
ATOM     91  F   UNL A   1      47.802  26.404  37.153  1.00  0.00    -0.200 F 
ENDBRANCH  58  81
ENDBRANCH  32  33
ENDBRANCH  25  27
ENDBRANCH  24  25
ENDBRANCH  23  24
ENDBRANCH   1  23
TORSDOF 15
ENDMDL
MODEL 3
REMARK VINA RESULT:     -11.6      4.699      9.633
REMARK SMILES Cc1nc(C[NH2+][C@@H](C(=O)OCCOC(=O)c2ccc(-c3c4nc(c(-c5c(F)c(F)c(F)c(F)c5F)c5ccc([nH]5)c(-c5c(F)c(F)c(F)c(F)c5F)c5nc(c(-c6c(F)c(F)c(F)c(F)c6F)c6ccc3[nH]6)C=C5)C=C4)cc2)c2ccccc2)sc1C
REMARK SMILES IDX 11 1 10 2 8 3 9 4 7 5 6 6 5 9 4 10 1 11 2 12 3 13 86 14
REMARK SMILES IDX 85 15 87 16 79 17 80 18 84 19 81 20 83 21 82 22 12 23 13 24
REMARK SMILES IDX 14 25 15 26 16 27 17 28 78 29 18 30 77 31 19 32 20 33 21 34
REMARK SMILES IDX 71 35 22 36 76 37 70 38 72 39 23 40 75 41 69 42 68 43 24 45
REMARK SMILES IDX 56 46 36 47 55 48 37 49 40 50 54 51 73 52 38 53 39 54 53 56
REMARK SMILES IDX 74 57 41 58 25 59 26 60 34 61 27 62 28 63 32 64 35 65 29 66
REMARK SMILES IDX 30 67 33 68 31 69 57 70 58 71 66 72 59 73 60 74 64 75 67 76
REMARK SMILES IDX 61 77 62 78 65 79 63 80 42 81 43 82 51 83 44 84 45 85 49 86
REMARK SMILES IDX 52 87 46 88 47 89 50 90 48 91
REMARK H PARENT 6 7 6 8 72 44 40 55
REMARK Flexibility Score: inf
ROOT
ATOM      1  C   UNL A   1      36.105  21.557  25.518  1.00  0.00     0.274 C 
ENDROOT
BRANCH   1   2
ATOM      2  O   UNL A   1      36.164  22.844  24.871  1.00  0.00    -0.457 OA
BRANCH   2   3
ATOM      3  C   UNL A   1      35.102  23.202  24.089  1.00  0.00     0.369 C 
ATOM      4  O   UNL A   1      35.099  23.109  22.865  1.00  0.00    -0.245 OA
BRANCH   3   5
ATOM      5  C   UNL A   1      33.921  23.779  24.920  1.00  0.00     0.325 C 
BRANCH   5   6
ATOM      6  N   UNL A   1      32.646  23.075  24.661  1.00  0.00    -0.325 N 
ATOM      7  H   UNL A   1      31.887  23.755  24.702  1.00  0.00     0.347 HD
ATOM      8  H   UNL A   1      32.722  22.640  23.741  1.00  0.00     0.347 HD
BRANCH   6   9
ATOM      9  C   UNL A   1      32.369  22.010  25.626  1.00  0.00     0.330 C 
BRANCH   9  10
ATOM     10  C   UNL A   1      32.418  20.662  24.959  1.00  0.00     0.148 A 
ATOM     11  C   UNL A   1      32.539  17.088  25.300  1.00  0.00     0.068 C 
ATOM     12  C   UNL A   1      32.495  18.457  24.726  1.00  0.00     0.052 A 
ATOM     13  N   UNL A   1      32.511  19.520  25.611  1.00  0.00    -0.240 NA
ATOM     14  C   UNL A   1      32.432  18.816  23.390  1.00  0.00     0.025 A 
ATOM     15  S   UNL A   1      32.354  20.524  23.249  1.00  0.00    -0.118 S 
ATOM     16  C   UNL A   1      32.415  17.947  22.183  1.00  0.00     0.058 C 
ENDBRANCH   9  10
ENDBRANCH   6   9
ENDBRANCH   5   6
BRANCH   5  17
ATOM     17  C   UNL A   1      33.769  25.293  24.733  1.00  0.00     0.021 A 
ATOM     18  C   UNL A   1      33.475  25.879  23.488  1.00  0.00     0.010 A 
ATOM     19  C   UNL A   1      33.912  26.147  25.842  1.00  0.00     0.010 A 
ATOM     20  C   UNL A   1      33.327  27.263  23.359  1.00  0.00     0.001 A 
ATOM     21  C   UNL A   1      33.771  27.532  25.711  1.00  0.00     0.001 A 
ATOM     22  C   UNL A   1      33.475  28.090  24.470  1.00  0.00     0.000 A 
ENDBRANCH   5  17
ENDBRANCH   3   5
ENDBRANCH   2   3
ENDBRANCH   1   2
BRANCH   1  23
ATOM     23  C   UNL A   1      37.253  20.675  25.035  1.00  0.00     0.275 C 
BRANCH  23  24
ATOM     24  O   UNL A   1      38.475  21.435  25.027  1.00  0.00    -0.458 OA
BRANCH  24  25
ATOM     25  C   UNL A   1      39.357  21.116  26.000  1.00  0.00     0.338 C 
ATOM     26  O   UNL A   1      39.879  20.036  26.213  1.00  0.00    -0.246 OA
BRANCH  25  27
ATOM     27  C   UNL A   1      39.702  22.329  26.753  1.00  0.00     0.060 A 
ATOM     28  C   UNL A   1      39.037  23.508  26.435  1.00  0.00     0.016 A 
ATOM     29  C   UNL A   1      40.786  22.343  27.630  1.00  0.00     0.016 A 
ATOM     30  C   UNL A   1      39.530  24.723  26.899  1.00  0.00     0.010 A 
ATOM     31  C   UNL A   1      41.228  23.564  28.160  1.00  0.00     0.010 A 
ATOM     32  C   UNL A   1      40.645  24.776  27.748  1.00  0.00    -0.014 A 
BRANCH  32  33
ATOM     33  C   UNL A   1      41.262  26.097  28.078  1.00  0.00     0.031 A 
ATOM     34  C   UNL A   1      42.624  26.453  27.534  1.00  0.00     0.074 A 
ATOM     35  C   UNL A   1      40.580  27.032  28.771  1.00  0.00     0.049 A 
ATOM     36  N   UNL A   1      43.384  27.486  27.809  1.00  0.00    -0.248 NA
ATOM     37  C   UNL A   1      43.219  25.521  26.564  1.00  0.00     0.031 C 
ATOM     38  C   UNL A   1      39.226  26.880  29.302  1.00  0.00     0.029 A 
ATOM     39  N   UNL A   1      40.919  28.324  29.099  1.00  0.00    -0.354 N 
ATOM     40  C   UNL A   1      44.573  27.277  27.122  1.00  0.00     0.074 A 
ATOM     41  C   UNL A   1      44.428  26.036  26.392  1.00  0.00     0.031 C 
ATOM     42  C   UNL A   1      38.811  28.058  29.793  1.00  0.00     0.029 A 
ATOM     43  C   UNL A   1      39.898  29.027  29.690  1.00  0.00     0.049 A 
ATOM     44  H   UNL A   1      41.809  28.709  28.926  1.00  0.00     0.167 HD
ATOM     45  C   UNL A   1      45.691  28.044  27.110  1.00  0.00     0.037 A 
ATOM     46  C   UNL A   1      39.842  30.307  30.105  1.00  0.00     0.037 A 
ATOM     47  C   UNL A   1      45.807  29.330  27.746  1.00  0.00     0.049 A 
ATOM     48  C   UNL A   1      41.067  31.173  30.016  1.00  0.00     0.074 A 
ATOM     49  C   UNL A   1      46.914  30.158  27.838  1.00  0.00     0.029 A 
ATOM     50  N   UNL A   1      44.756  30.000  28.352  1.00  0.00    -0.354 N 
ATOM     51  N   UNL A   1      42.243  30.894  29.512  1.00  0.00    -0.248 NA
ATOM     52  C   UNL A   1      40.964  32.523  30.591  1.00  0.00     0.031 C 
ATOM     53  C   UNL A   1      46.529  31.333  28.495  1.00  0.00     0.029 A 
ATOM     54  C   UNL A   1      45.181  31.242  28.793  1.00  0.00     0.049 A 
ATOM     55  H   UNL A   1      43.844  29.646  28.454  1.00  0.00     0.167 HD
ATOM     56  C   UNL A   1      43.022  32.022  29.718  1.00  0.00     0.074 A 
ATOM     57  C   UNL A   1      42.176  33.008  30.360  1.00  0.00     0.031 C 
ATOM     58  C   UNL A   1      44.330  32.214  29.425  1.00  0.00     0.037 A 
BRANCH  45  59
ATOM     59  C   UNL A   1      46.899  27.489  26.420  1.00  0.00     0.064 A 
ATOM     60  C   UNL A   1      47.132  27.688  25.053  1.00  0.00     0.173 A 
ATOM     61  C   UNL A   1      47.853  26.769  27.155  1.00  0.00     0.173 A 
ATOM     62  F   UNL A   1      46.238  28.352  24.306  1.00  0.00    -0.203 F 
ATOM     63  C   UNL A   1      48.270  27.167  24.441  1.00  0.00     0.198 A 
ATOM     64  C   UNL A   1      49.000  26.269  26.545  1.00  0.00     0.198 A 
ATOM     65  F   UNL A   1      47.676  26.557  28.468  1.00  0.00    -0.203 F 
ATOM     66  F   UNL A   1      48.456  27.334  23.124  1.00  0.00    -0.200 F 
ATOM     67  C   UNL A   1      49.204  26.463  25.188  1.00  0.00     0.200 A 
ATOM     68  F   UNL A   1      49.905  25.597  27.270  1.00  0.00    -0.200 F 
ATOM     69  F   UNL A   1      50.300  25.966  24.597  1.00  0.00    -0.200 F 
ENDBRANCH  45  59
BRANCH  46  70
ATOM     70  C   UNL A   1      38.572  30.857  30.638  1.00  0.00     0.064 A 
ATOM     71  C   UNL A   1      38.318  30.842  32.017  1.00  0.00     0.173 A 
ATOM     72  C   UNL A   1      37.594  31.401  29.796  1.00  0.00     0.173 A 
ATOM     73  F   UNL A   1      39.214  30.304  32.857  1.00  0.00    -0.203 F 
ATOM     74  C   UNL A   1      37.127  31.348  32.534  1.00  0.00     0.198 A 
ATOM     75  C   UNL A   1      36.413  31.927  30.316  1.00  0.00     0.198 A 
ATOM     76  F   UNL A   1      37.791  31.433  28.471  1.00  0.00    -0.203 F 
ATOM     77  F   UNL A   1      36.893  31.292  33.851  1.00  0.00    -0.200 F 
ATOM     78  C   UNL A   1      36.179  31.895  31.683  1.00  0.00     0.200 A 
ATOM     79  F   UNL A   1      35.502  32.463  29.493  1.00  0.00    -0.200 F 
ATOM     80  F   UNL A   1      35.036  32.387  32.180  1.00  0.00    -0.200 F 
ENDBRANCH  46  70
BRANCH  58  81
ATOM     81  C   UNL A   1      44.924  33.538  29.791  1.00  0.00     0.064 A 
ATOM     82  C   UNL A   1      45.520  33.742  31.044  1.00  0.00     0.173 A 
ATOM     83  C   UNL A   1      44.916  34.603  28.880  1.00  0.00     0.173 A 
ATOM     84  F   UNL A   1      45.537  32.755  31.952  1.00  0.00    -0.203 F 
ATOM     85  C   UNL A   1      46.074  34.975  31.378  1.00  0.00     0.198 A 
ATOM     86  C   UNL A   1      45.483  35.830  29.212  1.00  0.00     0.198 A 
ATOM     87  F   UNL A   1      44.355  34.453  27.671  1.00  0.00    -0.203 F 
ATOM     88  F   UNL A   1      46.610  35.160  32.592  1.00  0.00    -0.200 F 
ATOM     89  C   UNL A   1      46.057  36.016  30.462  1.00  0.00     0.200 A 
ATOM     90  F   UNL A   1      45.468  36.837  28.327  1.00  0.00    -0.200 F 
ATOM     91  F   UNL A   1      46.586  37.203  30.787  1.00  0.00    -0.200 F 
ENDBRANCH  58  81
ENDBRANCH  32  33
ENDBRANCH  25  27
ENDBRANCH  24  25
ENDBRANCH  23  24
ENDBRANCH   1  23
TORSDOF 15
ENDMDL
