MODEL 1
REMARK VINA RESULT:     -11.5      0.000      0.000
REMARK SMILES NC(=O)CC[N@@H+]1[C@@H](C(=O)OCCOC(=O)c2ccc(-c3c4nc(c(-c5c(F)c(F)c(F)c(F)c5F)c5ccc([nH]5)c(-c5c(F)c(F)c(F)c(F)c5F)c5nc(c(-c6c(F)c(F)c(F)c(F)c6F)c6ccc3[nH]6)C=C5)C=C4)cc2)CC[C@@H]2CCCC[C@H]21
REMARK SMILES IDX 11 1 10 2 8 3 9 4 7 5 6 6 86 7 79 9 81 10 85 11 80 12 82 13
REMARK SMILES IDX 84 14 83 15 5 16 4 17 2 18 1 19 3 22 12 23 13 24 14 25 15 26
REMARK SMILES IDX 16 27 17 28 78 29 18 30 77 31 19 32 20 33 21 34 71 35 22 36
REMARK SMILES IDX 76 37 70 38 72 39 23 40 75 41 69 42 68 43 24 45 56 46 36 47
REMARK SMILES IDX 55 48 37 49 40 50 54 51 73 52 38 53 39 54 53 56 74 57 41 58
REMARK SMILES IDX 25 59 26 60 34 61 27 62 28 63 32 64 35 65 29 66 30 67 33 68
REMARK SMILES IDX 31 69 57 70 58 71 66 72 59 73 60 74 64 75 67 76 61 77 62 78
REMARK SMILES IDX 65 79 63 80 42 81 43 82 51 83 44 84 45 85 49 86 52 87 46 88
REMARK SMILES IDX 47 89 50 90 48 91
REMARK H PARENT 6 8 1 20 1 21 72 44 40 55
REMARK Flexibility Score: inf
ROOT
ATOM      1  C   UNL A   1      31.700  29.150  25.313  1.00  0.00     0.274 C 
ENDROOT
BRANCH   1   2
ATOM      2  O   UNL A   1      31.012  29.093  24.047  1.00  0.00    -0.458 OA
BRANCH   2   3
ATOM      3  C   UNL A   1      30.726  27.852  23.571  1.00  0.00     0.365 C 
ATOM      4  O   UNL A   1      30.239  27.636  22.462  1.00  0.00    -0.245 OA
BRANCH   3   5
ATOM      5  C   UNL A   1      31.117  26.713  24.538  1.00  0.00     0.295 C 
ATOM      6  N   UNL A   1      32.177  25.803  23.997  1.00  0.00    -0.320 N 
ATOM      7  C   UNL A   1      32.538  24.739  24.975  1.00  0.00     0.187 C 
ATOM      8  H   UNL A   1      31.780  25.340  23.178  1.00  0.00     0.349 HD
ATOM      9  C   UNL A   1      29.883  25.952  25.034  1.00  0.00     0.078 C 
ATOM     10  C   UNL A   1      31.308  24.001  25.573  1.00  0.00     0.048 C 
ATOM     11  C   UNL A   1      33.468  23.662  24.368  1.00  0.00     0.065 C 
ATOM     12  C   UNL A   1      30.278  24.978  26.129  1.00  0.00     0.016 C 
ATOM     13  C   UNL A   1      31.756  23.026  26.672  1.00  0.00     0.010 C 
ATOM     14  C   UNL A   1      33.911  22.641  25.417  1.00  0.00     0.006 C 
ATOM     15  C   UNL A   1      32.732  21.990  26.128  1.00  0.00     0.001 C 
BRANCH   6  16
ATOM     16  C   UNL A   1      33.378  26.552  23.520  1.00  0.00     0.273 C 
BRANCH  16  17
ATOM     17  C   UNL A   1      33.615  26.653  22.001  1.00  0.00     0.161 C 
BRANCH  17  18
ATOM     18  C   UNL A   1      32.903  25.565  21.231  1.00  0.00     0.223 C 
ATOM     19  N   UNL A   1      31.780  25.953  20.560  1.00  0.00    -0.369 N 
ATOM     20  H   UNL A   1      31.266  25.296  20.037  1.00  0.00     0.159 HD
ATOM     21  H   UNL A   1      31.483  26.891  20.599  1.00  0.00     0.159 HD
ATOM     22  O   UNL A   1      33.275  24.398  21.200  1.00  0.00    -0.275 OA
ENDBRANCH  17  18
ENDBRANCH  16  17
ENDBRANCH   6  16
ENDBRANCH   3   5
ENDBRANCH   2   3
ENDBRANCH   1   2
BRANCH   1  23
ATOM     23  C   UNL A   1      31.788  30.578  25.862  1.00  0.00     0.275 C 
BRANCH  23  24
ATOM     24  O   UNL A   1      32.515  30.638  27.105  1.00  0.00    -0.458 OA
BRANCH  24  25
ATOM     25  C   UNL A   1      33.270  31.747  27.275  1.00  0.00     0.338 C 
ATOM     26  O   UNL A   1      32.934  32.906  27.102  1.00  0.00    -0.246 OA
BRANCH  25  27
ATOM     27  C   UNL A   1      34.568  31.391  27.869  1.00  0.00     0.060 A 
ATOM     28  C   UNL A   1      34.730  30.081  28.328  1.00  0.00     0.016 A 
ATOM     29  C   UNL A   1      35.571  32.338  28.070  1.00  0.00     0.016 A 
ATOM     30  C   UNL A   1      35.892  29.703  28.987  1.00  0.00     0.010 A 
ATOM     31  C   UNL A   1      36.739  31.962  28.744  1.00  0.00     0.010 A 
ATOM     32  C   UNL A   1      36.900  30.645  29.214  1.00  0.00    -0.014 A 
BRANCH  32  33
ATOM     33  C   UNL A   1      38.085  30.257  30.010  1.00  0.00     0.031 A 
ATOM     34  C   UNL A   1      39.102  29.325  29.422  1.00  0.00     0.074 A 
ATOM     35  C   UNL A   1      38.269  30.775  31.237  1.00  0.00     0.049 A 
ATOM     36  N   UNL A   1      40.166  28.801  29.976  1.00  0.00    -0.248 NA
ATOM     37  C   UNL A   1      38.896  28.932  28.019  1.00  0.00     0.031 C 
ATOM     38  C   UNL A   1      37.381  31.739  31.886  1.00  0.00     0.029 A 
ATOM     39  N   UNL A   1      39.262  30.558  32.158  1.00  0.00    -0.354 N 
ATOM     40  C   UNL A   1      40.742  27.999  29.001  1.00  0.00     0.074 A 
ATOM     41  C   UNL A   1      39.909  28.102  27.821  1.00  0.00     0.031 C 
ATOM     42  C   UNL A   1      37.866  32.025  33.105  1.00  0.00     0.029 A 
ATOM     43  C   UNL A   1      39.070  31.230  33.338  1.00  0.00     0.049 A 
ATOM     44  H   UNL A   1      40.038  29.977  31.987  1.00  0.00     0.167 HD
ATOM     45  C   UNL A   1      41.863  27.245  29.088  1.00  0.00     0.037 A 
ATOM     46  C   UNL A   1      39.768  31.182  34.488  1.00  0.00     0.037 A 
ATOM     47  C   UNL A   1      42.695  27.161  30.259  1.00  0.00     0.049 A 
ATOM     48  C   UNL A   1      40.977  30.292  34.579  1.00  0.00     0.074 A 
ATOM     49  C   UNL A   1      43.858  26.435  30.442  1.00  0.00     0.029 A 
ATOM     50  N   UNL A   1      42.450  27.829  31.450  1.00  0.00    -0.354 N 
ATOM     51  N   UNL A   1      41.507  29.523  33.659  1.00  0.00    -0.248 NA
ATOM     52  C   UNL A   1      41.679  30.256  35.869  1.00  0.00     0.031 C 
ATOM     53  C   UNL A   1      44.296  26.634  31.756  1.00  0.00     0.029 A 
ATOM     54  C   UNL A   1      43.428  27.516  32.379  1.00  0.00     0.049 A 
ATOM     55  H   UNL A   1      41.691  28.436  31.611  1.00  0.00     0.167 HD
ATOM     56  C   UNL A   1      42.610  28.923  34.251  1.00  0.00     0.074 A 
ATOM     57  C   UNL A   1      42.682  29.430  35.607  1.00  0.00     0.031 C 
ATOM     58  C   UNL A   1      43.483  28.032  33.722  1.00  0.00     0.037 A 
BRANCH  45  59
ATOM     59  C   UNL A   1      42.232  26.419  27.894  1.00  0.00     0.064 A 
ATOM     60  C   UNL A   1      43.183  26.856  26.960  1.00  0.00     0.173 A 
ATOM     61  C   UNL A   1      41.647  25.160  27.698  1.00  0.00     0.173 A 
ATOM     62  F   UNL A   1      43.758  28.061  27.095  1.00  0.00    -0.203 F 
ATOM     63  C   UNL A   1      43.517  26.070  25.860  1.00  0.00     0.198 A 
ATOM     64  C   UNL A   1      42.000  24.367  26.610  1.00  0.00     0.198 A 
ATOM     65  F   UNL A   1      40.733  24.698  28.565  1.00  0.00    -0.203 F 
ATOM     66  F   UNL A   1      44.399  26.522  24.958  1.00  0.00    -0.200 F 
ATOM     67  C   UNL A   1      42.930  24.824  25.689  1.00  0.00     0.200 A 
ATOM     68  F   UNL A   1      41.437  23.162  26.450  1.00  0.00    -0.200 F 
ATOM     69  F   UNL A   1      43.257  24.068  24.633  1.00  0.00    -0.200 F 
ENDBRANCH  45  59
BRANCH  46  70
ATOM     70  C   UNL A   1      39.317  31.979  35.657  1.00  0.00     0.064 A 
ATOM     71  C   UNL A   1      39.794  33.277  35.875  1.00  0.00     0.173 A 
ATOM     72  C   UNL A   1      38.399  31.455  36.579  1.00  0.00     0.173 A 
ATOM     73  F   UNL A   1      40.694  33.809  35.035  1.00  0.00    -0.203 F 
ATOM     74  C   UNL A   1      39.375  34.020  36.978  1.00  0.00     0.198 A 
ATOM     75  C   UNL A   1      37.961  32.207  37.666  1.00  0.00     0.198 A 
ATOM     76  F   UNL A   1      37.916  30.214  36.414  1.00  0.00    -0.203 F 
ATOM     77  F   UNL A   1      39.875  35.247  37.185  1.00  0.00    -0.200 F 
ATOM     78  C   UNL A   1      38.455  33.488  37.868  1.00  0.00     0.200 A 
ATOM     79  F   UNL A   1      37.066  31.692  38.518  1.00  0.00    -0.200 F 
ATOM     80  F   UNL A   1      38.049  34.205  38.925  1.00  0.00    -0.200 F 
ENDBRANCH  46  70
BRANCH  58  81
ATOM     81  C   UNL A   1      44.602  27.565  34.603  1.00  0.00     0.064 A 
ATOM     82  C   UNL A   1      45.812  28.269  34.684  1.00  0.00     0.173 A 
ATOM     83  C   UNL A   1      44.448  26.424  35.404  1.00  0.00     0.173 A 
ATOM     84  F   UNL A   1      46.011  29.357  33.926  1.00  0.00    -0.203 F 
ATOM     85  C   UNL A   1      46.835  27.836  35.522  1.00  0.00     0.198 A 
ATOM     86  C   UNL A   1      45.464  26.007  36.258  1.00  0.00     0.198 A 
ATOM     87  F   UNL A   1      43.307  25.720  35.365  1.00  0.00    -0.203 F 
ATOM     88  F   UNL A   1      47.998  28.501  35.556  1.00  0.00    -0.200 F 
ATOM     89  C   UNL A   1      46.659  26.710  36.313  1.00  0.00     0.200 A 
ATOM     90  F   UNL A   1      45.289  24.924  37.028  1.00  0.00    -0.200 F 
ATOM     91  F   UNL A   1      47.644  26.297  37.122  1.00  0.00    -0.200 F 
ENDBRANCH  58  81
ENDBRANCH  32  33
ENDBRANCH  25  27
ENDBRANCH  24  25
ENDBRANCH  23  24
ENDBRANCH   1  23
TORSDOF 14
ENDMDL
MODEL 2
REMARK VINA RESULT:     -11.4      5.221      9.131
REMARK SMILES NC(=O)CC[N@@H+]1[C@@H](C(=O)OCCOC(=O)c2ccc(-c3c4nc(c(-c5c(F)c(F)c(F)c(F)c5F)c5ccc([nH]5)c(-c5c(F)c(F)c(F)c(F)c5F)c5nc(c(-c6c(F)c(F)c(F)c(F)c6F)c6ccc3[nH]6)C=C5)C=C4)cc2)CC[C@@H]2CCCC[C@H]21
REMARK SMILES IDX 11 1 10 2 8 3 9 4 7 5 6 6 86 7 79 9 81 10 85 11 80 12 82 13
REMARK SMILES IDX 84 14 83 15 5 16 4 17 2 18 1 19 3 22 12 23 13 24 14 25 15 26
REMARK SMILES IDX 16 27 17 28 78 29 18 30 77 31 19 32 20 33 21 34 71 35 22 36
REMARK SMILES IDX 76 37 70 38 72 39 23 40 75 41 69 42 68 43 24 45 56 46 36 47
REMARK SMILES IDX 55 48 37 49 40 50 54 51 73 52 38 53 39 54 53 56 74 57 41 58
REMARK SMILES IDX 25 59 26 60 34 61 27 62 28 63 32 64 35 65 29 66 30 67 33 68
REMARK SMILES IDX 31 69 57 70 58 71 66 72 59 73 60 74 64 75 67 76 61 77 62 78
REMARK SMILES IDX 65 79 63 80 42 81 43 82 51 83 44 84 45 85 49 86 52 87 46 88
REMARK SMILES IDX 47 89 50 90 48 91
REMARK H PARENT 6 8 1 20 1 21 72 44 40 55
REMARK Flexibility Score: inf
ROOT
ATOM      1  C   UNL A   1      39.984  20.141  25.955  1.00  0.00     0.274 C 
ENDROOT
BRANCH   1   2
ATOM      2  O   UNL A   1      40.462  20.032  27.310  1.00  0.00    -0.458 OA
BRANCH   2   3
ATOM      3  C   UNL A   1      41.811  20.058  27.479  1.00  0.00     0.365 C 
ATOM      4  O   UNL A   1      42.480  19.084  27.820  1.00  0.00    -0.245 OA
BRANCH   3   5
ATOM      5  C   UNL A   1      42.448  21.426  27.151  1.00  0.00     0.295 C 
ATOM      6  N   UNL A   1      43.771  21.322  26.456  1.00  0.00    -0.320 N 
ATOM      7  C   UNL A   1      44.331  22.665  26.139  1.00  0.00     0.187 C 
ATOM      8  H   UNL A   1      44.414  20.872  27.109  1.00  0.00     0.349 HD
ATOM      9  C   UNL A   1      42.501  22.329  28.389  1.00  0.00     0.078 C 
ATOM     10  C   UNL A   1      44.320  23.644  27.345  1.00  0.00     0.048 C 
ATOM     11  C   UNL A   1      45.786  22.596  25.617  1.00  0.00     0.065 C 
ATOM     12  C   UNL A   1      42.943  23.726  27.994  1.00  0.00     0.016 C 
ATOM     13  C   UNL A   1      44.777  25.042  26.900  1.00  0.00     0.010 C 
ATOM     14  C   UNL A   1      46.302  23.973  25.197  1.00  0.00     0.006 C 
ATOM     15  C   UNL A   1      46.183  25.003  26.313  1.00  0.00     0.001 C 
BRANCH   6  16
ATOM     16  C   UNL A   1      43.709  20.444  25.248  1.00  0.00     0.273 C 
BRANCH  16  17
ATOM     17  C   UNL A   1      44.608  19.194  25.213  1.00  0.00     0.161 C 
BRANCH  17  18
ATOM     18  C   UNL A   1      45.646  19.258  24.116  1.00  0.00     0.223 C 
ATOM     19  N   UNL A   1      45.216  18.894  22.873  1.00  0.00    -0.369 N 
ATOM     20  H   UNL A   1      45.838  18.912  22.112  1.00  0.00     0.159 HD
ATOM     21  H   UNL A   1      44.282  18.613  22.739  1.00  0.00     0.159 HD
ATOM     22  O   UNL A   1      46.809  19.597  24.298  1.00  0.00    -0.275 OA
ENDBRANCH  17  18
ENDBRANCH  16  17
ENDBRANCH   6  16
ENDBRANCH   3   5
ENDBRANCH   2   3
ENDBRANCH   1   2
BRANCH   1  23
ATOM     23  C   UNL A   1      38.984  21.290  25.782  1.00  0.00     0.275 C 
BRANCH  23  24
ATOM     24  O   UNL A   1      39.336  22.440  26.576  1.00  0.00    -0.458 OA
BRANCH  24  25
ATOM     25  C   UNL A   1      38.763  23.602  26.188  1.00  0.00     0.338 C 
ATOM     26  O   UNL A   1      37.800  23.745  25.455  1.00  0.00    -0.246 OA
BRANCH  25  27
ATOM     27  C   UNL A   1      39.370  24.732  26.909  1.00  0.00     0.060 A 
ATOM     28  C   UNL A   1      39.047  24.885  28.259  1.00  0.00     0.016 A 
ATOM     29  C   UNL A   1      40.156  25.683  26.259  1.00  0.00     0.016 A 
ATOM     30  C   UNL A   1      39.505  25.983  28.975  1.00  0.00     0.010 A 
ATOM     31  C   UNL A   1      40.610  26.797  26.975  1.00  0.00     0.010 A 
ATOM     32  C   UNL A   1      40.279  26.956  28.333  1.00  0.00    -0.014 A 
BRANCH  32  33
ATOM     33  C   UNL A   1      40.670  28.173  29.078  1.00  0.00     0.031 A 
ATOM     34  C   UNL A   1      42.072  28.310  29.593  1.00  0.00     0.074 A 
ATOM     35  C   UNL A   1      39.783  29.169  29.252  1.00  0.00     0.049 A 
ATOM     36  N   UNL A   1      42.596  29.255  30.331  1.00  0.00    -0.248 NA
ATOM     37  C   UNL A   1      43.013  27.242  29.222  1.00  0.00     0.031 C 
ATOM     38  C   UNL A   1      38.413  29.175  28.741  1.00  0.00     0.029 A 
ATOM     39  N   UNL A   1      39.904  30.366  29.910  1.00  0.00    -0.354 N 
ATOM     40  C   UNL A   1      43.917  28.884  30.536  1.00  0.00     0.074 A 
ATOM     41  C   UNL A   1      44.117  27.626  29.846  1.00  0.00     0.031 C 
ATOM     42  C   UNL A   1      37.815  30.318  29.112  1.00  0.00     0.029 A 
ATOM     43  C   UNL A   1      38.745  31.101  29.924  1.00  0.00     0.049 A 
ATOM     44  H   UNL A   1      40.740  30.669  30.331  1.00  0.00     0.167 HD
ATOM     45  C   UNL A   1      44.874  29.535  31.238  1.00  0.00     0.037 A 
ATOM     46  C   UNL A   1      38.457  32.257  30.551  1.00  0.00     0.037 A 
ATOM     47  C   UNL A   1      44.674  30.794  31.907  1.00  0.00     0.049 A 
ATOM     48  C   UNL A   1      39.521  32.933  31.373  1.00  0.00     0.074 A 
ATOM     49  C   UNL A   1      45.584  31.540  32.634  1.00  0.00     0.029 A 
ATOM     50  N   UNL A   1      43.476  31.492  31.929  1.00  0.00    -0.354 N 
ATOM     51  N   UNL A   1      40.764  32.568  31.576  1.00  0.00    -0.248 NA
ATOM     52  C   UNL A   1      39.139  34.174  32.060  1.00  0.00     0.031 C 
ATOM     53  C   UNL A   1      44.926  32.672  33.128  1.00  0.00     0.029 A 
ATOM     54  C   UNL A   1      43.617  32.651  32.675  1.00  0.00     0.049 A 
ATOM     55  H   UNL A   1      42.646  31.205  31.482  1.00  0.00     0.167 HD
ATOM     56  C   UNL A   1      41.316  33.539  32.400  1.00  0.00     0.074 A 
ATOM     57  C   UNL A   1      40.277  34.517  32.648  1.00  0.00     0.031 C 
ATOM     58  C   UNL A   1      42.570  33.612  32.908  1.00  0.00     0.037 A 
BRANCH  45  59
ATOM     59  C   UNL A   1      46.215  28.877  31.350  1.00  0.00     0.064 A 
ATOM     60  C   UNL A   1      47.243  29.133  30.431  1.00  0.00     0.173 A 
ATOM     61  C   UNL A   1      46.483  27.999  32.410  1.00  0.00     0.173 A 
ATOM     62  F   UNL A   1      47.029  29.952  29.391  1.00  0.00    -0.203 F 
ATOM     63  C   UNL A   1      48.485  28.516  30.558  1.00  0.00     0.198 A 
ATOM     64  C   UNL A   1      47.733  27.401  32.547  1.00  0.00     0.198 A 
ATOM     65  F   UNL A   1      45.533  27.723  33.317  1.00  0.00    -0.203 F 
ATOM     66  F   UNL A   1      49.441  28.744  29.647  1.00  0.00    -0.200 F 
ATOM     67  C   UNL A   1      48.731  27.655  31.619  1.00  0.00     0.200 A 
ATOM     68  F   UNL A   1      47.971  26.576  33.576  1.00  0.00    -0.200 F 
ATOM     69  F   UNL A   1      49.928  27.066  31.740  1.00  0.00    -0.200 F 
ENDBRANCH  45  59
BRANCH  46  70
ATOM     70  C   UNL A   1      37.092  32.830  30.450  1.00  0.00     0.064 A 
ATOM     71  C   UNL A   1      36.134  32.599  31.445  1.00  0.00     0.173 A 
ATOM     72  C   UNL A   1      36.718  33.621  29.353  1.00  0.00     0.173 A 
ATOM     73  F   UNL A   1      36.438  31.827  32.499  1.00  0.00    -0.203 F 
ATOM     74  C   UNL A   1      34.851  33.131  31.344  1.00  0.00     0.198 A 
ATOM     75  C   UNL A   1      35.443  34.173  29.265  1.00  0.00     0.198 A 
ATOM     76  F   UNL A   1      37.599  33.867  28.372  1.00  0.00    -0.203 F 
ATOM     77  F   UNL A   1      33.941  32.864  32.292  1.00  0.00    -0.200 F 
ATOM     78  C   UNL A   1      34.508  33.922  30.258  1.00  0.00     0.200 A 
ATOM     79  F   UNL A   1      35.119  34.943  28.219  1.00  0.00    -0.200 F 
ATOM     80  F   UNL A   1      33.274  34.437  30.164  1.00  0.00    -0.200 F 
ENDBRANCH  46  70
BRANCH  58  81
ATOM     81  C   UNL A   1      42.893  34.800  33.763  1.00  0.00     0.064 A 
ATOM     82  C   UNL A   1      42.797  34.745  35.162  1.00  0.00     0.173 A 
ATOM     83  C   UNL A   1      43.341  35.995  33.180  1.00  0.00     0.173 A 
ATOM     84  F   UNL A   1      42.359  33.628  35.763  1.00  0.00    -0.203 F 
ATOM     85  C   UNL A   1      43.120  35.849  35.944  1.00  0.00     0.198 A 
ATOM     86  C   UNL A   1      43.685  37.090  33.967  1.00  0.00     0.198 A 
ATOM     87  F   UNL A   1      43.454  36.096  31.848  1.00  0.00    -0.203 F 
ATOM     88  F   UNL A   1      42.984  35.787  37.276  1.00  0.00    -0.200 F 
ATOM     89  C   UNL A   1      43.569  37.018  35.348  1.00  0.00     0.200 A 
ATOM     90  F   UNL A   1      44.128  38.216  33.391  1.00  0.00    -0.200 F 
ATOM     91  F   UNL A   1      43.884  38.079  36.103  1.00  0.00    -0.200 F 
ENDBRANCH  58  81
ENDBRANCH  32  33
ENDBRANCH  25  27
ENDBRANCH  24  25
ENDBRANCH  23  24
ENDBRANCH   1  23
TORSDOF 14
ENDMDL
MODEL 3
REMARK VINA RESULT:     -11.4      0.966      2.020
REMARK SMILES NC(=O)CC[N@@H+]1[C@@H](C(=O)OCCOC(=O)c2ccc(-c3c4nc(c(-c5c(F)c(F)c(F)c(F)c5F)c5ccc([nH]5)c(-c5c(F)c(F)c(F)c(F)c5F)c5nc(c(-c6c(F)c(F)c(F)c(F)c6F)c6ccc3[nH]6)C=C5)C=C4)cc2)CC[C@@H]2CCCC[C@H]21
REMARK SMILES IDX 11 1 10 2 8 3 9 4 7 5 6 6 86 7 79 9 81 10 85 11 80 12 82 13
REMARK SMILES IDX 84 14 83 15 5 16 4 17 2 18 1 19 3 22 12 23 13 24 14 25 15 26
REMARK SMILES IDX 16 27 17 28 78 29 18 30 77 31 19 32 20 33 21 34 71 35 22 36
REMARK SMILES IDX 76 37 70 38 72 39 23 40 75 41 69 42 68 43 24 45 56 46 36 47
REMARK SMILES IDX 55 48 37 49 40 50 54 51 73 52 38 53 39 54 53 56 74 57 41 58
REMARK SMILES IDX 25 59 26 60 34 61 27 62 28 63 32 64 35 65 29 66 30 67 33 68
REMARK SMILES IDX 31 69 57 70 58 71 66 72 59 73 60 74 64 75 67 76 61 77 62 78
REMARK SMILES IDX 65 79 63 80 42 81 43 82 51 83 44 84 45 85 49 86 52 87 46 88
REMARK SMILES IDX 47 89 50 90 48 91
REMARK H PARENT 6 8 1 20 1 21 72 44 40 55
REMARK Flexibility Score: inf
ROOT
ATOM      1  C   UNL A   1      31.782  28.068  26.219  1.00  0.00     0.274 C 
ENDROOT
BRANCH   1   2
ATOM      2  O   UNL A   1      31.656  27.217  25.062  1.00  0.00    -0.458 OA
BRANCH   2   3
ATOM      3  C   UNL A   1      30.949  26.068  25.233  1.00  0.00     0.365 C 
ATOM      4  O   UNL A   1      29.721  26.004  25.190  1.00  0.00    -0.245 OA
BRANCH   3   5
ATOM      5  C   UNL A   1      31.835  24.820  25.439  1.00  0.00     0.295 C 
ATOM      6  N   UNL A   1      31.611  23.748  24.418  1.00  0.00    -0.320 N 
ATOM      7  C   UNL A   1      32.507  22.580  24.644  1.00  0.00     0.187 C 
ATOM      8  H   UNL A   1      30.652  23.422  24.536  1.00  0.00     0.349 HD
ATOM      9  C   UNL A   1      31.738  24.296  26.876  1.00  0.00     0.078 C 
ATOM     10  C   UNL A   1      32.507  22.072  26.112  1.00  0.00     0.048 C 
ATOM     11  C   UNL A   1      32.153  21.374  23.741  1.00  0.00     0.065 C 
ATOM     12  C   UNL A   1      32.765  23.202  27.101  1.00  0.00     0.016 C 
ATOM     13  C   UNL A   1      33.557  20.965  26.291  1.00  0.00     0.010 C 
ATOM     14  C   UNL A   1      33.150  20.227  23.913  1.00  0.00     0.006 C 
ATOM     15  C   UNL A   1      33.283  19.787  25.364  1.00  0.00     0.001 C 
BRANCH   6  16
ATOM     16  C   UNL A   1      31.714  24.267  23.020  1.00  0.00     0.273 C 
BRANCH  16  17
ATOM     17  C   UNL A   1      33.061  24.858  22.562  1.00  0.00     0.161 C 
BRANCH  17  18
ATOM     18  C   UNL A   1      32.892  25.970  21.552  1.00  0.00     0.223 C 
ATOM     19  N   UNL A   1      32.256  27.089  22.006  1.00  0.00    -0.369 N 
ATOM     20  H   UNL A   1      32.112  27.853  21.402  1.00  0.00     0.159 HD
ATOM     21  H   UNL A   1      31.942  27.133  22.938  1.00  0.00     0.159 HD
ATOM     22  O   UNL A   1      33.277  25.899  20.391  1.00  0.00    -0.275 OA
ENDBRANCH  17  18
ENDBRANCH  16  17
ENDBRANCH   6  16
ENDBRANCH   3   5
ENDBRANCH   2   3
ENDBRANCH   1   2
BRANCH   1  23
ATOM     23  C   UNL A   1      31.744  29.556  25.852  1.00  0.00     0.275 C 
BRANCH  23  24
ATOM     24  O   UNL A   1      33.057  30.149  25.848  1.00  0.00    -0.458 OA
BRANCH  24  25
ATOM     25  C   UNL A   1      33.279  31.057  26.825  1.00  0.00     0.338 C 
ATOM     26  O   UNL A   1      32.501  31.895  27.249  1.00  0.00    -0.246 OA
BRANCH  25  27
ATOM     27  C   UNL A   1      34.584  30.812  27.459  1.00  0.00     0.060 A 
ATOM     28  C   UNL A   1      34.875  29.504  27.853  1.00  0.00     0.016 A 
ATOM     29  C   UNL A   1      35.465  31.851  27.758  1.00  0.00     0.016 A 
ATOM     30  C   UNL A   1      36.045  29.218  28.543  1.00  0.00     0.010 A 
ATOM     31  C   UNL A   1      36.639  31.567  28.463  1.00  0.00     0.010 A 
ATOM     32  C   UNL A   1      36.930  30.251  28.867  1.00  0.00    -0.014 A 
BRANCH  32  33
ATOM     33  C   UNL A   1      38.118  29.949  29.696  1.00  0.00     0.031 A 
ATOM     34  C   UNL A   1      39.185  29.042  29.160  1.00  0.00     0.074 A 
ATOM     35  C   UNL A   1      38.259  30.525  30.903  1.00  0.00     0.049 A 
ATOM     36  N   UNL A   1      40.263  28.590  29.750  1.00  0.00    -0.248 NA
ATOM     37  C   UNL A   1      39.020  28.584  27.772  1.00  0.00     0.031 C 
ATOM     38  C   UNL A   1      37.319  31.473  31.499  1.00  0.00     0.029 A 
ATOM     39  N   UNL A   1      39.247  30.391  31.845  1.00  0.00    -0.354 N 
ATOM     40  C   UNL A   1      40.889  27.776  28.818  1.00  0.00     0.074 A 
ATOM     41  C   UNL A   1      40.072  27.793  27.622  1.00  0.00     0.031 C 
ATOM     42  C   UNL A   1      37.771  31.830  32.712  1.00  0.00     0.029 A 
ATOM     43  C   UNL A   1      39.006  31.101  32.994  1.00  0.00     0.049 A 
ATOM     44  H   UNL A   1      40.051  29.839  31.709  1.00  0.00     0.167 HD
ATOM     45  C   UNL A   1      42.042  27.078  28.951  1.00  0.00     0.037 A 
ATOM     46  C   UNL A   1      39.687  31.132  34.155  1.00  0.00     0.037 A 
ATOM     47  C   UNL A   1      42.858  27.080  30.136  1.00  0.00     0.049 A 
ATOM     48  C   UNL A   1      40.934  30.301  34.298  1.00  0.00     0.074 A 
ATOM     49  C   UNL A   1      44.050  26.415  30.365  1.00  0.00     0.029 A 
ATOM     50  N   UNL A   1      42.564  27.784  31.295  1.00  0.00    -0.354 N 
ATOM     51  N   UNL A   1      41.512  29.521  33.418  1.00  0.00    -0.248 NA
ATOM     52  C   UNL A   1      41.615  30.350  35.599  1.00  0.00     0.031 C 
ATOM     53  C   UNL A   1      44.458  26.687  31.676  1.00  0.00     0.029 A 
ATOM     54  C   UNL A   1      43.541  27.553  32.249  1.00  0.00     0.049 A 
ATOM     55  H   UNL A   1      41.776  28.361  31.420  1.00  0.00     0.167 HD
ATOM     56  C   UNL A   1      42.631  28.997  34.051  1.00  0.00     0.074 A 
ATOM     57  C   UNL A   1      42.659  29.560  35.385  1.00  0.00     0.031 C 
ATOM     58  C   UNL A   1      43.551  28.125  33.571  1.00  0.00     0.037 A 
BRANCH  45  59
ATOM     59  C   UNL A   1      42.467  26.222  27.797  1.00  0.00     0.064 A 
ATOM     60  C   UNL A   1      41.921  24.949  27.582  1.00  0.00     0.173 A 
ATOM     61  C   UNL A   1      43.414  26.697  26.878  1.00  0.00     0.173 A 
ATOM     62  F   UNL A   1      41.024  24.445  28.443  1.00  0.00    -0.203 F 
ATOM     63  C   UNL A   1      42.325  24.172  26.498  1.00  0.00     0.198 A 
ATOM     64  C   UNL A   1      43.800  25.927  25.784  1.00  0.00     0.198 A 
ATOM     65  F   UNL A   1      43.965  27.910  27.041  1.00  0.00    -0.203 F 
ATOM     66  F   UNL A   1      41.819  22.942  26.332  1.00  0.00    -0.200 F 
ATOM     67  C   UNL A   1      43.259  24.664  25.598  1.00  0.00     0.200 A 
ATOM     68  F   UNL A   1      44.697  26.406  24.912  1.00  0.00    -0.200 F 
ATOM     69  F   UNL A   1      43.643  23.917  24.555  1.00  0.00    -0.200 F 
ENDBRANCH  45  59
BRANCH  46  70
ATOM     70  C   UNL A   1      39.183  31.953  35.283  1.00  0.00     0.064 A 
ATOM     71  C   UNL A   1      38.421  31.383  36.311  1.00  0.00     0.173 A 
ATOM     72  C   UNL A   1      39.453  33.328  35.355  1.00  0.00     0.173 A 
ATOM     73  F   UNL A   1      38.115  30.078  36.271  1.00  0.00    -0.203 F 
ATOM     74  C   UNL A   1      37.942  32.159  37.364  1.00  0.00     0.198 A 
ATOM     75  C   UNL A   1      38.996  34.097  36.421  1.00  0.00     0.198 A 
ATOM     76  F   UNL A   1      40.175  33.921  34.392  1.00  0.00    -0.203 F 
ATOM     77  F   UNL A   1      37.184  31.596  38.316  1.00  0.00    -0.200 F 
ATOM     78  C   UNL A   1      38.235  33.513  37.423  1.00  0.00     0.200 A 
ATOM     79  F   UNL A   1      39.288  35.403  36.477  1.00  0.00    -0.200 F 
ATOM     80  F   UNL A   1      37.777  34.257  38.439  1.00  0.00    -0.200 F 
ENDBRANCH  46  70
BRANCH  58  81
ATOM     81  C   UNL A   1      44.676  27.746  34.486  1.00  0.00     0.064 A 
ATOM     82  C   UNL A   1      45.854  28.505  34.553  1.00  0.00     0.173 A 
ATOM     83  C   UNL A   1      44.560  26.634  35.333  1.00  0.00     0.173 A 
ATOM     84  F   UNL A   1      46.016  29.568  33.751  1.00  0.00    -0.203 F 
ATOM     85  C   UNL A   1      46.882  28.154  35.422  1.00  0.00     0.198 A 
ATOM     86  C   UNL A   1      45.581  26.299  36.218  1.00  0.00     0.198 A 
ATOM     87  F   UNL A   1      43.451  25.880  35.309  1.00  0.00    -0.203 F 
ATOM     88  F   UNL A   1      48.014  28.870  35.443  1.00  0.00    -0.200 F 
ATOM     89  C   UNL A   1      46.742  27.055  36.258  1.00  0.00     0.200 A 
ATOM     90  F   UNL A   1      45.441  25.243  37.031  1.00  0.00    -0.200 F 
ATOM     91  F   UNL A   1      47.732  26.721  37.097  1.00  0.00    -0.200 F 
ENDBRANCH  58  81
ENDBRANCH  32  33
ENDBRANCH  25  27
ENDBRANCH  24  25
ENDBRANCH  23  24
ENDBRANCH   1  23
TORSDOF 14
ENDMDL
