MODEL 1
REMARK VINA RESULT:     -12.4      0.000      0.000
REMARK SMILES O=C(C[C@H](C(=O)Nc1ccc([N+](=O)[O-])cc1)[C@H]1CCCO1)OCCOC(=O)c1ccc(-c2c3nc(c(-c4c(F)c(F)c(F)c(F)c4F)c4ccc([nH]4)c(-c4c(F)c(F)c(F)c(F)c4F)c4nc(c(-c5c(F)c(F)c(F)c(F)c5F)c5ccc2[nH]5)C=C4)C=C3)cc1
REMARK SMILES IDX 23 1 22 2 2 3 1 4 3 5 4 6 5 7 6 8 7 9 8 11 9 12 16 13 10 14
REMARK SMILES IDX 15 15 11 16 12 17 13 18 14 19 17 20 18 21 21 22 19 23 20 24
REMARK SMILES IDX 24 25 25 26 26 27 27 28 28 29 29 30 90 31 30 32 89 33 31 34
REMARK SMILES IDX 32 35 33 36 83 37 34 38 88 39 82 40 84 41 35 42 87 43 81 44
REMARK SMILES IDX 80 45 36 47 68 48 48 49 67 50 49 51 52 52 66 53 85 54 50 55
REMARK SMILES IDX 51 56 65 58 86 59 53 60 37 61 38 62 46 63 39 64 40 65 44 66
REMARK SMILES IDX 47 67 41 68 42 69 45 70 43 71 69 72 70 73 78 74 71 75 72 76
REMARK SMILES IDX 76 77 79 78 73 79 74 80 77 81 75 82 54 83 55 84 63 85 56 86
REMARK SMILES IDX 57 87 61 88 64 89 58 90 59 91 62 92 60 93
REMARK H PARENT 7 10 84 46 52 57
REMARK Flexibility Score: inf
ROOT
ATOM      1  C   UNL A   1      30.982  30.761  25.619  1.00  0.00     0.274 C 
ENDROOT
BRANCH   1   2
ATOM      2  O   UNL A   1      31.881  29.637  25.719  1.00  0.00    -0.462 OA
BRANCH   2   3
ATOM      3  C   UNL A   1      31.584  28.591  26.544  1.00  0.00     0.306 C 
ATOM      4  O   UNL A   1      31.822  28.635  27.747  1.00  0.00    -0.252 OA
BRANCH   3   5
ATOM      5  C   UNL A   1      31.192  27.301  25.854  1.00  0.00     0.139 C 
BRANCH   5   6
ATOM      6  C   UNL A   1      31.241  27.273  24.321  1.00  0.00     0.119 C 
BRANCH   6   7
ATOM      7  C   UNL A   1      29.947  26.706  23.718  1.00  0.00     0.230 C 
ATOM      8  O   UNL A   1      29.847  25.482  23.574  1.00  0.00    -0.274 OA
ATOM      9  N   UNL A   1      28.838  27.452  23.422  1.00  0.00    -0.326 N 
ATOM     10  H   UNL A   1      27.998  26.944  23.504  1.00  0.00     0.169 HD
BRANCH   9  11
ATOM     11  C   UNL A   1      28.640  28.784  23.028  1.00  0.00     0.041 A 
ATOM     12  C   UNL A   1      29.633  29.437  22.289  1.00  0.00     0.033 A 
ATOM     13  C   UNL A   1      27.561  29.533  23.473  1.00  0.00     0.033 A 
ATOM     14  C   UNL A   1      29.504  30.797  21.955  1.00  0.00     0.088 A 
ATOM     15  C   UNL A   1      27.415  30.887  23.160  1.00  0.00     0.088 A 
ATOM     16  C   UNL A   1      28.388  31.519  22.394  1.00  0.00     0.269 A 
BRANCH  16  17
ATOM     17  N   UNL A   1      28.249  32.949  22.094  1.00  0.00     0.062 N 
ATOM     18  O   UNL A   1      28.728  33.755  22.901  1.00  0.00    -0.258 OA
ATOM     19  O   UNL A   1      27.656  33.260  21.052  1.00  0.00    -0.258 OA
ENDBRANCH  16  17
ENDBRANCH   9  11
ENDBRANCH   6   7
BRANCH   6  20
ATOM     20  C   UNL A   1      32.525  26.709  23.690  1.00  0.00     0.131 C 
ATOM     21  C   UNL A   1      32.811  27.139  22.257  1.00  0.00     0.035 C 
ATOM     22  O   UNL A   1      33.658  27.216  24.424  1.00  0.00    -0.377 OA
ATOM     23  C   UNL A   1      33.420  28.505  22.433  1.00  0.00     0.031 C 
ATOM     24  C   UNL A   1      34.195  28.356  23.728  1.00  0.00     0.160 C 
ENDBRANCH   6  20
ENDBRANCH   5   6
ENDBRANCH   3   5
ENDBRANCH   2   3
ENDBRANCH   1   2
BRANCH   1  25
ATOM     25  C   UNL A   1      31.432  31.959  26.460  1.00  0.00     0.275 C 
BRANCH  25  26
ATOM     26  O   UNL A   1      32.643  31.637  27.169  1.00  0.00    -0.458 OA
BRANCH  26  27
ATOM     27  C   UNL A   1      33.404  32.689  27.557  1.00  0.00     0.338 C 
ATOM     28  O   UNL A   1      33.066  33.843  27.664  1.00  0.00    -0.246 OA
BRANCH  27  29
ATOM     29  C   UNL A   1      34.707  32.157  28.031  1.00  0.00     0.060 A 
ATOM     30  C   UNL A   1      34.802  30.784  28.268  1.00  0.00     0.016 A 
ATOM     31  C   UNL A   1      35.825  32.978  28.210  1.00  0.00     0.016 A 
ATOM     32  C   UNL A   1      36.005  30.237  28.726  1.00  0.00     0.010 A 
ATOM     33  C   UNL A   1      37.043  32.418  28.613  1.00  0.00     0.010 A 
ATOM     34  C   UNL A   1      37.130  31.051  28.929  1.00  0.00    -0.014 A 
BRANCH  34  35
ATOM     35  C   UNL A   1      38.329  30.508  29.630  1.00  0.00     0.031 A 
ATOM     36  C   UNL A   1      38.573  30.890  31.070  1.00  0.00     0.074 A 
ATOM     37  C   UNL A   1      39.184  29.663  29.022  1.00  0.00     0.049 A 
ATOM     38  N   UNL A   1      39.523  30.503  31.886  1.00  0.00    -0.248 NA
ATOM     39  C   UNL A   1      37.637  31.857  31.663  1.00  0.00     0.031 C 
ATOM     40  C   UNL A   1      39.107  29.228  27.630  1.00  0.00     0.029 A 
ATOM     41  N   UNL A   1      40.295  29.017  29.515  1.00  0.00    -0.354 N 
ATOM     42  C   UNL A   1      39.300  31.184  33.075  1.00  0.00     0.074 A 
ATOM     43  C   UNL A   1      38.171  32.060  32.857  1.00  0.00     0.031 C 
ATOM     44  C   UNL A   1      40.114  28.371  27.384  1.00  0.00     0.029 A 
ATOM     45  C   UNL A   1      40.916  28.205  28.597  1.00  0.00     0.049 A 
ATOM     46  H   UNL A   1      40.615  29.127  30.439  1.00  0.00     0.167 HD
ATOM     47  C   UNL A   1      39.947  31.071  34.261  1.00  0.00     0.037 A 
ATOM     48  C   UNL A   1      41.999  27.411  28.723  1.00  0.00     0.037 A 
ATOM     49  C   UNL A   1      41.043  30.177  34.513  1.00  0.00     0.049 A 
ATOM     50  C   UNL A   1      42.707  27.303  30.051  1.00  0.00     0.074 A 
ATOM     51  C   UNL A   1      41.711  29.947  35.703  1.00  0.00     0.029 A 
ATOM     52  N   UNL A   1      41.632  29.365  33.558  1.00  0.00    -0.354 N 
ATOM     53  N   UNL A   1      42.430  27.885  31.192  1.00  0.00    -0.248 NA
ATOM     54  C   UNL A   1      43.878  26.411  30.108  1.00  0.00     0.031 C 
ATOM     55  C   UNL A   1      42.734  29.024  35.459  1.00  0.00     0.029 A 
ATOM     56  C   UNL A   1      42.672  28.648  34.127  1.00  0.00     0.049 A 
ATOM     57  H   UNL A   1      41.354  29.305  32.615  1.00  0.00     0.167 HD
ATOM     58  C   UNL A   1      43.363  27.405  32.104  1.00  0.00     0.074 A 
ATOM     59  C   UNL A   1      44.211  26.477  31.390  1.00  0.00     0.031 C 
ATOM     60  C   UNL A   1      43.500  27.708  33.418  1.00  0.00     0.037 A 
BRANCH  47  61
ATOM     61  C   UNL A   1      39.466  31.933  35.390  1.00  0.00     0.064 A 
ATOM     62  C   UNL A   1      38.540  31.457  36.331  1.00  0.00     0.173 A 
ATOM     63  C   UNL A   1      39.952  33.238  35.547  1.00  0.00     0.173 A 
ATOM     64  F   UNL A   1      38.034  30.219  36.215  1.00  0.00    -0.203 F 
ATOM     65  C   UNL A   1      38.093  32.270  37.369  1.00  0.00     0.198 A 
ATOM     66  C   UNL A   1      39.526  34.038  36.604  1.00  0.00     0.198 A 
ATOM     67  F   UNL A   1      40.843  33.738  34.677  1.00  0.00    -0.203 F 
ATOM     68  F   UNL A   1      37.166  31.813  38.224  1.00  0.00    -0.200 F 
ATOM     69  C   UNL A   1      38.591  33.556  37.509  1.00  0.00     0.200 A 
ATOM     70  F   UNL A   1      40.016  35.277  36.745  1.00  0.00    -0.200 F 
ATOM     71  F   UNL A   1      38.161  34.336  38.510  1.00  0.00    -0.200 F 
ENDBRANCH  47  61
BRANCH  48  72
ATOM     72  C   UNL A   1      42.478  26.616  27.563  1.00  0.00     0.064 A 
ATOM     73  C   UNL A   1      42.000  25.318  27.333  1.00  0.00     0.173 A 
ATOM     74  C   UNL A   1      43.457  27.115  26.692  1.00  0.00     0.173 A 
ATOM     75  F   UNL A   1      41.088  24.785  28.160  1.00  0.00    -0.203 F 
ATOM     76  C   UNL A   1      42.501  24.539  26.293  1.00  0.00     0.198 A 
ATOM     77  C   UNL A   1      43.939  26.344  25.635  1.00  0.00     0.198 A 
ATOM     78  F   UNL A   1      43.955  28.346  26.876  1.00  0.00    -0.203 F 
ATOM     79  F   UNL A   1      42.070  23.280  26.132  1.00  0.00    -0.200 F 
ATOM     80  C   UNL A   1      43.467  25.054  25.442  1.00  0.00     0.200 A 
ATOM     81  F   UNL A   1      44.873  26.844  24.816  1.00  0.00    -0.200 F 
ATOM     82  F   UNL A   1      43.958  24.300  24.448  1.00  0.00    -0.200 F 
ENDBRANCH  48  72
BRANCH  60  83
ATOM     83  C   UNL A   1      44.578  27.005  34.193  1.00  0.00     0.064 A 
ATOM     84  C   UNL A   1      45.854  27.564  34.353  1.00  0.00     0.173 A 
ATOM     85  C   UNL A   1      44.308  25.788  34.838  1.00  0.00     0.173 A 
ATOM     86  F   UNL A   1      46.165  28.720  33.749  1.00  0.00    -0.203 F 
ATOM     87  C   UNL A   1      46.827  26.921  35.115  1.00  0.00     0.198 A 
ATOM     88  C   UNL A   1      45.275  25.162  35.621  1.00  0.00     0.198 A 
ATOM     89  F   UNL A   1      43.102  25.215  34.724  1.00  0.00    -0.203 F 
ATOM     90  F   UNL A   1      48.051  27.455  35.225  1.00  0.00    -0.200 F 
ATOM     91  C   UNL A   1      46.534  25.726  35.755  1.00  0.00     0.200 A 
ATOM     92  F   UNL A   1      44.985  24.014  36.250  1.00  0.00    -0.200 F 
ATOM     93  F   UNL A   1      47.468  25.115  36.498  1.00  0.00    -0.200 F 
ENDBRANCH  60  83
ENDBRANCH  34  35
ENDBRANCH  27  29
ENDBRANCH  26  27
ENDBRANCH  25  26
ENDBRANCH   1  25
TORSDOF 16
ENDMDL
MODEL 2
REMARK VINA RESULT:     -12.3      5.630     10.938
REMARK SMILES O=C(C[C@H](C(=O)Nc1ccc([N+](=O)[O-])cc1)[C@H]1CCCO1)OCCOC(=O)c1ccc(-c2c3nc(c(-c4c(F)c(F)c(F)c(F)c4F)c4ccc([nH]4)c(-c4c(F)c(F)c(F)c(F)c4F)c4nc(c(-c5c(F)c(F)c(F)c(F)c5F)c5ccc2[nH]5)C=C4)C=C3)cc1
REMARK SMILES IDX 23 1 22 2 2 3 1 4 3 5 4 6 5 7 6 8 7 9 8 11 9 12 16 13 10 14
REMARK SMILES IDX 15 15 11 16 12 17 13 18 14 19 17 20 18 21 21 22 19 23 20 24
REMARK SMILES IDX 24 25 25 26 26 27 27 28 28 29 29 30 90 31 30 32 89 33 31 34
REMARK SMILES IDX 32 35 33 36 83 37 34 38 88 39 82 40 84 41 35 42 87 43 81 44
REMARK SMILES IDX 80 45 36 47 68 48 48 49 67 50 49 51 52 52 66 53 85 54 50 55
REMARK SMILES IDX 51 56 65 58 86 59 53 60 37 61 38 62 46 63 39 64 40 65 44 66
REMARK SMILES IDX 47 67 41 68 42 69 45 70 43 71 69 72 70 73 78 74 71 75 72 76
REMARK SMILES IDX 76 77 79 78 73 79 74 80 77 81 75 82 54 83 55 84 63 85 56 86
REMARK SMILES IDX 57 87 61 88 64 89 58 90 59 91 62 92 60 93
REMARK H PARENT 7 10 84 46 52 57
REMARK Flexibility Score: inf
ROOT
ATOM      1  C   UNL A   1      36.319  20.598  24.934  1.00  0.00     0.274 C 
ENDROOT
BRANCH   1   2
ATOM      2  O   UNL A   1      36.179  22.029  24.817  1.00  0.00    -0.462 OA
BRANCH   2   3
ATOM      3  C   UNL A   1      35.825  22.589  23.623  1.00  0.00     0.306 C 
ATOM      4  O   UNL A   1      36.657  22.821  22.751  1.00  0.00    -0.252 OA
BRANCH   3   5
ATOM      5  C   UNL A   1      34.414  23.133  23.546  1.00  0.00     0.139 C 
BRANCH   5   6
ATOM      6  C   UNL A   1      33.342  22.448  24.402  1.00  0.00     0.119 C 
BRANCH   6   7
ATOM      7  C   UNL A   1      32.208  21.869  23.543  1.00  0.00     0.230 C 
ATOM      8  O   UNL A   1      31.331  22.634  23.125  1.00  0.00    -0.274 OA
ATOM      9  N   UNL A   1      32.149  20.572  23.109  1.00  0.00    -0.326 N 
ATOM     10  H   UNL A   1      31.684  20.474  22.247  1.00  0.00     0.169 HD
BRANCH   9  11
ATOM     11  C   UNL A   1      32.609  19.352  23.628  1.00  0.00     0.041 A 
ATOM     12  C   UNL A   1      32.904  18.301  22.753  1.00  0.00     0.033 A 
ATOM     13  C   UNL A   1      32.641  19.093  24.990  1.00  0.00     0.033 A 
ATOM     14  C   UNL A   1      33.282  17.039  23.245  1.00  0.00     0.088 A 
ATOM     15  C   UNL A   1      33.007  17.846  25.503  1.00  0.00     0.088 A 
ATOM     16  C   UNL A   1      33.333  16.817  24.626  1.00  0.00     0.269 A 
BRANCH  16  17
ATOM     17  N   UNL A   1      33.686  15.499  25.166  1.00  0.00     0.062 N 
ATOM     18  O   UNL A   1      34.883  15.264  25.374  1.00  0.00    -0.258 OA
ATOM     19  O   UNL A   1      32.762  14.701  25.377  1.00  0.00    -0.258 OA
ENDBRANCH  16  17
ENDBRANCH   9  11
ENDBRANCH   6   7
BRANCH   6  20
ATOM     20  C   UNL A   1      32.857  23.225  25.638  1.00  0.00     0.131 C 
ATOM     21  C   UNL A   1      32.205  22.395  26.736  1.00  0.00     0.035 C 
ATOM     22  O   UNL A   1      34.002  23.807  26.293  1.00  0.00    -0.377 OA
ATOM     23  C   UNL A   1      33.389  21.831  27.476  1.00  0.00     0.031 C 
ATOM     24  C   UNL A   1      34.404  22.953  27.380  1.00  0.00     0.160 C 
ENDBRANCH   6  20
ENDBRANCH   5   6
ENDBRANCH   3   5
ENDBRANCH   2   3
ENDBRANCH   1   2
BRANCH   1  25
ATOM     25  C   UNL A   1      37.780  20.147  25.020  1.00  0.00     0.275 C 
BRANCH  25  26
ATOM     26  O   UNL A   1      38.624  21.270  25.336  1.00  0.00    -0.458 OA
BRANCH  26  27
ATOM     27  C   UNL A   1      39.642  21.026  26.198  1.00  0.00     0.338 C 
ATOM     28  O   UNL A   1      40.200  19.975  26.400  1.00  0.00    -0.246 OA
BRANCH  27  29
ATOM     29  C   UNL A   1      40.107  22.331  26.731  1.00  0.00     0.060 A 
ATOM     30  C   UNL A   1      39.438  23.483  26.312  1.00  0.00     0.016 A 
ATOM     31  C   UNL A   1      41.158  22.428  27.650  1.00  0.00     0.016 A 
ATOM     32  C   UNL A   1      39.846  24.736  26.777  1.00  0.00     0.010 A 
ATOM     33  C   UNL A   1      41.527  23.679  28.157  1.00  0.00     0.010 A 
ATOM     34  C   UNL A   1      40.911  24.851  27.684  1.00  0.00    -0.014 A 
BRANCH  34  35
ATOM     35  C   UNL A   1      41.487  26.190  27.995  1.00  0.00     0.031 A 
ATOM     36  C   UNL A   1      42.867  26.533  27.487  1.00  0.00     0.074 A 
ATOM     37  C   UNL A   1      40.798  27.114  28.693  1.00  0.00     0.049 A 
ATOM     38  N   UNL A   1      43.544  27.649  27.600  1.00  0.00    -0.248 NA
ATOM     39  C   UNL A   1      43.592  25.466  26.778  1.00  0.00     0.031 C 
ATOM     40  C   UNL A   1      39.475  26.926  29.281  1.00  0.00     0.029 A 
ATOM     41  N   UNL A   1      41.131  28.408  29.022  1.00  0.00    -0.354 N 
ATOM     42  C   UNL A   1      44.768  27.412  26.987  1.00  0.00     0.074 A 
ATOM     43  C   UNL A   1      44.770  26.030  26.566  1.00  0.00     0.031 C 
ATOM     44  C   UNL A   1      39.097  28.068  29.882  1.00  0.00     0.029 A 
ATOM     45  C   UNL A   1      40.156  29.067  29.733  1.00  0.00     0.049 A 
ATOM     46  H   UNL A   1      41.987  28.824  28.772  1.00  0.00     0.167 HD
ATOM     47  C   UNL A   1      45.790  28.271  26.756  1.00  0.00     0.037 A 
ATOM     48  C   UNL A   1      40.118  30.331  30.200  1.00  0.00     0.037 A 
ATOM     49  C   UNL A   1      45.792  29.659  27.128  1.00  0.00     0.049 A 
ATOM     50  C   UNL A   1      41.269  31.270  29.935  1.00  0.00     0.074 A 
ATOM     51  C   UNL A   1      46.756  30.619  26.870  1.00  0.00     0.029 A 
ATOM     52  N   UNL A   1      44.780  30.287  27.835  1.00  0.00    -0.354 N 
ATOM     53  N   UNL A   1      42.382  31.058  29.277  1.00  0.00    -0.248 NA
ATOM     54  C   UNL A   1      41.149  32.636  30.474  1.00  0.00     0.031 C 
ATOM     55  C   UNL A   1      46.346  31.820  27.459  1.00  0.00     0.029 A 
ATOM     56  C   UNL A   1      45.106  31.617  28.044  1.00  0.00     0.049 A 
ATOM     57  H   UNL A   1      43.952  29.852  28.145  1.00  0.00     0.167 HD
ATOM     58  C   UNL A   1      43.072  32.265  29.290  1.00  0.00     0.074 A 
ATOM     59  C   UNL A   1      42.252  33.210  30.015  1.00  0.00     0.031 C 
ATOM     60  C   UNL A   1      44.277  32.560  28.747  1.00  0.00     0.037 A 
BRANCH  47  61
ATOM     61  C   UNL A   1      46.995  27.730  26.046  1.00  0.00     0.064 A 
ATOM     62  C   UNL A   1      48.086  27.203  26.754  1.00  0.00     0.173 A 
ATOM     63  C   UNL A   1      47.050  27.716  24.645  1.00  0.00     0.173 A 
ATOM     64  F   UNL A   1      48.087  27.208  28.095  1.00  0.00    -0.203 F 
ATOM     65  C   UNL A   1      49.204  26.714  26.083  1.00  0.00     0.198 A 
ATOM     66  C   UNL A   1      48.156  27.198  23.978  1.00  0.00     0.198 A 
ATOM     67  F   UNL A   1      46.029  28.203  23.923  1.00  0.00    -0.203 F 
ATOM     68  F   UNL A   1      50.258  26.267  26.780  1.00  0.00    -0.200 F 
ATOM     69  C   UNL A   1      49.235  26.705  24.697  1.00  0.00     0.200 A 
ATOM     70  F   UNL A   1      48.180  27.179  22.638  1.00  0.00    -0.200 F 
ATOM     71  F   UNL A   1      50.310  26.231  24.053  1.00  0.00    -0.200 F 
ENDBRANCH  47  61
BRANCH  48  72
ATOM     72  C   UNL A   1      38.928  30.812  30.949  1.00  0.00     0.064 A 
ATOM     73  C   UNL A   1      38.864  30.703  32.346  1.00  0.00     0.173 A 
ATOM     74  C   UNL A   1      37.814  31.343  30.284  1.00  0.00     0.173 A 
ATOM     75  F   UNL A   1      39.892  30.170  33.023  1.00  0.00    -0.203 F 
ATOM     76  C   UNL A   1      37.721  31.082  33.046  1.00  0.00     0.198 A 
ATOM     77  C   UNL A   1      36.681  31.746  30.988  1.00  0.00     0.198 A 
ATOM     78  F   UNL A   1      37.822  31.457  28.948  1.00  0.00    -0.203 F 
ATOM     79  F   UNL A   1      37.664  30.912  34.374  1.00  0.00    -0.200 F 
ATOM     80  C   UNL A   1      36.632  31.607  32.367  1.00  0.00     0.200 A 
ATOM     81  F   UNL A   1      35.630  32.252  30.329  1.00  0.00    -0.200 F 
ATOM     82  F   UNL A   1      35.528  31.961  33.040  1.00  0.00    -0.200 F 
ENDBRANCH  48  72
BRANCH  60  83
ATOM     83  C   UNL A   1      44.778  33.971  28.871  1.00  0.00     0.064 A 
ATOM     84  C   UNL A   1      45.608  34.368  29.930  1.00  0.00     0.173 A 
ATOM     85  C   UNL A   1      44.476  34.920  27.882  1.00  0.00     0.173 A 
ATOM     86  F   UNL A   1      45.917  33.502  30.906  1.00  0.00    -0.203 F 
ATOM     87  C   UNL A   1      46.102  35.668  30.004  1.00  0.00     0.198 A 
ATOM     88  C   UNL A   1      44.995  36.211  27.945  1.00  0.00     0.198 A 
ATOM     89  F   UNL A   1      43.695  34.591  26.844  1.00  0.00    -0.203 F 
ATOM     90  F   UNL A   1      46.864  36.035  31.043  1.00  0.00    -0.200 F 
ATOM     91  C   UNL A   1      45.803  36.585  29.008  1.00  0.00     0.200 A 
ATOM     92  F   UNL A   1      44.716  37.092  26.974  1.00  0.00    -0.200 F 
ATOM     93  F   UNL A   1      46.290  37.833  29.075  1.00  0.00    -0.200 F 
ENDBRANCH  60  83
ENDBRANCH  34  35
ENDBRANCH  27  29
ENDBRANCH  26  27
ENDBRANCH  25  26
ENDBRANCH   1  25
TORSDOF 16
ENDMDL
MODEL 3
REMARK VINA RESULT:     -12.1      4.559      9.696
REMARK SMILES O=C(C[C@H](C(=O)Nc1ccc([N+](=O)[O-])cc1)[C@H]1CCCO1)OCCOC(=O)c1ccc(-c2c3nc(c(-c4c(F)c(F)c(F)c(F)c4F)c4ccc([nH]4)c(-c4c(F)c(F)c(F)c(F)c4F)c4nc(c(-c5c(F)c(F)c(F)c(F)c5F)c5ccc2[nH]5)C=C4)C=C3)cc1
REMARK SMILES IDX 23 1 22 2 2 3 1 4 3 5 4 6 5 7 6 8 7 9 8 11 9 12 16 13 10 14
REMARK SMILES IDX 15 15 11 16 12 17 13 18 14 19 17 20 18 21 21 22 19 23 20 24
REMARK SMILES IDX 24 25 25 26 26 27 27 28 28 29 29 30 90 31 30 32 89 33 31 34
REMARK SMILES IDX 32 35 33 36 83 37 34 38 88 39 82 40 84 41 35 42 87 43 81 44
REMARK SMILES IDX 80 45 36 47 68 48 48 49 67 50 49 51 52 52 66 53 85 54 50 55
REMARK SMILES IDX 51 56 65 58 86 59 53 60 37 61 38 62 46 63 39 64 40 65 44 66
REMARK SMILES IDX 47 67 41 68 42 69 45 70 43 71 69 72 70 73 78 74 71 75 72 76
REMARK SMILES IDX 76 77 79 78 73 79 74 80 77 81 75 82 54 83 55 84 63 85 56 86
REMARK SMILES IDX 57 87 61 88 64 89 58 90 59 91 62 92 60 93
REMARK H PARENT 7 10 84 46 52 57
REMARK Flexibility Score: inf
ROOT
ATOM      1  C   UNL A   1      35.883  20.710  25.183  1.00  0.00     0.274 C 
ENDROOT
BRANCH   1   2
ATOM      2  O   UNL A   1      35.768  22.028  25.759  1.00  0.00    -0.462 OA
BRANCH   2   3
ATOM      3  C   UNL A   1      34.732  22.323  26.597  1.00  0.00     0.306 C 
ATOM      4  O   UNL A   1      34.147  21.448  27.228  1.00  0.00    -0.252 OA
BRANCH   3   5
ATOM      5  C   UNL A   1      34.192  23.735  26.501  1.00  0.00     0.139 C 
BRANCH   5   6
ATOM      6  C   UNL A   1      32.944  23.961  25.639  1.00  0.00     0.119 C 
BRANCH   6   7
ATOM      7  C   UNL A   1      31.692  24.204  26.495  1.00  0.00     0.230 C 
ATOM      8  O   UNL A   1      31.359  23.340  27.315  1.00  0.00    -0.274 OA
ATOM      9  N   UNL A   1      30.967  25.365  26.498  1.00  0.00    -0.326 N 
ATOM     10  H   UNL A   1      30.538  25.550  27.364  1.00  0.00     0.169 HD
BRANCH   9  11
ATOM     11  C   UNL A   1      30.706  26.349  25.532  1.00  0.00     0.041 A 
ATOM     12  C   UNL A   1      31.429  27.546  25.558  1.00  0.00     0.033 A 
ATOM     13  C   UNL A   1      29.649  26.246  24.640  1.00  0.00     0.033 A 
ATOM     14  C   UNL A   1      31.131  28.587  24.661  1.00  0.00     0.088 A 
ATOM     15  C   UNL A   1      29.329  27.269  23.744  1.00  0.00     0.088 A 
ATOM     16  C   UNL A   1      30.076  28.441  23.752  1.00  0.00     0.269 A 
BRANCH  16  17
ATOM     17  N   UNL A   1      29.718  29.527  22.832  1.00  0.00     0.062 N 
ATOM     18  O   UNL A   1      29.527  30.650  23.314  1.00  0.00    -0.258 OA
ATOM     19  O   UNL A   1      29.624  29.249  21.628  1.00  0.00    -0.258 OA
ENDBRANCH  16  17
ENDBRANCH   9  11
ENDBRANCH   6   7
BRANCH   6  20
ATOM     20  C   UNL A   1      32.728  22.974  24.479  1.00  0.00     0.131 C 
ATOM     21  C   UNL A   1      31.451  23.161  23.670  1.00  0.00     0.035 C 
ATOM     22  O   UNL A   1      33.773  23.172  23.506  1.00  0.00    -0.377 OA
ATOM     23  C   UNL A   1      31.812  24.283  22.732  1.00  0.00     0.031 C 
ATOM     24  C   UNL A   1      33.279  24.022  22.455  1.00  0.00     0.160 C 
ENDBRANCH   6  20
ENDBRANCH   5   6
ENDBRANCH   3   5
ENDBRANCH   2   3
ENDBRANCH   1   2
BRANCH   1  25
ATOM     25  C   UNL A   1      37.337  20.269  24.993  1.00  0.00     0.275 C 
BRANCH  25  26
ATOM     26  O   UNL A   1      38.225  21.370  25.259  1.00  0.00    -0.458 OA
BRANCH  26  27
ATOM     27  C   UNL A   1      39.300  21.094  26.038  1.00  0.00     0.338 C 
ATOM     28  O   UNL A   1      39.872  20.038  26.156  1.00  0.00    -0.246 OA
BRANCH  27  29
ATOM     29  C   UNL A   1      39.800  22.377  26.593  1.00  0.00     0.060 A 
ATOM     30  C   UNL A   1      39.162  23.553  26.193  1.00  0.00     0.016 A 
ATOM     31  C   UNL A   1      40.852  22.430  27.514  1.00  0.00     0.016 A 
ATOM     32  C   UNL A   1      39.603  24.787  26.679  1.00  0.00     0.010 A 
ATOM     33  C   UNL A   1      41.254  23.662  28.042  1.00  0.00     0.010 A 
ATOM     34  C   UNL A   1      40.670  24.858  27.588  1.00  0.00    -0.014 A 
BRANCH  34  35
ATOM     35  C   UNL A   1      41.282  26.176  27.922  1.00  0.00     0.031 A 
ATOM     36  C   UNL A   1      42.683  26.477  27.448  1.00  0.00     0.074 A 
ATOM     37  C   UNL A   1      40.607  27.117  28.611  1.00  0.00     0.049 A 
ATOM     38  N   UNL A   1      43.394  27.570  27.584  1.00  0.00    -0.248 NA
ATOM     39  C   UNL A   1      43.390  25.392  26.748  1.00  0.00     0.031 C 
ATOM     40  C   UNL A   1      39.265  26.968  29.167  1.00  0.00     0.029 A 
ATOM     41  N   UNL A   1      40.974  28.398  28.956  1.00  0.00    -0.354 N 
ATOM     42  C   UNL A   1      44.623  27.298  26.998  1.00  0.00     0.074 A 
ATOM     43  C   UNL A   1      44.590  25.918  26.568  1.00  0.00     0.031 C 
ATOM     44  C   UNL A   1      38.910  28.119  29.767  1.00  0.00     0.029 A 
ATOM     45  C   UNL A   1      40.004  29.083  29.649  1.00  0.00     0.049 A 
ATOM     46  H   UNL A   1      41.848  28.787  28.729  1.00  0.00     0.167 HD
ATOM     47  C   UNL A   1      45.677  28.124  26.797  1.00  0.00     0.037 A 
ATOM     48  C   UNL A   1      39.996  30.345  30.124  1.00  0.00     0.037 A 
ATOM     49  C   UNL A   1      45.715  29.509  27.178  1.00  0.00     0.049 A 
ATOM     50  C   UNL A   1      41.183  31.248  29.892  1.00  0.00     0.074 A 
ATOM     51  C   UNL A   1      46.715  30.439  26.949  1.00  0.00     0.029 A 
ATOM     52  N   UNL A   1      44.708  30.165  27.867  1.00  0.00    -0.354 N 
ATOM     53  N   UNL A   1      42.303  31.005  29.258  1.00  0.00    -0.248 NA
ATOM     54  C   UNL A   1      41.094  32.614  30.438  1.00  0.00     0.031 C 
ATOM     55  C   UNL A   1      46.331  31.649  27.537  1.00  0.00     0.029 A 
ATOM     56  C   UNL A   1      45.072  31.482  28.092  1.00  0.00     0.049 A 
ATOM     57  H   UNL A   1      43.859  29.756  28.154  1.00  0.00     0.167 HD
ATOM     58  C   UNL A   1      43.031  32.188  29.296  1.00  0.00     0.074 A 
ATOM     59  C   UNL A   1      42.226  33.155  30.009  1.00  0.00     0.031 C 
ATOM     60  C   UNL A   1      44.258  32.448  28.783  1.00  0.00     0.037 A 
BRANCH  47  61
ATOM     61  C   UNL A   1      46.880  27.549  26.111  1.00  0.00     0.064 A 
ATOM     62  C   UNL A   1      47.036  27.627  24.719  1.00  0.00     0.173 A 
ATOM     63  C   UNL A   1      47.898  26.934  26.854  1.00  0.00     0.173 A 
ATOM     64  F   UNL A   1      46.082  28.192  23.963  1.00  0.00    -0.203 F 
ATOM     65  C   UNL A   1      48.152  27.079  24.092  1.00  0.00     0.198 A 
ATOM     66  C   UNL A   1      49.027  26.415  26.227  1.00  0.00     0.198 A 
ATOM     67  F   UNL A   1      47.799  26.840  28.189  1.00  0.00    -0.203 F 
ATOM     68  F   UNL A   1      48.253  27.115  22.756  1.00  0.00    -0.200 F 
ATOM     69  C   UNL A   1      49.149  26.480  24.847  1.00  0.00     0.200 A 
ATOM     70  F   UNL A   1      49.996  25.847  26.959  1.00  0.00    -0.200 F 
ATOM     71  F   UNL A   1      50.224  25.955  24.243  1.00  0.00    -0.200 F 
ENDBRANCH  47  61
BRANCH  48  72
ATOM     72  C   UNL A   1      38.806  30.860  30.849  1.00  0.00     0.064 A 
ATOM     73  C   UNL A   1      38.711  30.755  32.245  1.00  0.00     0.173 A 
ATOM     74  C   UNL A   1      37.720  31.420  30.162  1.00  0.00     0.173 A 
ATOM     75  F   UNL A   1      39.710  30.195  32.942  1.00  0.00    -0.203 F 
ATOM     76  C   UNL A   1      37.566  31.166  32.922  1.00  0.00     0.198 A 
ATOM     77  C   UNL A   1      36.585  31.855  30.843  1.00  0.00     0.198 A 
ATOM     78  F   UNL A   1      37.757  31.532  28.826  1.00  0.00    -0.203 F 
ATOM     79  F   UNL A   1      37.477  30.999  34.249  1.00  0.00    -0.200 F 
ATOM     80  C   UNL A   1      36.504  31.719  32.221  1.00  0.00     0.200 A 
ATOM     81  F   UNL A   1      35.561  32.388  30.163  1.00  0.00    -0.200 F 
ATOM     82  F   UNL A   1      35.397  32.104  32.871  1.00  0.00    -0.200 F 
ENDBRANCH  48  72
BRANCH  60  83
ATOM     83  C   UNL A   1      44.801  33.841  28.928  1.00  0.00     0.064 A 
ATOM     84  C   UNL A   1      45.565  34.221  30.041  1.00  0.00     0.173 A 
ATOM     85  C   UNL A   1      44.608  34.787  27.910  1.00  0.00     0.173 A 
ATOM     86  F   UNL A   1      45.770  33.357  31.046  1.00  0.00    -0.203 F 
ATOM     87  C   UNL A   1      46.101  35.503  30.137  1.00  0.00     0.198 A 
ATOM     88  C   UNL A   1      45.168  36.059  27.997  1.00  0.00     0.198 A 
ATOM     89  F   UNL A   1      43.892  34.472  26.821  1.00  0.00    -0.203 F 
ATOM     90  F   UNL A   1      46.799  35.856  31.225  1.00  0.00    -0.200 F 
ATOM     91  C   UNL A   1      45.910  36.417  29.112  1.00  0.00     0.200 A 
ATOM     92  F   UNL A   1      44.995  36.936  26.999  1.00  0.00    -0.200 F 
ATOM     93  F   UNL A   1      46.438  37.647  29.201  1.00  0.00    -0.200 F 
ENDBRANCH  60  83
ENDBRANCH  34  35
ENDBRANCH  27  29
ENDBRANCH  26  27
ENDBRANCH  25  26
ENDBRANCH   1  25
TORSDOF 16
ENDMDL
