MODEL 1
REMARK VINA RESULT:     -12.1      0.000      0.000
REMARK SMILES CO/N=C1\CN(c2nc3c(cc2F)c(=O)c(C(=O)OCCOC(=O)c2ccc(-c4c5nc(c(-c6c(F)c(F)c(F)c(F)c6F)c6ccc([nH]6)c(-c6c(F)c(F)c(F)c(F)c6F)c6nc(c(-c7c(F)c(F)c(F)c(F)c7F)c7ccc4[nH]7)C=C6)C=C5)cc2)cn3C2CC2)C[C@H]1C[NH3+]
REMARK SMILES IDX 20 1 19 2 17 3 18 4 16 5 7 6 8 7 12 8 9 9 11 10 13 11 10 12
REMARK SMILES IDX 89 13 14 14 88 15 15 16 6 17 3 18 4 19 5 20 94 21 93 22 2 23
REMARK SMILES IDX 1 24 95 25 96 26 90 30 91 31 92 32 21 33 22 34 23 35 24 36
REMARK SMILES IDX 25 37 26 38 87 39 27 40 86 41 28 42 29 43 30 44 80 45 31 46
REMARK SMILES IDX 85 47 79 48 81 49 32 50 84 51 78 52 77 53 33 55 65 56 45 57
REMARK SMILES IDX 64 58 46 59 49 60 63 61 82 62 47 63 48 64 62 66 83 67 50 68
REMARK SMILES IDX 34 69 35 70 43 71 36 72 37 73 41 74 44 75 38 76 39 77 42 78
REMARK SMILES IDX 40 79 66 80 67 81 75 82 68 83 69 84 73 85 76 86 70 87 71 88
REMARK SMILES IDX 74 89 72 90 51 91 52 92 60 93 53 94 54 95 58 96 61 97 55 98
REMARK SMILES IDX 56 99 59 100 57 101
REMARK H PARENT 96 27 96 28 96 29 81 54 49 65
REMARK Flexibility Score: inf
ROOT
ATOM      1  C   UNL A   1      43.276  21.102  26.286  1.00  0.00     0.275 C 
ENDROOT
BRANCH   1   2
ATOM      2  O   UNL A   1      42.082  20.577  25.675  1.00  0.00    -0.458 OA
BRANCH   2   3
ATOM      3  C   UNL A   1      41.063  20.261  26.506  1.00  0.00     0.343 C 
ATOM      4  O   UNL A   1      41.131  19.525  27.481  1.00  0.00    -0.246 OA
BRANCH   3   5
ATOM      5  C   UNL A   1      39.843  21.002  26.148  1.00  0.00     0.124 A 
ATOM      6  C   UNL A   1      35.205  22.758  25.141  1.00  0.00     0.167 A 
ATOM      7  N   UNL A   1      36.350  23.323  25.587  1.00  0.00    -0.210 NA
ATOM      8  C   UNL A   1      35.187  21.432  24.692  1.00  0.00     0.166 A 
ATOM      9  C   UNL A   1      37.473  22.565  25.694  1.00  0.00     0.146 A 
ATOM     10  C   UNL A   1      36.333  20.661  24.746  1.00  0.00     0.059 A 
ATOM     11  F   UNL A   1      34.075  20.886  24.178  1.00  0.00    -0.203 F 
ATOM     12  C   UNL A   1      37.485  21.229  25.278  1.00  0.00     0.069 A 
ATOM     13  N   UNL A   1      38.650  23.111  26.292  1.00  0.00    -0.328 N 
ATOM     14  C   UNL A   1      38.696  20.399  25.443  1.00  0.00     0.205 A 
ATOM     15  C   UNL A   1      39.736  22.288  26.519  1.00  0.00     0.107 A 
ATOM     16  O   UNL A   1      38.697  19.236  25.056  1.00  0.00    -0.288 OA
BRANCH   6  17
ATOM     17  N   UNL A   1      34.085  23.554  25.146  1.00  0.00    -0.348 N 
ATOM     18  N   UNL A   1      31.293  24.323  27.219  1.00  0.00    -0.094 NA
ATOM     19  C   UNL A   1      32.257  24.269  26.351  1.00  0.00     0.087 C 
ATOM     20  C   UNL A   1      32.895  23.022  25.787  1.00  0.00     0.173 C 
ATOM     21  C   UNL A   1      32.866  25.531  25.792  1.00  0.00     0.113 C 
ATOM     22  C   UNL A   1      34.154  25.009  25.146  1.00  0.00     0.134 C 
BRANCH  18  23
ATOM     23  O   UNL A   1      30.901  23.032  27.599  1.00  0.00    -0.399 OA
ATOM     24  C   UNL A   1      29.540  22.851  27.221  1.00  0.00     0.315 C 
ENDBRANCH  18  23
BRANCH  21  25
ATOM     25  C   UNL A   1      31.933  26.186  24.774  1.00  0.00     0.270 C 
BRANCH  25  26
ATOM     26  N   UNL A   1      30.727  26.702  25.422  1.00  0.00    -0.357 N 
ATOM     27  H   UNL A   1      30.757  27.722  25.435  1.00  0.00     0.344 HD
ATOM     28  H   UNL A   1      30.679  26.351  26.380  1.00  0.00     0.344 HD
ATOM     29  H   UNL A   1      29.904  26.392  24.905  1.00  0.00     0.344 HD
ENDBRANCH  25  26
ENDBRANCH  21  25
ENDBRANCH   6  17
BRANCH  13  30
ATOM     30  C   UNL A   1      38.661  24.550  26.658  1.00  0.00     0.089 C 
ATOM     31  C   UNL A   1      39.337  25.170  27.854  1.00  0.00     0.027 C 
ATOM     32  C   UNL A   1      39.912  25.376  26.484  1.00  0.00     0.027 C 
ENDBRANCH  13  30
ENDBRANCH   3   5
ENDBRANCH   2   3
ENDBRANCH   1   2
BRANCH   1  33
ATOM     33  C   UNL A   1      43.978  22.060  25.330  1.00  0.00     0.275 C 
BRANCH  33  34
ATOM     34  O   UNL A   1      44.708  23.043  26.088  1.00  0.00    -0.458 OA
BRANCH  34  35
ATOM     35  C   UNL A   1      44.666  24.308  25.612  1.00  0.00     0.338 C 
ATOM     36  O   UNL A   1      45.151  24.737  24.581  1.00  0.00    -0.246 OA
BRANCH  35  37
ATOM     37  C   UNL A   1      43.901  25.154  26.542  1.00  0.00     0.060 A 
ATOM     38  C   UNL A   1      43.816  26.528  26.322  1.00  0.00     0.016 A 
ATOM     39  C   UNL A   1      43.373  24.596  27.706  1.00  0.00     0.016 A 
ATOM     40  C   UNL A   1      43.290  27.359  27.308  1.00  0.00     0.010 A 
ATOM     41  C   UNL A   1      42.765  25.424  28.656  1.00  0.00     0.010 A 
ATOM     42  C   UNL A   1      42.757  26.820  28.488  1.00  0.00    -0.014 A 
BRANCH  42  43
ATOM     43  C   UNL A   1      42.261  27.716  29.570  1.00  0.00     0.031 A 
ATOM     44  C   UNL A   1      43.063  27.882  30.835  1.00  0.00     0.074 A 
ATOM     45  C   UNL A   1      41.123  28.422  29.411  1.00  0.00     0.049 A 
ATOM     46  N   UNL A   1      42.733  28.475  31.954  1.00  0.00    -0.248 NA
ATOM     47  C   UNL A   1      44.416  27.303  30.843  1.00  0.00     0.031 C 
ATOM     48  C   UNL A   1      40.286  28.425  28.212  1.00  0.00     0.029 A 
ATOM     49  N   UNL A   1      40.486  29.295  30.260  1.00  0.00    -0.354 N 
ATOM     50  C   UNL A   1      43.812  28.299  32.811  1.00  0.00     0.074 A 
ATOM     51  C   UNL A   1      44.809  27.541  32.087  1.00  0.00     0.031 C 
ATOM     52  C   UNL A   1      39.281  29.299  28.378  1.00  0.00     0.029 A 
ATOM     53  C   UNL A   1      39.349  29.850  29.727  1.00  0.00     0.049 A 
ATOM     54  H   UNL A   1      40.815  29.503  31.164  1.00  0.00     0.167 HD
ATOM     55  C   UNL A   1      43.959  28.735  34.084  1.00  0.00     0.037 A 
ATOM     56  C   UNL A   1      38.442  30.683  30.273  1.00  0.00     0.037 A 
ATOM     57  C   UNL A   1      42.990  29.532  34.789  1.00  0.00     0.049 A 
ATOM     58  C   UNL A   1      38.596  31.098  31.710  1.00  0.00     0.074 A 
ATOM     59  C   UNL A   1      43.031  29.989  36.095  1.00  0.00     0.029 A 
ATOM     60  N   UNL A   1      41.816  30.016  34.233  1.00  0.00    -0.354 N 
ATOM     61  N   UNL A   1      39.568  30.833  32.547  1.00  0.00    -0.248 NA
ATOM     62  C   UNL A   1      37.508  31.902  32.287  1.00  0.00     0.031 C 
ATOM     63  C   UNL A   1      41.874  30.737  36.335  1.00  0.00     0.029 A 
ATOM     64  C   UNL A   1      41.127  30.770  35.169  1.00  0.00     0.049 A 
ATOM     65  H   UNL A   1      41.516  29.849  33.310  1.00  0.00     0.167 HD
ATOM     66  C   UNL A   1      39.215  31.440  33.744  1.00  0.00     0.074 A 
ATOM     67  C   UNL A   1      37.949  32.107  33.521  1.00  0.00     0.031 C 
ATOM     68  C   UNL A   1      39.876  31.435  34.926  1.00  0.00     0.037 A 
BRANCH  55  69
ATOM     69  C   UNL A   1      45.209  28.352  34.817  1.00  0.00     0.064 A 
ATOM     70  C   UNL A   1      46.346  29.172  34.804  1.00  0.00     0.173 A 
ATOM     71  C   UNL A   1      45.242  27.190  35.602  1.00  0.00     0.173 A 
ATOM     72  F   UNL A   1      46.367  30.285  34.057  1.00  0.00    -0.203 F 
ATOM     73  C   UNL A   1      47.476  28.838  35.548  1.00  0.00     0.198 A 
ATOM     74  C   UNL A   1      46.365  26.871  36.362  1.00  0.00     0.198 A 
ATOM     75  F   UNL A   1      44.177  26.376  35.651  1.00  0.00    -0.203 F 
ATOM     76  F   UNL A   1      48.561  29.623  35.505  1.00  0.00    -0.200 F 
ATOM     77  C   UNL A   1      47.480  27.695  36.334  1.00  0.00     0.200 A 
ATOM     78  F   UNL A   1      46.363  25.771  37.129  1.00  0.00    -0.200 F 
ATOM     79  F   UNL A   1      48.561  27.385  37.063  1.00  0.00    -0.200 F 
ENDBRANCH  55  69
BRANCH  56  80
ATOM     80  C   UNL A   1      37.288  31.161  29.467  1.00  0.00     0.064 A 
ATOM     81  C   UNL A   1      37.230  32.487  29.018  1.00  0.00     0.173 A 
ATOM     82  C   UNL A   1      36.223  30.311  29.136  1.00  0.00     0.173 A 
ATOM     83  F   UNL A   1      38.212  33.345  29.335  1.00  0.00    -0.203 F 
ATOM     84  C   UNL A   1      36.148  32.946  28.271  1.00  0.00     0.198 A 
ATOM     85  C   UNL A   1      35.155  30.763  28.365  1.00  0.00     0.198 A 
ATOM     86  F   UNL A   1      36.229  29.035  29.549  1.00  0.00    -0.203 F 
ATOM     87  F   UNL A   1      36.099  34.228  27.885  1.00  0.00    -0.200 F 
ATOM     88  C   UNL A   1      35.115  32.081  27.938  1.00  0.00     0.200 A 
ATOM     89  F   UNL A   1      34.165  29.922  28.037  1.00  0.00    -0.200 F 
ATOM     90  F   UNL A   1      34.077  32.522  27.214  1.00  0.00    -0.200 F 
ENDBRANCH  56  80
BRANCH  68  91
ATOM     91  C   UNL A   1      39.259  32.189  36.064  1.00  0.00     0.064 A 
ATOM     92  C   UNL A   1      38.334  31.581  36.924  1.00  0.00     0.173 A 
ATOM     93  C   UNL A   1      39.640  33.512  36.331  1.00  0.00     0.173 A 
ATOM     94  F   UNL A   1      37.930  30.321  36.699  1.00  0.00    -0.203 F 
ATOM     95  C   UNL A   1      37.803  32.275  38.008  1.00  0.00     0.198 A 
ATOM     96  C   UNL A   1      39.123  34.196  37.428  1.00  0.00     0.198 A 
ATOM     97  F   UNL A   1      40.525  34.133  35.538  1.00  0.00    -0.203 F 
ATOM     98  F   UNL A   1      36.899  31.685  38.802  1.00  0.00    -0.200 F 
ATOM     99  C   UNL A   1      38.203  33.579  38.262  1.00  0.00     0.200 A 
ATOM    100  F   UNL A   1      39.517  35.452  37.678  1.00  0.00    -0.200 F 
ATOM    101  F   UNL A   1      37.699  34.243  39.311  1.00  0.00    -0.200 F 
ENDBRANCH  68  91
ENDBRANCH  42  43
ENDBRANCH  35  37
ENDBRANCH  34  35
ENDBRANCH  33  34
ENDBRANCH   1  33
TORSDOF 16
ENDMDL
MODEL 2
REMARK VINA RESULT:     -12.1      0.372      1.651
REMARK SMILES CO/N=C1\CN(c2nc3c(cc2F)c(=O)c(C(=O)OCCOC(=O)c2ccc(-c4c5nc(c(-c6c(F)c(F)c(F)c(F)c6F)c6ccc([nH]6)c(-c6c(F)c(F)c(F)c(F)c6F)c6nc(c(-c7c(F)c(F)c(F)c(F)c7F)c7ccc4[nH]7)C=C6)C=C5)cc2)cn3C2CC2)C[C@H]1C[NH3+]
REMARK SMILES IDX 20 1 19 2 17 3 18 4 16 5 7 6 8 7 12 8 9 9 11 10 13 11 10 12
REMARK SMILES IDX 89 13 14 14 88 15 15 16 6 17 3 18 4 19 5 20 94 21 93 22 2 23
REMARK SMILES IDX 1 24 95 25 96 26 90 30 91 31 92 32 21 33 22 34 23 35 24 36
REMARK SMILES IDX 25 37 26 38 87 39 27 40 86 41 28 42 29 43 30 44 80 45 31 46
REMARK SMILES IDX 85 47 79 48 81 49 32 50 84 51 78 52 77 53 33 55 65 56 45 57
REMARK SMILES IDX 64 58 46 59 49 60 63 61 82 62 47 63 48 64 62 66 83 67 50 68
REMARK SMILES IDX 34 69 35 70 43 71 36 72 37 73 41 74 44 75 38 76 39 77 42 78
REMARK SMILES IDX 40 79 66 80 67 81 75 82 68 83 69 84 73 85 76 86 70 87 71 88
REMARK SMILES IDX 74 89 72 90 51 91 52 92 60 93 53 94 54 95 58 96 61 97 55 98
REMARK SMILES IDX 56 99 59 100 57 101
REMARK H PARENT 96 27 96 28 96 29 81 54 49 65
REMARK Flexibility Score: inf
ROOT
ATOM      1  C   UNL A   1      43.314  21.381  25.916  1.00  0.00     0.275 C 
ENDROOT
BRANCH   1   2
ATOM      2  O   UNL A   1      42.258  20.435  25.667  1.00  0.00    -0.458 OA
BRANCH   2   3
ATOM      3  C   UNL A   1      41.314  20.311  26.628  1.00  0.00     0.343 C 
ATOM      4  O   UNL A   1      41.450  19.740  27.702  1.00  0.00    -0.246 OA
BRANCH   3   5
ATOM      5  C   UNL A   1      40.093  21.047  26.265  1.00  0.00     0.124 A 
ATOM      6  C   UNL A   1      35.453  22.782  25.227  1.00  0.00     0.167 A 
ATOM      7  N   UNL A   1      36.591  23.351  25.688  1.00  0.00    -0.210 NA
ATOM      8  C   UNL A   1      35.448  21.459  24.768  1.00  0.00     0.166 A 
ATOM      9  C   UNL A   1      37.717  22.599  25.800  1.00  0.00     0.146 A 
ATOM     10  C   UNL A   1      36.598  20.694  24.826  1.00  0.00     0.059 A 
ATOM     11  F   UNL A   1      34.344  20.910  24.239  1.00  0.00    -0.203 F 
ATOM     12  C   UNL A   1      37.742  21.266  25.373  1.00  0.00     0.069 A 
ATOM     13  N   UNL A   1      38.885  23.147  26.414  1.00  0.00    -0.328 N 
ATOM     14  C   UNL A   1      38.956  20.442  25.544  1.00  0.00     0.205 A 
ATOM     15  C   UNL A   1      39.974  22.329  26.644  1.00  0.00     0.107 A 
ATOM     16  O   UNL A   1      38.968  19.282  25.147  1.00  0.00    -0.288 OA
BRANCH   6  17
ATOM     17  N   UNL A   1      34.328  23.571  25.228  1.00  0.00    -0.348 N 
ATOM     18  N   UNL A   1      31.478  24.257  27.250  1.00  0.00    -0.094 NA
ATOM     19  C   UNL A   1      32.464  24.236  26.405  1.00  0.00     0.087 C 
ATOM     20  C   UNL A   1      33.126  23.012  25.819  1.00  0.00     0.173 C 
ATOM     21  C   UNL A   1      33.079  25.519  25.903  1.00  0.00     0.113 C 
ATOM     22  C   UNL A   1      34.388  25.025  25.275  1.00  0.00     0.134 C 
BRANCH  18  23
ATOM     23  O   UNL A   1      31.084  22.953  27.578  1.00  0.00    -0.399 OA
ATOM     24  C   UNL A   1      29.707  22.807  27.249  1.00  0.00     0.315 C 
ENDBRANCH  18  23
BRANCH  21  25
ATOM     25  C   UNL A   1      32.169  26.200  24.882  1.00  0.00     0.270 C 
BRANCH  25  26
ATOM     26  N   UNL A   1      30.849  25.572  24.854  1.00  0.00    -0.357 N 
ATOM     27  H   UNL A   1      30.729  24.993  25.686  1.00  0.00     0.344 HD
ATOM     28  H   UNL A   1      30.768  24.989  24.020  1.00  0.00     0.344 HD
ATOM     29  H   UNL A   1      30.129  26.294  24.836  1.00  0.00     0.344 HD
ENDBRANCH  25  26
ENDBRANCH  21  25
ENDBRANCH   6  17
BRANCH  13  30
ATOM     30  C   UNL A   1      38.883  24.583  26.791  1.00  0.00     0.089 C 
ATOM     31  C   UNL A   1      39.630  25.214  27.938  1.00  0.00     0.027 C 
ATOM     32  C   UNL A   1      40.094  25.445  26.531  1.00  0.00     0.027 C 
ENDBRANCH  13  30
ENDBRANCH   3   5
ENDBRANCH   2   3
ENDBRANCH   1   2
BRANCH   1  33
ATOM     33  C   UNL A   1      43.470  22.320  24.724  1.00  0.00     0.275 C 
BRANCH  33  34
ATOM     34  O   UNL A   1      43.115  23.659  25.119  1.00  0.00    -0.458 OA
BRANCH  34  35
ATOM     35  C   UNL A   1      44.141  24.528  25.252  1.00  0.00     0.338 C 
ATOM     36  O   UNL A   1      45.130  24.634  24.549  1.00  0.00    -0.246 OA
BRANCH  35  37
ATOM     37  C   UNL A   1      43.897  25.398  26.414  1.00  0.00     0.060 A 
ATOM     38  C   UNL A   1      43.650  24.833  27.664  1.00  0.00     0.016 A 
ATOM     39  C   UNL A   1      43.787  26.775  26.232  1.00  0.00     0.016 A 
ATOM     40  C   UNL A   1      43.200  25.634  28.712  1.00  0.00     0.010 A 
ATOM     41  C   UNL A   1      43.420  27.588  27.310  1.00  0.00     0.010 A 
ATOM     42  C   UNL A   1      43.078  27.021  28.550  1.00  0.00    -0.014 A 
BRANCH  42  43
ATOM     43  C   UNL A   1      42.528  27.863  29.649  1.00  0.00     0.031 A 
ATOM     44  C   UNL A   1      43.298  28.018  30.935  1.00  0.00     0.074 A 
ATOM     45  C   UNL A   1      41.368  28.532  29.490  1.00  0.00     0.049 A 
ATOM     46  N   UNL A   1      42.924  28.562  32.066  1.00  0.00    -0.248 NA
ATOM     47  C   UNL A   1      44.672  27.488  30.953  1.00  0.00     0.031 C 
ATOM     48  C   UNL A   1      40.554  28.543  28.274  1.00  0.00     0.029 A 
ATOM     49  N   UNL A   1      40.682  29.354  30.352  1.00  0.00    -0.354 N 
ATOM     50  C   UNL A   1      43.993  28.397  32.939  1.00  0.00     0.074 A 
ATOM     51  C   UNL A   1      45.031  27.701  32.212  1.00  0.00     0.031 C 
ATOM     52  C   UNL A   1      39.515  29.374  28.447  1.00  0.00     0.029 A 
ATOM     53  C   UNL A   1      39.536  29.884  29.813  1.00  0.00     0.049 A 
ATOM     54  H   UNL A   1      40.985  29.544  31.269  1.00  0.00     0.167 HD
ATOM     55  C   UNL A   1      44.098  28.798  34.228  1.00  0.00     0.037 A 
ATOM     56  C   UNL A   1      38.588  30.665  30.367  1.00  0.00     0.037 A 
ATOM     57  C   UNL A   1      43.086  29.536  34.937  1.00  0.00     0.049 A 
ATOM     58  C   UNL A   1      38.699  31.039  31.818  1.00  0.00     0.074 A 
ATOM     59  C   UNL A   1      43.086  29.952  36.258  1.00  0.00     0.029 A 
ATOM     60  N   UNL A   1      41.907  29.994  34.372  1.00  0.00    -0.354 N 
ATOM     61  N   UNL A   1      39.663  30.783  32.667  1.00  0.00    -0.248 NA
ATOM     62  C   UNL A   1      37.570  31.783  32.398  1.00  0.00     0.031 C 
ATOM     63  C   UNL A   1      41.897  30.649  36.497  1.00  0.00     0.029 A 
ATOM     64  C   UNL A   1      41.172  30.692  35.317  1.00  0.00     0.049 A 
ATOM     65  H   UNL A   1      41.631  29.846  33.439  1.00  0.00     0.167 HD
ATOM     66  C   UNL A   1      39.264  31.337  33.875  1.00  0.00     0.074 A 
ATOM     67  C   UNL A   1      37.979  31.964  33.647  1.00  0.00     0.031 C 
ATOM     68  C   UNL A   1      39.902  31.319  35.070  1.00  0.00     0.037 A 
BRANCH  55  69
ATOM     69  C   UNL A   1      45.348  28.438  34.974  1.00  0.00     0.064 A 
ATOM     70  C   UNL A   1      46.445  29.307  35.029  1.00  0.00     0.173 A 
ATOM     71  C   UNL A   1      45.416  27.242  35.705  1.00  0.00     0.173 A 
ATOM     72  F   UNL A   1      46.432  30.455  34.334  1.00  0.00    -0.203 F 
ATOM     73  C   UNL A   1      47.571  28.990  35.785  1.00  0.00     0.198 A 
ATOM     74  C   UNL A   1      46.534  26.938  36.478  1.00  0.00     0.198 A 
ATOM     75  F   UNL A   1      44.389  26.380  35.689  1.00  0.00    -0.203 F 
ATOM     76  F   UNL A   1      48.619  29.825  35.806  1.00  0.00    -0.200 F 
ATOM     77  C   UNL A   1      47.610  27.812  36.516  1.00  0.00     0.200 A 
ATOM     78  F   UNL A   1      46.565  25.805  37.192  1.00  0.00    -0.200 F 
ATOM     79  F   UNL A   1      48.687  27.517  37.258  1.00  0.00    -0.200 F 
ENDBRANCH  55  69
BRANCH  56  80
ATOM     80  C   UNL A   1      37.434  31.125  29.552  1.00  0.00     0.064 A 
ATOM     81  C   UNL A   1      36.406  30.239  29.203  1.00  0.00     0.173 A 
ATOM     82  C   UNL A   1      37.335  32.450  29.103  1.00  0.00     0.173 A 
ATOM     83  F   UNL A   1      36.473  28.954  29.584  1.00  0.00    -0.203 F 
ATOM     84  C   UNL A   1      35.327  30.658  28.430  1.00  0.00     0.198 A 
ATOM     85  C   UNL A   1      36.240  32.876  28.354  1.00  0.00     0.198 A 
ATOM     86  F   UNL A   1      38.296  33.335  29.405  1.00  0.00    -0.203 F 
ATOM     87  F   UNL A   1      34.376  29.781  28.078  1.00  0.00    -0.200 F 
ATOM     88  C   UNL A   1      35.240  31.978  28.014  1.00  0.00     0.200 A 
ATOM     89  F   UNL A   1      36.155  34.154  27.963  1.00  0.00    -0.200 F 
ATOM     90  F   UNL A   1      34.197  32.384  27.276  1.00  0.00    -0.200 F 
ENDBRANCH  56  80
BRANCH  68  91
ATOM     91  C   UNL A   1      39.235  32.013  36.218  1.00  0.00     0.064 A 
ATOM     92  C   UNL A   1      39.526  33.348  36.530  1.00  0.00     0.173 A 
ATOM     93  C   UNL A   1      38.255  31.355  36.974  1.00  0.00     0.173 A 
ATOM     94  F   UNL A   1      40.467  34.012  35.842  1.00  0.00    -0.203 F 
ATOM     95  C   UNL A   1      38.865  33.999  37.568  1.00  0.00     0.198 A 
ATOM     96  C   UNL A   1      37.580  32.015  37.998  1.00  0.00     0.198 A 
ATOM     97  F   UNL A   1      37.940  30.078  36.708  1.00  0.00    -0.203 F 
ATOM     98  F   UNL A   1      39.177  35.266  37.869  1.00  0.00    -0.200 F 
ATOM     99  C   UNL A   1      37.889  33.334  38.295  1.00  0.00     0.200 A 
ATOM    100  F   UNL A   1      36.631  31.375  38.694  1.00  0.00    -0.200 F 
ATOM    101  F   UNL A   1      37.246  33.964  39.288  1.00  0.00    -0.200 F 
ENDBRANCH  68  91
ENDBRANCH  42  43
ENDBRANCH  35  37
ENDBRANCH  34  35
ENDBRANCH  33  34
ENDBRANCH   1  33
TORSDOF 16
ENDMDL
MODEL 3
REMARK VINA RESULT:     -12.1      0.747      7.067
REMARK SMILES CO/N=C1\CN(c2nc3c(cc2F)c(=O)c(C(=O)OCCOC(=O)c2ccc(-c4c5nc(c(-c6c(F)c(F)c(F)c(F)c6F)c6ccc([nH]6)c(-c6c(F)c(F)c(F)c(F)c6F)c6nc(c(-c7c(F)c(F)c(F)c(F)c7F)c7ccc4[nH]7)C=C6)C=C5)cc2)cn3C2CC2)C[C@H]1C[NH3+]
REMARK SMILES IDX 20 1 19 2 17 3 18 4 16 5 7 6 8 7 12 8 9 9 11 10 13 11 10 12
REMARK SMILES IDX 89 13 14 14 88 15 15 16 6 17 3 18 4 19 5 20 94 21 93 22 2 23
REMARK SMILES IDX 1 24 95 25 96 26 90 30 91 31 92 32 21 33 22 34 23 35 24 36
REMARK SMILES IDX 25 37 26 38 87 39 27 40 86 41 28 42 29 43 30 44 80 45 31 46
REMARK SMILES IDX 85 47 79 48 81 49 32 50 84 51 78 52 77 53 33 55 65 56 45 57
REMARK SMILES IDX 64 58 46 59 49 60 63 61 82 62 47 63 48 64 62 66 83 67 50 68
REMARK SMILES IDX 34 69 35 70 43 71 36 72 37 73 41 74 44 75 38 76 39 77 42 78
REMARK SMILES IDX 40 79 66 80 67 81 75 82 68 83 69 84 73 85 76 86 70 87 71 88
REMARK SMILES IDX 74 89 72 90 51 91 52 92 60 93 53 94 54 95 58 96 61 97 55 98
REMARK SMILES IDX 56 99 59 100 57 101
REMARK H PARENT 96 27 96 28 96 29 81 54 49 65
REMARK Flexibility Score: inf
ROOT
ATOM      1  C   UNL A   1      43.363  20.814  25.840  1.00  0.00     0.275 C 
ENDROOT
BRANCH   1   2
ATOM      2  O   UNL A   1      42.085  20.235  25.515  1.00  0.00    -0.458 OA
BRANCH   2   3
ATOM      3  C   UNL A   1      41.174  20.173  26.514  1.00  0.00     0.343 C 
ATOM      4  O   UNL A   1      41.334  19.635  27.601  1.00  0.00    -0.246 OA
BRANCH   3   5
ATOM      5  C   UNL A   1      39.962  20.932  26.168  1.00  0.00     0.124 A 
ATOM      6  C   UNL A   1      35.343  22.749  25.182  1.00  0.00     0.167 A 
ATOM      7  N   UNL A   1      36.491  23.294  25.646  1.00  0.00    -0.210 NA
ATOM      8  C   UNL A   1      35.316  21.433  24.703  1.00  0.00     0.166 A 
ATOM      9  C   UNL A   1      37.607  22.525  25.741  1.00  0.00     0.146 A 
ATOM     10  C   UNL A   1      36.456  20.652  24.743  1.00  0.00     0.059 A 
ATOM     11  F   UNL A   1      34.202  20.909  24.171  1.00  0.00    -0.203 F 
ATOM     12  C   UNL A   1      37.610  21.198  25.293  1.00  0.00     0.069 A 
ATOM     13  N   UNL A   1      38.786  23.047  26.356  1.00  0.00    -0.328 N 
ATOM     14  C   UNL A   1      38.813  20.355  25.444  1.00  0.00     0.205 A 
ATOM     15  C   UNL A   1      39.864  22.210  26.568  1.00  0.00     0.107 A 
ATOM     16  O   UNL A   1      38.807  19.201  25.030  1.00  0.00    -0.288 OA
BRANCH   6  17
ATOM     17  N   UNL A   1      34.229  23.554  25.201  1.00  0.00    -0.348 N 
ATOM     18  N   UNL A   1      31.402  24.252  27.250  1.00  0.00    -0.094 NA
ATOM     19  C   UNL A   1      32.382  24.229  26.400  1.00  0.00     0.087 C 
ATOM     20  C   UNL A   1      33.023  23.004  25.792  1.00  0.00     0.173 C 
ATOM     21  C   UNL A   1      33.013  25.510  25.913  1.00  0.00     0.113 C 
ATOM     22  C   UNL A   1      34.311  25.006  25.270  1.00  0.00     0.134 C 
BRANCH  18  23
ATOM     23  O   UNL A   1      30.991  22.948  27.562  1.00  0.00    -0.399 OA
ATOM     24  C   UNL A   1      29.607  22.830  27.249  1.00  0.00     0.315 C 
ENDBRANCH  18  23
BRANCH  21  25
ATOM     25  C   UNL A   1      32.106  26.219  24.907  1.00  0.00     0.270 C 
BRANCH  25  26
ATOM     26  N   UNL A   1      31.096  27.027  25.589  1.00  0.00    -0.357 N 
ATOM     27  H   UNL A   1      31.481  27.949  25.797  1.00  0.00     0.344 HD
ATOM     28  H   UNL A   1      30.824  26.567  26.459  1.00  0.00     0.344 HD
ATOM     29  H   UNL A   1      30.278  27.127  24.987  1.00  0.00     0.344 HD
ENDBRANCH  25  26
ENDBRANCH  21  25
ENDBRANCH   6  17
BRANCH  13  30
ATOM     30  C   UNL A   1      38.807  24.477  26.756  1.00  0.00     0.089 C 
ATOM     31  C   UNL A   1      39.571  25.079  27.906  1.00  0.00     0.027 C 
ATOM     32  C   UNL A   1      40.028  25.326  26.499  1.00  0.00     0.027 C 
ENDBRANCH  13  30
ENDBRANCH   3   5
ENDBRANCH   2   3
ENDBRANCH   1   2
BRANCH   1  33
ATOM     33  C   UNL A   1      43.513  22.171  25.160  1.00  0.00     0.275 C 
BRANCH  33  34
ATOM     34  O   UNL A   1      44.070  23.116  26.093  1.00  0.00    -0.458 OA
BRANCH  34  35
ATOM     35  C   UNL A   1      43.965  24.418  25.749  1.00  0.00     0.338 C 
ATOM     36  O   UNL A   1      44.034  24.908  24.637  1.00  0.00    -0.246 OA
BRANCH  35  37
ATOM     37  C   UNL A   1      43.724  25.225  26.957  1.00  0.00     0.060 A 
ATOM     38  C   UNL A   1      43.292  24.608  28.129  1.00  0.00     0.016 A 
ATOM     39  C   UNL A   1      43.806  26.615  26.885  1.00  0.00     0.016 A 
ATOM     40  C   UNL A   1      42.850  25.381  29.200  1.00  0.00     0.010 A 
ATOM     41  C   UNL A   1      43.444  27.387  27.994  1.00  0.00     0.010 A 
ATOM     42  C   UNL A   1      42.919  26.780  29.148  1.00  0.00    -0.014 A 
BRANCH  42  43
ATOM     43  C   UNL A   1      42.379  27.605  30.265  1.00  0.00     0.031 A 
ATOM     44  C   UNL A   1      41.108  28.391  30.073  1.00  0.00     0.074 A 
ATOM     45  C   UNL A   1      42.989  27.618  31.469  1.00  0.00     0.049 A 
ATOM     46  N   UNL A   1      40.565  29.293  30.851  1.00  0.00    -0.248 NA
ATOM     47  C   UNL A   1      40.347  28.131  28.840  1.00  0.00     0.031 C 
ATOM     48  C   UNL A   1      44.178  26.846  31.826  1.00  0.00     0.029 A 
ATOM     49  N   UNL A   1      42.674  28.293  32.624  1.00  0.00    -0.354 N 
ATOM     50  C   UNL A   1      39.431  29.739  30.183  1.00  0.00     0.074 A 
ATOM     51  C   UNL A   1      39.363  29.013  28.934  1.00  0.00     0.031 C 
ATOM     52  C   UNL A   1      44.458  27.044  33.124  1.00  0.00     0.029 A 
ATOM     53  C   UNL A   1      43.527  28.026  33.667  1.00  0.00     0.049 A 
ATOM     54  H   UNL A   1      41.909  28.909  32.696  1.00  0.00     0.167 HD
ATOM     55  C   UNL A   1      38.528  30.666  30.580  1.00  0.00     0.037 A 
ATOM     56  C   UNL A   1      43.575  28.540  34.911  1.00  0.00     0.037 A 
ATOM     57  C   UNL A   1      38.567  31.352  31.844  1.00  0.00     0.049 A 
ATOM     58  C   UNL A   1      42.600  29.615  35.302  1.00  0.00     0.074 A 
ATOM     59  C   UNL A   1      37.717  32.336  32.321  1.00  0.00     0.029 A 
ATOM     60  N   UNL A   1      39.489  31.100  32.847  1.00  0.00    -0.354 N 
ATOM     61  N   UNL A   1      41.597  30.109  34.619  1.00  0.00    -0.248 NA
ATOM     62  C   UNL A   1      42.785  30.226  36.626  1.00  0.00     0.031 C 
ATOM     63  C   UNL A   1      38.137  32.693  33.606  1.00  0.00     0.029 A 
ATOM     64  C   UNL A   1      39.229  31.909  33.941  1.00  0.00     0.049 A 
ATOM     65  H   UNL A   1      40.222  30.445  32.791  1.00  0.00     0.167 HD
ATOM     66  C   UNL A   1      41.029  31.082  35.429  1.00  0.00     0.074 A 
ATOM     67  C   UNL A   1      41.783  31.096  36.665  1.00  0.00     0.031 C 
ATOM     68  C   UNL A   1      39.982  31.900  35.166  1.00  0.00     0.037 A 
BRANCH  55  69
ATOM     69  C   UNL A   1      37.417  31.012  29.634  1.00  0.00     0.064 A 
ATOM     70  C   UNL A   1      36.333  30.149  29.429  1.00  0.00     0.173 A 
ATOM     71  C   UNL A   1      37.401  32.257  28.987  1.00  0.00     0.173 A 
ATOM     72  F   UNL A   1      36.310  28.942  30.015  1.00  0.00    -0.203 F 
ATOM     73  C   UNL A   1      35.274  30.516  28.602  1.00  0.00     0.198 A 
ATOM     74  C   UNL A   1      36.330  32.631  28.179  1.00  0.00     0.198 A 
ATOM     75  F   UNL A   1      38.414  33.121  29.157  1.00  0.00    -0.203 F 
ATOM     76  F   UNL A   1      34.257  29.667  28.401  1.00  0.00    -0.200 F 
ATOM     77  C   UNL A   1      35.268  31.760  27.987  1.00  0.00     0.200 A 
ATOM     78  F   UNL A   1      36.322  33.837  27.595  1.00  0.00    -0.200 F 
ATOM     79  F   UNL A   1      34.240  32.118  27.207  1.00  0.00    -0.200 F 
ENDBRANCH  55  69
BRANCH  56  80
ATOM     80  C   UNL A   1      44.603  28.064  35.873  1.00  0.00     0.064 A 
ATOM     81  C   UNL A   1      45.848  28.700  35.961  1.00  0.00     0.173 A 
ATOM     82  C   UNL A   1      44.367  26.967  36.715  1.00  0.00     0.173 A 
ATOM     83  F   UNL A   1      46.131  29.734  35.155  1.00  0.00    -0.203 F 
ATOM     84  C   UNL A   1      46.822  28.253  36.852  1.00  0.00     0.198 A 
ATOM     85  C   UNL A   1      45.330  26.539  37.625  1.00  0.00     0.198 A 
ATOM     86  F   UNL A   1      43.194  26.321  36.664  1.00  0.00    -0.203 F 
ATOM     87  F   UNL A   1      48.019  28.856  36.891  1.00  0.00    -0.200 F 
ATOM     88  C   UNL A   1      46.559  27.179  37.689  1.00  0.00     0.200 A 
ATOM     89  F   UNL A   1      45.069  25.509  38.439  1.00  0.00    -0.200 F 
ATOM     90  F   UNL A   1      47.493  26.754  38.551  1.00  0.00    -0.200 F 
ENDBRANCH  56  80
BRANCH  68  91
ATOM     91  C   UNL A   1      39.573  32.862  36.239  1.00  0.00     0.064 A 
ATOM     92  C   UNL A   1      38.592  32.526  37.184  1.00  0.00     0.173 A 
ATOM     93  C   UNL A   1      40.208  34.106  36.360  1.00  0.00     0.173 A 
ATOM     94  F   UNL A   1      37.948  31.352  37.099  1.00  0.00    -0.203 F 
ATOM     95  C   UNL A   1      38.254  33.408  38.206  1.00  0.00     0.198 A 
ATOM     96  C   UNL A   1      39.883  34.977  37.396  1.00  0.00     0.198 A 
ATOM     97  F   UNL A   1      41.156  34.468  35.482  1.00  0.00    -0.203 F 
ATOM     98  F   UNL A   1      37.295  33.081  39.082  1.00  0.00    -0.200 F 
ATOM     99  C   UNL A   1      38.905  34.629  38.315  1.00  0.00     0.200 A 
ATOM    100  F   UNL A   1      40.518  36.152  37.506  1.00  0.00    -0.200 F 
ATOM    101  F   UNL A   1      38.585  35.473  39.306  1.00  0.00    -0.200 F 
ENDBRANCH  68  91
ENDBRANCH  42  43
ENDBRANCH  35  37
ENDBRANCH  34  35
ENDBRANCH  33  34
ENDBRANCH   1  33
TORSDOF 16
ENDMDL
