MODEL 1
REMARK VINA RESULT:     -12.6      0.000      0.000
REMARK SMILES C[C@H](C(=O)OCCOC(=O)c1ccc(-c2c3nc(c(-c4c(F)c(F)c(F)c(F)c4F)c4ccc([nH]4)c(-c4c(F)c(F)c(F)c(F)c4F)c4nc(c(-c5c(F)c(F)c(F)c(F)c5F)c5ccc2[nH]5)C=C4)C=C3)cc1)N1C(=O)C[C@](C)(c2ccccc2)C1=O
REMARK SMILES IDX 6 1 5 2 3 3 4 4 2 5 1 6 74 7 75 8 86 9 76 10 77 11 78 12
REMARK SMILES IDX 87 13 79 14 80 15 81 16 85 17 82 18 84 19 83 20 7 21 8 22
REMARK SMILES IDX 9 23 10 24 11 25 12 26 73 27 13 28 72 29 14 30 15 31 16 32
REMARK SMILES IDX 66 33 17 34 71 35 65 36 67 37 18 38 70 39 64 40 63 41 19 43
REMARK SMILES IDX 51 44 31 45 50 46 32 47 35 48 49 49 68 50 33 51 34 52 48 54
REMARK SMILES IDX 69 55 36 56 20 57 21 58 29 59 22 60 23 61 27 62 30 63 24 64
REMARK SMILES IDX 25 65 28 66 26 67 52 68 53 69 61 70 54 71 55 72 59 73 62 74
REMARK SMILES IDX 56 75 57 76 60 77 58 78 37 79 38 80 46 81 39 82 40 83 44 84
REMARK SMILES IDX 47 85 41 86 42 87 45 88 43 89
REMARK H PARENT 67 42 35 53
REMARK Flexibility Score: inf
ROOT
ATOM      1  C   UNL A   1      32.180  28.924  25.156  1.00  0.00     0.274 C 
ENDROOT
BRANCH   1   2
ATOM      2  O   UNL A   1      31.030  28.058  25.265  1.00  0.00    -0.461 OA
BRANCH   2   3
ATOM      3  C   UNL A   1      31.098  27.104  26.236  1.00  0.00     0.329 C 
ATOM      4  O   UNL A   1      31.364  27.337  27.411  1.00  0.00    -0.250 OA
BRANCH   3   5
ATOM      5  C   UNL A   1      30.986  25.679  25.680  1.00  0.00     0.200 C 
ATOM      6  C   UNL A   1      30.504  25.691  24.227  1.00  0.00     0.044 C 
BRANCH   5   7
ATOM      7  N   UNL A   1      32.148  24.815  25.892  1.00  0.00    -0.268 N 
ATOM      8  C   UNL A   1      33.393  25.017  25.377  1.00  0.00     0.231 C 
ATOM      9  C   UNL A   1      32.087  23.681  26.655  1.00  0.00     0.240 C 
ATOM     10  O   UNL A   1      33.761  25.965  24.700  1.00  0.00    -0.274 OA
ATOM     11  C   UNL A   1      34.291  23.874  25.745  1.00  0.00     0.122 C 
ATOM     12  C   UNL A   1      33.360  22.866  26.438  1.00  0.00     0.081 C 
ATOM     13  O   UNL A   1      31.136  23.343  27.348  1.00  0.00    -0.273 OA
ATOM     14  C   UNL A   1      33.939  22.509  27.815  1.00  0.00     0.027 C 
BRANCH  12  15
ATOM     15  C   UNL A   1      33.050  21.663  25.528  1.00  0.00    -0.032 A 
ATOM     16  C   UNL A   1      32.506  21.815  24.241  1.00  0.00     0.005 A 
ATOM     17  C   UNL A   1      33.337  20.349  25.955  1.00  0.00     0.005 A 
ATOM     18  C   UNL A   1      32.279  20.709  23.415  1.00  0.00     0.000 A 
ATOM     19  C   UNL A   1      33.114  19.245  25.127  1.00  0.00     0.000 A 
ATOM     20  C   UNL A   1      32.588  19.425  23.855  1.00  0.00     0.000 A 
ENDBRANCH  12  15
ENDBRANCH   5   7
ENDBRANCH   3   5
ENDBRANCH   2   3
ENDBRANCH   1   2
BRANCH   1  21
ATOM     21  C   UNL A   1      31.885  30.312  25.713  1.00  0.00     0.275 C 
BRANCH  21  22
ATOM     22  O   UNL A   1      32.433  30.439  27.035  1.00  0.00    -0.458 OA
BRANCH  22  23
ATOM     23  C   UNL A   1      33.102  31.592  27.262  1.00  0.00     0.338 C 
ATOM     24  O   UNL A   1      32.687  32.734  27.164  1.00  0.00    -0.246 OA
BRANCH  23  25
ATOM     25  C   UNL A   1      34.456  31.273  27.729  1.00  0.00     0.060 A 
ATOM     26  C   UNL A   1      34.753  29.951  28.047  1.00  0.00     0.016 A 
ATOM     27  C   UNL A   1      35.366  32.292  28.000  1.00  0.00     0.016 A 
ATOM     28  C   UNL A   1      35.926  29.648  28.730  1.00  0.00     0.010 A 
ATOM     29  C   UNL A   1      36.583  31.973  28.610  1.00  0.00     0.010 A 
ATOM     30  C   UNL A   1      36.856  30.654  29.018  1.00  0.00    -0.014 A 
BRANCH  30  31
ATOM     31  C   UNL A   1      38.081  30.341  29.798  1.00  0.00     0.031 A 
ATOM     32  C   UNL A   1      39.148  29.465  29.202  1.00  0.00     0.074 A 
ATOM     33  C   UNL A   1      38.251  30.850  31.033  1.00  0.00     0.049 A 
ATOM     34  N   UNL A   1      40.188  28.915  29.778  1.00  0.00    -0.248 NA
ATOM     35  C   UNL A   1      39.022  29.155  27.769  1.00  0.00     0.031 C 
ATOM     36  C   UNL A   1      37.327  31.761  31.709  1.00  0.00     0.029 A 
ATOM     37  N   UNL A   1      39.265  30.671  31.942  1.00  0.00    -0.354 N 
ATOM     38  C   UNL A   1      40.806  28.152  28.794  1.00  0.00     0.074 A 
ATOM     39  C   UNL A   1      40.025  28.309  27.585  1.00  0.00     0.031 C 
ATOM     40  C   UNL A   1      37.825  32.078  32.913  1.00  0.00     0.029 A 
ATOM     41  C   UNL A   1      39.061  31.332  33.127  1.00  0.00     0.049 A 
ATOM     42  H   UNL A   1      40.062  30.121  31.761  1.00  0.00     0.167 HD
ATOM     43  C   UNL A   1      41.920  27.389  28.896  1.00  0.00     0.037 A 
ATOM     44  C   UNL A   1      39.763  31.307  34.275  1.00  0.00     0.037 A 
ATOM     45  C   UNL A   1      42.726  27.283  30.084  1.00  0.00     0.049 A 
ATOM     46  C   UNL A   1      40.984  30.436  34.371  1.00  0.00     0.074 A 
ATOM     47  C   UNL A   1      43.879  26.543  30.285  1.00  0.00     0.029 A 
ATOM     48  N   UNL A   1      42.473  27.955  31.271  1.00  0.00    -0.354 N 
ATOM     49  N   UNL A   1      41.521  29.662  33.460  1.00  0.00    -0.248 NA
ATOM     50  C   UNL A   1      41.685  30.421  35.662  1.00  0.00     0.031 C 
ATOM     51  C   UNL A   1      44.308  26.748  31.601  1.00  0.00     0.029 A 
ATOM     52  C   UNL A   1      43.443  27.643  32.209  1.00  0.00     0.049 A 
ATOM     53  H   UNL A   1      41.714  28.565  31.424  1.00  0.00     0.167 HD
ATOM     54  C   UNL A   1      42.622  29.073  34.063  1.00  0.00     0.074 A 
ATOM     55  C   UNL A   1      42.692  29.596  35.412  1.00  0.00     0.031 C 
ATOM     56  C   UNL A   1      43.495  28.173  33.546  1.00  0.00     0.037 A 
BRANCH  43  57
ATOM     57  C   UNL A   1      42.320  26.580  27.698  1.00  0.00     0.064 A 
ATOM     58  C   UNL A   1      43.310  27.012  26.805  1.00  0.00     0.173 A 
ATOM     59  C   UNL A   1      41.723  25.330  27.463  1.00  0.00     0.173 A 
ATOM     60  F   UNL A   1      43.900  28.205  26.979  1.00  0.00    -0.203 F 
ATOM     61  C   UNL A   1      43.674  26.234  25.709  1.00  0.00     0.198 A 
ATOM     62  C   UNL A   1      42.108  24.544  26.382  1.00  0.00     0.198 A 
ATOM     63  F   UNL A   1      40.774  24.868  28.291  1.00  0.00    -0.203 F 
ATOM     64  F   UNL A   1      44.595  26.685  24.845  1.00  0.00    -0.200 F 
ATOM     65  C   UNL A   1      43.079  24.999  25.502  1.00  0.00     0.200 A 
ATOM     66  F   UNL A   1      41.539  23.346  26.189  1.00  0.00    -0.200 F 
ATOM     67  F   UNL A   1      43.436  24.249  24.450  1.00  0.00    -0.200 F 
ENDBRANCH  43  57
BRANCH  44  68
ATOM     68  C   UNL A   1      39.299  32.104  35.437  1.00  0.00     0.064 A 
ATOM     69  C   UNL A   1      38.480  31.536  36.420  1.00  0.00     0.173 A 
ATOM     70  C   UNL A   1      39.680  33.445  35.597  1.00  0.00     0.173 A 
ATOM     71  F   UNL A   1      38.068  30.266  36.296  1.00  0.00    -0.203 F 
ATOM     72  C   UNL A   1      38.053  32.281  37.518  1.00  0.00     0.198 A 
ATOM     73  C   UNL A   1      39.276  34.180  36.709  1.00  0.00     0.198 A 
ATOM     74  F   UNL A   1      40.462  34.035  34.682  1.00  0.00    -0.203 F 
ATOM     75  F   UNL A   1      37.242  31.724  38.427  1.00  0.00    -0.200 F 
ATOM     76  C   UNL A   1      38.459  33.598  37.666  1.00  0.00     0.200 A 
ATOM     77  F   UNL A   1      39.682  35.449  36.853  1.00  0.00    -0.200 F 
ATOM     78  F   UNL A   1      38.058  34.310  38.728  1.00  0.00    -0.200 F 
ENDBRANCH  44  68
BRANCH  56  79
ATOM     79  C   UNL A   1      44.609  27.716  34.439  1.00  0.00     0.064 A 
ATOM     80  C   UNL A   1      44.485  26.566  35.232  1.00  0.00     0.173 A 
ATOM     81  C   UNL A   1      45.823  28.418  34.478  1.00  0.00     0.173 A 
ATOM     82  F   UNL A   1      43.336  25.873  35.239  1.00  0.00    -0.203 F 
ATOM     83  C   UNL A   1      45.530  26.147  36.050  1.00  0.00     0.198 A 
ATOM     84  C   UNL A   1      46.873  27.983  35.280  1.00  0.00     0.198 A 
ATOM     85  F   UNL A   1      45.989  29.521  33.734  1.00  0.00    -0.203 F 
ATOM     86  F   UNL A   1      45.377  25.069  36.831  1.00  0.00    -0.200 F 
ATOM     87  C   UNL A   1      46.725  26.852  36.069  1.00  0.00     0.200 A 
ATOM     88  F   UNL A   1      48.030  28.660  35.292  1.00  0.00    -0.200 F 
ATOM     89  F   UNL A   1      47.731  26.446  36.856  1.00  0.00    -0.200 F 
ENDBRANCH  56  79
ENDBRANCH  30  31
ENDBRANCH  23  25
ENDBRANCH  22  23
ENDBRANCH  21  22
ENDBRANCH   1  21
TORSDOF 13
ENDMDL
MODEL 2
REMARK VINA RESULT:     -12.4      0.799      2.249
REMARK SMILES C[C@H](C(=O)OCCOC(=O)c1ccc(-c2c3nc(c(-c4c(F)c(F)c(F)c(F)c4F)c4ccc([nH]4)c(-c4c(F)c(F)c(F)c(F)c4F)c4nc(c(-c5c(F)c(F)c(F)c(F)c5F)c5ccc2[nH]5)C=C4)C=C3)cc1)N1C(=O)C[C@](C)(c2ccccc2)C1=O
REMARK SMILES IDX 6 1 5 2 3 3 4 4 2 5 1 6 74 7 75 8 86 9 76 10 77 11 78 12
REMARK SMILES IDX 87 13 79 14 80 15 81 16 85 17 82 18 84 19 83 20 7 21 8 22
REMARK SMILES IDX 9 23 10 24 11 25 12 26 73 27 13 28 72 29 14 30 15 31 16 32
REMARK SMILES IDX 66 33 17 34 71 35 65 36 67 37 18 38 70 39 64 40 63 41 19 43
REMARK SMILES IDX 51 44 31 45 50 46 32 47 35 48 49 49 68 50 33 51 34 52 48 54
REMARK SMILES IDX 69 55 36 56 20 57 21 58 29 59 22 60 23 61 27 62 30 63 24 64
REMARK SMILES IDX 25 65 28 66 26 67 52 68 53 69 61 70 54 71 55 72 59 73 62 74
REMARK SMILES IDX 56 75 57 76 60 77 58 78 37 79 38 80 46 81 39 82 40 83 44 84
REMARK SMILES IDX 47 85 41 86 42 87 45 88 43 89
REMARK H PARENT 67 42 35 53
REMARK Flexibility Score: inf
ROOT
ATOM      1  C   UNL A   1      32.393  29.148  24.897  1.00  0.00     0.274 C 
ENDROOT
BRANCH   1   2
ATOM      2  O   UNL A   1      31.478  28.035  24.818  1.00  0.00    -0.461 OA
BRANCH   2   3
ATOM      3  C   UNL A   1      31.706  27.018  25.696  1.00  0.00     0.329 C 
ATOM      4  O   UNL A   1      32.705  26.932  26.403  1.00  0.00    -0.250 OA
BRANCH   3   5
ATOM      5  C   UNL A   1      30.672  25.891  25.586  1.00  0.00     0.200 C 
ATOM      6  C   UNL A   1      29.535  26.279  24.637  1.00  0.00     0.044 C 
BRANCH   5   7
ATOM      7  N   UNL A   1      31.207  24.554  25.323  1.00  0.00    -0.268 N 
ATOM      8  C   UNL A   1      31.143  23.491  26.173  1.00  0.00     0.231 C 
ATOM      9  C   UNL A   1      31.844  24.238  24.155  1.00  0.00     0.240 C 
ATOM     10  O   UNL A   1      30.595  23.458  27.264  1.00  0.00    -0.274 OA
ATOM     11  C   UNL A   1      31.875  22.322  25.587  1.00  0.00     0.122 C 
ATOM     12  C   UNL A   1      32.527  22.881  24.312  1.00  0.00     0.081 C 
ATOM     13  O   UNL A   1      31.912  24.958  23.167  1.00  0.00    -0.273 OA
ATOM     14  C   UNL A   1      32.127  22.004  23.115  1.00  0.00     0.027 C 
BRANCH  12  15
ATOM     15  C   UNL A   1      34.042  23.087  24.494  1.00  0.00    -0.032 A 
ATOM     16  C   UNL A   1      34.943  23.033  23.417  1.00  0.00     0.005 A 
ATOM     17  C   UNL A   1      34.578  23.372  25.769  1.00  0.00     0.005 A 
ATOM     18  C   UNL A   1      36.309  23.272  23.601  1.00  0.00     0.000 A 
ATOM     19  C   UNL A   1      35.943  23.615  25.951  1.00  0.00     0.000 A 
ATOM     20  C   UNL A   1      36.808  23.568  24.866  1.00  0.00     0.000 A 
ENDBRANCH  12  15
ENDBRANCH   5   7
ENDBRANCH   3   5
ENDBRANCH   2   3
ENDBRANCH   1   2
BRANCH   1  21
ATOM     21  C   UNL A   1      31.809  30.291  25.719  1.00  0.00     0.275 C 
BRANCH  21  22
ATOM     22  O   UNL A   1      32.460  30.361  26.998  1.00  0.00    -0.458 OA
BRANCH  22  23
ATOM     23  C   UNL A   1      33.120  31.517  27.234  1.00  0.00     0.338 C 
ATOM     24  O   UNL A   1      32.699  32.657  27.142  1.00  0.00    -0.246 OA
BRANCH  23  25
ATOM     25  C   UNL A   1      34.474  31.205  27.706  1.00  0.00     0.060 A 
ATOM     26  C   UNL A   1      34.777  29.884  28.025  1.00  0.00     0.016 A 
ATOM     27  C   UNL A   1      35.379  32.228  27.981  1.00  0.00     0.016 A 
ATOM     28  C   UNL A   1      35.949  29.586  28.711  1.00  0.00     0.010 A 
ATOM     29  C   UNL A   1      36.595  31.915  28.595  1.00  0.00     0.010 A 
ATOM     30  C   UNL A   1      36.873  30.597  29.002  1.00  0.00    -0.014 A 
BRANCH  30  31
ATOM     31  C   UNL A   1      38.098  30.290  29.787  1.00  0.00     0.031 A 
ATOM     32  C   UNL A   1      39.168  29.415  29.196  1.00  0.00     0.074 A 
ATOM     33  C   UNL A   1      38.263  30.803  31.021  1.00  0.00     0.049 A 
ATOM     34  N   UNL A   1      40.209  28.870  29.775  1.00  0.00    -0.248 NA
ATOM     35  C   UNL A   1      39.047  29.101  27.764  1.00  0.00     0.031 C 
ATOM     36  C   UNL A   1      37.334  31.713  31.691  1.00  0.00     0.029 A 
ATOM     37  N   UNL A   1      39.275  30.629  31.932  1.00  0.00    -0.354 N 
ATOM     38  C   UNL A   1      40.831  28.106  28.796  1.00  0.00     0.074 A 
ATOM     39  C   UNL A   1      40.053  28.257  27.584  1.00  0.00     0.031 C 
ATOM     40  C   UNL A   1      37.828  32.035  32.896  1.00  0.00     0.029 A 
ATOM     41  C   UNL A   1      39.066  31.293  33.115  1.00  0.00     0.049 A 
ATOM     42  H   UNL A   1      40.074  30.081  31.755  1.00  0.00     0.167 HD
ATOM     43  C   UNL A   1      41.947  27.347  28.902  1.00  0.00     0.037 A 
ATOM     44  C   UNL A   1      39.766  31.273  34.265  1.00  0.00     0.037 A 
ATOM     45  C   UNL A   1      42.751  27.246  30.093  1.00  0.00     0.049 A 
ATOM     46  C   UNL A   1      40.988  30.406  34.367  1.00  0.00     0.074 A 
ATOM     47  C   UNL A   1      43.905  26.510  30.299  1.00  0.00     0.029 A 
ATOM     48  N   UNL A   1      42.492  27.921  31.277  1.00  0.00    -0.354 N 
ATOM     49  N   UNL A   1      41.530  29.631  33.459  1.00  0.00    -0.248 NA
ATOM     50  C   UNL A   1      41.686  30.396  35.659  1.00  0.00     0.031 C 
ATOM     51  C   UNL A   1      44.330  26.720  31.615  1.00  0.00     0.029 A 
ATOM     52  C   UNL A   1      43.461  27.614  32.219  1.00  0.00     0.049 A 
ATOM     53  H   UNL A   1      41.732  28.529  31.426  1.00  0.00     0.167 HD
ATOM     54  C   UNL A   1      42.632  29.046  34.067  1.00  0.00     0.074 A 
ATOM     55  C   UNL A   1      42.696  29.574  35.414  1.00  0.00     0.031 C 
ATOM     56  C   UNL A   1      43.508  28.148  33.554  1.00  0.00     0.037 A 
BRANCH  43  57
ATOM     57  C   UNL A   1      42.352  26.535  27.708  1.00  0.00     0.064 A 
ATOM     58  C   UNL A   1      43.331  26.976  26.807  1.00  0.00     0.173 A 
ATOM     59  C   UNL A   1      41.772  25.276  27.484  1.00  0.00     0.173 A 
ATOM     60  F   UNL A   1      43.905  28.178  26.970  1.00  0.00    -0.203 F 
ATOM     61  C   UNL A   1      43.701  26.196  25.714  1.00  0.00     0.198 A 
ATOM     62  C   UNL A   1      42.163  24.488  26.406  1.00  0.00     0.198 A 
ATOM     63  F   UNL A   1      40.834  24.805  28.320  1.00  0.00    -0.203 F 
ATOM     64  F   UNL A   1      44.611  26.654  24.843  1.00  0.00    -0.200 F 
ATOM     65  C   UNL A   1      43.122  24.951  25.518  1.00  0.00     0.200 A 
ATOM     66  F   UNL A   1      41.610  23.280  26.224  1.00  0.00    -0.200 F 
ATOM     67  F   UNL A   1      43.485  24.199  24.470  1.00  0.00    -0.200 F 
ENDBRANCH  43  57
BRANCH  44  68
ATOM     68  C   UNL A   1      39.296  32.072  35.424  1.00  0.00     0.064 A 
ATOM     69  C   UNL A   1      39.640  33.423  35.555  1.00  0.00     0.173 A 
ATOM     70  C   UNL A   1      38.478  31.506  36.413  1.00  0.00     0.173 A 
ATOM     71  F   UNL A   1      40.441  34.001  34.648  1.00  0.00    -0.203 F 
ATOM     72  C   UNL A   1      39.189  34.177  36.637  1.00  0.00     0.198 A 
ATOM     73  C   UNL A   1      38.005  32.268  37.479  1.00  0.00     0.198 A 
ATOM     74  F   UNL A   1      38.122  30.216  36.333  1.00  0.00    -0.203 F 
ATOM     75  F   UNL A   1      39.560  35.459  36.757  1.00  0.00    -0.200 F 
ATOM     76  C   UNL A   1      38.365  33.602  37.591  1.00  0.00     0.200 A 
ATOM     77  F   UNL A   1      37.198  31.710  38.392  1.00  0.00    -0.200 F 
ATOM     78  F   UNL A   1      37.922  34.330  38.625  1.00  0.00    -0.200 F 
ENDBRANCH  44  68
BRANCH  56  79
ATOM     79  C   UNL A   1      44.621  27.697  34.451  1.00  0.00     0.064 A 
ATOM     80  C   UNL A   1      45.830  28.404  34.526  1.00  0.00     0.173 A 
ATOM     81  C   UNL A   1      44.465  26.564  35.263  1.00  0.00     0.173 A 
ATOM     82  F   UNL A   1      46.031  29.483  33.756  1.00  0.00    -0.203 F 
ATOM     83  C   UNL A   1      46.853  27.979  35.370  1.00  0.00     0.198 A 
ATOM     84  C   UNL A   1      45.482  26.156  36.121  1.00  0.00     0.198 A 
ATOM     85  F   UNL A   1      43.326  25.859  35.227  1.00  0.00    -0.203 F 
ATOM     86  F   UNL A   1      48.017  28.644  35.397  1.00  0.00    -0.200 F 
ATOM     87  C   UNL A   1      46.677  26.859  36.170  1.00  0.00     0.200 A 
ATOM     88  F   UNL A   1      45.308  25.079  36.900  1.00  0.00    -0.200 F 
ATOM     89  F   UNL A   1      47.662  26.453  36.982  1.00  0.00    -0.200 F 
ENDBRANCH  56  79
ENDBRANCH  30  31
ENDBRANCH  23  25
ENDBRANCH  22  23
ENDBRANCH  21  22
ENDBRANCH   1  21
TORSDOF 13
ENDMDL
MODEL 3
REMARK VINA RESULT:     -12.4      4.326      9.769
REMARK SMILES C[C@H](C(=O)OCCOC(=O)c1ccc(-c2c3nc(c(-c4c(F)c(F)c(F)c(F)c4F)c4ccc([nH]4)c(-c4c(F)c(F)c(F)c(F)c4F)c4nc(c(-c5c(F)c(F)c(F)c(F)c5F)c5ccc2[nH]5)C=C4)C=C3)cc1)N1C(=O)C[C@](C)(c2ccccc2)C1=O
REMARK SMILES IDX 6 1 5 2 3 3 4 4 2 5 1 6 74 7 75 8 86 9 76 10 77 11 78 12
REMARK SMILES IDX 87 13 79 14 80 15 81 16 85 17 82 18 84 19 83 20 7 21 8 22
REMARK SMILES IDX 9 23 10 24 11 25 12 26 73 27 13 28 72 29 14 30 15 31 16 32
REMARK SMILES IDX 66 33 17 34 71 35 65 36 67 37 18 38 70 39 64 40 63 41 19 43
REMARK SMILES IDX 51 44 31 45 50 46 32 47 35 48 49 49 68 50 33 51 34 52 48 54
REMARK SMILES IDX 69 55 36 56 20 57 21 58 29 59 22 60 23 61 27 62 30 63 24 64
REMARK SMILES IDX 25 65 28 66 26 67 52 68 53 69 61 70 54 71 55 72 59 73 62 74
REMARK SMILES IDX 56 75 57 76 60 77 58 78 37 79 38 80 46 81 39 82 40 83 44 84
REMARK SMILES IDX 47 85 41 86 42 87 45 88 43 89
REMARK H PARENT 67 42 35 53
REMARK Flexibility Score: inf
ROOT
ATOM      1  C   UNL A   1      35.339  20.994  24.724  1.00  0.00     0.274 C 
ENDROOT
BRANCH   1   2
ATOM      2  O   UNL A   1      35.149  22.425  24.742  1.00  0.00    -0.461 OA
BRANCH   2   3
ATOM      3  C   UNL A   1      35.069  23.027  23.522  1.00  0.00     0.329 C 
ATOM      4  O   UNL A   1      36.014  23.136  22.746  1.00  0.00    -0.250 OA
BRANCH   3   5
ATOM      5  C   UNL A   1      33.721  23.718  23.285  1.00  0.00     0.200 C 
ATOM      6  C   UNL A   1      32.589  22.974  23.998  1.00  0.00     0.044 C 
BRANCH   5   7
ATOM      7  N   UNL A   1      33.692  25.163  23.516  1.00  0.00    -0.268 N 
ATOM      8  C   UNL A   1      33.938  25.784  24.704  1.00  0.00     0.231 C 
ATOM      9  C   UNL A   1      33.403  26.057  22.521  1.00  0.00     0.240 C 
ATOM     10  O   UNL A   1      34.267  25.253  25.753  1.00  0.00    -0.274 OA
ATOM     11  C   UNL A   1      33.728  27.261  24.563  1.00  0.00     0.122 C 
ATOM     12  C   UNL A   1      33.169  27.433  23.141  1.00  0.00     0.081 C 
ATOM     13  O   UNL A   1      33.286  25.783  21.334  1.00  0.00    -0.273 OA
ATOM     14  C   UNL A   1      34.029  28.453  22.380  1.00  0.00     0.027 C 
BRANCH  12  15
ATOM     15  C   UNL A   1      31.658  27.736  23.160  1.00  0.00    -0.032 A 
ATOM     16  C   UNL A   1      31.130  28.948  22.686  1.00  0.00     0.005 A 
ATOM     17  C   UNL A   1      30.741  26.774  23.636  1.00  0.00     0.005 A 
ATOM     18  C   UNL A   1      29.750  29.180  22.669  1.00  0.00     0.000 A 
ATOM     19  C   UNL A   1      29.362  27.006  23.614  1.00  0.00     0.000 A 
ATOM     20  C   UNL A   1      28.867  28.208  23.127  1.00  0.00     0.000 A 
ENDBRANCH  12  15
ENDBRANCH   5   7
ENDBRANCH   3   5
ENDBRANCH   2   3
ENDBRANCH   1   2
BRANCH   1  21
ATOM     21  C   UNL A   1      36.791  20.622  25.001  1.00  0.00     0.275 C 
BRANCH  21  22
ATOM     22  O   UNL A   1      37.472  21.725  25.621  1.00  0.00    -0.458 OA
BRANCH  22  23
ATOM     23  C   UNL A   1      38.752  21.471  25.977  1.00  0.00     0.338 C 
ATOM     24  O   UNL A   1      39.395  20.452  25.797  1.00  0.00    -0.246 OA
BRANCH  23  25
ATOM     25  C   UNL A   1      39.322  22.675  26.592  1.00  0.00     0.060 A 
ATOM     26  C   UNL A   1      38.865  23.918  26.163  1.00  0.00     0.016 A 
ATOM     27  C   UNL A   1      40.405  22.577  27.463  1.00  0.00     0.016 A 
ATOM     28  C   UNL A   1      39.551  25.073  26.526  1.00  0.00     0.010 A 
ATOM     29  C   UNL A   1      41.041  23.745  27.894  1.00  0.00     0.010 A 
ATOM     30  C   UNL A   1      40.645  25.000  27.397  1.00  0.00    -0.014 A 
BRANCH  30  31
ATOM     31  C   UNL A   1      41.414  26.226  27.738  1.00  0.00     0.031 A 
ATOM     32  C   UNL A   1      40.778  27.304  28.571  1.00  0.00     0.074 A 
ATOM     33  C   UNL A   1      42.684  26.372  27.317  1.00  0.00     0.049 A 
ATOM     34  N   UNL A   1      41.196  28.521  28.814  1.00  0.00    -0.248 NA
ATOM     35  C   UNL A   1      39.493  26.973  29.208  1.00  0.00     0.031 C 
ATOM     36  C   UNL A   1      43.444  25.382  26.553  1.00  0.00     0.029 A 
ATOM     37  N   UNL A   1      43.562  27.417  27.473  1.00  0.00    -0.354 N 
ATOM     38  C   UNL A   1      40.202  29.117  29.582  1.00  0.00     0.074 A 
ATOM     39  C   UNL A   1      39.161  28.129  29.765  1.00  0.00     0.031 C 
ATOM     40  C   UNL A   1      44.678  25.855  26.327  1.00  0.00     0.029 A 
ATOM     41  C   UNL A   1      44.772  27.211  26.857  1.00  0.00     0.049 A 
ATOM     42  H   UNL A   1      43.346  28.234  27.977  1.00  0.00     0.167 HD
ATOM     43  C   UNL A   1      40.166  30.374  30.083  1.00  0.00     0.037 A 
ATOM     44  C   UNL A   1      45.823  28.036  26.698  1.00  0.00     0.037 A 
ATOM     45  C   UNL A   1      41.231  31.334  29.947  1.00  0.00     0.049 A 
ATOM     46  C   UNL A   1      45.750  29.434  27.242  1.00  0.00     0.074 A 
ATOM     47  C   UNL A   1      41.293  32.632  30.427  1.00  0.00     0.029 A 
ATOM     48  N   UNL A   1      42.433  31.091  29.299  1.00  0.00    -0.354 N 
ATOM     49  N   UNL A   1      44.779  30.014  27.905  1.00  0.00    -0.248 NA
ATOM     50  C   UNL A   1      46.913  30.299  27.002  1.00  0.00     0.031 C 
ATOM     51  C   UNL A   1      42.521  33.182  30.045  1.00  0.00     0.029 A 
ATOM     52  C   UNL A   1      43.240  32.216  29.360  1.00  0.00     0.049 A 
ATOM     53  H   UNL A   1      42.676  30.244  28.859  1.00  0.00     0.167 HD
ATOM     54  C   UNL A   1      45.213  31.306  28.163  1.00  0.00     0.074 A 
ATOM     55  C   UNL A   1      46.546  31.419  27.607  1.00  0.00     0.031 C 
ATOM     56  C   UNL A   1      44.562  32.310  28.800  1.00  0.00     0.037 A 
BRANCH  43  57
ATOM     57  C   UNL A   1      38.918  30.801  30.799  1.00  0.00     0.064 A 
ATOM     58  C   UNL A   1      38.778  30.672  32.187  1.00  0.00     0.173 A 
ATOM     59  C   UNL A   1      37.860  31.383  30.082  1.00  0.00     0.173 A 
ATOM     60  F   UNL A   1      39.755  30.110  32.914  1.00  0.00    -0.203 F 
ATOM     61  C   UNL A   1      37.616  31.091  32.830  1.00  0.00     0.198 A 
ATOM     62  C   UNL A   1      36.712  31.824  30.731  1.00  0.00     0.198 A 
ATOM     63  F   UNL A   1      37.948  31.534  28.751  1.00  0.00    -0.203 F 
ATOM     64  F   UNL A   1      37.485  30.922  34.154  1.00  0.00    -0.200 F 
ATOM     65  C   UNL A   1      36.587  31.672  32.104  1.00  0.00     0.200 A 
ATOM     66  F   UNL A   1      35.723  32.395  30.028  1.00  0.00    -0.200 F 
ATOM     67  F   UNL A   1      35.472  32.081  32.725  1.00  0.00    -0.200 F 
ENDBRANCH  43  57
BRANCH  44  68
ATOM     68  C   UNL A   1      47.017  27.567  25.950  1.00  0.00     0.064 A 
ATOM     69  C   UNL A   1      47.091  27.695  24.558  1.00  0.00     0.173 A 
ATOM     70  C   UNL A   1      48.114  27.000  26.616  1.00  0.00     0.173 A 
ATOM     71  F   UNL A   1      46.057  28.207  23.876  1.00  0.00    -0.203 F 
ATOM     72  C   UNL A   1      48.217  27.266  23.857  1.00  0.00     0.198 A 
ATOM     73  C   UNL A   1      49.250  26.597  25.918  1.00  0.00     0.198 A 
ATOM     74  F   UNL A   1      48.089  26.855  27.949  1.00  0.00    -0.203 F 
ATOM     75  F   UNL A   1      48.250  27.368  22.522  1.00  0.00    -0.200 F 
ATOM     76  C   UNL A   1      49.298  26.727  24.538  1.00  0.00     0.200 A 
ATOM     77  F   UNL A   1      50.296  26.088  26.582  1.00  0.00    -0.200 F 
ATOM     78  F   UNL A   1      50.384  26.325  23.865  1.00  0.00    -0.200 F 
ENDBRANCH  44  68
BRANCH  56  79
ATOM     79  C   UNL A   1      45.293  33.611  28.944  1.00  0.00     0.064 A 
ATOM     80  C   UNL A   1      46.143  33.854  30.033  1.00  0.00     0.173 A 
ATOM     81  C   UNL A   1      45.165  34.610  27.969  1.00  0.00     0.173 A 
ATOM     82  F   UNL A   1      46.283  32.933  30.999  1.00  0.00    -0.203 F 
ATOM     83  C   UNL A   1      46.823  35.063  30.151  1.00  0.00     0.198 A 
ATOM     84  C   UNL A   1      45.865  35.808  28.080  1.00  0.00     0.198 A 
ATOM     85  F   UNL A   1      44.368  34.421  26.909  1.00  0.00    -0.203 F 
ATOM     86  F   UNL A   1      47.598  35.292  31.220  1.00  0.00    -0.200 F 
ATOM     87  C   UNL A   1      46.688  36.036  29.172  1.00  0.00     0.200 A 
ATOM     88  F   UNL A   1      45.740  36.745  27.129  1.00  0.00    -0.200 F 
ATOM     89  F   UNL A   1      47.345  37.199  29.287  1.00  0.00    -0.200 F 
ENDBRANCH  56  79
ENDBRANCH  30  31
ENDBRANCH  23  25
ENDBRANCH  22  23
ENDBRANCH  21  22
ENDBRANCH   1  21
TORSDOF 13
ENDMDL
