MODEL 1
REMARK VINA RESULT:     -12.1      0.000      0.000
REMARK SMILES O=C(OCCOC(=O)[C@@H](CCOC(F)(F)F)Cc1ccccc1Cl)c1ccc(-c2c3nc(c(-c4c(F)c(F)c(F)c(F)c4F)c4ccc([nH]4)c(-c4c(F)c(F)c(F)c(F)c4F)c4nc(c(-c5c(F)c(F)c(F)c(F)c5F)c5ccc2[nH]5)C=C4)C=C3)cc1
REMARK SMILES IDX 5 1 4 2 3 3 2 4 1 5 25 6 26 7 87 8 27 9 86 10 28 11 29 12
REMARK SMILES IDX 30 13 80 14 31 15 85 16 79 17 81 18 32 19 84 20 78 21 77 22
REMARK SMILES IDX 33 24 65 25 45 26 64 27 46 28 49 29 63 30 82 31 47 32 48 33
REMARK SMILES IDX 62 35 83 36 50 37 34 38 35 39 43 40 36 41 37 42 41 43 44 44
REMARK SMILES IDX 38 45 39 46 42 47 40 48 66 49 67 50 75 51 68 52 69 53 73 54
REMARK SMILES IDX 76 55 70 56 71 57 74 58 72 59 51 60 52 61 60 62 53 63 54 64
REMARK SMILES IDX 58 65 61 66 55 67 56 68 59 69 57 70 6 71 7 72 8 73 9 74
REMARK SMILES IDX 10 75 11 76 12 77 13 78 14 79 15 80 16 81 17 82 18 83 19 84
REMARK SMILES IDX 23 85 20 86 22 87 24 88 21 89
REMARK H PARENT 81 23 49 34
REMARK Flexibility Score: inf
ROOT
ATOM      1  C   UNL A   1      31.398  31.318  26.617  1.00  0.00     0.274 C 
ENDROOT
BRANCH   1   2
ATOM      2  C   UNL A   1      31.585  32.834  26.439  1.00  0.00     0.275 C 
BRANCH   2   3
ATOM      3  O   UNL A   1      32.194  33.415  27.584  1.00  0.00    -0.458 OA
BRANCH   3   4
ATOM      4  C   UNL A   1      33.512  33.623  27.705  1.00  0.00     0.338 C 
ATOM      5  O   UNL A   1      34.017  34.647  27.250  1.00  0.00    -0.246 OA
BRANCH   4   6
ATOM      6  C   UNL A   1      34.449  32.623  28.294  1.00  0.00     0.060 A 
ATOM      7  C   UNL A   1      34.403  30.797  28.244  1.00  0.00     0.016 A 
ATOM      8  C   UNL A   1      35.969  33.429  28.785  1.00  0.00     0.016 A 
ATOM      9  C   UNL A   1      35.924  29.852  28.565  1.00  0.00     0.010 A 
ATOM     10  C   UNL A   1      37.433  32.488  29.122  1.00  0.00     0.010 A 
ATOM     11  C   UNL A   1      37.426  30.719  29.104  1.00  0.00    -0.014 A 
BRANCH  11  12
ATOM     12  C   UNL A   1      38.422  29.974  29.948  1.00  0.00     0.031 A 
ATOM     13  C   UNL A   1      39.495  29.083  29.321  1.00  0.00     0.074 A 
ATOM     14  C   UNL A   1      38.540  30.395  31.217  1.00  0.00     0.049 A 
ATOM     15  N   UNL A   1      40.572  28.576  29.878  1.00  0.00    -0.248 NA
ATOM     16  C   UNL A   1      39.396  28.728  27.893  1.00  0.00     0.031 C 
ATOM     17  C   UNL A   1      37.600  31.300  31.872  1.00  0.00     0.029 A 
ATOM     18  N   UNL A   1      39.527  30.217  32.144  1.00  0.00    -0.354 N 
ATOM     19  C   UNL A   1      41.231  27.859  28.879  1.00  0.00     0.074 A 
ATOM     20  C   UNL A   1      40.488  28.020  27.667  1.00  0.00     0.031 C 
ATOM     21  C   UNL A   1      38.136  31.740  33.014  1.00  0.00     0.029 A 
ATOM     22  C   UNL A   1      39.345  30.975  33.276  1.00  0.00     0.049 A 
ATOM     23  H   UNL A   1      40.289  29.607  32.015  1.00  0.00     0.167 HD
ATOM     24  C   UNL A   1      42.333  27.080  28.974  1.00  0.00     0.037 A 
ATOM     25  C   UNL A   1      40.027  30.982  34.435  1.00  0.00     0.037 A 
ATOM     26  C   UNL A   1      43.035  26.883  30.206  1.00  0.00     0.049 A 
ATOM     27  C   UNL A   1      41.171  30.018  34.551  1.00  0.00     0.074 A 
ATOM     28  C   UNL A   1      44.088  26.034  30.478  1.00  0.00     0.029 A 
ATOM     29  N   UNL A   1      42.720  27.539  31.387  1.00  0.00    -0.354 N 
ATOM     30  N   UNL A   1      41.719  29.270  33.621  1.00  0.00    -0.248 NA
ATOM     31  C   UNL A   1      41.749  29.843  35.884  1.00  0.00     0.031 C 
ATOM     32  C   UNL A   1      44.350  26.109  31.848  1.00  0.00     0.029 A 
ATOM     33  C   UNL A   1      43.525  27.074  32.407  1.00  0.00     0.049 A 
ATOM     34  H   UNL A   1      42.027  28.233  31.482  1.00  0.00     0.167 HD
ATOM     35  C   UNL A   1      42.685  28.513  34.262  1.00  0.00     0.074 A 
ATOM     36  C   UNL A   1      42.690  28.942  35.648  1.00  0.00     0.031 C 
ATOM     37  C   UNL A   1      43.479  27.532  33.769  1.00  0.00     0.037 A 
BRANCH  24  38
ATOM     38  C   UNL A   1      42.740  26.267  27.774  1.00  0.00     0.064 A 
ATOM     39  C   UNL A   1      43.733  26.673  26.870  1.00  0.00     0.173 A 
ATOM     40  C   UNL A   1      42.125  25.024  27.548  1.00  0.00     0.173 A 
ATOM     41  F   UNL A   1      44.329  27.866  27.012  1.00  0.00    -0.203 F 
ATOM     42  C   UNL A   1      44.095  25.865  25.791  1.00  0.00     0.198 A 
ATOM     43  C   UNL A   1      42.506  24.208  26.485  1.00  0.00     0.198 A 
ATOM     44  F   UNL A   1      41.153  24.594  28.367  1.00  0.00    -0.203 F 
ATOM     45  F   UNL A   1      45.024  26.286  24.920  1.00  0.00    -0.200 F 
ATOM     46  C   UNL A   1      43.491  24.629  25.607  1.00  0.00     0.200 A 
ATOM     47  F   UNL A   1      41.919  23.015  26.315  1.00  0.00    -0.200 F 
ATOM     48  F   UNL A   1      43.850  23.848  24.579  1.00  0.00    -0.200 F 
ENDBRANCH  24  38
BRANCH  25  49
ATOM     49  C   UNL A   1      39.528  31.770  35.599  1.00  0.00     0.064 A 
ATOM     50  C   UNL A   1      38.532  31.285  36.456  1.00  0.00     0.173 A 
ATOM     51  C   UNL A   1      40.029  33.059  35.862  1.00  0.00     0.173 A 
ATOM     52  F   UNL A   1      37.986  30.080  36.239  1.00  0.00    -0.203 F 
ATOM     53  C   UNL A   1      38.056  32.058  37.517  1.00  0.00     0.198 A 
ATOM     54  C   UNL A   1      39.601  33.801  36.957  1.00  0.00     0.198 A 
ATOM     55  F   UNL A   1      40.958  33.600  35.059  1.00  0.00    -0.203 F 
ATOM     56  F   UNL A   1      37.052  31.601  38.277  1.00  0.00    -0.200 F 
ATOM     57  C   UNL A   1      38.602  33.307  37.775  1.00  0.00     0.200 A 
ATOM     58  F   UNL A   1      40.154  34.995  37.211  1.00  0.00    -0.200 F 
ATOM     59  F   UNL A   1      38.153  34.042  38.802  1.00  0.00    -0.200 F 
ENDBRANCH  25  49
BRANCH  37  60
ATOM     60  C   UNL A   1      44.419  26.886  34.735  1.00  0.00     0.064 A 
ATOM     61  C   UNL A   1      44.076  25.711  35.417  1.00  0.00     0.173 A 
ATOM     62  C   UNL A   1      45.687  27.439  34.956  1.00  0.00     0.173 A 
ATOM     63  F   UNL A   1      42.866  25.155  35.242  1.00  0.00    -0.203 F 
ATOM     64  C   UNL A   1      44.957  25.134  36.322  1.00  0.00     0.198 A 
ATOM     65  C   UNL A   1      46.583  26.836  35.829  1.00  0.00     0.198 A 
ATOM     66  F   UNL A   1      46.062  28.555  34.311  1.00  0.00    -0.203 F 
ATOM     67  F   UNL A   1      44.586  24.050  37.018  1.00  0.00    -0.200 F 
ATOM     68  C   UNL A   1      46.212  25.693  36.522  1.00  0.00     0.200 A 
ATOM     69  F   UNL A   1      47.801  27.363  36.003  1.00  0.00    -0.200 F 
ATOM     70  F   UNL A   1      47.063  25.134  37.392  1.00  0.00    -0.200 F 
ENDBRANCH  37  60
ENDBRANCH  11  12
ENDBRANCH   4   6
ENDBRANCH   3   4
ENDBRANCH   2   3
ENDBRANCH   1   2
BRANCH   1  71
ATOM     71  O   UNL A   1      31.224  30.585  25.376  1.00  0.00    -0.462 OA
BRANCH  71  72
ATOM     72  C   UNL A   1      32.068  29.575  25.021  1.00  0.00     0.309 C 
ATOM     73  O   UNL A   1      33.283  29.651  25.126  1.00  0.00    -0.252 OA
BRANCH  72  74
ATOM     74  C   UNL A   1      31.309  28.287  24.559  1.00  0.00     0.106 C 
BRANCH  74  75
ATOM     75  C   UNL A   1      31.318  27.798  22.766  1.00  0.00     0.044 C 
BRANCH  75  76
ATOM     76  C   UNL A   1      32.272  26.175  21.646  1.00  0.00     0.171 C 
BRANCH  76  77
ATOM     77  O   UNL A   1      33.492  25.220  22.013  1.00  0.00    -0.292 OA
BRANCH  77  78
ATOM     78  C   UNL A   1      33.387  23.799  22.173  1.00  0.00     0.522 C 
ATOM     79  F   UNL A   1      32.341  23.426  22.938  1.00  0.00    -0.144 F 
ATOM     80  F   UNL A   1      33.275  23.198  20.963  1.00  0.00    -0.144 F 
ATOM     81  F   UNL A   1      34.512  23.323  22.742  1.00  0.00    -0.144 F 
ENDBRANCH  77  78
ENDBRANCH  76  77
ENDBRANCH  75  76
ENDBRANCH  74  75
BRANCH  74  82
ATOM     82  C   UNL A   1      31.229  27.074  25.543  1.00  0.00     0.052 C 
BRANCH  82  83
ATOM     83  C   UNL A   1      32.286  26.005  25.787  1.00  0.00    -0.028 A 
ATOM     84  C   UNL A   1      33.638  26.182  25.464  1.00  0.00     0.005 A 
ATOM     85  C   UNL A   1      31.898  24.694  26.160  1.00  0.00     0.044 A 
ATOM     86  C   UNL A   1      34.561  25.132  25.521  1.00  0.00     0.000 A 
ATOM     87  C   UNL A   1      32.824  23.643  26.225  1.00  0.00     0.021 A 
ATOM     88  Cl  UNL A   1      30.253  24.271  26.501  1.00  0.00    -0.084 Cl
ATOM     89  C   UNL A   1      34.157  23.863  25.904  1.00  0.00     0.002 A 
ENDBRANCH  82  83
ENDBRANCH  74  82
ENDBRANCH  72  74
ENDBRANCH  71  72
ENDBRANCH   1  71
TORSDOF 17
ENDMDL
MODEL 2
REMARK VINA RESULT:     -11.9      1.236      7.611
REMARK SMILES O=C(OCCOC(=O)[C@@H](CCOC(F)(F)F)Cc1ccccc1Cl)c1ccc(-c2c3nc(c(-c4c(F)c(F)c(F)c(F)c4F)c4ccc([nH]4)c(-c4c(F)c(F)c(F)c(F)c4F)c4nc(c(-c5c(F)c(F)c(F)c(F)c5F)c5ccc2[nH]5)C=C4)C=C3)cc1
REMARK SMILES IDX 5 1 4 2 3 3 2 4 1 5 25 6 26 7 87 8 27 9 86 10 28 11 29 12
REMARK SMILES IDX 30 13 80 14 31 15 85 16 79 17 81 18 32 19 84 20 78 21 77 22
REMARK SMILES IDX 33 24 65 25 45 26 64 27 46 28 49 29 63 30 82 31 47 32 48 33
REMARK SMILES IDX 62 35 83 36 50 37 34 38 35 39 43 40 36 41 37 42 41 43 44 44
REMARK SMILES IDX 38 45 39 46 42 47 40 48 66 49 67 50 75 51 68 52 69 53 73 54
REMARK SMILES IDX 76 55 70 56 71 57 74 58 72 59 51 60 52 61 60 62 53 63 54 64
REMARK SMILES IDX 58 65 61 66 55 67 56 68 59 69 57 70 6 71 7 72 8 73 9 74
REMARK SMILES IDX 10 75 11 76 12 77 13 78 14 79 15 80 16 81 17 82 18 83 19 84
REMARK SMILES IDX 23 85 20 86 22 87 24 88 21 89
REMARK H PARENT 81 23 49 34
REMARK Flexibility Score: inf
ROOT
ATOM      1  C   UNL A   1      31.889  30.297  25.900  1.00  0.00     0.274 C 
ENDROOT
BRANCH   1   2
ATOM      2  C   UNL A   1      31.297  31.561  26.545  1.00  0.00     0.275 C 
BRANCH   2   3
ATOM      3  O   UNL A   1      32.220  32.641  26.499  1.00  0.00    -0.458 OA
BRANCH   3   4
ATOM      4  C   UNL A   1      32.880  33.105  27.569  1.00  0.00     0.338 C 
ATOM      5  O   UNL A   1      32.588  34.200  28.045  1.00  0.00    -0.246 OA
BRANCH   4   6
ATOM      6  C   UNL A   1      34.040  32.399  28.184  1.00  0.00     0.060 A 
ATOM      7  C   UNL A   1      34.352  30.610  28.393  1.00  0.00     0.016 A 
ATOM      8  C   UNL A   1      35.407  33.536  28.390  1.00  0.00     0.016 A 
ATOM      9  C   UNL A   1      36.050  30.022  28.673  1.00  0.00     0.010 A 
ATOM     10  C   UNL A   1      37.050  32.944  28.691  1.00  0.00     0.010 A 
ATOM     11  C   UNL A   1      37.391  31.223  28.919  1.00  0.00    -0.014 A 
BRANCH  11  12
ATOM     12  C   UNL A   1      38.579  30.814  29.743  1.00  0.00     0.031 A 
ATOM     13  C   UNL A   1      38.663  31.126  31.238  1.00  0.00     0.074 A 
ATOM     14  C   UNL A   1      39.376  29.883  29.194  1.00  0.00     0.049 A 
ATOM     15  N   UNL A   1      39.486  30.634  32.136  1.00  0.00    -0.248 NA
ATOM     16  C   UNL A   1      37.700  32.071  31.834  1.00  0.00     0.031 C 
ATOM     17  C   UNL A   1      39.316  29.475  27.793  1.00  0.00     0.029 A 
ATOM     18  N   UNL A   1      40.304  29.045  29.743  1.00  0.00    -0.354 N 
ATOM     19  C   UNL A   1      39.138  31.220  33.353  1.00  0.00     0.074 A 
ATOM     20  C   UNL A   1      38.006  32.064  33.119  1.00  0.00     0.031 C 
ATOM     21  C   UNL A   1      40.029  28.357  27.631  1.00  0.00     0.029 A 
ATOM     22  C   UNL A   1      40.771  28.106  28.856  1.00  0.00     0.049 A 
ATOM     23  H   UNL A   1      40.606  29.108  30.678  1.00  0.00     0.167 HD
ATOM     24  C   UNL A   1      39.745  31.113  34.557  1.00  0.00     0.037 A 
ATOM     25  C   UNL A   1      41.759  27.202  28.988  1.00  0.00     0.037 A 
ATOM     26  C   UNL A   1      40.911  30.309  34.764  1.00  0.00     0.049 A 
ATOM     27  C   UNL A   1      42.494  27.192  30.297  1.00  0.00     0.074 A 
ATOM     28  C   UNL A   1      41.700  30.198  35.891  1.00  0.00     0.029 A 
ATOM     29  N   UNL A   1      41.468  29.493  33.790  1.00  0.00    -0.354 N 
ATOM     30  N   UNL A   1      42.210  27.830  31.409  1.00  0.00    -0.248 NA
ATOM     31  C   UNL A   1      43.720  26.395  30.353  1.00  0.00     0.031 C 
ATOM     32  C   UNL A   1      42.788  29.385  35.568  1.00  0.00     0.029 A 
ATOM     33  C   UNL A   1      42.624  28.914  34.274  1.00  0.00     0.049 A 
ATOM     34  H   UNL A   1      41.095  29.348  32.891  1.00  0.00     0.167 HD
ATOM     35  C   UNL A   1      43.239  27.537  32.288  1.00  0.00     0.074 A 
ATOM     36  C   UNL A   1      44.117  26.612  31.598  1.00  0.00     0.031 C 
ATOM     37  C   UNL A   1      43.464  28.007  33.539  1.00  0.00     0.037 A 
BRANCH  24  38
ATOM     38  C   UNL A   1      39.269  31.997  35.680  1.00  0.00     0.064 A 
ATOM     39  C   UNL A   1      38.340  31.581  36.645  1.00  0.00     0.173 A 
ATOM     40  C   UNL A   1      39.793  33.296  35.798  1.00  0.00     0.173 A 
ATOM     41  F   UNL A   1      37.776  30.367  36.562  1.00  0.00    -0.203 F 
ATOM     42  C   UNL A   1      37.957  32.431  37.684  1.00  0.00     0.198 A 
ATOM     43  C   UNL A   1      39.429  34.131  36.851  1.00  0.00     0.198 A 
ATOM     44  F   UNL A   1      40.669  33.754  34.892  1.00  0.00    -0.203 F 
ATOM     45  F   UNL A   1      37.043  32.027  38.578  1.00  0.00    -0.200 F 
ATOM     46  C   UNL A   1      38.511  33.699  37.794  1.00  0.00     0.200 A 
ATOM     47  F   UNL A   1      39.970  35.354  36.951  1.00  0.00    -0.200 F 
ATOM     48  F   UNL A   1      38.154  34.507  38.801  1.00  0.00    -0.200 F 
ENDBRANCH  24  38
BRANCH  25  49
ATOM     49  C   UNL A   1      42.213  26.403  27.813  1.00  0.00     0.064 A 
ATOM     50  C   UNL A   1      41.713  25.123  27.543  1.00  0.00     0.173 A 
ATOM     51  C   UNL A   1      43.196  26.905  26.939  1.00  0.00     0.173 A 
ATOM     52  F   UNL A   1      40.802  24.571  28.357  1.00  0.00    -0.203 F 
ATOM     53  C   UNL A   1      42.182  24.381  26.458  1.00  0.00     0.198 A 
ATOM     54  C   UNL A   1      43.614  26.192  25.821  1.00  0.00     0.198 A 
ATOM     55  F   UNL A   1      43.745  28.110  27.160  1.00  0.00    -0.203 F 
ATOM     56  F   UNL A   1      41.741  23.131  26.264  1.00  0.00    -0.200 F 
ATOM     57  C   UNL A   1      43.120  24.922  25.590  1.00  0.00     0.200 A 
ATOM     58  F   UNL A   1      44.501  26.736  24.976  1.00  0.00    -0.200 F 
ATOM     59  F   UNL A   1      43.558  24.214  24.540  1.00  0.00    -0.200 F 
ENDBRANCH  25  49
BRANCH  37  60
ATOM     60  C   UNL A   1      44.690  27.505  34.229  1.00  0.00     0.064 A 
ATOM     61  C   UNL A   1      44.676  26.323  34.981  1.00  0.00     0.173 A 
ATOM     62  C   UNL A   1      45.899  28.205  34.109  1.00  0.00     0.173 A 
ATOM     63  F   UNL A   1      43.537  25.629  35.131  1.00  0.00    -0.203 F 
ATOM     64  C   UNL A   1      45.824  25.882  35.627  1.00  0.00     0.198 A 
ATOM     65  C   UNL A   1      47.054  27.737  34.720  1.00  0.00     0.198 A 
ATOM     66  F   UNL A   1      45.959  29.333  33.384  1.00  0.00    -0.203 F 
ATOM     67  F   UNL A   1      45.776  24.788  36.401  1.00  0.00    -0.200 F 
ATOM     68  C   UNL A   1      47.013  26.585  35.490  1.00  0.00     0.200 A 
ATOM     69  F   UNL A   1      48.205  28.404  34.568  1.00  0.00    -0.200 F 
ATOM     70  F   UNL A   1      48.119  26.156  36.111  1.00  0.00    -0.200 F 
ENDBRANCH  37  60
ENDBRANCH  11  12
ENDBRANCH   4   6
ENDBRANCH   3   4
ENDBRANCH   2   3
ENDBRANCH   1   2
BRANCH   1  71
ATOM     71  O   UNL A   1      31.158  29.076  26.191  1.00  0.00    -0.462 OA
BRANCH  71  72
ATOM     72  C   UNL A   1      31.764  28.007  26.781  1.00  0.00     0.309 C 
ATOM     73  O   UNL A   1      31.775  27.827  27.989  1.00  0.00    -0.252 OA
BRANCH  72  74
ATOM     74  C   UNL A   1      32.357  26.999  25.741  1.00  0.00     0.106 C 
BRANCH  74  75
ATOM     75  C   UNL A   1      33.708  27.543  24.588  1.00  0.00     0.044 C 
BRANCH  75  76
ATOM     76  C   UNL A   1      33.820  27.832  22.419  1.00  0.00     0.171 C 
BRANCH  76  77
ATOM     77  O   UNL A   1      33.654  26.806  21.211  1.00  0.00    -0.292 OA
BRANCH  77  78
ATOM     78  C   UNL A   1      32.853  25.618  21.264  1.00  0.00     0.522 C 
ATOM     79  F   UNL A   1      32.542  25.132  20.046  1.00  0.00    -0.144 F 
ATOM     80  F   UNL A   1      33.494  24.652  21.966  1.00  0.00    -0.144 F 
ATOM     81  F   UNL A   1      31.703  25.877  21.918  1.00  0.00    -0.144 F 
ENDBRANCH  77  78
ENDBRANCH  76  77
ENDBRANCH  75  76
ENDBRANCH  74  75
BRANCH  74  82
ATOM     82  C   UNL A   1      32.427  25.484  26.126  1.00  0.00     0.052 C 
BRANCH  82  83
ATOM     83  C   UNL A   1      32.592  24.295  25.188  1.00  0.00    -0.028 A 
ATOM     84  C   UNL A   1      31.515  23.696  24.520  1.00  0.00     0.005 A 
ATOM     85  C   UNL A   1      33.830  23.610  25.120  1.00  0.00     0.044 A 
ATOM     86  C   UNL A   1      31.653  22.497  23.811  1.00  0.00     0.000 A 
ATOM     87  C   UNL A   1      33.970  22.413  24.403  1.00  0.00     0.021 A 
ATOM     88  Cl  UNL A   1      35.243  24.155  25.962  1.00  0.00    -0.084 Cl
ATOM     89  C   UNL A   1      32.879  21.856  23.749  1.00  0.00     0.002 A 
ENDBRANCH  82  83
ENDBRANCH  74  82
ENDBRANCH  72  74
ENDBRANCH  71  72
ENDBRANCH   1  71
TORSDOF 17
ENDMDL
MODEL 3
REMARK VINA RESULT:     -11.8      1.252      7.717
REMARK SMILES O=C(OCCOC(=O)[C@@H](CCOC(F)(F)F)Cc1ccccc1Cl)c1ccc(-c2c3nc(c(-c4c(F)c(F)c(F)c(F)c4F)c4ccc([nH]4)c(-c4c(F)c(F)c(F)c(F)c4F)c4nc(c(-c5c(F)c(F)c(F)c(F)c5F)c5ccc2[nH]5)C=C4)C=C3)cc1
REMARK SMILES IDX 5 1 4 2 3 3 2 4 1 5 25 6 26 7 87 8 27 9 86 10 28 11 29 12
REMARK SMILES IDX 30 13 80 14 31 15 85 16 79 17 81 18 32 19 84 20 78 21 77 22
REMARK SMILES IDX 33 24 65 25 45 26 64 27 46 28 49 29 63 30 82 31 47 32 48 33
REMARK SMILES IDX 62 35 83 36 50 37 34 38 35 39 43 40 36 41 37 42 41 43 44 44
REMARK SMILES IDX 38 45 39 46 42 47 40 48 66 49 67 50 75 51 68 52 69 53 73 54
REMARK SMILES IDX 76 55 70 56 71 57 74 58 72 59 51 60 52 61 60 62 53 63 54 64
REMARK SMILES IDX 58 65 61 66 55 67 56 68 59 69 57 70 6 71 7 72 8 73 9 74
REMARK SMILES IDX 10 75 11 76 12 77 13 78 14 79 15 80 16 81 17 82 18 83 19 84
REMARK SMILES IDX 23 85 20 86 22 87 24 88 21 89
REMARK H PARENT 81 23 49 34
REMARK Flexibility Score: inf
ROOT
ATOM      1  C   UNL A   1      31.671  29.348  25.412  1.00  0.00     0.274 C 
ENDROOT
BRANCH   1   2
ATOM      2  C   UNL A   1      31.376  30.456  26.437  1.00  0.00     0.275 C 
BRANCH   2   3
ATOM      3  O   UNL A   1      32.234  31.573  26.248  1.00  0.00    -0.458 OA
BRANCH   3   4
ATOM      4  C   UNL A   1      32.922  32.162  27.235  1.00  0.00     0.338 C 
ATOM      5  O   UNL A   1      32.600  33.282  27.625  1.00  0.00    -0.246 OA
BRANCH   4   6
ATOM      6  C   UNL A   1      34.144  31.568  27.849  1.00  0.00     0.060 A 
ATOM      7  C   UNL A   1      34.621  29.816  28.062  1.00  0.00     0.016 A 
ATOM      8  C   UNL A   1      35.400  32.828  28.049  1.00  0.00     0.016 A 
ATOM      9  C   UNL A   1      36.367  29.389  28.340  1.00  0.00     0.010 A 
ATOM     10  C   UNL A   1      37.092  32.391  28.348  1.00  0.00     0.010 A 
ATOM     11  C   UNL A   1      37.591  30.709  28.580  1.00  0.00    -0.014 A 
BRANCH  11  12
ATOM     12  C   UNL A   1      38.813  30.415  29.402  1.00  0.00     0.031 A 
ATOM     13  C   UNL A   1      38.891  30.787  30.883  1.00  0.00     0.074 A 
ATOM     14  C   UNL A   1      39.667  29.522  28.876  1.00  0.00     0.049 A 
ATOM     15  N   UNL A   1      39.757  30.386  31.787  1.00  0.00    -0.248 NA
ATOM     16  C   UNL A   1      37.872  31.684  31.458  1.00  0.00     0.031 C 
ATOM     17  C   UNL A   1      39.621  29.059  27.492  1.00  0.00     0.029 A 
ATOM     18  N   UNL A   1      40.657  28.770  29.442  1.00  0.00    -0.354 N 
ATOM     19  C   UNL A   1      39.381  30.991  32.987  1.00  0.00     0.074 A 
ATOM     20  C   UNL A   1      38.191  31.745  32.738  1.00  0.00     0.031 C 
ATOM     21  C   UNL A   1      40.408  27.988  27.360  1.00  0.00     0.029 A 
ATOM     22  C   UNL A   1      41.179  27.834  28.583  1.00  0.00     0.049 A 
ATOM     23  H   UNL A   1      40.965  28.888  30.370  1.00  0.00     0.167 HD
ATOM     24  C   UNL A   1      40.007  30.971  34.186  1.00  0.00     0.037 A 
ATOM     25  C   UNL A   1      42.229  27.006  28.735  1.00  0.00     0.037 A 
ATOM     26  C   UNL A   1      41.229  30.257  34.406  1.00  0.00     0.049 A 
ATOM     27  C   UNL A   1      42.976  27.095  30.033  1.00  0.00     0.074 A 
ATOM     28  C   UNL A   1      42.035  30.243  35.526  1.00  0.00     0.029 A 
ATOM     29  N   UNL A   1      41.831  29.447  33.455  1.00  0.00    -0.354 N 
ATOM     30  N   UNL A   1      42.662  27.753  31.125  1.00  0.00    -0.248 NA
ATOM     31  C   UNL A   1      44.256  26.388  30.102  1.00  0.00     0.031 C 
ATOM     32  C   UNL A   1      43.175  29.496  35.218  1.00  0.00     0.029 A 
ATOM     33  C   UNL A   1      43.030  28.968  33.943  1.00  0.00     0.049 A 
ATOM     34  H   UNL A   1      41.459  29.243  32.566  1.00  0.00     0.167 HD
ATOM     35  C   UNL A   1      43.717  27.565  32.000  1.00  0.00     0.074 A 
ATOM     36  C   UNL A   1      44.651  26.678  31.333  1.00  0.00     0.031 C 
ATOM     37  C   UNL A   1      43.922  28.095  33.231  1.00  0.00     0.037 A 
BRANCH  24  38
ATOM     38  C   UNL A   1      39.483  31.860  35.282  1.00  0.00     0.064 A 
ATOM     39  C   UNL A   1      38.578  31.424  36.260  1.00  0.00     0.173 A 
ATOM     40  C   UNL A   1      39.935  33.189  35.361  1.00  0.00     0.173 A 
ATOM     41  F   UNL A   1      38.082  30.178  36.215  1.00  0.00    -0.203 F 
ATOM     42  C   UNL A   1      38.148  32.282  37.274  1.00  0.00     0.198 A 
ATOM     43  C   UNL A   1      39.526  34.034  36.389  1.00  0.00     0.198 A 
ATOM     44  F   UNL A   1      40.785  33.668  34.440  1.00  0.00    -0.203 F 
ATOM     45  F   UNL A   1      37.257  31.855  38.181  1.00  0.00    -0.200 F 
ATOM     46  C   UNL A   1      38.632  33.581  37.346  1.00  0.00     0.200 A 
ATOM     47  F   UNL A   1      39.998  35.287  36.452  1.00  0.00    -0.200 F 
ATOM     48  F   UNL A   1      38.231  34.398  38.328  1.00  0.00    -0.200 F 
ENDBRANCH  24  38
BRANCH  25  49
ATOM     49  C   UNL A   1      42.725  26.198  27.584  1.00  0.00     0.064 A 
ATOM     50  C   UNL A   1      42.279  24.893  27.341  1.00  0.00     0.173 A 
ATOM     51  C   UNL A   1      43.695  26.718  26.706  1.00  0.00     0.173 A 
ATOM     52  F   UNL A   1      41.383  24.324  28.161  1.00  0.00    -0.203 F 
ATOM     53  C   UNL A   1      42.787  24.144  26.278  1.00  0.00     0.198 A 
ATOM     54  C   UNL A   1      44.151  25.995  25.609  1.00  0.00     0.198 A 
ATOM     55  F   UNL A   1      44.193  27.948  26.901  1.00  0.00    -0.203 F 
ATOM     56  F   UNL A   1      42.397  22.873  26.111  1.00  0.00    -0.200 F 
ATOM     57  C   UNL A   1      43.709  24.701  25.404  1.00  0.00     0.200 A 
ATOM     58  F   UNL A   1      45.023  26.554  24.758  1.00  0.00    -0.200 F 
ATOM     59  F   UNL A   1      44.185  23.985  24.376  1.00  0.00    -0.200 F 
ENDBRANCH  25  49
BRANCH  37  60
ATOM     60  C   UNL A   1      45.188  27.705  33.922  1.00  0.00     0.064 A 
ATOM     61  C   UNL A   1      46.356  28.469  33.798  1.00  0.00     0.173 A 
ATOM     62  C   UNL A   1      45.219  26.567  34.740  1.00  0.00     0.173 A 
ATOM     63  F   UNL A   1      46.373  29.559  33.016  1.00  0.00    -0.203 F 
ATOM     64  C   UNL A   1      47.527  28.081  34.437  1.00  0.00     0.198 A 
ATOM     65  C   UNL A   1      46.379  26.207  35.412  1.00  0.00     0.198 A 
ATOM     66  F   UNL A   1      44.118  25.817  34.899  1.00  0.00    -0.203 F 
ATOM     67  F   UNL A   1      48.654  28.783  34.251  1.00  0.00    -0.200 F 
ATOM     68  C   UNL A   1      47.535  26.955  35.249  1.00  0.00     0.200 A 
ATOM     69  F   UNL A   1      46.379  25.134  36.213  1.00  0.00    -0.200 F 
ATOM     70  F   UNL A   1      48.664  26.584  35.867  1.00  0.00    -0.200 F 
ENDBRANCH  37  60
ENDBRANCH  11  12
ENDBRANCH   4   6
ENDBRANCH   3   4
ENDBRANCH   2   3
ENDBRANCH   1   2
BRANCH   1  71
ATOM     71  O   UNL A   1      33.052  29.296  24.966  1.00  0.00    -0.462 OA
BRANCH  71  72
ATOM     72  C   UNL A   1      33.410  28.621  23.838  1.00  0.00     0.309 C 
ATOM     73  O   UNL A   1      33.912  29.163  22.864  1.00  0.00    -0.252 OA
BRANCH  72  74
ATOM     74  C   UNL A   1      33.198  27.075  23.965  1.00  0.00     0.106 C 
BRANCH  74  75
ATOM     75  C   UNL A   1      33.079  26.026  22.436  1.00  0.00     0.044 C 
BRANCH  75  76
ATOM     76  C   UNL A   1      33.306  23.881  22.054  1.00  0.00     0.171 C 
BRANCH  76  77
ATOM     77  O   UNL A   1      33.456  22.645  23.048  1.00  0.00    -0.292 OA
BRANCH  77  78
ATOM     78  C   UNL A   1      32.411  21.706  23.333  1.00  0.00     0.522 C 
ATOM     79  F   UNL A   1      32.851  20.591  23.949  1.00  0.00    -0.144 F 
ATOM     80  F   UNL A   1      31.460  22.284  24.107  1.00  0.00    -0.144 F 
ATOM     81  F   UNL A   1      31.808  21.339  22.185  1.00  0.00    -0.144 F 
ENDBRANCH  77  78
ENDBRANCH  76  77
ENDBRANCH  75  76
ENDBRANCH  74  75
BRANCH  74  82
ATOM     82  C   UNL A   1      33.823  26.334  25.193  1.00  0.00     0.052 C 
BRANCH  82  83
ATOM     83  C   UNL A   1      33.392  25.001  25.790  1.00  0.00    -0.028 A 
ATOM     84  C   UNL A   1      32.122  24.788  26.343  1.00  0.00     0.005 A 
ATOM     85  C   UNL A   1      34.346  23.974  26.001  1.00  0.00     0.044 A 
ATOM     86  C   UNL A   1      31.803  23.623  27.050  1.00  0.00     0.000 A 
ATOM     87  C   UNL A   1      34.025  22.804  26.702  1.00  0.00     0.021 A 
ATOM     88  Cl  UNL A   1      35.990  24.109  25.470  1.00  0.00    -0.084 Cl
ATOM     89  C   UNL A   1      32.752  22.629  27.229  1.00  0.00     0.002 A 
ENDBRANCH  82  83
ENDBRANCH  74  82
ENDBRANCH  72  74
ENDBRANCH  71  72
ENDBRANCH   1  71
TORSDOF 17
ENDMDL
