MODEL 1
REMARK VINA RESULT:     -12.7      0.000      0.000
REMARK SMILES C/C(=C(/F)C(=O)OCCOC(=O)c1ccc(-c2c3nc(c(-c4c(F)c(F)c(F)c(F)c4F)c4ccc([nH]4)c(-c4c(F)c(F)c(F)c(F)c4F)c4nc(c(-c5c(F)c(F)c(F)c(F)c5F)c5ccc2[nH]5)C=C4)C=C3)cc1)c1cccc(-n2cnnn2)c1
REMARK SMILES IDX 8 1 7 2 5 3 6 4 3 5 1 6 2 7 4 8 76 9 77 10 86 11 78 12 80 13
REMARK SMILES IDX 79 14 81 15 82 16 85 17 83 18 84 19 9 20 10 21 11 22 12 23
REMARK SMILES IDX 13 24 14 25 75 26 15 27 74 28 16 29 17 30 18 31 68 32 19 33
REMARK SMILES IDX 73 34 67 35 69 36 20 37 72 38 66 39 65 40 21 42 53 43 33 44
REMARK SMILES IDX 52 45 34 46 37 47 51 48 70 49 35 50 36 51 50 53 71 54 38 55
REMARK SMILES IDX 22 56 23 57 31 58 24 59 25 60 29 61 32 62 26 63 27 64 30 65
REMARK SMILES IDX 28 66 54 67 55 68 63 69 56 70 57 71 61 72 64 73 58 74 59 75
REMARK SMILES IDX 62 76 60 77 39 78 40 79 48 80 41 81 42 82 46 83 49 84 43 85
REMARK SMILES IDX 44 86 47 87 45 88
REMARK H PARENT 69 41 37 52
REMARK Flexibility Score: inf
ROOT
ATOM      1  C   UNL A   1      33.646  28.445  24.726  1.00  0.00     0.275 C 
ENDROOT
BRANCH   1   2
ATOM      2  O   UNL A   1      33.260  27.370  25.610  1.00  0.00    -0.457 OA
BRANCH   2   3
ATOM      3  C   UNL A   1      32.492  26.398  25.053  1.00  0.00     0.367 C 
ATOM      4  O   UNL A   1      32.831  25.237  24.876  1.00  0.00    -0.243 OA
BRANCH   3   5
ATOM      5  C   UNL A   1      31.149  26.935  24.706  1.00  0.00     0.211 C 
ATOM      6  C   UNL A   1      31.496  26.770  22.205  1.00  0.00     0.048 C 
ATOM      7  C   UNL A   1      30.721  27.128  23.444  1.00  0.00    -0.000 C 
ATOM      8  F   UNL A   1      30.368  27.240  25.766  1.00  0.00    -0.199 F 
BRANCH   7   9
ATOM      9  C   UNL A   1      29.440  27.791  23.114  1.00  0.00    -0.017 A 
ATOM     10  C   UNL A   1      28.232  27.199  23.501  1.00  0.00     0.008 A 
ATOM     11  C   UNL A   1      29.442  29.122  22.665  1.00  0.00     0.037 A 
ATOM     12  C   UNL A   1      27.054  27.948  23.505  1.00  0.00     0.003 A 
ATOM     13  C   UNL A   1      28.268  29.887  22.707  1.00  0.00     0.069 A 
ATOM     14  C   UNL A   1      27.073  29.294  23.134  1.00  0.00     0.028 A 
BRANCH  13  15
ATOM     15  N   UNL A   1      28.298  31.270  22.404  1.00  0.00    -0.201 N 
ATOM     16  C   UNL A   1      28.575  32.338  23.221  1.00  0.00     0.252 A 
ATOM     17  N   UNL A   1      27.983  31.757  21.182  1.00  0.00    -0.040 NA
ATOM     18  N   UNL A   1      28.403  33.455  22.553  1.00  0.00    -0.117 NA
ATOM     19  N   UNL A   1      28.028  33.077  21.291  1.00  0.00    -0.024 NA
ENDBRANCH  13  15
ENDBRANCH   7   9
ENDBRANCH   3   5
ENDBRANCH   2   3
ENDBRANCH   1   2
BRANCH   1  20
ATOM     20  C   UNL A   1      32.827  29.701  25.025  1.00  0.00     0.275 C 
BRANCH  20  21
ATOM     21  O   UNL A   1      32.655  29.832  26.449  1.00  0.00    -0.458 OA
BRANCH  21  22
ATOM     22  C   UNL A   1      33.143  30.958  27.017  1.00  0.00     0.338 C 
ATOM     23  O   UNL A   1      32.570  32.037  27.110  1.00  0.00    -0.246 OA
BRANCH  22  24
ATOM     24  C   UNL A   1      34.491  30.716  27.585  1.00  0.00     0.060 A 
ATOM     25  C   UNL A   1      34.910  29.428  27.897  1.00  0.00     0.016 A 
ATOM     26  C   UNL A   1      35.315  31.792  27.922  1.00  0.00     0.016 A 
ATOM     27  C   UNL A   1      36.056  29.228  28.673  1.00  0.00     0.010 A 
ATOM     28  C   UNL A   1      36.540  31.571  28.572  1.00  0.00     0.010 A 
ATOM     29  C   UNL A   1      36.915  30.287  29.007  1.00  0.00    -0.014 A 
BRANCH  29  30
ATOM     30  C   UNL A   1      38.164  30.064  29.816  1.00  0.00     0.031 A 
ATOM     31  C   UNL A   1      39.320  29.266  29.251  1.00  0.00     0.074 A 
ATOM     32  C   UNL A   1      38.304  30.574  31.060  1.00  0.00     0.049 A 
ATOM     33  N   UNL A   1      40.339  28.721  29.873  1.00  0.00    -0.248 NA
ATOM     34  C   UNL A   1      39.324  29.034  27.798  1.00  0.00     0.031 C 
ATOM     35  C   UNL A   1      37.327  31.408  31.758  1.00  0.00     0.029 A 
ATOM     36  N   UNL A   1      39.342  30.473  31.962  1.00  0.00    -0.354 N 
ATOM     37  C   UNL A   1      41.040  28.004  28.911  1.00  0.00     0.074 A 
ATOM     38  C   UNL A   1      40.350  28.206  27.653  1.00  0.00     0.031 C 
ATOM     39  C   UNL A   1      37.838  31.814  32.927  1.00  0.00     0.029 A 
ATOM     40  C   UNL A   1      39.117  31.146  33.140  1.00  0.00     0.049 A 
ATOM     41  H   UNL A   1      40.166  29.967  31.780  1.00  0.00     0.167 HD
ATOM     42  C   UNL A   1      42.149  27.238  29.064  1.00  0.00     0.037 A 
ATOM     43  C   UNL A   1      39.808  31.177  34.296  1.00  0.00     0.037 A 
ATOM     44  C   UNL A   1      42.900  27.122  30.288  1.00  0.00     0.049 A 
ATOM     45  C   UNL A   1      41.030  30.321  34.451  1.00  0.00     0.074 A 
ATOM     46  C   UNL A   1      44.049  26.385  30.533  1.00  0.00     0.029 A 
ATOM     47  N   UNL A   1      42.601  27.789  31.466  1.00  0.00    -0.354 N 
ATOM     48  N   UNL A   1      41.602  29.534  33.574  1.00  0.00    -0.248 NA
ATOM     49  C   UNL A   1      41.672  30.316  35.774  1.00  0.00     0.031 C 
ATOM     50  C   UNL A   1      44.428  26.588  31.864  1.00  0.00     0.029 A 
ATOM     51  C   UNL A   1      43.538  27.477  32.439  1.00  0.00     0.049 A 
ATOM     52  H   UNL A   1      41.835  28.395  31.592  1.00  0.00     0.167 HD
ATOM     53  C   UNL A   1      42.662  28.934  34.238  1.00  0.00     0.074 A 
ATOM     54  C   UNL A   1      42.675  29.470  35.583  1.00  0.00     0.031 C 
ATOM     55  C   UNL A   1      43.535  28.008  33.776  1.00  0.00     0.037 A 
BRANCH  42  56
ATOM     56  C   UNL A   1      42.609  26.418  27.891  1.00  0.00     0.064 A 
ATOM     57  C   UNL A   1      42.081  25.152  27.605  1.00  0.00     0.173 A 
ATOM     58  C   UNL A   1      43.553  26.953  26.997  1.00  0.00     0.173 A 
ATOM     59  F   UNL A   1      41.186  24.594  28.433  1.00  0.00    -0.203 F 
ATOM     60  C   UNL A   1      42.494  24.442  26.478  1.00  0.00     0.198 A 
ATOM     61  C   UNL A   1      43.942  26.253  25.858  1.00  0.00     0.198 A 
ATOM     62  F   UNL A   1      44.082  28.165  27.218  1.00  0.00    -0.203 F 
ATOM     63  F   UNL A   1      42.003  23.218  26.243  1.00  0.00    -0.200 F 
ATOM     64  C   UNL A   1      43.416  24.996  25.602  1.00  0.00     0.200 A 
ATOM     65  F   UNL A   1      44.822  26.797  25.006  1.00  0.00    -0.200 F 
ATOM     66  F   UNL A   1      43.801  24.317  24.513  1.00  0.00    -0.200 F 
ENDBRANCH  42  56
BRANCH  43  67
ATOM     67  C   UNL A   1      39.299  31.990  35.434  1.00  0.00     0.064 A 
ATOM     68  C   UNL A   1      38.468  31.425  36.410  1.00  0.00     0.173 A 
ATOM     69  C   UNL A   1      39.659  33.338  35.584  1.00  0.00     0.173 A 
ATOM     70  F   UNL A   1      38.067  30.150  36.292  1.00  0.00    -0.203 F 
ATOM     71  C   UNL A   1      38.026  32.175  37.498  1.00  0.00     0.198 A 
ATOM     72  C   UNL A   1      39.246  34.076  36.690  1.00  0.00     0.198 A 
ATOM     73  F   UNL A   1      40.447  33.928  34.673  1.00  0.00    -0.203 F 
ATOM     74  F   UNL A   1      37.209  31.620  38.404  1.00  0.00    -0.200 F 
ATOM     75  C   UNL A   1      38.427  33.495  37.645  1.00  0.00     0.200 A 
ATOM     76  F   UNL A   1      39.653  35.344  36.836  1.00  0.00    -0.200 F 
ATOM     77  F   UNL A   1      38.022  34.208  38.704  1.00  0.00    -0.200 F 
ENDBRANCH  43  67
BRANCH  55  78
ATOM     78  C   UNL A   1      44.582  27.522  34.732  1.00  0.00     0.064 A 
ATOM     79  C   UNL A   1      45.809  28.187  34.866  1.00  0.00     0.173 A 
ATOM     80  C   UNL A   1      44.348  26.396  35.534  1.00  0.00     0.173 A 
ATOM     81  F   UNL A   1      46.083  29.258  34.106  1.00  0.00    -0.203 F 
ATOM     82  C   UNL A   1      46.776  27.727  35.755  1.00  0.00     0.198 A 
ATOM     83  C   UNL A   1      45.310  25.951  36.438  1.00  0.00     0.198 A 
ATOM     84  F   UNL A   1      43.189  25.728  35.442  1.00  0.00    -0.203 F 
ATOM     85  F   UNL A   1      47.959  28.352  35.839  1.00  0.00    -0.200 F 
ATOM     86  C   UNL A   1      46.525  26.613  36.543  1.00  0.00     0.200 A 
ATOM     87  F   UNL A   1      45.064  24.879  37.202  1.00  0.00    -0.200 F 
ATOM     88  F   UNL A   1      47.457  26.171  37.398  1.00  0.00    -0.200 F 
ENDBRANCH  55  78
ENDBRANCH  29  30
ENDBRANCH  22  24
ENDBRANCH  21  22
ENDBRANCH  20  21
ENDBRANCH   1  20
TORSDOF 13
ENDMDL
MODEL 2
REMARK VINA RESULT:     -12.6      4.477      8.850
REMARK SMILES C/C(=C(/F)C(=O)OCCOC(=O)c1ccc(-c2c3nc(c(-c4c(F)c(F)c(F)c(F)c4F)c4ccc([nH]4)c(-c4c(F)c(F)c(F)c(F)c4F)c4nc(c(-c5c(F)c(F)c(F)c(F)c5F)c5ccc2[nH]5)C=C4)C=C3)cc1)c1cccc(-n2cnnn2)c1
REMARK SMILES IDX 8 1 7 2 5 3 6 4 3 5 1 6 2 7 4 8 76 9 77 10 86 11 78 12 80 13
REMARK SMILES IDX 79 14 81 15 82 16 85 17 83 18 84 19 9 20 10 21 11 22 12 23
REMARK SMILES IDX 13 24 14 25 75 26 15 27 74 28 16 29 17 30 18 31 68 32 19 33
REMARK SMILES IDX 73 34 67 35 69 36 20 37 72 38 66 39 65 40 21 42 53 43 33 44
REMARK SMILES IDX 52 45 34 46 37 47 51 48 70 49 35 50 36 51 50 53 71 54 38 55
REMARK SMILES IDX 22 56 23 57 31 58 24 59 25 60 29 61 32 62 26 63 27 64 30 65
REMARK SMILES IDX 28 66 54 67 55 68 63 69 56 70 57 71 61 72 64 73 58 74 59 75
REMARK SMILES IDX 62 76 60 77 39 78 40 79 48 80 41 81 42 82 46 83 49 84 43 85
REMARK SMILES IDX 44 86 47 87 45 88
REMARK H PARENT 69 41 37 52
REMARK Flexibility Score: inf
ROOT
ATOM      1  C   UNL A   1      42.289  21.003  26.199  1.00  0.00     0.275 C 
ENDROOT
BRANCH   1   2
ATOM      2  O   UNL A   1      41.029  21.390  25.610  1.00  0.00    -0.457 OA
BRANCH   2   3
ATOM      3  C   UNL A   1      39.991  21.523  26.475  1.00  0.00     0.367 C 
ATOM      4  O   UNL A   1      40.061  21.419  27.692  1.00  0.00    -0.243 OA
BRANCH   3   5
ATOM      5  C   UNL A   1      38.740  21.846  25.739  1.00  0.00     0.211 C 
ATOM      6  C   UNL A   1      38.703  24.277  26.441  1.00  0.00     0.048 C 
ATOM      7  C   UNL A   1      38.154  23.058  25.750  1.00  0.00    -0.000 C 
ATOM      8  F   UNL A   1      38.202  20.814  25.052  1.00  0.00    -0.199 F 
BRANCH   7   9
ATOM      9  C   UNL A   1      36.838  23.329  25.130  1.00  0.00    -0.017 A 
ATOM     10  C   UNL A   1      36.657  23.110  23.759  1.00  0.00     0.008 A 
ATOM     11  C   UNL A   1      35.713  23.538  25.947  1.00  0.00     0.037 A 
ATOM     12  C   UNL A   1      35.371  23.032  23.225  1.00  0.00     0.003 A 
ATOM     13  C   UNL A   1      34.420  23.420  25.419  1.00  0.00     0.069 A 
ATOM     14  C   UNL A   1      34.254  23.162  24.053  1.00  0.00     0.028 A 
BRANCH  13  15
ATOM     15  N   UNL A   1      33.289  23.477  26.268  1.00  0.00    -0.201 N 
ATOM     16  C   UNL A   1      32.757  22.506  27.080  1.00  0.00     0.252 A 
ATOM     17  N   UNL A   1      32.493  24.567  26.354  1.00  0.00    -0.040 NA
ATOM     18  N   UNL A   1      31.650  22.952  27.627  1.00  0.00    -0.117 NA
ATOM     19  N   UNL A   1      31.495  24.230  27.160  1.00  0.00    -0.024 NA
ENDBRANCH  13  15
ENDBRANCH   7   9
ENDBRANCH   3   5
ENDBRANCH   2   3
ENDBRANCH   1   2
BRANCH   1  20
ATOM     20  C   UNL A   1      43.453  21.587  25.398  1.00  0.00     0.275 C 
BRANCH  20  21
ATOM     21  O   UNL A   1      43.018  22.782  24.723  1.00  0.00    -0.458 OA
BRANCH  21  22
ATOM     22  C   UNL A   1      43.808  23.873  24.851  1.00  0.00     0.338 C 
ATOM     23  O   UNL A   1      44.863  24.083  24.265  1.00  0.00    -0.246 OA
BRANCH  22  24
ATOM     24  C   UNL A   1      43.201  24.852  25.785  1.00  0.00     0.060 A 
ATOM     25  C   UNL A   1      43.353  26.219  25.580  1.00  0.00     0.016 A 
ATOM     26  C   UNL A   1      42.566  24.412  26.949  1.00  0.00     0.016 A 
ATOM     27  C   UNL A   1      43.020  27.124  26.593  1.00  0.00     0.010 A 
ATOM     28  C   UNL A   1      42.100  25.338  27.896  1.00  0.00     0.010 A 
ATOM     29  C   UNL A   1      42.360  26.713  27.762  1.00  0.00    -0.014 A 
BRANCH  29  30
ATOM     30  C   UNL A   1      41.975  27.695  28.835  1.00  0.00     0.031 A 
ATOM     31  C   UNL A   1      42.860  27.904  30.046  1.00  0.00     0.074 A 
ATOM     32  C   UNL A   1      40.842  28.427  28.753  1.00  0.00     0.049 A 
ATOM     33  N   UNL A   1      42.577  28.467  31.197  1.00  0.00    -0.248 NA
ATOM     34  C   UNL A   1      44.239  27.401  29.960  1.00  0.00     0.031 C 
ATOM     35  C   UNL A   1      39.886  28.405  27.647  1.00  0.00     0.029 A 
ATOM     36  N   UNL A   1      40.303  29.353  29.622  1.00  0.00    -0.354 N 
ATOM     37  C   UNL A   1      43.699  28.295  31.998  1.00  0.00     0.074 A 
ATOM     38  C   UNL A   1      44.684  27.600  31.194  1.00  0.00     0.031 C 
ATOM     39  C   UNL A   1      38.938  29.327  27.855  1.00  0.00     0.029 A 
ATOM     40  C   UNL A   1      39.123  29.903  29.182  1.00  0.00     0.049 A 
ATOM     41  H   UNL A   1      40.725  29.598  30.477  1.00  0.00     0.167 HD
ATOM     42  C   UNL A   1      43.887  28.668  33.288  1.00  0.00     0.037 A 
ATOM     43  C   UNL A   1      38.238  30.718  29.787  1.00  0.00     0.037 A 
ATOM     44  C   UNL A   1      42.954  29.453  34.056  1.00  0.00     0.049 A 
ATOM     45  C   UNL A   1      38.458  31.119  31.216  1.00  0.00     0.074 A 
ATOM     46  C   UNL A   1      43.068  29.897  35.365  1.00  0.00     0.029 A 
ATOM     47  N   UNL A   1      41.750  29.944  33.576  1.00  0.00    -0.354 N 
ATOM     48  N   UNL A   1      39.459  30.829  32.009  1.00  0.00    -0.248 NA
ATOM     49  C   UNL A   1      37.399  31.918  31.850  1.00  0.00     0.031 C 
ATOM     50  C   UNL A   1      41.922  30.635  35.682  1.00  0.00     0.029 A 
ATOM     51  C   UNL A   1      41.111  30.681  34.562  1.00  0.00     0.049 A 
ATOM     52  H   UNL A   1      41.401  29.793  32.668  1.00  0.00     0.167 HD
ATOM     53  C   UNL A   1      39.148  31.398  33.235  1.00  0.00     0.074 A 
ATOM     54  C   UNL A   1      37.880  32.078  33.076  1.00  0.00     0.031 C 
ATOM     55  C   UNL A   1      39.845  31.344  34.395  1.00  0.00     0.037 A 
BRANCH  42  56
ATOM     56  C   UNL A   1      45.134  28.201  33.985  1.00  0.00     0.064 A 
ATOM     57  C   UNL A   1      46.299  28.978  34.042  1.00  0.00     0.173 A 
ATOM     58  C   UNL A   1      45.131  26.972  34.667  1.00  0.00     0.173 A 
ATOM     59  F   UNL A   1      46.357  30.152  33.398  1.00  0.00    -0.203 F 
ATOM     60  C   UNL A   1      47.421  28.535  34.742  1.00  0.00     0.198 A 
ATOM     61  C   UNL A   1      46.243  26.546  35.388  1.00  0.00     0.198 A 
ATOM     62  F   UNL A   1      44.038  26.194  34.653  1.00  0.00    -0.203 F 
ATOM     63  F   UNL A   1      48.537  29.277  34.754  1.00  0.00    -0.200 F 
ATOM     64  C   UNL A   1      47.389  27.325  35.420  1.00  0.00     0.200 A 
ATOM     65  F   UNL A   1      46.204  25.384  36.055  1.00  0.00    -0.200 F 
ATOM     66  F   UNL A   1      48.464  26.908  36.103  1.00  0.00    -0.200 F 
ENDBRANCH  42  56
BRANCH  43  67
ATOM     67  C   UNL A   1      37.009  31.137  29.060  1.00  0.00     0.064 A 
ATOM     68  C   UNL A   1      35.964  30.233  28.829  1.00  0.00     0.173 A 
ATOM     69  C   UNL A   1      36.843  32.456  28.610  1.00  0.00     0.173 A 
ATOM     70  F   UNL A   1      36.089  28.953  29.208  1.00  0.00    -0.203 F 
ATOM     71  C   UNL A   1      34.795  30.636  28.185  1.00  0.00     0.198 A 
ATOM     72  C   UNL A   1      35.661  32.866  27.999  1.00  0.00     0.198 A 
ATOM     73  F   UNL A   1      37.817  33.358  28.800  1.00  0.00    -0.203 F 
ATOM     74  F   UNL A   1      33.821  29.746  27.951  1.00  0.00    -0.200 F 
ATOM     75  C   UNL A   1      34.639  31.955  27.784  1.00  0.00     0.200 A 
ATOM     76  F   UNL A   1      35.508  34.146  27.633  1.00  0.00    -0.200 F 
ATOM     77  F   UNL A   1      33.505  32.348  27.188  1.00  0.00    -0.200 F 
ENDBRANCH  43  67
BRANCH  55  78
ATOM     78  C   UNL A   1      39.254  32.048  35.578  1.00  0.00     0.064 A 
ATOM     79  C   UNL A   1      38.434  31.370  36.492  1.00  0.00     0.173 A 
ATOM     80  C   UNL A   1      39.526  33.403  35.812  1.00  0.00     0.173 A 
ATOM     81  F   UNL A   1      38.131  30.078  36.299  1.00  0.00    -0.203 F 
ATOM     82  C   UNL A   1      37.887  32.033  37.588  1.00  0.00     0.198 A 
ATOM     83  C   UNL A   1      38.994  34.058  36.920  1.00  0.00     0.198 A 
ATOM     84  F   UNL A   1      40.306  34.092  34.966  1.00  0.00    -0.203 F 
ATOM     85  F   UNL A   1      37.072  31.379  38.427  1.00  0.00    -0.200 F 
ATOM     86  C   UNL A   1      38.171  33.374  37.804  1.00  0.00     0.200 A 
ATOM     87  F   UNL A   1      39.274  35.351  37.131  1.00  0.00    -0.200 F 
ATOM     88  F   UNL A   1      37.644  34.010  38.858  1.00  0.00    -0.200 F 
ENDBRANCH  55  78
ENDBRANCH  29  30
ENDBRANCH  22  24
ENDBRANCH  21  22
ENDBRANCH  20  21
ENDBRANCH   1  20
TORSDOF 13
ENDMDL
MODEL 3
REMARK VINA RESULT:     -12.5      0.640      2.087
REMARK SMILES C/C(=C(/F)C(=O)OCCOC(=O)c1ccc(-c2c3nc(c(-c4c(F)c(F)c(F)c(F)c4F)c4ccc([nH]4)c(-c4c(F)c(F)c(F)c(F)c4F)c4nc(c(-c5c(F)c(F)c(F)c(F)c5F)c5ccc2[nH]5)C=C4)C=C3)cc1)c1cccc(-n2cnnn2)c1
REMARK SMILES IDX 8 1 7 2 5 3 6 4 3 5 1 6 2 7 4 8 76 9 77 10 86 11 78 12 80 13
REMARK SMILES IDX 79 14 81 15 82 16 85 17 83 18 84 19 9 20 10 21 11 22 12 23
REMARK SMILES IDX 13 24 14 25 75 26 15 27 74 28 16 29 17 30 18 31 68 32 19 33
REMARK SMILES IDX 73 34 67 35 69 36 20 37 72 38 66 39 65 40 21 42 53 43 33 44
REMARK SMILES IDX 52 45 34 46 37 47 51 48 70 49 35 50 36 51 50 53 71 54 38 55
REMARK SMILES IDX 22 56 23 57 31 58 24 59 25 60 29 61 32 62 26 63 27 64 30 65
REMARK SMILES IDX 28 66 54 67 55 68 63 69 56 70 57 71 61 72 64 73 58 74 59 75
REMARK SMILES IDX 62 76 60 77 39 78 40 79 48 80 41 81 42 82 46 83 49 84 43 85
REMARK SMILES IDX 44 86 47 87 45 88
REMARK H PARENT 69 41 37 52
REMARK Flexibility Score: inf
ROOT
ATOM      1  C   UNL A   1      32.081  28.161  27.548  1.00  0.00     0.275 C 
ENDROOT
BRANCH   1   2
ATOM      2  O   UNL A   1      32.936  27.497  26.593  1.00  0.00    -0.457 OA
BRANCH   2   3
ATOM      3  C   UNL A   1      32.375  26.458  25.924  1.00  0.00     0.367 C 
ATOM      4  O   UNL A   1      32.807  25.314  25.894  1.00  0.00    -0.243 OA
BRANCH   3   5
ATOM      5  C   UNL A   1      31.127  26.893  25.242  1.00  0.00     0.211 C 
ATOM      6  C   UNL A   1      32.313  27.844  23.219  1.00  0.00     0.048 C 
ATOM      7  C   UNL A   1      31.103  27.534  24.058  1.00  0.00    -0.000 C 
ATOM      8  F   UNL A   1      29.986  26.611  25.909  1.00  0.00    -0.199 F 
BRANCH   7   9
ATOM      9  C   UNL A   1      29.867  28.085  23.458  1.00  0.00    -0.017 A 
ATOM     10  C   UNL A   1      28.682  27.343  23.506  1.00  0.00     0.008 A 
ATOM     11  C   UNL A   1      29.817  29.440  23.091  1.00  0.00     0.037 A 
ATOM     12  C   UNL A   1      27.456  27.963  23.259  1.00  0.00     0.003 A 
ATOM     13  C   UNL A   1      28.584  30.074  22.883  1.00  0.00     0.069 A 
ATOM     14  C   UNL A   1      27.401  29.328  22.973  1.00  0.00     0.028 A 
BRANCH  13  15
ATOM     15  N   UNL A   1      28.520  31.471  22.666  1.00  0.00    -0.201 N 
ATOM     16  C   UNL A   1      29.015  32.497  23.433  1.00  0.00     0.252 A 
ATOM     17  N   UNL A   1      27.865  32.019  21.617  1.00  0.00    -0.040 NA
ATOM     18  N   UNL A   1      28.655  33.646  22.910  1.00  0.00    -0.117 NA
ATOM     19  N   UNL A   1      27.935  33.332  21.788  1.00  0.00    -0.024 NA
ENDBRANCH  13  15
ENDBRANCH   7   9
ENDBRANCH   3   5
ENDBRANCH   2   3
ENDBRANCH   1   2
BRANCH   1  20
ATOM     20  C   UNL A   1      31.748  29.576  27.073  1.00  0.00     0.275 C 
BRANCH  20  21
ATOM     21  O   UNL A   1      32.919  30.172  26.486  1.00  0.00    -0.458 OA
BRANCH  21  22
ATOM     22  C   UNL A   1      33.425  31.260  27.110  1.00  0.00     0.338 C 
ATOM     23  O   UNL A   1      32.861  32.336  27.272  1.00  0.00    -0.246 OA
BRANCH  22  24
ATOM     24  C   UNL A   1      34.779  30.977  27.642  1.00  0.00     0.060 A 
ATOM     25  C   UNL A   1      35.178  29.672  27.912  1.00  0.00     0.016 A 
ATOM     26  C   UNL A   1      35.632  32.027  27.988  1.00  0.00     0.016 A 
ATOM     27  C   UNL A   1      36.336  29.430  28.658  1.00  0.00     0.010 A 
ATOM     28  C   UNL A   1      36.866  31.765  28.607  1.00  0.00     0.010 A 
ATOM     29  C   UNL A   1      37.223  30.463  29.000  1.00  0.00    -0.014 A 
BRANCH  29  30
ATOM     30  C   UNL A   1      38.484  30.194  29.776  1.00  0.00     0.031 A 
ATOM     31  C   UNL A   1      39.609  29.383  29.168  1.00  0.00     0.074 A 
ATOM     32  C   UNL A   1      38.663  30.673  31.027  1.00  0.00     0.049 A 
ATOM     33  N   UNL A   1      40.628  28.803  29.754  1.00  0.00    -0.248 NA
ATOM     34  C   UNL A   1      39.576  29.185  27.710  1.00  0.00     0.031 C 
ATOM     35  C   UNL A   1      37.720  31.513  31.765  1.00  0.00     0.029 A 
ATOM     36  N   UNL A   1      39.717  30.529  31.904  1.00  0.00    -0.354 N 
ATOM     37  C   UNL A   1      41.293  28.092  28.762  1.00  0.00     0.074 A 
ATOM     38  C   UNL A   1      40.580  28.337  27.525  1.00  0.00     0.031 C 
ATOM     39  C   UNL A   1      38.266  31.880  32.932  1.00  0.00     0.029 A 
ATOM     40  C   UNL A   1      39.533  31.180  33.101  1.00  0.00     0.049 A 
ATOM     41  H   UNL A   1      40.526  30.009  31.693  1.00  0.00     0.167 HD
ATOM     42  C   UNL A   1      42.387  27.299  28.873  1.00  0.00     0.037 A 
ATOM     43  C   UNL A   1      40.249  31.169  34.242  1.00  0.00     0.037 A 
ATOM     44  C   UNL A   1      43.162  27.139  30.078  1.00  0.00     0.049 A 
ATOM     45  C   UNL A   1      41.455  30.283  34.351  1.00  0.00     0.074 A 
ATOM     46  C   UNL A   1      44.299  26.371  30.280  1.00  0.00     0.029 A 
ATOM     47  N   UNL A   1      42.903  27.785  31.276  1.00  0.00    -0.354 N 
ATOM     48  N   UNL A   1      41.990  29.504  33.444  1.00  0.00    -0.248 NA
ATOM     49  C   UNL A   1      42.125  30.234  35.658  1.00  0.00     0.031 C 
ATOM     50  C   UNL A   1      44.711  26.535  31.607  1.00  0.00     0.029 A 
ATOM     51  C   UNL A   1      43.854  27.431  32.221  1.00  0.00     0.049 A 
ATOM     52  H   UNL A   1      42.154  28.406  31.432  1.00  0.00     0.167 HD
ATOM     53  C   UNL A   1      43.050  28.866  34.071  1.00  0.00     0.074 A 
ATOM     54  C   UNL A   1      43.104  29.371  35.427  1.00  0.00     0.031 C 
ATOM     55  C   UNL A   1      43.892  27.931  33.570  1.00  0.00     0.037 A 
BRANCH  42  56
ATOM     56  C   UNL A   1      42.803  26.496  27.672  1.00  0.00     0.064 A 
ATOM     57  C   UNL A   1      43.775  26.945  26.768  1.00  0.00     0.173 A 
ATOM     58  C   UNL A   1      42.258  25.216  27.469  1.00  0.00     0.173 A 
ATOM     59  F   UNL A   1      44.317  28.163  26.912  1.00  0.00    -0.203 F 
ATOM     60  C   UNL A   1      44.174  26.151  25.694  1.00  0.00     0.198 A 
ATOM     61  C   UNL A   1      42.679  24.415  26.411  1.00  0.00     0.198 A 
ATOM     62  F   UNL A   1      41.331  24.734  28.310  1.00  0.00    -0.203 F 
ATOM     63  F   UNL A   1      45.079  26.613  24.821  1.00  0.00    -0.200 F 
ATOM     64  C   UNL A   1      43.633  24.884  25.521  1.00  0.00     0.200 A 
ATOM     65  F   UNL A   1      42.165  23.187  26.256  1.00  0.00    -0.200 F 
ATOM     66  F   UNL A   1      44.028  24.118  24.496  1.00  0.00    -0.200 F 
ENDBRANCH  42  56
BRANCH  43  67
ATOM     67  C   UNL A   1      39.784  31.968  35.408  1.00  0.00     0.064 A 
ATOM     68  C   UNL A   1      40.302  33.244  35.662  1.00  0.00     0.173 A 
ATOM     69  C   UNL A   1      38.790  31.483  36.272  1.00  0.00     0.173 A 
ATOM     70  F   UNL A   1      41.279  33.737  34.886  1.00  0.00    -0.203 F 
ATOM     71  C   UNL A   1      39.837  34.009  36.730  1.00  0.00     0.198 A 
ATOM     72  C   UNL A   1      38.300  32.262  37.318  1.00  0.00     0.198 A 
ATOM     73  F   UNL A   1      38.267  30.264  36.077  1.00  0.00    -0.203 F 
ATOM     74  F   UNL A   1      40.367  35.216  36.969  1.00  0.00    -0.200 F 
ATOM     75  C   UNL A   1      38.826  33.523  37.547  1.00  0.00     0.200 A 
ATOM     76  F   UNL A   1      37.311  31.795  38.090  1.00  0.00    -0.200 F 
ATOM     77  F   UNL A   1      38.361  34.269  38.558  1.00  0.00    -0.200 F 
ENDBRANCH  43  67
BRANCH  55  78
ATOM     78  C   UNL A   1      44.948  27.401  34.491  1.00  0.00     0.064 A 
ATOM     79  C   UNL A   1      44.732  26.245  35.256  1.00  0.00     0.173 A 
ATOM     80  C   UNL A   1      46.191  28.042  34.596  1.00  0.00     0.173 A 
ATOM     81  F   UNL A   1      43.552  25.611  35.202  1.00  0.00    -0.203 F 
ATOM     82  C   UNL A   1      45.719  25.762  36.111  1.00  0.00     0.198 A 
ATOM     83  C   UNL A   1      47.183  27.543  35.436  1.00  0.00     0.198 A 
ATOM     84  F   UNL A   1      46.443  29.149  33.883  1.00  0.00    -0.203 F 
ATOM     85  F   UNL A   1      45.479  24.679  36.864  1.00  0.00    -0.200 F 
ATOM     86  C   UNL A   1      46.944  26.407  36.197  1.00  0.00     0.200 A 
ATOM     87  F   UNL A   1      48.367  28.164  35.515  1.00  0.00    -0.200 F 
ATOM     88  F   UNL A   1      47.892  25.941  37.021  1.00  0.00    -0.200 F 
ENDBRANCH  55  78
ENDBRANCH  29  30
ENDBRANCH  22  24
ENDBRANCH  21  22
ENDBRANCH  20  21
ENDBRANCH   1  20
TORSDOF 13
ENDMDL
