MODEL 1
REMARK VINA RESULT:     -11.6      0.000      0.000
REMARK SMILES O=C(OCCOC(=O)c1ncc2ccccc2n1)c1ccc(-c2c3nc(c(-c4c(F)c(F)c(F)c(F)c4F)c4ccc([nH]4)c(-c4c(F)c(F)c(F)c(F)c4F)c4nc(c(-c5c(F)c(F)c(F)c(F)c5F)c5ccc2[nH]5)C=C4)C=C3)cc1
REMARK SMILES IDX 4 1 3 2 2 3 1 4 19 5 20 6 81 7 21 8 80 9 22 10 23 11 24 12
REMARK SMILES IDX 74 13 25 14 79 15 73 16 75 17 26 18 78 19 72 20 71 21 27 23
REMARK SMILES IDX 59 24 39 25 58 26 40 27 43 28 57 29 76 30 41 31 42 32 56 34
REMARK SMILES IDX 77 35 44 36 28 37 29 38 37 39 30 40 31 41 35 42 38 43 32 44
REMARK SMILES IDX 33 45 36 46 34 47 60 48 61 49 69 50 62 51 63 52 67 53 70 54
REMARK SMILES IDX 64 55 65 56 68 57 66 58 45 59 46 60 54 61 47 62 48 63 52 64
REMARK SMILES IDX 55 65 49 66 50 67 53 68 51 69 5 70 6 71 7 72 8 73 9 74 10 75
REMARK SMILES IDX 18 76 11 77 17 78 12 79 16 80 13 81 15 82 14 83
REMARK H PARENT 75 22 43 33
REMARK Flexibility Score: inf
ROOT
ATOM      1  C   UNL A   1      44.069  21.846  25.049  1.00  0.00     0.275 C 
ENDROOT
BRANCH   1   2
ATOM      2  O   UNL A   1      43.630  23.165  24.679  1.00  0.00    -0.458 OA
BRANCH   2   3
ATOM      3  C   UNL A   1      44.252  24.327  25.001  1.00  0.00     0.338 C 
ATOM      4  O   UNL A   1      45.374  24.577  24.572  1.00  0.00    -0.246 OA
BRANCH   3   5
ATOM      5  C   UNL A   1      43.700  25.204  26.073  1.00  0.00     0.060 A 
ATOM      6  C   UNL A   1      44.163  26.486  26.374  1.00  0.00     0.016 A 
ATOM      7  C   UNL A   1      42.684  24.654  26.871  1.00  0.00     0.016 A 
ATOM      8  C   UNL A   1      43.566  27.238  27.390  1.00  0.00     0.010 A 
ATOM      9  C   UNL A   1      42.082  25.403  27.888  1.00  0.00     0.010 A 
ATOM     10  C   UNL A   1      42.519  26.706  28.148  1.00  0.00    -0.014 A 
BRANCH  10  11
ATOM     11  C   UNL A   1      41.975  27.481  29.285  1.00  0.00     0.031 A 
ATOM     12  C   UNL A   1      42.641  27.370  30.624  1.00  0.00     0.074 A 
ATOM     13  C   UNL A   1      40.943  28.324  29.103  1.00  0.00     0.049 A 
ATOM     14  N   UNL A   1      42.377  28.010  31.734  1.00  0.00    -0.248 NA
ATOM     15  C   UNL A   1      43.777  26.438  30.720  1.00  0.00     0.031 C 
ATOM     16  C   UNL A   1      40.267  28.570  27.830  1.00  0.00     0.029 A 
ATOM     17  N   UNL A   1      40.277  29.128  29.993  1.00  0.00    -0.354 N 
ATOM     18  C   UNL A   1      43.352  27.608  32.636  1.00  0.00     0.074 A 
ATOM     19  C   UNL A   1      44.159  26.605  31.977  1.00  0.00     0.031 C 
ATOM     20  C   UNL A   1      39.250  29.426  28.031  1.00  0.00     0.029 A 
ATOM     21  C   UNL A   1      39.202  29.783  29.443  1.00  0.00     0.049 A 
ATOM     22  H   UNL A   1      40.544  29.227  30.935  1.00  0.00     0.167 HD
ATOM     23  C   UNL A   1      43.581  28.073  33.886  1.00  0.00     0.037 A 
ATOM     24  C   UNL A   1      38.276  30.569  30.026  1.00  0.00     0.037 A 
ATOM     25  C   UNL A   1      42.751  29.040  34.549  1.00  0.00     0.049 A 
ATOM     26  C   UNL A   1      38.433  30.913  31.481  1.00  0.00     0.074 A 
ATOM     27  C   UNL A   1      42.883  29.574  35.818  1.00  0.00     0.029 A 
ATOM     28  N   UNL A   1      41.613  29.608  33.993  1.00  0.00    -0.354 N 
ATOM     29  N   UNL A   1      39.383  30.564  32.313  1.00  0.00    -0.248 NA
ATOM     30  C   UNL A   1      37.406  31.781  32.070  1.00  0.00     0.031 C 
ATOM     31  C   UNL A   1      41.801  30.432  36.045  1.00  0.00     0.029 A 
ATOM     32  C   UNL A   1      41.017  30.465  34.903  1.00  0.00     0.049 A 
ATOM     33  H   UNL A   1      41.279  29.428  33.084  1.00  0.00     0.167 HD
ATOM     34  C   UNL A   1      39.105  31.216  33.504  1.00  0.00     0.074 A 
ATOM     35  C   UNL A   1      37.884  31.966  33.293  1.00  0.00     0.031 C 
ATOM     36  C   UNL A   1      39.809  31.212  34.663  1.00  0.00     0.037 A 
BRANCH  23  37
ATOM     37  C   UNL A   1      44.786  27.539  34.598  1.00  0.00     0.064 A 
ATOM     38  C   UNL A   1      46.045  28.140  34.436  1.00  0.00     0.173 A 
ATOM     39  C   UNL A   1      44.691  26.428  35.446  1.00  0.00     0.173 A 
ATOM     40  F   UNL A   1      46.190  29.195  33.621  1.00  0.00    -0.203 F 
ATOM     41  C   UNL A   1      47.169  27.629  35.078  1.00  0.00     0.198 A 
ATOM     42  C   UNL A   1      45.814  25.933  36.103  1.00  0.00     0.198 A 
ATOM     43  F   UNL A   1      43.510  25.818  35.631  1.00  0.00    -0.203 F 
ATOM     44  F   UNL A   1      48.370  28.190  34.873  1.00  0.00    -0.200 F 
ATOM     45  C   UNL A   1      47.052  26.528  35.914  1.00  0.00     0.200 A 
ATOM     46  F   UNL A   1      45.701  24.872  36.913  1.00  0.00    -0.200 F 
ATOM     47  F   UNL A   1      48.137  26.035  36.529  1.00  0.00    -0.200 F 
ENDBRANCH  23  37
BRANCH  24  48
ATOM     48  C   UNL A   1      37.115  31.074  29.247  1.00  0.00     0.064 A 
ATOM     49  C   UNL A   1      37.035  32.407  28.828  1.00  0.00     0.173 A 
ATOM     50  C   UNL A   1      36.032  30.232  28.955  1.00  0.00     0.173 A 
ATOM     51  F   UNL A   1      38.030  33.259  29.114  1.00  0.00    -0.203 F 
ATOM     52  C   UNL A   1      35.906  32.886  28.163  1.00  0.00     0.198 A 
ATOM     53  C   UNL A   1      34.915  30.704  28.268  1.00  0.00     0.198 A 
ATOM     54  F   UNL A   1      36.049  28.954  29.356  1.00  0.00    -0.203 F 
ATOM     55  F   UNL A   1      35.831  34.178  27.820  1.00  0.00    -0.200 F 
ATOM     56  C   UNL A   1      34.849  32.032  27.880  1.00  0.00     0.200 A 
ATOM     57  F   UNL A   1      33.898  29.874  27.999  1.00  0.00    -0.200 F 
ATOM     58  F   UNL A   1      33.761  32.495  27.250  1.00  0.00    -0.200 F 
ENDBRANCH  24  48
BRANCH  36  59
ATOM     59  C   UNL A   1      39.307  32.094  35.765  1.00  0.00     0.064 A 
ATOM     60  C   UNL A   1      38.379  31.637  36.711  1.00  0.00     0.173 A 
ATOM     61  C   UNL A   1      39.780  33.409  35.884  1.00  0.00     0.173 A 
ATOM     62  F   UNL A   1      37.882  30.394  36.622  1.00  0.00    -0.203 F 
ATOM     63  C   UNL A   1      37.926  32.475  37.727  1.00  0.00     0.198 A 
ATOM     64  C   UNL A   1      39.346  34.234  36.917  1.00  0.00     0.198 A 
ATOM     65  F   UNL A   1      40.670  33.890  35.004  1.00  0.00    -0.203 F 
ATOM     66  F   UNL A   1      37.003  32.034  38.592  1.00  0.00    -0.200 F 
ATOM     67  C   UNL A   1      38.414  33.769  37.833  1.00  0.00     0.200 A 
ATOM     68  F   UNL A   1      39.826  35.481  37.023  1.00  0.00    -0.200 F 
ATOM     69  F   UNL A   1      37.979  34.572  38.813  1.00  0.00    -0.200 F 
ENDBRANCH  36  59
ENDBRANCH  10  11
ENDBRANCH   3   5
ENDBRANCH   2   3
ENDBRANCH   1   2
BRANCH   1  70
ATOM     70  C   UNL A   1      43.026  21.033  25.822  1.00  0.00     0.275 C 
BRANCH  70  71
ATOM     71  O   UNL A   1      41.684  21.482  25.587  1.00  0.00    -0.456 OA
BRANCH  71  72
ATOM     72  C   UNL A   1      40.791  21.140  26.564  1.00  0.00     0.376 C 
ATOM     73  O   UNL A   1      41.028  20.445  27.542  1.00  0.00    -0.242 OA
BRANCH  72  74
ATOM     74  C   UNL A   1      39.506  21.862  26.332  1.00  0.00     0.239 A 
ATOM     75  N   UNL A   1      39.448  23.117  26.824  1.00  0.00    -0.230 NA
ATOM     76  N   UNL A   1      38.551  21.247  25.600  1.00  0.00    -0.222 NA
ATOM     77  C   UNL A   1      38.347  23.813  26.501  1.00  0.00     0.124 A 
ATOM     78  C   UNL A   1      37.452  21.971  25.334  1.00  0.00     0.075 A 
ATOM     79  C   UNL A   1      37.315  23.309  25.729  1.00  0.00     0.019 A 
ATOM     80  C   UNL A   1      36.395  21.407  24.629  1.00  0.00     0.029 A 
ATOM     81  C   UNL A   1      36.197  24.077  25.349  1.00  0.00     0.012 A 
ATOM     82  C   UNL A   1      35.276  22.157  24.249  1.00  0.00     0.002 A 
ATOM     83  C   UNL A   1      35.185  23.499  24.592  1.00  0.00     0.001 A 
ENDBRANCH  72  74
ENDBRANCH  71  72
ENDBRANCH  70  71
ENDBRANCH   1  70
TORSDOF 11
ENDMDL
MODEL 2
REMARK VINA RESULT:     -11.6      4.196      6.238
REMARK SMILES O=C(OCCOC(=O)c1ncc2ccccc2n1)c1ccc(-c2c3nc(c(-c4c(F)c(F)c(F)c(F)c4F)c4ccc([nH]4)c(-c4c(F)c(F)c(F)c(F)c4F)c4nc(c(-c5c(F)c(F)c(F)c(F)c5F)c5ccc2[nH]5)C=C4)C=C3)cc1
REMARK SMILES IDX 4 1 3 2 2 3 1 4 19 5 20 6 81 7 21 8 80 9 22 10 23 11 24 12
REMARK SMILES IDX 74 13 25 14 79 15 73 16 75 17 26 18 78 19 72 20 71 21 27 23
REMARK SMILES IDX 59 24 39 25 58 26 40 27 43 28 57 29 76 30 41 31 42 32 56 34
REMARK SMILES IDX 77 35 44 36 28 37 29 38 37 39 30 40 31 41 35 42 38 43 32 44
REMARK SMILES IDX 33 45 36 46 34 47 60 48 61 49 69 50 62 51 63 52 67 53 70 54
REMARK SMILES IDX 64 55 65 56 68 57 66 58 45 59 46 60 54 61 47 62 48 63 52 64
REMARK SMILES IDX 55 65 49 66 50 67 53 68 51 69 5 70 6 71 7 72 8 73 9 74 10 75
REMARK SMILES IDX 18 76 11 77 17 78 12 79 16 80 13 81 15 82 14 83
REMARK H PARENT 75 22 43 33
REMARK Flexibility Score: inf
ROOT
ATOM      1  C   UNL A   1      40.588  19.657  26.230  1.00  0.00     0.275 C 
ENDROOT
BRANCH   1   2
ATOM      2  O   UNL A   1      40.499  20.907  26.937  1.00  0.00    -0.458 OA
BRANCH   2   3
ATOM      3  C   UNL A   1      39.680  21.941  26.618  1.00  0.00     0.338 C 
ATOM      4  O   UNL A   1      38.776  21.795  25.801  1.00  0.00    -0.246 OA
BRANCH   3   5
ATOM      5  C   UNL A   1      40.012  23.327  27.056  1.00  0.00     0.060 A 
ATOM      6  C   UNL A   1      39.504  24.491  26.478  1.00  0.00     0.016 A 
ATOM      7  C   UNL A   1      40.960  23.448  28.085  1.00  0.00     0.016 A 
ATOM      8  C   UNL A   1      39.864  25.747  26.974  1.00  0.00     0.010 A 
ATOM      9  C   UNL A   1      41.323  24.702  28.586  1.00  0.00     0.010 A 
ATOM     10  C   UNL A   1      40.769  25.862  28.033  1.00  0.00    -0.014 A 
BRANCH  10  11
ATOM     11  C   UNL A   1      41.214  27.204  28.470  1.00  0.00     0.031 A 
ATOM     12  C   UNL A   1      42.682  27.508  28.498  1.00  0.00     0.074 A 
ATOM     13  C   UNL A   1      40.312  28.156  28.770  1.00  0.00     0.049 A 
ATOM     14  N   UNL A   1      43.287  28.633  28.778  1.00  0.00    -0.248 NA
ATOM     15  C   UNL A   1      43.590  26.409  28.131  1.00  0.00     0.031 C 
ATOM     16  C   UNL A   1      38.861  27.996  28.706  1.00  0.00     0.029 A 
ATOM     17  N   UNL A   1      40.486  29.449  29.198  1.00  0.00    -0.354 N 
ATOM     18  C   UNL A   1      44.636  28.395  28.556  1.00  0.00     0.074 A 
ATOM     19  C   UNL A   1      44.773  26.999  28.206  1.00  0.00     0.031 C 
ATOM     20  C   UNL A   1      38.274  29.130  29.128  1.00  0.00     0.029 A 
ATOM     21  C   UNL A   1      39.308  30.090  29.495  1.00  0.00     0.049 A 
ATOM     22  H   UNL A   1      41.369  29.875  29.283  1.00  0.00     0.167 HD
ATOM     23  C   UNL A   1      45.662  29.278  28.594  1.00  0.00     0.037 A 
ATOM     24  C   UNL A   1      39.097  31.312  30.021  1.00  0.00     0.037 A 
ATOM     25  C   UNL A   1      45.524  30.655  28.982  1.00  0.00     0.049 A 
ATOM     26  C   UNL A   1      40.278  32.213  30.252  1.00  0.00     0.074 A 
ATOM     27  C   UNL A   1      46.496  31.635  29.066  1.00  0.00     0.029 A 
ATOM     28  N   UNL A   1      44.328  31.243  29.370  1.00  0.00    -0.354 N 
ATOM     29  N   UNL A   1      41.545  31.995  29.997  1.00  0.00    -0.248 NA
ATOM     30  C   UNL A   1      39.998  33.539  30.816  1.00  0.00     0.031 C 
ATOM     31  C   UNL A   1      45.895  32.804  29.546  1.00  0.00     0.029 A 
ATOM     32  C   UNL A   1      44.542  32.565  29.722  1.00  0.00     0.049 A 
ATOM     33  H   UNL A   1      43.455  30.787  29.391  1.00  0.00     0.167 HD
ATOM     34  C   UNL A   1      42.205  33.172  30.311  1.00  0.00     0.074 A 
ATOM     35  C   UNL A   1      41.200  34.097  30.795  1.00  0.00     0.031 C 
ATOM     36  C   UNL A   1      43.522  33.469  30.188  1.00  0.00     0.037 A 
BRANCH  23  37
ATOM     37  C   UNL A   1      47.011  28.768  28.193  1.00  0.00     0.064 A 
ATOM     38  C   UNL A   1      47.945  28.356  29.158  1.00  0.00     0.173 A 
ATOM     39  C   UNL A   1      47.381  28.687  26.844  1.00  0.00     0.173 A 
ATOM     40  F   UNL A   1      47.644  28.432  30.463  1.00  0.00    -0.203 F 
ATOM     41  C   UNL A   1      49.208  27.907  28.786  1.00  0.00     0.198 A 
ATOM     42  C   UNL A   1      48.638  28.215  26.474  1.00  0.00     0.198 A 
ATOM     43  F   UNL A   1      46.525  29.070  25.884  1.00  0.00    -0.203 F 
ATOM     44  F   UNL A   1      50.100  27.561  29.727  1.00  0.00    -0.200 F 
ATOM     45  C   UNL A   1      49.553  27.833  27.444  1.00  0.00     0.200 A 
ATOM     46  F   UNL A   1      48.970  28.141  25.178  1.00  0.00    -0.200 F 
ATOM     47  F   UNL A   1      50.771  27.402  27.087  1.00  0.00    -0.200 F 
ENDBRANCH  23  37
BRANCH  24  48
ATOM     48  C   UNL A   1      37.724  31.754  30.378  1.00  0.00     0.064 A 
ATOM     49  C   UNL A   1      36.875  32.349  29.438  1.00  0.00     0.173 A 
ATOM     50  C   UNL A   1      37.256  31.633  31.695  1.00  0.00     0.173 A 
ATOM     51  F   UNL A   1      37.290  32.519  28.174  1.00  0.00    -0.203 F 
ATOM     52  C   UNL A   1      35.616  32.827  29.805  1.00  0.00     0.198 A 
ATOM     53  C   UNL A   1      35.988  32.087  32.056  1.00  0.00     0.198 A 
ATOM     54  F   UNL A   1      38.039  31.093  32.638  1.00  0.00    -0.203 F 
ATOM     55  F   UNL A   1      34.845  33.441  28.899  1.00  0.00    -0.200 F 
ATOM     56  C   UNL A   1      35.173  32.691  31.113  1.00  0.00     0.200 A 
ATOM     57  F   UNL A   1      35.568  31.953  33.322  1.00  0.00    -0.200 F 
ATOM     58  F   UNL A   1      33.969  33.159  31.468  1.00  0.00    -0.200 F 
ENDBRANCH  24  48
BRANCH  36  59
ATOM     59  C   UNL A   1      43.936  34.869  30.524  1.00  0.00     0.064 A 
ATOM     60  C   UNL A   1      44.382  35.219  31.806  1.00  0.00     0.173 A 
ATOM     61  C   UNL A   1      43.904  35.868  29.540  1.00  0.00     0.173 A 
ATOM     62  F   UNL A   1      44.409  34.301  32.785  1.00  0.00    -0.203 F 
ATOM     63  C   UNL A   1      44.762  36.526  32.097  1.00  0.00     0.198 A 
ATOM     64  C   UNL A   1      44.310  37.168  29.827  1.00  0.00     0.198 A 
ATOM     65  F   UNL A   1      43.485  35.582  28.299  1.00  0.00    -0.203 F 
ATOM     66  F   UNL A   1      45.140  36.850  33.341  1.00  0.00    -0.200 F 
ATOM     67  C   UNL A   1      44.732  37.497  31.106  1.00  0.00     0.200 A 
ATOM     68  F   UNL A   1      44.289  38.102  28.866  1.00  0.00    -0.200 F 
ATOM     69  F   UNL A   1      45.100  38.754  31.388  1.00  0.00    -0.200 F 
ENDBRANCH  36  59
ENDBRANCH  10  11
ENDBRANCH   3   5
ENDBRANCH   2   3
ENDBRANCH   1   2
BRANCH   1  70
ATOM     70  C   UNL A   1      41.987  19.033  26.237  1.00  0.00     0.275 C 
BRANCH  70  71
ATOM     71  O   UNL A   1      42.680  19.203  24.993  1.00  0.00    -0.456 OA
BRANCH  71  72
ATOM     72  C   UNL A   1      44.040  19.270  25.104  1.00  0.00     0.376 C 
ATOM     73  O   UNL A   1      44.816  18.329  25.003  1.00  0.00    -0.242 OA
BRANCH  72  74
ATOM     74  C   UNL A   1      44.455  20.698  25.229  1.00  0.00     0.239 A 
ATOM     75  N   UNL A   1      45.780  20.907  25.371  1.00  0.00    -0.230 NA
ATOM     76  N   UNL A   1      43.505  21.651  25.118  1.00  0.00    -0.222 NA
ATOM     77  C   UNL A   1      46.167  22.192  25.349  1.00  0.00     0.124 A 
ATOM     78  C   UNL A   1      43.936  22.922  25.138  1.00  0.00     0.075 A 
ATOM     79  C   UNL A   1      45.295  23.257  25.205  1.00  0.00     0.019 A 
ATOM     80  C   UNL A   1      43.027  23.971  25.077  1.00  0.00     0.029 A 
ATOM     81  C   UNL A   1      45.728  24.595  25.121  1.00  0.00     0.012 A 
ATOM     82  C   UNL A   1      43.442  25.306  25.000  1.00  0.00     0.002 A 
ATOM     83  C   UNL A   1      44.795  25.618  25.001  1.00  0.00     0.001 A 
ENDBRANCH  72  74
ENDBRANCH  71  72
ENDBRANCH  70  71
ENDBRANCH   1  70
TORSDOF 11
ENDMDL
MODEL 3
REMARK VINA RESULT:     -11.6      4.196      6.257
REMARK SMILES O=C(OCCOC(=O)c1ncc2ccccc2n1)c1ccc(-c2c3nc(c(-c4c(F)c(F)c(F)c(F)c4F)c4ccc([nH]4)c(-c4c(F)c(F)c(F)c(F)c4F)c4nc(c(-c5c(F)c(F)c(F)c(F)c5F)c5ccc2[nH]5)C=C4)C=C3)cc1
REMARK SMILES IDX 4 1 3 2 2 3 1 4 19 5 20 6 81 7 21 8 80 9 22 10 23 11 24 12
REMARK SMILES IDX 74 13 25 14 79 15 73 16 75 17 26 18 78 19 72 20 71 21 27 23
REMARK SMILES IDX 59 24 39 25 58 26 40 27 43 28 57 29 76 30 41 31 42 32 56 34
REMARK SMILES IDX 77 35 44 36 28 37 29 38 37 39 30 40 31 41 35 42 38 43 32 44
REMARK SMILES IDX 33 45 36 46 34 47 60 48 61 49 69 50 62 51 63 52 67 53 70 54
REMARK SMILES IDX 64 55 65 56 68 57 66 58 45 59 46 60 54 61 47 62 48 63 52 64
REMARK SMILES IDX 55 65 49 66 50 67 53 68 51 69 5 70 6 71 7 72 8 73 9 74 10 75
REMARK SMILES IDX 18 76 11 77 17 78 12 79 16 80 13 81 15 82 14 83
REMARK H PARENT 75 22 43 33
REMARK Flexibility Score: inf
ROOT
ATOM      1  C   UNL A   1      40.777  19.568  26.502  1.00  0.00     0.275 C 
ENDROOT
BRANCH   1   2
ATOM      2  O   UNL A   1      40.942  20.971  26.776  1.00  0.00    -0.458 OA
BRANCH   2   3
ATOM      3  C   UNL A   1      39.969  21.914  26.703  1.00  0.00     0.338 C 
ATOM      4  O   UNL A   1      38.921  21.687  26.105  1.00  0.00    -0.246 OA
BRANCH   3   5
ATOM      5  C   UNL A   1      40.247  23.317  27.123  1.00  0.00     0.060 A 
ATOM      6  C   UNL A   1      39.730  24.455  26.502  1.00  0.00     0.016 A 
ATOM      7  C   UNL A   1      41.151  23.485  28.184  1.00  0.00     0.016 A 
ATOM      8  C   UNL A   1      40.037  25.730  26.983  1.00  0.00     0.010 A 
ATOM      9  C   UNL A   1      41.460  24.759  28.671  1.00  0.00     0.010 A 
ATOM     10  C   UNL A   1      40.897  25.892  28.073  1.00  0.00    -0.014 A 
BRANCH  10  11
ATOM     11  C   UNL A   1      41.289  27.254  28.497  1.00  0.00     0.031 A 
ATOM     12  C   UNL A   1      42.743  27.620  28.513  1.00  0.00     0.074 A 
ATOM     13  C   UNL A   1      40.350  28.170  28.798  1.00  0.00     0.049 A 
ATOM     14  N   UNL A   1      43.302  28.771  28.780  1.00  0.00    -0.248 NA
ATOM     15  C   UNL A   1      43.693  26.557  28.146  1.00  0.00     0.031 C 
ATOM     16  C   UNL A   1      38.906  27.949  28.745  1.00  0.00     0.029 A 
ATOM     17  N   UNL A   1      40.472  29.472  29.215  1.00  0.00    -0.354 N 
ATOM     18  C   UNL A   1      44.658  28.588  28.550  1.00  0.00     0.074 A 
ATOM     19  C   UNL A   1      44.851  27.196  28.209  1.00  0.00     0.031 C 
ATOM     20  C   UNL A   1      38.276  29.061  29.163  1.00  0.00     0.029 A 
ATOM     21  C   UNL A   1      39.271  30.066  29.517  1.00  0.00     0.049 A 
ATOM     22  H   UNL A   1      41.337  29.935  29.291  1.00  0.00     0.167 HD
ATOM     23  C   UNL A   1      45.646  29.513  28.574  1.00  0.00     0.037 A 
ATOM     24  C   UNL A   1      39.012  31.282  30.036  1.00  0.00     0.037 A 
ATOM     25  C   UNL A   1      45.454  30.885  28.953  1.00  0.00     0.049 A 
ATOM     26  C   UNL A   1      40.156  32.233  30.251  1.00  0.00     0.074 A 
ATOM     27  C   UNL A   1      46.385  31.905  29.024  1.00  0.00     0.029 A 
ATOM     28  N   UNL A   1      44.237  31.426  29.346  1.00  0.00    -0.354 N 
ATOM     29  N   UNL A   1      41.429  32.066  29.988  1.00  0.00    -0.248 NA
ATOM     30  C   UNL A   1      39.825  33.550  30.809  1.00  0.00     0.031 C 
ATOM     31  C   UNL A   1      45.739  33.053  29.500  1.00  0.00     0.029 A 
ATOM     32  C   UNL A   1      44.398  32.758  29.688  1.00  0.00     0.049 A 
ATOM     33  H   UNL A   1      43.385  30.934  29.377  1.00  0.00     0.167 HD
ATOM     34  C   UNL A   1      42.042  33.271  30.289  1.00  0.00     0.074 A 
ATOM     35  C   UNL A   1      41.003  34.157  30.774  1.00  0.00     0.031 C 
ATOM     36  C   UNL A   1      43.345  33.622  30.155  1.00  0.00     0.037 A 
BRANCH  23  37
ATOM     37  C   UNL A   1      47.013  29.056  28.166  1.00  0.00     0.064 A 
ATOM     38  C   UNL A   1      47.344  28.887  26.812  1.00  0.00     0.173 A 
ATOM     39  C   UNL A   1      48.000  28.786  29.123  1.00  0.00     0.173 A 
ATOM     40  F   UNL A   1      46.428  29.115  25.860  1.00  0.00    -0.203 F 
ATOM     41  C   UNL A   1      48.606  28.439  26.434  1.00  0.00     0.198 A 
ATOM     42  C   UNL A   1      49.269  28.359  28.741  1.00  0.00     0.198 A 
ATOM     43  F   UNL A   1      47.732  28.931  30.431  1.00  0.00    -0.203 F 
ATOM     44  F   UNL A   1      48.886  28.240  25.138  1.00  0.00    -0.200 F 
ATOM     45  C   UNL A   1      49.569  28.179  27.399  1.00  0.00     0.200 A 
ATOM     46  F   UNL A   1      50.200  28.111  29.672  1.00  0.00    -0.200 F 
ATOM     47  F   UNL A   1      50.784  27.744  27.033  1.00  0.00    -0.200 F 
ENDBRANCH  23  37
BRANCH  24  48
ATOM     48  C   UNL A   1      37.625  31.668  30.400  1.00  0.00     0.064 A 
ATOM     49  C   UNL A   1      36.719  32.143  29.444  1.00  0.00     0.173 A 
ATOM     50  C   UNL A   1      37.197  31.617  31.735  1.00  0.00     0.173 A 
ATOM     51  F   UNL A   1      37.091  32.244  28.160  1.00  0.00    -0.203 F 
ATOM     52  C   UNL A   1      35.443  32.573  29.813  1.00  0.00     0.198 A 
ATOM     53  C   UNL A   1      35.914  32.022  32.099  1.00  0.00     0.198 A 
ATOM     54  F   UNL A   1      38.034  31.194  32.691  1.00  0.00    -0.203 F 
ATOM     55  F   UNL A   1      34.615  33.074  28.887  1.00  0.00    -0.200 F 
ATOM     56  C   UNL A   1      35.041  32.508  31.140  1.00  0.00     0.200 A 
ATOM     57  F   UNL A   1      35.534  31.957  33.383  1.00  0.00    -0.200 F 
ATOM     58  F   UNL A   1      33.820  32.930  31.494  1.00  0.00    -0.200 F 
ENDBRANCH  24  48
BRANCH  36  59
ATOM     59  C   UNL A   1      43.702  35.041  30.479  1.00  0.00     0.064 A 
ATOM     60  C   UNL A   1      43.623  36.059  29.518  1.00  0.00     0.173 A 
ATOM     61  C   UNL A   1      44.107  35.386  31.776  1.00  0.00     0.173 A 
ATOM     62  F   UNL A   1      43.262  35.771  28.259  1.00  0.00    -0.203 F 
ATOM     63  C   UNL A   1      43.960  37.371  29.840  1.00  0.00     0.198 A 
ATOM     64  C   UNL A   1      44.417  36.704  32.102  1.00  0.00     0.198 A 
ATOM     65  F   UNL A   1      44.196  34.447  32.730  1.00  0.00    -0.203 F 
ATOM     66  F   UNL A   1      43.925  38.320  28.895  1.00  0.00    -0.200 F 
ATOM     67  C   UNL A   1      44.349  37.692  31.133  1.00  0.00     0.200 A 
ATOM     68  F   UNL A   1      44.783  37.014  33.353  1.00  0.00    -0.200 F 
ATOM     69  F   UNL A   1      44.670  38.957  31.441  1.00  0.00    -0.200 F 
ENDBRANCH  36  59
ENDBRANCH  10  11
ENDBRANCH   3   5
ENDBRANCH   2   3
ENDBRANCH   1   2
BRANCH   1  70
ATOM     70  C   UNL A   1      42.087  18.827  26.220  1.00  0.00     0.275 C 
BRANCH  70  71
ATOM     71  O   UNL A   1      42.710  19.242  24.997  1.00  0.00    -0.456 OA
BRANCH  71  72
ATOM     72  C   UNL A   1      44.076  19.275  25.038  1.00  0.00     0.376 C 
ATOM     73  O   UNL A   1      44.822  18.320  24.872  1.00  0.00    -0.242 OA
BRANCH  72  74
ATOM     74  C   UNL A   1      44.532  20.689  25.176  1.00  0.00     0.239 A 
ATOM     75  N   UNL A   1      45.863  20.859  25.315  1.00  0.00    -0.230 NA
ATOM     76  N   UNL A   1      43.608  21.670  25.079  1.00  0.00    -0.222 NA
ATOM     77  C   UNL A   1      46.286  22.133  25.306  1.00  0.00     0.124 A 
ATOM     78  C   UNL A   1      44.075  22.928  25.112  1.00  0.00     0.075 A 
ATOM     79  C   UNL A   1      45.443  23.224  25.177  1.00  0.00     0.019 A 
ATOM     80  C   UNL A   1      43.196  24.003  25.066  1.00  0.00     0.029 A 
ATOM     81  C   UNL A   1      45.914  24.550  25.106  1.00  0.00     0.012 A 
ATOM     82  C   UNL A   1      43.648  25.326  25.001  1.00  0.00     0.002 A 
ATOM     83  C   UNL A   1      45.009  25.600  25.000  1.00  0.00     0.001 A 
ENDBRANCH  72  74
ENDBRANCH  71  72
ENDBRANCH  70  71
ENDBRANCH   1  70
TORSDOF 11
ENDMDL
