MODEL 1
REMARK VINA RESULT:     -13.0      0.000      0.000
REMARK SMILES Cc1c(N[C@@H]2CC[C@@H]([NH3+])C2)cccc1C(=O)OCCOC(=O)c1ccc(-c2c3nc(c(-c4c(F)c(F)c(F)c(F)c4F)c4ccc([nH]4)c(-c4c(F)c(F)c(F)c(F)c4F)c4nc(c(-c5c(F)c(F)c(F)c(F)c5F)c5ccc2[nH]5)C=C4)C=C3)cc1
REMARK SMILES IDX 18 1 17 2 15 3 16 4 14 5 1 6 2 7 3 8 11 9 13 10 12 11 4 12
REMARK SMILES IDX 5 14 6 15 10 16 7 17 8 18 9 19 19 23 20 24 21 25 22 26 23 27
REMARK SMILES IDX 24 28 85 29 25 30 84 31 26 32 27 33 28 34 78 35 29 36 83 37
REMARK SMILES IDX 77 38 79 39 30 40 82 41 76 42 75 43 31 45 63 46 43 47 62 48
REMARK SMILES IDX 44 49 47 50 61 51 80 52 45 53 46 54 60 56 81 57 48 58 32 59
REMARK SMILES IDX 33 60 41 61 34 62 35 63 39 64 42 65 36 66 37 67 40 68 38 69
REMARK SMILES IDX 64 70 65 71 73 72 66 73 67 74 71 75 74 76 68 77 69 78 72 79
REMARK SMILES IDX 70 80 49 81 50 82 58 83 51 84 52 85 56 86 59 87 53 88 54 89
REMARK SMILES IDX 57 90 55 91
REMARK H PARENT 4 13 9 20 9 21 9 22 79 44 47 55
REMARK Flexibility Score: inf
ROOT
ATOM      1  C   UNL A   1      32.629  30.156  27.069  1.00  0.00     0.275 C 
ENDROOT
BRANCH   1   2
ATOM      2  O   UNL A   1      31.972  28.882  27.015  1.00  0.00    -0.458 OA
BRANCH   2   3
ATOM      3  C   UNL A   1      31.582  28.571  25.753  1.00  0.00     0.338 C 
ATOM      4  O   UNL A   1      31.227  29.382  24.907  1.00  0.00    -0.246 OA
BRANCH   3   5
ATOM      5  C   UNL A   1      31.567  27.125  25.457  1.00  0.00     0.065 A 
ATOM      6  C   UNL A   1      33.750  27.435  24.187  1.00  0.00     0.047 C 
ATOM      7  C   UNL A   1      32.706  26.560  24.848  1.00  0.00    -0.013 A 
ATOM      8  C   UNL A   1      32.850  25.155  24.804  1.00  0.00     0.038 A 
ATOM      9  C   UNL A   1      31.850  24.368  25.390  1.00  0.00     0.026 A 
ATOM     10  C   UNL A   1      30.535  26.311  25.933  1.00  0.00     0.016 A 
ATOM     11  C   UNL A   1      30.695  24.930  25.934  1.00  0.00     0.003 A 
BRANCH   8  12
ATOM     12  N   UNL A   1      33.922  24.616  24.121  1.00  0.00    -0.382 N 
ATOM     13  H   UNL A   1      34.069  24.968  23.213  1.00  0.00     0.160 HD
BRANCH  12  14
ATOM     14  C   UNL A   1      34.858  23.603  24.559  1.00  0.00     0.085 C 
ATOM     15  C   UNL A   1      35.815  24.013  25.685  1.00  0.00     0.031 C 
ATOM     16  C   UNL A   1      35.713  23.049  23.425  1.00  0.00     0.089 C 
ATOM     17  C   UNL A   1      37.200  23.559  25.218  1.00  0.00     0.067 C 
ATOM     18  C   UNL A   1      36.944  22.501  24.142  1.00  0.00     0.182 C 
BRANCH  18  19
ATOM     19  N   UNL A   1      36.688  21.192  24.745  1.00  0.00    -0.355 N 
ATOM     20  H   UNL A   1      35.695  21.104  24.956  1.00  0.00     0.344 HD
ATOM     21  H   UNL A   1      37.228  21.103  25.606  1.00  0.00     0.344 HD
ATOM     22  H   UNL A   1      36.964  20.458  24.093  1.00  0.00     0.344 HD
ENDBRANCH  18  19
ENDBRANCH  12  14
ENDBRANCH   8  12
ENDBRANCH   3   5
ENDBRANCH   2   3
ENDBRANCH   1   2
BRANCH   1  23
ATOM     23  C   UNL A   1      34.151  30.087  26.900  1.00  0.00     0.275 C 
BRANCH  23  24
ATOM     24  O   UNL A   1      35.047  29.938  28.038  1.00  0.00    -0.458 OA
BRANCH  24  25
ATOM     25  C   UNL A   1      36.196  30.625  28.213  1.00  0.00     0.338 C 
ATOM     26  O   UNL A   1      36.280  31.843  28.094  1.00  0.00    -0.246 OA
BRANCH  25  27
ATOM     27  C   UNL A   1      37.382  29.792  28.478  1.00  0.00     0.060 A 
ATOM     28  C   UNL A   1      37.402  28.962  29.614  1.00  0.00     0.016 A 
ATOM     29  C   UNL A   1      38.392  29.730  27.525  1.00  0.00     0.016 A 
ATOM     30  C   UNL A   1      38.369  27.977  29.740  1.00  0.00     0.010 A 
ATOM     31  C   UNL A   1      39.258  28.673  27.564  1.00  0.00     0.010 A 
ATOM     32  C   UNL A   1      39.280  27.844  28.697  1.00  0.00    -0.014 A 
BRANCH  32  33
ATOM     33  C   UNL A   1      40.543  27.155  28.839  1.00  0.00     0.031 A 
ATOM     34  C   UNL A   1      40.686  25.733  28.507  1.00  0.00     0.074 A 
ATOM     35  C   UNL A   1      41.517  28.060  29.098  1.00  0.00     0.049 A 
ATOM     36  N   UNL A   1      41.701  25.028  28.849  1.00  0.00    -0.248 NA
ATOM     37  C   UNL A   1      39.683  24.945  27.797  1.00  0.00     0.031 C 
ATOM     38  C   UNL A   1      42.959  28.010  29.001  1.00  0.00     0.029 A 
ATOM     39  N   UNL A   1      41.269  29.333  29.660  1.00  0.00    -0.354 N 
ATOM     40  C   UNL A   1      41.662  23.848  28.128  1.00  0.00     0.074 A 
ATOM     41  C   UNL A   1      40.322  23.782  27.611  1.00  0.00     0.031 C 
ATOM     42  C   UNL A   1      43.466  28.994  29.777  1.00  0.00     0.029 A 
ATOM     43  C   UNL A   1      42.348  29.609  30.494  1.00  0.00     0.049 A 
ATOM     44  H   UNL A   1      40.488  29.909  29.496  1.00  0.00     0.167 HD
ATOM     45  C   UNL A   1      42.846  23.192  27.941  1.00  0.00     0.037 A 
ATOM     46  C   UNL A   1      42.115  29.537  31.838  1.00  0.00     0.037 A 
ATOM     47  C   UNL A   1      43.883  23.887  28.707  1.00  0.00     0.049 A 
ATOM     48  C   UNL A   1      42.865  28.357  32.401  1.00  0.00     0.074 A 
ATOM     49  C   UNL A   1      44.779  24.878  28.343  1.00  0.00     0.029 A 
ATOM     50  N   UNL A   1      43.782  23.928  30.094  1.00  0.00    -0.354 N 
ATOM     51  N   UNL A   1      43.019  27.212  31.786  1.00  0.00    -0.248 NA
ATOM     52  C   UNL A   1      43.627  28.458  33.638  1.00  0.00     0.031 C 
ATOM     53  C   UNL A   1      45.131  25.589  29.523  1.00  0.00     0.029 A 
ATOM     54  C   UNL A   1      44.453  25.027  30.595  1.00  0.00     0.049 A 
ATOM     55  H   UNL A   1      43.301  23.265  30.641  1.00  0.00     0.167 HD
ATOM     56  C   UNL A   1      43.962  26.480  32.459  1.00  0.00     0.074 A 
ATOM     57  C   UNL A   1      44.288  27.291  33.622  1.00  0.00     0.031 C 
ATOM     58  C   UNL A   1      44.476  25.292  32.024  1.00  0.00     0.037 A 
BRANCH  45  59
ATOM     59  C   UNL A   1      43.181  22.146  26.891  1.00  0.00     0.064 A 
ATOM     60  C   UNL A   1      42.544  20.880  26.938  1.00  0.00     0.173 A 
ATOM     61  C   UNL A   1      44.139  22.271  25.866  1.00  0.00     0.173 A 
ATOM     62  F   UNL A   1      41.566  20.621  27.816  1.00  0.00    -0.203 F 
ATOM     63  C   UNL A   1      42.882  19.823  26.086  1.00  0.00     0.198 A 
ATOM     64  C   UNL A   1      44.481  21.208  25.015  1.00  0.00     0.198 A 
ATOM     65  F   UNL A   1      44.769  23.421  25.621  1.00  0.00    -0.203 F 
ATOM     66  F   UNL A   1      42.255  18.644  26.209  1.00  0.00    -0.200 F 
ATOM     67  C   UNL A   1      43.861  19.982  25.132  1.00  0.00     0.200 A 
ATOM     68  F   UNL A   1      45.422  21.386  24.076  1.00  0.00    -0.200 F 
ATOM     69  F   UNL A   1      44.194  18.969  24.321  1.00  0.00    -0.200 F 
ENDBRANCH  45  59
BRANCH  46  70
ATOM     70  C   UNL A   1      40.748  30.011  32.259  1.00  0.00     0.064 A 
ATOM     71  C   UNL A   1      40.359  31.331  31.920  1.00  0.00     0.173 A 
ATOM     72  C   UNL A   1      39.734  29.171  32.735  1.00  0.00     0.173 A 
ATOM     73  F   UNL A   1      41.276  32.205  31.472  1.00  0.00    -0.203 F 
ATOM     74  C   UNL A   1      39.026  31.748  31.945  1.00  0.00     0.198 A 
ATOM     75  C   UNL A   1      38.397  29.602  32.786  1.00  0.00     0.198 A 
ATOM     76  F   UNL A   1      40.005  27.908  33.088  1.00  0.00    -0.203 F 
ATOM     77  F   UNL A   1      38.697  32.970  31.498  1.00  0.00    -0.200 F 
ATOM     78  C   UNL A   1      38.043  30.877  32.367  1.00  0.00     0.200 A 
ATOM     79  F   UNL A   1      37.433  28.749  33.168  1.00  0.00    -0.200 F 
ATOM     80  F   UNL A   1      36.754  31.243  32.326  1.00  0.00    -0.200 F 
ENDBRANCH  46  70
BRANCH  58  81
ATOM     81  C   UNL A   1      45.162  24.298  32.925  1.00  0.00     0.064 A 
ATOM     82  C   UNL A   1      46.444  24.510  33.458  1.00  0.00     0.173 A 
ATOM     83  C   UNL A   1      44.468  23.173  33.430  1.00  0.00     0.173 A 
ATOM     84  F   UNL A   1      47.143  25.620  33.186  1.00  0.00    -0.203 F 
ATOM     85  C   UNL A   1      47.031  23.610  34.344  1.00  0.00     0.198 A 
ATOM     86  C   UNL A   1      45.023  22.326  34.383  1.00  0.00     0.198 A 
ATOM     87  F   UNL A   1      43.218  22.878  33.046  1.00  0.00    -0.203 F 
ATOM     88  F   UNL A   1      48.286  23.820  34.762  1.00  0.00    -0.200 F 
ATOM     89  C   UNL A   1      46.316  22.527  34.818  1.00  0.00     0.200 A 
ATOM     90  F   UNL A   1      44.288  21.329  34.894  1.00  0.00    -0.200 F 
ATOM     91  F   UNL A   1      46.864  21.695  35.711  1.00  0.00    -0.200 F 
ENDBRANCH  58  81
ENDBRANCH  32  33
ENDBRANCH  25  27
ENDBRANCH  24  25
ENDBRANCH  23  24
ENDBRANCH   1  23
TORSDOF 14
ENDMDL
MODEL 2
REMARK VINA RESULT:     -12.7      4.219     10.231
REMARK SMILES Cc1c(N[C@@H]2CC[C@@H]([NH3+])C2)cccc1C(=O)OCCOC(=O)c1ccc(-c2c3nc(c(-c4c(F)c(F)c(F)c(F)c4F)c4ccc([nH]4)c(-c4c(F)c(F)c(F)c(F)c4F)c4nc(c(-c5c(F)c(F)c(F)c(F)c5F)c5ccc2[nH]5)C=C4)C=C3)cc1
REMARK SMILES IDX 18 1 17 2 15 3 16 4 14 5 1 6 2 7 3 8 11 9 13 10 12 11 4 12
REMARK SMILES IDX 5 14 6 15 10 16 7 17 8 18 9 19 19 23 20 24 21 25 22 26 23 27
REMARK SMILES IDX 24 28 85 29 25 30 84 31 26 32 27 33 28 34 78 35 29 36 83 37
REMARK SMILES IDX 77 38 79 39 30 40 82 41 76 42 75 43 31 45 63 46 43 47 62 48
REMARK SMILES IDX 44 49 47 50 61 51 80 52 45 53 46 54 60 56 81 57 48 58 32 59
REMARK SMILES IDX 33 60 41 61 34 62 35 63 39 64 42 65 36 66 37 67 40 68 38 69
REMARK SMILES IDX 64 70 65 71 73 72 66 73 67 74 71 75 74 76 68 77 69 78 72 79
REMARK SMILES IDX 70 80 49 81 50 82 58 83 51 84 52 85 56 86 59 87 53 88 54 89
REMARK SMILES IDX 57 90 55 91
REMARK H PARENT 4 13 9 20 9 21 9 22 79 44 47 55
REMARK Flexibility Score: inf
ROOT
ATOM      1  C   UNL A   1      36.315  23.698  26.125  1.00  0.00     0.275 C 
ENDROOT
BRANCH   1   2
ATOM      2  O   UNL A   1      35.492  24.387  25.174  1.00  0.00    -0.458 OA
BRANCH   2   3
ATOM      3  C   UNL A   1      34.175  24.120  25.363  1.00  0.00     0.338 C 
ATOM      4  O   UNL A   1      33.429  24.749  26.104  1.00  0.00    -0.246 OA
BRANCH   3   5
ATOM      5  C   UNL A   1      33.677  22.944  24.624  1.00  0.00     0.065 A 
ATOM      6  C   UNL A   1      33.801  21.617  26.791  1.00  0.00     0.047 C 
ATOM      7  C   UNL A   1      33.338  21.790  25.360  1.00  0.00    -0.013 A 
ATOM      8  C   UNL A   1      32.602  20.757  24.739  1.00  0.00     0.038 A 
ATOM      9  C   UNL A   1      32.219  20.927  23.402  1.00  0.00     0.026 A 
ATOM     10  C   UNL A   1      33.376  23.034  23.262  1.00  0.00     0.016 A 
ATOM     11  C   UNL A   1      32.611  22.041  22.660  1.00  0.00     0.003 A 
BRANCH   8  12
ATOM     12  N   UNL A   1      32.361  19.594  25.444  1.00  0.00    -0.382 N 
ATOM     13  H   UNL A   1      31.606  19.626  26.074  1.00  0.00     0.160 HD
BRANCH  12  14
ATOM     14  C   UNL A   1      33.072  18.335  25.381  1.00  0.00     0.085 C 
ATOM     15  C   UNL A   1      34.404  18.349  24.621  1.00  0.00     0.031 C 
ATOM     16  C   UNL A   1      32.234  17.205  24.794  1.00  0.00     0.089 C 
ATOM     17  C   UNL A   1      34.349  17.134  23.694  1.00  0.00     0.067 C 
ATOM     18  C   UNL A   1      33.278  16.214  24.287  1.00  0.00     0.182 C 
BRANCH  18  19
ATOM     19  N   UNL A   1      33.830  15.398  25.370  1.00  0.00    -0.355 N 
ATOM     20  H   UNL A   1      33.240  14.578  25.511  1.00  0.00     0.344 HD
ATOM     21  H   UNL A   1      33.860  15.947  26.228  1.00  0.00     0.344 HD
ATOM     22  H   UNL A   1      34.774  15.099  25.124  1.00  0.00     0.344 HD
ENDBRANCH  18  19
ENDBRANCH  12  14
ENDBRANCH   8  12
ENDBRANCH   3   5
ENDBRANCH   2   3
ENDBRANCH   1   2
BRANCH   1  23
ATOM     23  C   UNL A   1      37.811  23.709  25.788  1.00  0.00     0.275 C 
BRANCH  23  24
ATOM     24  O   UNL A   1      38.827  23.382  26.778  1.00  0.00    -0.458 OA
BRANCH  24  25
ATOM     25  C   UNL A   1      40.058  23.934  26.836  1.00  0.00     0.338 C 
ATOM     26  O   UNL A   1      41.083  23.331  26.537  1.00  0.00    -0.246 OA
BRANCH  25  27
ATOM     27  C   UNL A   1      40.098  25.304  27.374  1.00  0.00     0.060 A 
ATOM     28  C   UNL A   1      40.424  26.372  26.517  1.00  0.00     0.016 A 
ATOM     29  C   UNL A   1      39.668  25.533  28.677  1.00  0.00     0.016 A 
ATOM     30  C   UNL A   1      40.203  27.680  26.920  1.00  0.00     0.010 A 
ATOM     31  C   UNL A   1      39.310  26.805  29.028  1.00  0.00     0.010 A 
ATOM     32  C   UNL A   1      39.635  27.872  28.175  1.00  0.00    -0.014 A 
BRANCH  32  33
ATOM     33  C   UNL A   1      39.697  29.131  28.882  1.00  0.00     0.031 A 
ATOM     34  C   UNL A   1      38.637  30.137  28.758  1.00  0.00     0.074 A 
ATOM     35  C   UNL A   1      40.719  29.093  29.770  1.00  0.00     0.049 A 
ATOM     36  N   UNL A   1      38.765  31.349  29.157  1.00  0.00    -0.248 NA
ATOM     37  C   UNL A   1      37.341  29.899  28.129  1.00  0.00     0.031 C 
ATOM     38  C   UNL A   1      41.042  29.884  30.937  1.00  0.00     0.029 A 
ATOM     39  N   UNL A   1      41.830  28.228  29.643  1.00  0.00    -0.354 N 
ATOM     40  C   UNL A   1      37.508  31.927  29.173  1.00  0.00     0.074 A 
ATOM     41  C   UNL A   1      36.690  31.041  28.389  1.00  0.00     0.031 C 
ATOM     42  C   UNL A   1      42.359  29.730  31.198  1.00  0.00     0.029 A 
ATOM     43  C   UNL A   1      42.932  28.936  30.111  1.00  0.00     0.049 A 
ATOM     44  H   UNL A   1      41.826  27.308  29.291  1.00  0.00     0.167 HD
ATOM     45  C   UNL A   1      37.322  32.992  30.009  1.00  0.00     0.037 A 
ATOM     46  C   UNL A   1      43.819  29.378  29.171  1.00  0.00     0.037 A 
ATOM     47  C   UNL A   1      38.613  33.339  30.606  1.00  0.00     0.049 A 
ATOM     48  C   UNL A   1      43.748  30.882  29.101  1.00  0.00     0.074 A 
ATOM     49  C   UNL A   1      39.203  32.955  31.799  1.00  0.00     0.029 A 
ATOM     50  N   UNL A   1      39.639  33.787  29.779  1.00  0.00    -0.354 N 
ATOM     51  N   UNL A   1      42.647  31.580  29.222  1.00  0.00    -0.248 NA
ATOM     52  C   UNL A   1      44.951  31.700  29.049  1.00  0.00     0.031 C 
ATOM     53  C   UNL A   1      40.610  33.074  31.637  1.00  0.00     0.029 A 
ATOM     54  C   UNL A   1      40.870  33.531  30.353  1.00  0.00     0.049 A 
ATOM     55  H   UNL A   1      39.505  34.225  28.907  1.00  0.00     0.167 HD
ATOM     56  C   UNL A   1      42.984  32.899  29.374  1.00  0.00     0.074 A 
ATOM     57  C   UNL A   1      44.432  32.923  29.231  1.00  0.00     0.031 C 
ATOM     58  C   UNL A   1      42.097  33.896  29.666  1.00  0.00     0.037 A 
BRANCH  45  59
ATOM     59  C   UNL A   1      36.011  33.549  30.539  1.00  0.00     0.064 A 
ATOM     60  C   UNL A   1      35.149  34.258  29.664  1.00  0.00     0.173 A 
ATOM     61  C   UNL A   1      35.559  33.492  31.872  1.00  0.00     0.173 A 
ATOM     62  F   UNL A   1      35.406  34.351  28.353  1.00  0.00    -0.203 F 
ATOM     63  C   UNL A   1      33.987  34.905  30.097  1.00  0.00     0.198 A 
ATOM     64  C   UNL A   1      34.395  34.145  32.306  1.00  0.00     0.198 A 
ATOM     65  F   UNL A   1      36.200  32.790  32.808  1.00  0.00    -0.203 F 
ATOM     66  F   UNL A   1      33.236  35.581  29.216  1.00  0.00    -0.200 F 
ATOM     67  C   UNL A   1      33.615  34.860  31.421  1.00  0.00     0.200 A 
ATOM     68  F   UNL A   1      34.036  34.074  33.596  1.00  0.00    -0.200 F 
ATOM     69  F   UNL A   1      32.507  35.486  31.840  1.00  0.00    -0.200 F 
ENDBRANCH  45  59
BRANCH  46  70
ATOM     70  C   UNL A   1      44.016  28.438  28.010  1.00  0.00     0.064 A 
ATOM     71  C   UNL A   1      44.563  27.155  28.267  1.00  0.00     0.173 A 
ATOM     72  C   UNL A   1      43.467  28.631  26.736  1.00  0.00     0.173 A 
ATOM     73  F   UNL A   1      45.125  26.894  29.459  1.00  0.00    -0.203 F 
ATOM     74  C   UNL A   1      44.464  26.103  27.353  1.00  0.00     0.198 A 
ATOM     75  C   UNL A   1      43.394  27.579  25.808  1.00  0.00     0.198 A 
ATOM     76  F   UNL A   1      42.932  29.811  26.397  1.00  0.00    -0.203 F 
ATOM     77  F   UNL A   1      44.889  24.877  27.694  1.00  0.00    -0.200 F 
ATOM     78  C   UNL A   1      43.867  26.313  26.128  1.00  0.00     0.200 A 
ATOM     79  F   UNL A   1      42.787  27.769  24.626  1.00  0.00    -0.200 F 
ATOM     80  F   UNL A   1      43.701  25.293  25.273  1.00  0.00    -0.200 F 
ENDBRANCH  46  70
BRANCH  58  81
ATOM     81  C   UNL A   1      42.369  35.357  29.416  1.00  0.00     0.064 A 
ATOM     82  C   UNL A   1      43.227  36.122  30.224  1.00  0.00     0.173 A 
ATOM     83  C   UNL A   1      41.912  35.992  28.237  1.00  0.00     0.173 A 
ATOM     84  F   UNL A   1      43.855  35.591  31.281  1.00  0.00    -0.203 F 
ATOM     85  C   UNL A   1      43.519  37.452  29.933  1.00  0.00     0.198 A 
ATOM     86  C   UNL A   1      42.279  37.291  27.905  1.00  0.00     0.198 A 
ATOM     87  F   UNL A   1      41.127  35.363  27.350  1.00  0.00    -0.203 F 
ATOM     88  F   UNL A   1      44.281  38.159  30.778  1.00  0.00    -0.200 F 
ATOM     89  C   UNL A   1      43.058  38.032  28.768  1.00  0.00     0.200 A 
ATOM     90  F   UNL A   1      41.892  37.812  26.732  1.00  0.00    -0.200 F 
ATOM     91  F   UNL A   1      43.385  39.294  28.466  1.00  0.00    -0.200 F 
ENDBRANCH  58  81
ENDBRANCH  32  33
ENDBRANCH  25  27
ENDBRANCH  24  25
ENDBRANCH  23  24
ENDBRANCH   1  23
TORSDOF 14
ENDMDL
MODEL 3
REMARK VINA RESULT:     -12.7      4.169     10.288
REMARK SMILES Cc1c(N[C@@H]2CC[C@@H]([NH3+])C2)cccc1C(=O)OCCOC(=O)c1ccc(-c2c3nc(c(-c4c(F)c(F)c(F)c(F)c4F)c4ccc([nH]4)c(-c4c(F)c(F)c(F)c(F)c4F)c4nc(c(-c5c(F)c(F)c(F)c(F)c5F)c5ccc2[nH]5)C=C4)C=C3)cc1
REMARK SMILES IDX 18 1 17 2 15 3 16 4 14 5 1 6 2 7 3 8 11 9 13 10 12 11 4 12
REMARK SMILES IDX 5 14 6 15 10 16 7 17 8 18 9 19 19 23 20 24 21 25 22 26 23 27
REMARK SMILES IDX 24 28 85 29 25 30 84 31 26 32 27 33 28 34 78 35 29 36 83 37
REMARK SMILES IDX 77 38 79 39 30 40 82 41 76 42 75 43 31 45 63 46 43 47 62 48
REMARK SMILES IDX 44 49 47 50 61 51 80 52 45 53 46 54 60 56 81 57 48 58 32 59
REMARK SMILES IDX 33 60 41 61 34 62 35 63 39 64 42 65 36 66 37 67 40 68 38 69
REMARK SMILES IDX 64 70 65 71 73 72 66 73 67 74 71 75 74 76 68 77 69 78 72 79
REMARK SMILES IDX 70 80 49 81 50 82 58 83 51 84 52 85 56 86 59 87 53 88 54 89
REMARK SMILES IDX 57 90 55 91
REMARK H PARENT 4 13 9 20 9 21 9 22 79 44 47 55
REMARK Flexibility Score: inf
ROOT
ATOM      1  C   UNL A   1      37.063  21.724  25.368  1.00  0.00     0.275 C 
ENDROOT
BRANCH   1   2
ATOM      2  O   UNL A   1      36.423  22.490  24.338  1.00  0.00    -0.458 OA
BRANCH   2   3
ATOM      3  C   UNL A   1      35.092  22.232  24.273  1.00  0.00     0.338 C 
ATOM      4  O   UNL A   1      34.567  21.167  24.569  1.00  0.00    -0.246 OA
BRANCH   3   5
ATOM      5  C   UNL A   1      34.278  23.350  23.759  1.00  0.00     0.065 A 
ATOM      6  C   UNL A   1      34.901  24.671  25.843  1.00  0.00     0.047 C 
ATOM      7  C   UNL A   1      34.333  24.583  24.442  1.00  0.00    -0.013 A 
ATOM      8  C   UNL A   1      33.803  25.742  23.835  1.00  0.00     0.038 A 
ATOM      9  C   UNL A   1      33.248  25.625  22.553  1.00  0.00     0.026 A 
ATOM     10  C   UNL A   1      33.619  23.245  22.530  1.00  0.00     0.016 A 
ATOM     11  C   UNL A   1      33.138  24.392  21.909  1.00  0.00     0.003 A 
BRANCH   8  12
ATOM     12  N   UNL A   1      33.778  26.920  24.555  1.00  0.00    -0.382 N 
ATOM     13  H   UNL A   1      34.518  27.544  24.376  1.00  0.00     0.160 HD
BRANCH  12  14
ATOM     14  C   UNL A   1      32.811  27.359  25.538  1.00  0.00     0.085 C 
ATOM     15  C   UNL A   1      31.763  28.367  25.049  1.00  0.00     0.031 C 
ATOM     16  C   UNL A   1      33.455  27.953  26.786  1.00  0.00     0.089 C 
ATOM     17  C   UNL A   1      31.740  29.467  26.112  1.00  0.00     0.067 C 
ATOM     18  C   UNL A   1      32.356  28.840  27.365  1.00  0.00     0.182 C 
BRANCH  18  19
ATOM     19  N   UNL A   1      31.361  28.065  28.107  1.00  0.00    -0.355 N 
ATOM     20  H   UNL A   1      30.558  28.657  28.317  1.00  0.00     0.344 HD
ATOM     21  H   UNL A   1      31.772  27.727  28.976  1.00  0.00     0.344 HD
ATOM     22  H   UNL A   1      31.059  27.271  27.542  1.00  0.00     0.344 HD
ENDBRANCH  18  19
ENDBRANCH  12  14
ENDBRANCH   8  12
ENDBRANCH   3   5
ENDBRANCH   2   3
ENDBRANCH   1   2
BRANCH   1  23
ATOM     23  C   UNL A   1      38.454  22.236  25.762  1.00  0.00     0.275 C 
BRANCH  23  24
ATOM     24  O   UNL A   1      38.637  23.470  26.513  1.00  0.00    -0.458 OA
BRANCH  24  25
ATOM     25  C   UNL A   1      39.729  23.776  27.245  1.00  0.00     0.338 C 
ATOM     26  O   UNL A   1      40.578  22.951  27.567  1.00  0.00    -0.246 OA
BRANCH  25  27
ATOM     27  C   UNL A   1      39.790  25.170  27.715  1.00  0.00     0.060 A 
ATOM     28  C   UNL A   1      40.227  26.176  26.833  1.00  0.00     0.016 A 
ATOM     29  C   UNL A   1      39.274  25.486  28.967  1.00  0.00     0.016 A 
ATOM     30  C   UNL A   1      40.035  27.512  27.151  1.00  0.00     0.010 A 
ATOM     31  C   UNL A   1      38.947  26.788  29.225  1.00  0.00     0.010 A 
ATOM     32  C   UNL A   1      39.383  27.794  28.347  1.00  0.00    -0.014 A 
BRANCH  32  33
ATOM     33  C   UNL A   1      39.449  29.086  28.993  1.00  0.00     0.031 A 
ATOM     34  C   UNL A   1      38.440  30.121  28.746  1.00  0.00     0.074 A 
ATOM     35  C   UNL A   1      40.408  29.057  29.948  1.00  0.00     0.049 A 
ATOM     36  N   UNL A   1      38.589  31.347  29.092  1.00  0.00    -0.248 NA
ATOM     37  C   UNL A   1      37.179  29.897  28.044  1.00  0.00     0.031 C 
ATOM     38  C   UNL A   1      40.684  29.897  31.093  1.00  0.00     0.029 A 
ATOM     39  N   UNL A   1      41.490  28.148  29.940  1.00  0.00    -0.354 N 
ATOM     40  C   UNL A   1      37.357  31.970  28.994  1.00  0.00     0.074 A 
ATOM     41  C   UNL A   1      36.559  31.074  28.201  1.00  0.00     0.031 C 
ATOM     42  C   UNL A   1      41.974  29.709  31.450  1.00  0.00     0.029 A 
ATOM     43  C   UNL A   1      42.586  28.839  30.446  1.00  0.00     0.049 A 
ATOM     44  H   UNL A   1      41.472  27.211  29.636  1.00  0.00     0.167 HD
ATOM     45  C   UNL A   1      37.159  33.083  29.760  1.00  0.00     0.037 A 
ATOM     46  C   UNL A   1      43.549  29.198  29.547  1.00  0.00     0.037 A 
ATOM     47  C   UNL A   1      38.421  33.415  30.425  1.00  0.00     0.049 A 
ATOM     48  C   UNL A   1      43.543  30.698  29.397  1.00  0.00     0.074 A 
ATOM     49  C   UNL A   1      38.915  33.073  31.673  1.00  0.00     0.029 A 
ATOM     50  N   UNL A   1      39.516  33.781  29.648  1.00  0.00    -0.354 N 
ATOM     51  N   UNL A   1      42.465  31.441  29.408  1.00  0.00    -0.248 NA
ATOM     52  C   UNL A   1      44.778  31.469  29.385  1.00  0.00     0.031 C 
ATOM     53  C   UNL A   1      40.334  33.133  31.601  1.00  0.00     0.029 A 
ATOM     54  C   UNL A   1      40.695  33.512  30.316  1.00  0.00     0.049 A 
ATOM     55  H   UNL A   1      39.457  34.177  28.748  1.00  0.00     0.167 HD
ATOM     56  C   UNL A   1      42.843  32.753  29.516  1.00  0.00     0.074 A 
ATOM     57  C   UNL A   1      44.296  32.718  29.470  1.00  0.00     0.031 C 
ATOM     58  C   UNL A   1      41.978  33.796  29.696  1.00  0.00     0.037 A 
BRANCH  45  59
ATOM     59  C   UNL A   1      35.839  33.715  30.171  1.00  0.00     0.064 A 
ATOM     60  C   UNL A   1      35.015  34.315  29.186  1.00  0.00     0.173 A 
ATOM     61  C   UNL A   1      35.344  33.832  31.485  1.00  0.00     0.173 A 
ATOM     62  F   UNL A   1      35.314  34.238  27.882  1.00  0.00    -0.203 F 
ATOM     63  C   UNL A   1      33.848  35.021  29.494  1.00  0.00     0.198 A 
ATOM     64  C   UNL A   1      34.175  34.545  31.794  1.00  0.00     0.198 A 
ATOM     65  F   UNL A   1      35.946  33.249  32.523  1.00  0.00    -0.203 F 
ATOM     66  F   UNL A   1      33.134  35.587  28.510  1.00  0.00    -0.200 F 
ATOM     67  C   UNL A   1      33.433  35.148  30.800  1.00  0.00     0.200 A 
ATOM     68  F   UNL A   1      33.774  34.641  33.070  1.00  0.00    -0.200 F 
ATOM     69  F   UNL A   1      32.321  35.832  31.100  1.00  0.00    -0.200 F 
ENDBRANCH  45  59
BRANCH  46  70
ATOM     70  C   UNL A   1      43.785  28.192  28.451  1.00  0.00     0.064 A 
ATOM     71  C   UNL A   1      43.235  28.449  27.170  1.00  0.00     0.173 A 
ATOM     72  C   UNL A   1      44.715  27.148  28.525  1.00  0.00     0.173 A 
ATOM     73  F   UNL A   1      42.320  29.422  27.017  1.00  0.00    -0.203 F 
ATOM     74  C   UNL A   1      43.671  27.785  26.021  1.00  0.00     0.198 A 
ATOM     75  C   UNL A   1      45.133  26.462  27.372  1.00  0.00     0.198 A 
ATOM     76  F   UNL A   1      45.286  26.825  29.694  1.00  0.00    -0.203 F 
ATOM     77  F   UNL A   1      43.206  28.151  24.817  1.00  0.00    -0.200 F 
ATOM     78  C   UNL A   1      44.631  26.799  26.122  1.00  0.00     0.200 A 
ATOM     79  F   UNL A   1      46.088  25.523  27.460  1.00  0.00    -0.200 F 
ATOM     80  F   UNL A   1      45.110  26.207  25.018  1.00  0.00    -0.200 F 
ENDBRANCH  46  70
BRANCH  58  81
ATOM     81  C   UNL A   1      42.324  35.230  29.392  1.00  0.00     0.064 A 
ATOM     82  C   UNL A   1      43.181  35.996  30.199  1.00  0.00     0.173 A 
ATOM     83  C   UNL A   1      41.942  35.828  28.167  1.00  0.00     0.173 A 
ATOM     84  F   UNL A   1      43.743  35.490  31.305  1.00  0.00    -0.203 F 
ATOM     85  C   UNL A   1      43.543  37.298  29.861  1.00  0.00     0.198 A 
ATOM     86  C   UNL A   1      42.378  37.094  27.792  1.00  0.00     0.198 A 
ATOM     87  F   UNL A   1      41.167  35.191  27.277  1.00  0.00    -0.203 F 
ATOM     88  F   UNL A   1      44.300  38.011  30.705  1.00  0.00    -0.200 F 
ATOM     89  C   UNL A   1      43.154  37.841  28.652  1.00  0.00     0.200 A 
ATOM     90  F   UNL A   1      42.062  37.574  26.581  1.00  0.00    -0.200 F 
ATOM     91  F   UNL A   1      43.549  39.072  28.308  1.00  0.00    -0.200 F 
ENDBRANCH  58  81
ENDBRANCH  32  33
ENDBRANCH  25  27
ENDBRANCH  24  25
ENDBRANCH  23  24
ENDBRANCH   1  23
TORSDOF 14
ENDMDL
