MODEL 1
REMARK VINA RESULT:     -13.0      0.000      0.000
REMARK SMILES O=C(CC[N@@H+]1C[C@@H](c2ccccc2)[C@@H]2[C@H]1[C@H]1CC[N@H+]2CC1)OCCOC(=O)c1ccc(-c2c3nc(c(-c4c(F)c(F)c(F)c(F)c4F)c4ccc([nH]4)c(-c4c(F)c(F)c(F)c(F)c4F)c4nc(c(-c5c(F)c(F)c(F)c(F)c5F)c5ccc2[nH]5)C=C4)C=C3)cc1
REMARK SMILES IDX 23 1 22 2 2 3 1 4 3 5 4 6 5 7 6 8 15 9 7 11 14 12 16 13
REMARK SMILES IDX 19 14 17 15 21 16 18 17 20 18 8 20 9 21 13 22 10 23 12 24
REMARK SMILES IDX 11 25 24 26 25 27 26 28 27 29 28 30 29 31 90 32 30 33 89 34
REMARK SMILES IDX 31 35 32 36 33 37 83 38 34 39 88 40 82 41 84 42 35 43 87 44
REMARK SMILES IDX 81 45 80 46 36 48 68 49 48 50 67 51 49 52 52 53 66 54 85 55
REMARK SMILES IDX 50 56 51 57 65 59 86 60 53 61 37 62 38 63 46 64 39 65 40 66
REMARK SMILES IDX 44 67 47 68 41 69 42 70 45 71 43 72 69 73 70 74 78 75 71 76
REMARK SMILES IDX 72 77 76 78 79 79 73 80 74 81 77 82 75 83 54 84 55 85 63 86
REMARK SMILES IDX 56 87 57 88 61 89 64 90 58 91 59 92 62 93 60 94
REMARK H PARENT 5 10 19 19 84 47 52 58
REMARK Flexibility Score: inf
ROOT
ATOM      1  C   UNL A   1      35.911  21.120  24.803  1.00  0.00     0.274 C 
ENDROOT
BRANCH   1   2
ATOM      2  O   UNL A   1      35.844  22.559  24.963  1.00  0.00    -0.462 OA
BRANCH   2   3
ATOM      3  C   UNL A   1      35.405  23.428  24.021  1.00  0.00     0.311 C 
ATOM      4  O   UNL A   1      35.753  23.303  22.848  1.00  0.00    -0.252 OA
BRANCH   3   5
ATOM      5  C   UNL A   1      34.494  24.557  24.431  1.00  0.00     0.184 C 
BRANCH   5   6
ATOM      6  C   UNL A   1      33.132  24.541  23.744  1.00  0.00     0.274 C 
BRANCH   6   7
ATOM      7  N   UNL A   1      32.366  25.797  23.836  1.00  0.00    -0.326 N 
ATOM      8  C   UNL A   1      32.194  26.434  22.485  1.00  0.00     0.277 C 
ATOM      9  C   UNL A   1      33.072  26.788  24.711  1.00  0.00     0.247 C 
ATOM     10  H   UNL A   1      31.455  25.555  24.228  1.00  0.00     0.348 HD
ATOM     11  C   UNL A   1      31.939  27.959  22.544  1.00  0.00     0.139 C 
ATOM     12  C   UNL A   1      32.848  28.359  23.721  1.00  0.00     0.256 C 
ATOM     13  C   UNL A   1      32.401  27.078  26.409  1.00  0.00     0.065 C 
ATOM     14  N   UNL A   1      32.699  29.698  24.596  1.00  0.00    -0.327 N 
ATOM     15  C   UNL A   1      31.643  27.892  25.571  1.00  0.00     0.071 C 
ATOM     16  C   UNL A   1      31.986  28.656  27.252  1.00  0.00     0.071 C 
ATOM     17  C   UNL A   1      33.305  28.890  25.536  1.00  0.00     0.263 C 
ATOM     18  C   UNL A   1      31.780  30.019  25.913  1.00  0.00     0.263 C 
ATOM     19  H   UNL A   1      32.719  30.507  23.975  1.00  0.00     0.348 HD
BRANCH  11  20
ATOM     20  C   UNL A   1      30.502  28.469  22.542  1.00  0.00    -0.033 A 
ATOM     21  C   UNL A   1      29.406  27.786  23.094  1.00  0.00     0.004 A 
ATOM     22  C   UNL A   1      30.263  29.744  22.001  1.00  0.00     0.004 A 
ATOM     23  C   UNL A   1      28.164  28.411  23.241  1.00  0.00     0.000 A 
ATOM     24  C   UNL A   1      29.004  30.344  22.086  1.00  0.00     0.000 A 
ATOM     25  C   UNL A   1      27.965  29.694  22.742  1.00  0.00     0.000 A 
ENDBRANCH  11  20
ENDBRANCH   6   7
ENDBRANCH   5   6
ENDBRANCH   3   5
ENDBRANCH   2   3
ENDBRANCH   1   2
BRANCH   1  26
ATOM     26  C   UNL A   1      37.333  20.602  25.002  1.00  0.00     0.275 C 
BRANCH  26  27
ATOM     27  O   UNL A   1      38.213  21.704  25.265  1.00  0.00    -0.458 OA
BRANCH  27  28
ATOM     28  C   UNL A   1      39.261  21.396  26.073  1.00  0.00     0.338 C 
ATOM     29  O   UNL A   1      39.861  20.346  26.133  1.00  0.00    -0.246 OA
BRANCH  28  30
ATOM     30  C   UNL A   1      39.702  22.631  26.756  1.00  0.00     0.060 A 
ATOM     31  C   UNL A   1      38.994  23.809  26.489  1.00  0.00     0.016 A 
ATOM     32  C   UNL A   1      40.783  22.634  27.643  1.00  0.00     0.016 A 
ATOM     33  C   UNL A   1      39.410  25.009  27.057  1.00  0.00     0.010 A 
ATOM     34  C   UNL A   1      41.202  23.838  28.209  1.00  0.00     0.010 A 
ATOM     35  C   UNL A   1      40.548  25.035  27.875  1.00  0.00    -0.014 A 
BRANCH  35  36
ATOM     36  C   UNL A   1      41.171  26.340  28.191  1.00  0.00     0.031 A 
ATOM     37  C   UNL A   1      42.583  26.579  27.731  1.00  0.00     0.074 A 
ATOM     38  C   UNL A   1      40.478  27.306  28.816  1.00  0.00     0.049 A 
ATOM     39  N   UNL A   1      43.319  27.655  27.831  1.00  0.00    -0.248 NA
ATOM     40  C   UNL A   1      43.256  25.449  27.067  1.00  0.00     0.031 C 
ATOM     41  C   UNL A   1      39.103  27.187  29.294  1.00  0.00     0.029 A 
ATOM     42  N   UNL A   1      40.846  28.583  29.153  1.00  0.00    -0.354 N 
ATOM     43  C   UNL A   1      44.527  27.339  27.224  1.00  0.00     0.074 A 
ATOM     44  C   UNL A   1      44.452  25.955  26.815  1.00  0.00     0.031 C 
ATOM     45  C   UNL A   1      38.742  28.347  29.870  1.00  0.00     0.029 A 
ATOM     46  C   UNL A   1      39.865  29.281  29.813  1.00  0.00     0.049 A 
ATOM     47  H   UNL A   1      41.729  28.964  28.943  1.00  0.00     0.167 HD
ATOM     48  C   UNL A   1      45.596  28.141  27.002  1.00  0.00     0.037 A 
ATOM     49  C   UNL A   1      39.884  30.531  30.314  1.00  0.00     0.037 A 
ATOM     50  C   UNL A   1      45.675  29.511  27.431  1.00  0.00     0.049 A 
ATOM     51  C   UNL A   1      41.113  31.382  30.112  1.00  0.00     0.074 A 
ATOM     52  C   UNL A   1      46.713  30.410  27.267  1.00  0.00     0.029 A 
ATOM     53  N   UNL A   1      44.671  30.178  28.120  1.00  0.00    -0.354 N 
ATOM     54  N   UNL A   1      42.234  31.092  29.498  1.00  0.00    -0.248 NA
ATOM     55  C   UNL A   1      41.068  32.746  30.657  1.00  0.00     0.031 C 
ATOM     56  C   UNL A   1      46.359  31.605  27.903  1.00  0.00     0.029 A 
ATOM     57  C   UNL A   1      45.076  31.471  28.409  1.00  0.00     0.049 A 
ATOM     58  H   UNL A   1      43.801  29.790  28.368  1.00  0.00     0.167 HD
ATOM     59  C   UNL A   1      43.015  32.239  29.560  1.00  0.00     0.074 A 
ATOM     60  C   UNL A   1      42.225  33.240  30.245  1.00  0.00     0.031 C 
ATOM     61  C   UNL A   1      44.274  32.449  29.098  1.00  0.00     0.037 A 
BRANCH  48  62
ATOM     62  C   UNL A   1      46.764  27.547  26.271  1.00  0.00     0.064 A 
ATOM     63  C   UNL A   1      46.895  27.668  24.878  1.00  0.00     0.173 A 
ATOM     64  C   UNL A   1      47.778  26.876  26.968  1.00  0.00     0.173 A 
ATOM     65  F   UNL A   1      45.943  28.282  24.160  1.00  0.00    -0.203 F 
ATOM     66  C   UNL A   1      47.987  27.119  24.209  1.00  0.00     0.198 A 
ATOM     67  C   UNL A   1      48.884  26.356  26.301  1.00  0.00     0.198 A 
ATOM     68  F   UNL A   1      47.701  26.731  28.300  1.00  0.00    -0.203 F 
ATOM     69  F   UNL A   1      48.067  27.204  22.875  1.00  0.00    -0.200 F 
ATOM     70  C   UNL A   1      48.985  26.471  24.923  1.00  0.00     0.200 A 
ATOM     71  F   UNL A   1      49.852  25.740  26.993  1.00  0.00    -0.200 F 
ATOM     72  F   UNL A   1      50.041  25.952  24.280  1.00  0.00    -0.200 F 
ENDBRANCH  48  62
BRANCH  49  73
ATOM     73  C   UNL A   1      38.708  31.056  31.059  1.00  0.00     0.064 A 
ATOM     74  C   UNL A   1      38.622  30.954  32.455  1.00  0.00     0.173 A 
ATOM     75  C   UNL A   1      37.624  31.635  30.382  1.00  0.00     0.173 A 
ATOM     76  F   UNL A   1      39.621  30.388  33.148  1.00  0.00    -0.203 F 
ATOM     77  C   UNL A   1      37.485  31.379  33.141  1.00  0.00     0.198 A 
ATOM     78  C   UNL A   1      36.503  32.091  31.072  1.00  0.00     0.198 A 
ATOM     79  F   UNL A   1      37.654  31.759  29.047  1.00  0.00    -0.203 F 
ATOM     80  F   UNL A   1      37.403  31.210  34.468  1.00  0.00    -0.200 F 
ATOM     81  C   UNL A   1      36.428  31.951  32.449  1.00  0.00     0.200 A 
ATOM     82  F   UNL A   1      35.491  32.657  30.400  1.00  0.00    -0.200 F 
ATOM     83  F   UNL A   1      35.335  32.357  33.107  1.00  0.00    -0.200 F 
ENDBRANCH  49  73
BRANCH  61  84
ATOM     84  C   UNL A   1      44.857  33.821  29.301  1.00  0.00     0.064 A 
ATOM     85  C   UNL A   1      44.684  34.844  28.356  1.00  0.00     0.173 A 
ATOM     86  C   UNL A   1      45.588  34.118  30.461  1.00  0.00     0.173 A 
ATOM     87  F   UNL A   1      44.001  34.610  27.225  1.00  0.00    -0.203 F 
ATOM     88  C   UNL A   1      45.264  36.096  28.542  1.00  0.00     0.198 A 
ATOM     89  C   UNL A   1      46.134  35.384  30.661  1.00  0.00     0.198 A 
ATOM     90  F   UNL A   1      45.774  33.182  31.405  1.00  0.00    -0.203 F 
ATOM     91  F   UNL A   1      45.145  37.034  27.592  1.00  0.00    -0.200 F 
ATOM     92  C   UNL A   1      45.984  36.366  29.695  1.00  0.00     0.200 A 
ATOM     93  F   UNL A   1      46.813  35.649  31.786  1.00  0.00    -0.200 F 
ATOM     94  F   UNL A   1      46.542  37.572  29.871  1.00  0.00    -0.200 F 
ENDBRANCH  61  84
ENDBRANCH  35  36
ENDBRANCH  28  30
ENDBRANCH  27  28
ENDBRANCH  26  27
ENDBRANCH   1  26
TORSDOF 14
ENDMDL
MODEL 2
REMARK VINA RESULT:     -13.0      4.263      9.907
REMARK SMILES O=C(CC[N@@H+]1C[C@@H](c2ccccc2)[C@@H]2[C@H]1[C@H]1CC[N@H+]2CC1)OCCOC(=O)c1ccc(-c2c3nc(c(-c4c(F)c(F)c(F)c(F)c4F)c4ccc([nH]4)c(-c4c(F)c(F)c(F)c(F)c4F)c4nc(c(-c5c(F)c(F)c(F)c(F)c5F)c5ccc2[nH]5)C=C4)C=C3)cc1
REMARK SMILES IDX 23 1 22 2 2 3 1 4 3 5 4 6 5 7 6 8 15 9 7 11 14 12 16 13
REMARK SMILES IDX 19 14 17 15 21 16 18 17 20 18 8 20 9 21 13 22 10 23 12 24
REMARK SMILES IDX 11 25 24 26 25 27 26 28 27 29 28 30 29 31 90 32 30 33 89 34
REMARK SMILES IDX 31 35 32 36 33 37 83 38 34 39 88 40 82 41 84 42 35 43 87 44
REMARK SMILES IDX 81 45 80 46 36 48 68 49 48 50 67 51 49 52 52 53 66 54 85 55
REMARK SMILES IDX 50 56 51 57 65 59 86 60 53 61 37 62 38 63 46 64 39 65 40 66
REMARK SMILES IDX 44 67 47 68 41 69 42 70 45 71 43 72 69 73 70 74 78 75 71 76
REMARK SMILES IDX 72 77 76 78 79 79 73 80 74 81 77 82 75 83 54 84 55 85 63 86
REMARK SMILES IDX 56 87 57 88 61 89 64 90 58 91 59 92 62 93 60 94
REMARK H PARENT 5 10 19 19 84 47 52 58
REMARK Flexibility Score: inf
ROOT
ATOM      1  C   UNL A   1      31.499  30.097  25.453  1.00  0.00     0.274 C 
ENDROOT
BRANCH   1   2
ATOM      2  O   UNL A   1      32.716  29.344  25.230  1.00  0.00    -0.462 OA
BRANCH   2   3
ATOM      3  C   UNL A   1      32.782  28.004  25.042  1.00  0.00     0.311 C 
ATOM      4  O   UNL A   1      32.163  27.241  25.783  1.00  0.00    -0.252 OA
BRANCH   3   5
ATOM      5  C   UNL A   1      33.628  27.461  23.920  1.00  0.00     0.184 C 
BRANCH   5   6
ATOM      6  C   UNL A   1      33.311  26.016  23.542  1.00  0.00     0.274 C 
BRANCH   6   7
ATOM      7  N   UNL A   1      34.043  24.991  24.306  1.00  0.00    -0.326 N 
ATOM      8  C   UNL A   1      35.080  24.310  23.458  1.00  0.00     0.277 C 
ATOM      9  C   UNL A   1      33.106  23.930  24.804  1.00  0.00     0.247 C 
ATOM     10  H   UNL A   1      34.489  25.472  25.087  1.00  0.00     0.348 HD
ATOM     11  C   UNL A   1      35.468  22.899  23.960  1.00  0.00     0.139 C 
ATOM     12  C   UNL A   1      34.106  22.386  24.463  1.00  0.00     0.256 C 
ATOM     13  C   UNL A   1      32.660  23.940  26.599  1.00  0.00     0.065 C 
ATOM     14  N   UNL A   1      33.894  21.193  25.517  1.00  0.00    -0.327 N 
ATOM     15  C   UNL A   1      33.877  23.268  26.527  1.00  0.00     0.071 C 
ATOM     16  C   UNL A   1      32.712  22.577  27.827  1.00  0.00     0.071 C 
ATOM     17  C   UNL A   1      32.737  21.903  25.757  1.00  0.00     0.263 C 
ATOM     18  C   UNL A   1      33.876  21.203  27.154  1.00  0.00     0.263 C 
ATOM     19  H   UNL A   1      34.369  20.358  25.176  1.00  0.00     0.348 HD
BRANCH  11  20
ATOM     20  C   UNL A   1      36.675  22.748  24.880  1.00  0.00    -0.033 A 
ATOM     21  C   UNL A   1      37.430  21.573  25.030  1.00  0.00     0.004 A 
ATOM     22  C   UNL A   1      37.102  23.885  25.587  1.00  0.00     0.004 A 
ATOM     23  C   UNL A   1      38.642  21.576  25.727  1.00  0.00     0.000 A 
ATOM     24  C   UNL A   1      38.279  23.871  26.340  1.00  0.00     0.000 A 
ATOM     25  C   UNL A   1      39.070  22.728  26.377  1.00  0.00     0.000 A 
ENDBRANCH  11  20
ENDBRANCH   6   7
ENDBRANCH   5   6
ENDBRANCH   3   5
ENDBRANCH   2   3
ENDBRANCH   1   2
BRANCH   1  26
ATOM     26  C   UNL A   1      31.727  31.257  26.417  1.00  0.00     0.275 C 
BRANCH  26  27
ATOM     27  O   UNL A   1      32.836  30.956  27.277  1.00  0.00    -0.458 OA
BRANCH  27  28
ATOM     28  C   UNL A   1      33.576  32.040  27.628  1.00  0.00     0.338 C 
ATOM     29  O   UNL A   1      33.188  33.175  27.794  1.00  0.00    -0.246 OA
BRANCH  28  30
ATOM     30  C   UNL A   1      34.938  31.582  27.977  1.00  0.00     0.060 A 
ATOM     31  C   UNL A   1      35.147  30.203  28.099  1.00  0.00     0.016 A 
ATOM     32  C   UNL A   1      35.988  32.483  28.176  1.00  0.00     0.016 A 
ATOM     33  C   UNL A   1      36.394  29.725  28.490  1.00  0.00     0.010 A 
ATOM     34  C   UNL A   1      37.237  32.004  28.571  1.00  0.00     0.010 A 
ATOM     35  C   UNL A   1      37.427  30.628  28.779  1.00  0.00    -0.014 A 
BRANCH  35  36
ATOM     36  C   UNL A   1      38.619  30.140  29.508  1.00  0.00     0.031 A 
ATOM     37  C   UNL A   1      38.843  30.636  30.910  1.00  0.00     0.074 A 
ATOM     38  C   UNL A   1      39.445  29.235  28.958  1.00  0.00     0.049 A 
ATOM     39  N   UNL A   1      39.774  30.310  31.768  1.00  0.00    -0.248 NA
ATOM     40  C   UNL A   1      37.886  31.637  31.411  1.00  0.00     0.031 C 
ATOM     41  C   UNL A   1      39.316  28.678  27.613  1.00  0.00     0.029 A 
ATOM     42  N   UNL A   1      40.560  28.625  29.473  1.00  0.00    -0.354 N 
ATOM     43  C   UNL A   1      39.500  31.045  32.914  1.00  0.00     0.074 A 
ATOM     44  C   UNL A   1      38.357  31.881  32.623  1.00  0.00     0.031 C 
ATOM     45  C   UNL A   1      40.320  27.808  27.406  1.00  0.00     0.029 A 
ATOM     46  C   UNL A   1      41.167  27.760  28.597  1.00  0.00     0.049 A 
ATOM     47  H   UNL A   1      40.894  28.791  30.384  1.00  0.00     0.167 HD
ATOM     48  C   UNL A   1      40.129  31.007  34.112  1.00  0.00     0.037 A 
ATOM     49  C   UNL A   1      42.283  27.020  28.747  1.00  0.00     0.037 A 
ATOM     50  C   UNL A   1      41.280  30.190  34.390  1.00  0.00     0.049 A 
ATOM     51  C   UNL A   1      43.004  27.046  30.072  1.00  0.00     0.074 A 
ATOM     52  C   UNL A   1      42.000  30.082  35.565  1.00  0.00     0.029 A 
ATOM     53  N   UNL A   1      41.884  29.345  33.470  1.00  0.00    -0.354 N 
ATOM     54  N   UNL A   1      42.713  27.710  31.165  1.00  0.00    -0.248 NA
ATOM     55  C   UNL A   1      44.200  26.201  30.188  1.00  0.00     0.031 C 
ATOM     56  C   UNL A   1      43.071  29.210  35.341  1.00  0.00     0.029 A 
ATOM     57  C   UNL A   1      42.982  28.728  34.045  1.00  0.00     0.049 A 
ATOM     58  H   UNL A   1      41.577  29.204  32.545  1.00  0.00     0.167 HD
ATOM     59  C   UNL A   1      43.672  27.344  32.102  1.00  0.00     0.074 A 
ATOM     60  C   UNL A   1      44.533  26.376  31.458  1.00  0.00     0.031 C 
ATOM     61  C   UNL A   1      43.831  27.771  33.381  1.00  0.00     0.037 A 
BRANCH  48  62
ATOM     62  C   UNL A   1      39.586  31.881  35.205  1.00  0.00     0.064 A 
ATOM     63  C   UNL A   1      38.661  31.394  36.142  1.00  0.00     0.173 A 
ATOM     64  C   UNL A   1      40.015  33.209  35.337  1.00  0.00     0.173 A 
ATOM     65  F   UNL A   1      38.202  30.137  36.048  1.00  0.00    -0.203 F 
ATOM     66  C   UNL A   1      38.168  32.212  37.156  1.00  0.00     0.198 A 
ATOM     67  C   UNL A   1      39.545  34.015  36.371  1.00  0.00     0.198 A 
ATOM     68  F   UNL A   1      40.897  33.725  34.468  1.00  0.00    -0.203 F 
ATOM     69  F   UNL A   1      37.250  31.740  38.010  1.00  0.00    -0.200 F 
ATOM     70  C   UNL A   1      38.618  33.519  37.275  1.00  0.00     0.200 A 
ATOM     71  F   UNL A   1      39.988  35.274  36.491  1.00  0.00    -0.200 F 
ATOM     72  F   UNL A   1      38.152  34.302  38.258  1.00  0.00    -0.200 F 
ENDBRANCH  48  62
BRANCH  49  73
ATOM     73  C   UNL A   1      42.793  26.198  27.618  1.00  0.00     0.064 A 
ATOM     74  C   UNL A   1      43.765  26.690  26.735  1.00  0.00     0.173 A 
ATOM     75  C   UNL A   1      42.286  24.912  27.375  1.00  0.00     0.173 A 
ATOM     76  F   UNL A   1      44.266  27.922  26.910  1.00  0.00    -0.203 F 
ATOM     77  C   UNL A   1      44.183  25.944  25.635  1.00  0.00     0.198 A 
ATOM     78  C   UNL A   1      42.731  24.153  26.295  1.00  0.00     0.198 A 
ATOM     79  F   UNL A   1      41.356  24.391  28.189  1.00  0.00    -0.203 F 
ATOM     80  F   UNL A   1      45.065  26.465  24.771  1.00  0.00    -0.200 F 
ATOM     81  C   UNL A   1      43.669  24.674  25.418  1.00  0.00     0.200 A 
ATOM     82  F   UNL A   1      42.241  22.921  26.099  1.00  0.00    -0.200 F 
ATOM     83  F   UNL A   1      44.070  23.958  24.359  1.00  0.00    -0.200 F 
ENDBRANCH  49  73
BRANCH  61  84
ATOM     84  C   UNL A   1      44.966  27.172  34.166  1.00  0.00     0.064 A 
ATOM     85  C   UNL A   1      46.237  27.764  34.194  1.00  0.00     0.173 A 
ATOM     86  C   UNL A   1      44.774  25.996  34.907  1.00  0.00     0.173 A 
ATOM     87  F   UNL A   1      46.476  28.885  33.495  1.00  0.00    -0.203 F 
ATOM     88  C   UNL A   1      47.287  27.175  34.893  1.00  0.00     0.198 A 
ATOM     89  C   UNL A   1      45.817  25.430  35.637  1.00  0.00     0.198 A 
ATOM     90  F   UNL A   1      43.575  25.394  34.927  1.00  0.00    -0.203 F 
ATOM     91  F   UNL A   1      48.510  27.721  34.846  1.00  0.00    -0.200 F 
ATOM     92  C   UNL A   1      47.075  26.012  35.617  1.00  0.00     0.200 A 
ATOM     93  F   UNL A   1      45.606  24.316  36.352  1.00  0.00    -0.200 F 
ATOM     94  F   UNL A   1      48.087  25.445  36.289  1.00  0.00    -0.200 F 
ENDBRANCH  61  84
ENDBRANCH  35  36
ENDBRANCH  28  30
ENDBRANCH  27  28
ENDBRANCH  26  27
ENDBRANCH   1  26
TORSDOF 14
ENDMDL
MODEL 3
REMARK VINA RESULT:     -13.0      4.420      9.911
REMARK SMILES O=C(CC[N@@H+]1C[C@@H](c2ccccc2)[C@@H]2[C@H]1[C@H]1CC[N@H+]2CC1)OCCOC(=O)c1ccc(-c2c3nc(c(-c4c(F)c(F)c(F)c(F)c4F)c4ccc([nH]4)c(-c4c(F)c(F)c(F)c(F)c4F)c4nc(c(-c5c(F)c(F)c(F)c(F)c5F)c5ccc2[nH]5)C=C4)C=C3)cc1
REMARK SMILES IDX 23 1 22 2 2 3 1 4 3 5 4 6 5 7 6 8 15 9 7 11 14 12 16 13
REMARK SMILES IDX 19 14 17 15 21 16 18 17 20 18 8 20 9 21 13 22 10 23 12 24
REMARK SMILES IDX 11 25 24 26 25 27 26 28 27 29 28 30 29 31 90 32 30 33 89 34
REMARK SMILES IDX 31 35 32 36 33 37 83 38 34 39 88 40 82 41 84 42 35 43 87 44
REMARK SMILES IDX 81 45 80 46 36 48 68 49 48 50 67 51 49 52 52 53 66 54 85 55
REMARK SMILES IDX 50 56 51 57 65 59 86 60 53 61 37 62 38 63 46 64 39 65 40 66
REMARK SMILES IDX 44 67 47 68 41 69 42 70 45 71 43 72 69 73 70 74 78 75 71 76
REMARK SMILES IDX 72 77 76 78 79 79 73 80 74 81 77 82 75 83 54 84 55 85 63 86
REMARK SMILES IDX 56 87 57 88 61 89 64 90 58 91 59 92 62 93 60 94
REMARK H PARENT 5 10 19 19 84 47 52 58
REMARK Flexibility Score: inf
ROOT
ATOM      1  C   UNL A   1      31.655  29.455  25.397  1.00  0.00     0.274 C 
ENDROOT
BRANCH   1   2
ATOM      2  O   UNL A   1      32.454  28.385  25.957  1.00  0.00    -0.462 OA
BRANCH   2   3
ATOM      3  C   UNL A   1      32.023  27.118  26.167  1.00  0.00     0.311 C 
ATOM      4  O   UNL A   1      31.047  26.903  26.886  1.00  0.00    -0.252 OA
BRANCH   3   5
ATOM      5  C   UNL A   1      32.759  25.974  25.518  1.00  0.00     0.184 C 
BRANCH   5   6
ATOM      6  C   UNL A   1      31.854  24.849  25.023  1.00  0.00     0.274 C 
BRANCH   6   7
ATOM      7  N   UNL A   1      32.529  23.564  24.771  1.00  0.00    -0.326 N 
ATOM      8  C   UNL A   1      31.745  22.413  25.338  1.00  0.00     0.277 C 
ATOM      9  C   UNL A   1      33.884  23.539  25.412  1.00  0.00     0.247 C 
ATOM     10  H   UNL A   1      32.608  23.469  23.759  1.00  0.00     0.348 HD
ATOM     11  C   UNL A   1      32.603  21.160  25.634  1.00  0.00     0.139 C 
ATOM     12  C   UNL A   1      33.906  21.813  26.132  1.00  0.00     0.256 C 
ATOM     13  C   UNL A   1      35.364  23.725  24.319  1.00  0.00     0.065 C 
ATOM     14  N   UNL A   1      35.348  21.106  26.158  1.00  0.00    -0.327 N 
ATOM     15  C   UNL A   1      35.028  22.375  24.257  1.00  0.00     0.071 C 
ATOM     16  C   UNL A   1      36.879  22.693  24.211  1.00  0.00     0.071 C 
ATOM     17  C   UNL A   1      35.752  22.420  26.054  1.00  0.00     0.263 C 
ATOM     18  C   UNL A   1      36.499  20.981  25.000  1.00  0.00     0.263 C 
ATOM     19  H   UNL A   1      35.283  20.235  26.685  1.00  0.00     0.348 HD
BRANCH  11  20
ATOM     20  C   UNL A   1      32.707  20.068  24.575  1.00  0.00    -0.033 A 
ATOM     21  C   UNL A   1      33.192  18.770  24.803  1.00  0.00     0.004 A 
ATOM     22  C   UNL A   1      32.228  20.362  23.287  1.00  0.00     0.004 A 
ATOM     23  C   UNL A   1      33.057  17.768  23.837  1.00  0.00     0.000 A 
ATOM     24  C   UNL A   1      32.156  19.378  22.298  1.00  0.00     0.000 A 
ATOM     25  C   UNL A   1      32.533  18.071  22.586  1.00  0.00     0.000 A 
ENDBRANCH  11  20
ENDBRANCH   6   7
ENDBRANCH   5   6
ENDBRANCH   3   5
ENDBRANCH   2   3
ENDBRANCH   1   2
BRANCH   1  26
ATOM     26  C   UNL A   1      31.788  30.738  26.213  1.00  0.00     0.275 C 
BRANCH  26  27
ATOM     27  O   UNL A   1      32.755  30.546  27.255  1.00  0.00    -0.458 OA
BRANCH  27  28
ATOM     28  C   UNL A   1      33.507  31.645  27.524  1.00  0.00     0.338 C 
ATOM     29  O   UNL A   1      33.129  32.791  27.621  1.00  0.00    -0.246 OA
BRANCH  28  30
ATOM     30  C   UNL A   1      34.871  31.200  27.885  1.00  0.00     0.060 A 
ATOM     31  C   UNL A   1      35.079  29.828  28.068  1.00  0.00     0.016 A 
ATOM     32  C   UNL A   1      35.923  32.108  28.035  1.00  0.00     0.016 A 
ATOM     33  C   UNL A   1      36.328  29.366  28.471  1.00  0.00     0.010 A 
ATOM     34  C   UNL A   1      37.175  31.645  28.443  1.00  0.00     0.010 A 
ATOM     35  C   UNL A   1      37.364  30.279  28.712  1.00  0.00    -0.014 A 
BRANCH  35  36
ATOM     36  C   UNL A   1      38.560  29.823  29.453  1.00  0.00     0.031 A 
ATOM     37  C   UNL A   1      38.791  30.375  30.833  1.00  0.00     0.074 A 
ATOM     38  C   UNL A   1      39.386  28.897  28.937  1.00  0.00     0.049 A 
ATOM     39  N   UNL A   1      39.727  30.086  31.699  1.00  0.00    -0.248 NA
ATOM     40  C   UNL A   1      37.835  31.395  31.299  1.00  0.00     0.031 C 
ATOM     41  C   UNL A   1      39.250  28.286  27.616  1.00  0.00     0.029 A 
ATOM     42  N   UNL A   1      40.504  28.310  29.470  1.00  0.00    -0.354 N 
ATOM     43  C   UNL A   1      39.457  30.866  32.816  1.00  0.00     0.074 A 
ATOM     44  C   UNL A   1      38.311  31.688  32.497  1.00  0.00     0.031 C 
ATOM     45  C   UNL A   1      40.255  27.411  27.439  1.00  0.00     0.029 A 
ATOM     46  C   UNL A   1      41.108  27.411  28.627  1.00  0.00     0.049 A 
ATOM     47  H   UNL A   1      40.842  28.514  30.372  1.00  0.00     0.167 HD
ATOM     48  C   UNL A   1      40.092  30.876  34.012  1.00  0.00     0.037 A 
ATOM     49  C   UNL A   1      42.226  26.680  28.801  1.00  0.00     0.037 A 
ATOM     50  C   UNL A   1      41.245  30.073  34.316  1.00  0.00     0.049 A 
ATOM     51  C   UNL A   1      42.953  26.760  30.120  1.00  0.00     0.074 A 
ATOM     52  C   UNL A   1      41.971  30.013  35.492  1.00  0.00     0.029 A 
ATOM     53  N   UNL A   1      41.846  29.192  33.428  1.00  0.00    -0.354 N 
ATOM     54  N   UNL A   1      42.667  27.467  31.187  1.00  0.00    -0.248 NA
ATOM     55  C   UNL A   1      44.151  25.922  30.264  1.00  0.00     0.031 C 
ATOM     56  C   UNL A   1      43.043  29.134  35.298  1.00  0.00     0.029 A 
ATOM     57  C   UNL A   1      42.948  28.600  34.023  1.00  0.00     0.049 A 
ATOM     58  H   UNL A   1      41.535  29.014  32.511  1.00  0.00     0.167 HD
ATOM     59  C   UNL A   1      43.630  27.141  32.134  1.00  0.00     0.074 A 
ATOM     60  C   UNL A   1      44.490  26.149  31.524  1.00  0.00     0.031 C 
ATOM     61  C   UNL A   1      43.795  27.619  33.394  1.00  0.00     0.037 A 
BRANCH  48  62
ATOM     62  C   UNL A   1      39.553  31.793  35.071  1.00  0.00     0.064 A 
ATOM     63  C   UNL A   1      38.649  31.338  36.045  1.00  0.00     0.173 A 
ATOM     64  C   UNL A   1      39.964  33.132  35.134  1.00  0.00     0.173 A 
ATOM     65  F   UNL A   1      38.209  30.071  36.017  1.00  0.00    -0.203 F 
ATOM     66  C   UNL A   1      38.161  32.195  37.027  1.00  0.00     0.198 A 
ATOM     67  C   UNL A   1      39.498  33.978  36.137  1.00  0.00     0.198 A 
ATOM     68  F   UNL A   1      40.825  33.619  34.227  1.00  0.00    -0.203 F 
ATOM     69  F   UNL A   1      37.262  31.751  37.917  1.00  0.00    -0.200 F 
ATOM     70  C   UNL A   1      38.593  33.513  37.078  1.00  0.00     0.200 A 
ATOM     71  F   UNL A   1      39.924  35.248  36.191  1.00  0.00    -0.200 F 
ATOM     72  F   UNL A   1      38.130  34.334  38.031  1.00  0.00    -0.200 F 
ENDBRANCH  48  62
BRANCH  49  73
ATOM     73  C   UNL A   1      42.731  25.813  27.703  1.00  0.00     0.064 A 
ATOM     74  C   UNL A   1      43.686  26.276  26.787  1.00  0.00     0.173 A 
ATOM     75  C   UNL A   1      42.236  24.512  27.525  1.00  0.00     0.173 A 
ATOM     76  F   UNL A   1      44.175  27.520  26.900  1.00  0.00    -0.203 F 
ATOM     77  C   UNL A   1      44.100  25.486  25.716  1.00  0.00     0.198 A 
ATOM     78  C   UNL A   1      42.677  23.710  26.474  1.00  0.00     0.198 A 
ATOM     79  F   UNL A   1      41.323  24.018  28.374  1.00  0.00    -0.203 F 
ATOM     80  F   UNL A   1      44.965  25.978  24.818  1.00  0.00    -0.200 F 
ATOM     81  C   UNL A   1      43.598  24.202  25.563  1.00  0.00     0.200 A 
ATOM     82  F   UNL A   1      42.199  22.465  26.340  1.00  0.00    -0.200 F 
ATOM     83  F   UNL A   1      43.995  23.444  24.533  1.00  0.00    -0.200 F 
ENDBRANCH  49  73
BRANCH  61  84
ATOM     84  C   UNL A   1      44.934  27.054  34.196  1.00  0.00     0.064 A 
ATOM     85  C   UNL A   1      46.202  27.653  34.201  1.00  0.00     0.173 A 
ATOM     86  C   UNL A   1      44.751  25.903  34.978  1.00  0.00     0.173 A 
ATOM     87  F   UNL A   1      46.434  28.750  33.463  1.00  0.00    -0.203 F 
ATOM     88  C   UNL A   1      47.257  27.094  34.918  1.00  0.00     0.198 A 
ATOM     89  C   UNL A   1      45.798  25.368  35.725  1.00  0.00     0.198 A 
ATOM     90  F   UNL A   1      43.555  25.295  35.022  1.00  0.00    -0.203 F 
ATOM     91  F   UNL A   1      48.477  27.644  34.849  1.00  0.00    -0.200 F 
ATOM     92  C   UNL A   1      47.053  25.956  35.682  1.00  0.00     0.200 A 
ATOM     93  F   UNL A   1      45.594  24.279  36.478  1.00  0.00    -0.200 F 
ATOM     94  F   UNL A   1      48.070  25.418  36.371  1.00  0.00    -0.200 F 
ENDBRANCH  61  84
ENDBRANCH  35  36
ENDBRANCH  28  30
ENDBRANCH  27  28
ENDBRANCH  26  27
ENDBRANCH   1  26
TORSDOF 14
ENDMDL
