MODEL 1
REMARK VINA RESULT:     -12.4      0.000      0.000
REMARK SMILES CCOc1ccc(-c2cc(Cl)cc3c2O[C@H](C(F)(F)F)C(C(=O)OCCOC(=O)c2ccc(-c4c5nc(c(-c6c(F)c(F)c(F)c(F)c6F)c6ccc([nH]6)c(-c6c(F)c(F)c(F)c(F)c6F)c6nc(c(-c7c(F)c(F)c(F)c(F)c7F)c7ccc4[nH]7)C=C6)C=C5)cc2)=C3)cc1
REMARK SMILES IDX 25 1 24 2 22 3 23 4 21 5 8 6 9 7 14 8 10 9 13 10 15 11 11 12
REMARK SMILES IDX 12 13 93 14 16 15 7 16 4 17 5 18 95 19 6 20 94 21 3 22 2 23
REMARK SMILES IDX 1 24 17 25 18 26 19 27 20 28 26 29 27 30 28 31 29 32 30 33
REMARK SMILES IDX 31 34 92 35 32 36 91 37 33 38 34 39 35 40 85 41 36 42 90 43
REMARK SMILES IDX 84 44 86 45 37 46 89 47 83 48 82 49 38 51 70 52 50 53 69 54
REMARK SMILES IDX 51 55 54 56 68 57 87 58 52 59 53 60 67 62 88 63 55 64 39 65
REMARK SMILES IDX 40 66 48 67 41 68 42 69 46 70 49 71 43 72 44 73 47 74 45 75
REMARK SMILES IDX 71 76 72 77 80 78 73 79 74 80 78 81 81 82 75 83 76 84 79 85
REMARK SMILES IDX 77 86 56 87 57 88 65 89 58 90 59 91 63 92 66 93 60 94 61 95
REMARK SMILES IDX 64 96 62 97
REMARK H PARENT 86 50 54 61
REMARK Flexibility Score: inf
ROOT
ATOM      1  C   UNL A   1      38.576  19.422  25.375  1.00  0.00     0.275 C 
ENDROOT
BRANCH   1   2
ATOM      2  O   UNL A   1      37.891  20.259  24.407  1.00  0.00    -0.459 OA
BRANCH   2   3
ATOM      3  C   UNL A   1      36.864  20.965  24.945  1.00  0.00     0.338 C 
ATOM      4  O   UNL A   1      35.861  20.458  25.434  1.00  0.00    -0.246 OA
BRANCH   3   5
ATOM      5  C   UNL A   1      37.057  22.442  24.939  1.00  0.00     0.087 C 
ATOM      6  C   UNL A   1      33.685  24.669  24.866  1.00  0.00     0.026 A 
ATOM      7  C   UNL A   1      32.791  23.725  24.311  1.00  0.00     0.033 A 
ATOM      8  C   UNL A   1      35.028  24.291  24.791  1.00  0.00     0.135 A 
ATOM      9  C   UNL A   1      33.197  22.621  23.557  1.00  0.00     0.042 A 
ATOM     10  C   UNL A   1      35.422  23.341  23.816  1.00  0.00     0.019 A 
ATOM     11  O   UNL A   1      35.975  24.577  25.772  1.00  0.00    -0.475 OA
ATOM     12  Cl  UNL A   1      32.145  21.358  23.072  1.00  0.00    -0.084 Cl
ATOM     13  C   UNL A   1      34.512  22.509  23.191  1.00  0.00     0.032 A 
ATOM     14  C   UNL A   1      36.850  22.987  23.728  1.00  0.00     0.027 C 
ATOM     15  C   UNL A   1      36.810  23.358  26.126  1.00  0.00     0.316 C 
BRANCH   6  16
ATOM     16  C   UNL A   1      33.068  26.007  25.142  1.00  0.00    -0.014 A 
ATOM     17  C   UNL A   1      32.167  28.303  26.625  1.00  0.00     0.119 A 
ATOM     18  C   UNL A   1      33.308  28.357  25.822  1.00  0.00     0.047 A 
ATOM     19  C   UNL A   1      31.427  27.130  26.626  1.00  0.00     0.047 A 
ATOM     20  C   UNL A   1      33.739  27.235  25.069  1.00  0.00     0.013 A 
ATOM     21  C   UNL A   1      31.869  26.011  25.893  1.00  0.00     0.013 A 
BRANCH  17  22
ATOM     22  O   UNL A   1      31.823  29.453  27.279  1.00  0.00    -0.494 OA
BRANCH  22  23
ATOM     23  C   UNL A   1      32.424  30.686  26.865  1.00  0.00     0.226 C 
ATOM     24  C   UNL A   1      31.398  31.746  26.496  1.00  0.00     0.049 C 
ENDBRANCH  22  23
ENDBRANCH  17  22
ENDBRANCH   6  16
BRANCH  15  25
ATOM     25  C   UNL A   1      38.202  23.768  26.624  1.00  0.00     0.430 C 
ATOM     26  F   UNL A   1      38.815  24.607  25.753  1.00  0.00    -0.167 F 
ATOM     27  F   UNL A   1      38.160  24.379  27.825  1.00  0.00    -0.167 F 
ATOM     28  F   UNL A   1      39.009  22.684  26.758  1.00  0.00    -0.167 F 
ENDBRANCH  15  25
ENDBRANCH   3   5
ENDBRANCH   2   3
ENDBRANCH   1   2
BRANCH   1  29
ATOM     29  C   UNL A   1      39.959  19.948  25.771  1.00  0.00     0.275 C 
BRANCH  29  30
ATOM     30  O   UNL A   1      40.897  18.877  25.998  1.00  0.00    -0.458 OA
BRANCH  30  31
ATOM     31  C   UNL A   1      42.184  19.211  25.744  1.00  0.00     0.338 C 
ATOM     32  O   UNL A   1      42.957  18.586  25.025  1.00  0.00    -0.246 OA
BRANCH  31  33
ATOM     33  C   UNL A   1      42.549  20.519  26.341  1.00  0.00     0.060 A 
ATOM     34  C   UNL A   1      43.035  21.481  25.461  1.00  0.00     0.016 A 
ATOM     35  C   UNL A   1      42.451  20.841  27.703  1.00  0.00     0.016 A 
ATOM     36  C   UNL A   1      43.360  22.754  25.930  1.00  0.00     0.010 A 
ATOM     37  C   UNL A   1      42.777  22.141  28.166  1.00  0.00     0.010 A 
ATOM     38  C   UNL A   1      43.204  23.136  27.275  1.00  0.00    -0.014 A 
BRANCH  38  39
ATOM     39  C   UNL A   1      43.537  24.566  27.636  1.00  0.00     0.031 A 
ATOM     40  C   UNL A   1      44.876  25.114  27.228  1.00  0.00     0.074 A 
ATOM     41  C   UNL A   1      42.628  25.450  28.113  1.00  0.00     0.049 A 
ATOM     42  N   UNL A   1      45.289  26.357  27.212  1.00  0.00    -0.248 NA
ATOM     43  C   UNL A   1      45.874  24.137  26.766  1.00  0.00     0.031 C 
ATOM     44  C   UNL A   1      41.275  25.116  28.506  1.00  0.00     0.029 A 
ATOM     45  N   UNL A   1      42.656  26.825  28.256  1.00  0.00    -0.354 N 
ATOM     46  C   UNL A   1      46.588  26.310  26.736  1.00  0.00     0.074 A 
ATOM     47  C   UNL A   1      46.884  24.926  26.432  1.00  0.00     0.031 C 
ATOM     48  C   UNL A   1      40.539  26.231  28.635  1.00  0.00     0.029 A 
ATOM     49  C   UNL A   1      41.423  27.385  28.544  1.00  0.00     0.049 A 
ATOM     50  H   UNL A   1      43.479  27.358  28.163  1.00  0.00     0.167 HD
ATOM     51  C   UNL A   1      47.478  27.320  26.611  1.00  0.00     0.037 A 
ATOM     52  C   UNL A   1      41.042  28.665  28.755  1.00  0.00     0.037 A 
ATOM     53  C   UNL A   1      47.243  28.685  26.992  1.00  0.00     0.049 A 
ATOM     54  C   UNL A   1      42.107  29.733  28.783  1.00  0.00     0.074 A 
ATOM     55  C   UNL A   1      48.138  29.741  26.978  1.00  0.00     0.029 A 
ATOM     56  N   UNL A   1      46.047  29.183  27.481  1.00  0.00    -0.354 N 
ATOM     57  N   UNL A   1      43.352  29.666  28.388  1.00  0.00    -0.248 NA
ATOM     58  C   UNL A   1      41.720  31.052  29.311  1.00  0.00     0.031 C 
ATOM     59  C   UNL A   1      47.507  30.858  27.532  1.00  0.00     0.029 A 
ATOM     60  C   UNL A   1      46.194  30.523  27.811  1.00  0.00     0.049 A 
ATOM     61  H   UNL A   1      45.215  28.664  27.580  1.00  0.00     0.167 HD
ATOM     62  C   UNL A   1      43.887  30.931  28.586  1.00  0.00     0.074 A 
ATOM     63  C   UNL A   1      42.825  31.757  29.118  1.00  0.00     0.031 C 
ATOM     64  C   UNL A   1      45.146  31.360  28.339  1.00  0.00     0.037 A 
BRANCH  51  65
ATOM     65  C   UNL A   1      48.851  26.945  26.154  1.00  0.00     0.064 A 
ATOM     66  C   UNL A   1      49.823  26.467  27.042  1.00  0.00     0.173 A 
ATOM     67  C   UNL A   1      49.186  27.065  24.798  1.00  0.00     0.173 A 
ATOM     68  F   UNL A   1      49.554  26.374  28.353  1.00  0.00    -0.203 F 
ATOM     69  C   UNL A   1      51.092  26.126  26.585  1.00  0.00     0.198 A 
ATOM     70  C   UNL A   1      50.447  26.701  24.342  1.00  0.00     0.198 A 
ATOM     71  F   UNL A   1      48.288  27.534  23.918  1.00  0.00    -0.203 F 
ATOM     72  F   UNL A   1      52.024  25.707  27.451  1.00  0.00    -0.200 F 
ATOM     73  C   UNL A   1      51.400  26.235  25.235  1.00  0.00     0.200 A 
ATOM     74  F   UNL A   1      50.742  26.807  23.039  1.00  0.00    -0.200 F 
ATOM     75  F   UNL A   1      52.621  25.902  24.796  1.00  0.00    -0.200 F 
ENDBRANCH  51  65
BRANCH  52  76
ATOM     76  C   UNL A   1      39.618  29.051  29.020  1.00  0.00     0.064 A 
ATOM     77  C   UNL A   1      39.069  28.938  30.311  1.00  0.00     0.173 A 
ATOM     78  C   UNL A   1      38.744  29.434  27.992  1.00  0.00     0.173 A 
ATOM     79  F   UNL A   1      39.839  28.539  31.334  1.00  0.00    -0.203 F 
ATOM     80  C   UNL A   1      37.710  29.155  30.549  1.00  0.00     0.198 A 
ATOM     81  C   UNL A   1      37.397  29.703  28.240  1.00  0.00     0.198 A 
ATOM     82  F   UNL A   1      39.188  29.531  26.731  1.00  0.00    -0.203 F 
ATOM     83  F   UNL A   1      37.204  28.949  31.773  1.00  0.00    -0.200 F 
ATOM     84  C   UNL A   1      36.877  29.545  29.513  1.00  0.00     0.200 A 
ATOM     85  F   UNL A   1      36.599  30.089  27.234  1.00  0.00    -0.200 F 
ATOM     86  F   UNL A   1      35.570  29.745  29.737  1.00  0.00    -0.200 F 
ENDBRANCH  52  76
BRANCH  64  87
ATOM     87  C   UNL A   1      45.458  32.808  28.593  1.00  0.00     0.064 A 
ATOM     88  C   UNL A   1      46.002  33.254  29.806  1.00  0.00     0.173 A 
ATOM     89  C   UNL A   1      45.250  33.759  27.582  1.00  0.00     0.173 A 
ATOM     90  F   UNL A   1      46.206  32.391  30.813  1.00  0.00    -0.203 F 
ATOM     91  C   UNL A   1      46.302  34.600  30.005  1.00  0.00     0.198 A 
ATOM     92  C   UNL A   1      45.587  35.097  27.770  1.00  0.00     0.198 A 
ATOM     93  F   UNL A   1      44.732  33.388  26.401  1.00  0.00    -0.203 F 
ATOM     94  F   UNL A   1      46.771  35.010  31.192  1.00  0.00    -0.200 F 
ATOM     95  C   UNL A   1      46.105  35.518  28.985  1.00  0.00     0.200 A 
ATOM     96  F   UNL A   1      45.411  35.977  26.776  1.00  0.00    -0.200 F 
ATOM     97  F   UNL A   1      46.407  36.809  29.174  1.00  0.00    -0.200 F 
ENDBRANCH  64  87
ENDBRANCH  38  39
ENDBRANCH  31  33
ENDBRANCH  30  31
ENDBRANCH  29  30
ENDBRANCH   1  29
TORSDOF 15
ENDMDL
MODEL 2
REMARK VINA RESULT:     -12.4      2.851      3.853
REMARK SMILES CCOc1ccc(-c2cc(Cl)cc3c2O[C@H](C(F)(F)F)C(C(=O)OCCOC(=O)c2ccc(-c4c5nc(c(-c6c(F)c(F)c(F)c(F)c6F)c6ccc([nH]6)c(-c6c(F)c(F)c(F)c(F)c6F)c6nc(c(-c7c(F)c(F)c(F)c(F)c7F)c7ccc4[nH]7)C=C6)C=C5)cc2)=C3)cc1
REMARK SMILES IDX 25 1 24 2 22 3 23 4 21 5 8 6 9 7 14 8 10 9 13 10 15 11 11 12
REMARK SMILES IDX 12 13 93 14 16 15 7 16 4 17 5 18 95 19 6 20 94 21 3 22 2 23
REMARK SMILES IDX 1 24 17 25 18 26 19 27 20 28 26 29 27 30 28 31 29 32 30 33
REMARK SMILES IDX 31 34 92 35 32 36 91 37 33 38 34 39 35 40 85 41 36 42 90 43
REMARK SMILES IDX 84 44 86 45 37 46 89 47 83 48 82 49 38 51 70 52 50 53 69 54
REMARK SMILES IDX 51 55 54 56 68 57 87 58 52 59 53 60 67 62 88 63 55 64 39 65
REMARK SMILES IDX 40 66 48 67 41 68 42 69 46 70 49 71 43 72 44 73 47 74 45 75
REMARK SMILES IDX 71 76 72 77 80 78 73 79 74 80 78 81 81 82 75 83 76 84 79 85
REMARK SMILES IDX 77 86 56 87 57 88 65 89 58 90 59 91 63 92 66 93 60 94 61 95
REMARK SMILES IDX 64 96 62 97
REMARK H PARENT 86 50 54 61
REMARK Flexibility Score: inf
ROOT
ATOM      1  C   UNL A   1      35.553  23.033  26.463  1.00  0.00     0.275 C 
ENDROOT
BRANCH   1   2
ATOM      2  O   UNL A   1      34.479  23.728  25.779  1.00  0.00    -0.459 OA
BRANCH   2   3
ATOM      3  C   UNL A   1      33.245  23.318  26.169  1.00  0.00     0.338 C 
ATOM      4  O   UNL A   1      32.961  22.982  27.314  1.00  0.00    -0.246 OA
BRANCH   3   5
ATOM      5  C   UNL A   1      32.215  23.341  25.094  1.00  0.00     0.087 C 
ATOM      6  C   UNL A   1      30.759  26.981  24.111  1.00  0.00     0.026 A 
ATOM      7  C   UNL A   1      31.044  27.679  25.307  1.00  0.00     0.033 A 
ATOM      8  C   UNL A   1      30.913  25.597  24.213  1.00  0.00     0.135 A 
ATOM      9  C   UNL A   1      31.243  27.056  26.541  1.00  0.00     0.042 A 
ATOM     10  C   UNL A   1      30.847  24.989  25.491  1.00  0.00     0.019 A 
ATOM     11  O   UNL A   1      31.388  24.787  23.183  1.00  0.00    -0.475 OA
ATOM     12  Cl  UNL A   1      31.804  27.870  27.942  1.00  0.00    -0.084 Cl
ATOM     13  C   UNL A   1      31.004  25.713  26.658  1.00  0.00     0.032 A 
ATOM     14  C   UNL A   1      30.971  23.522  25.570  1.00  0.00     0.027 C 
ATOM     15  C   UNL A   1      32.452  23.818  23.670  1.00  0.00     0.316 C 
BRANCH   6  16
ATOM     16  C   UNL A   1      30.060  27.807  23.073  1.00  0.00    -0.014 A 
ATOM     17  C   UNL A   1      28.554  29.970  21.919  1.00  0.00     0.119 A 
ATOM     18  C   UNL A   1      29.932  29.858  21.725  1.00  0.00     0.047 A 
ATOM     19  C   UNL A   1      27.911  28.962  22.620  1.00  0.00     0.047 A 
ATOM     20  C   UNL A   1      30.672  28.778  22.270  1.00  0.00     0.013 A 
ATOM     21  C   UNL A   1      28.652  27.901  23.178  1.00  0.00     0.013 A 
BRANCH  17  22
ATOM     22  O   UNL A   1      27.935  31.032  21.319  1.00  0.00    -0.494 OA
BRANCH  22  23
ATOM     23  C   UNL A   1      28.446  32.349  21.555  1.00  0.00     0.226 C 
ATOM     24  C   UNL A   1      28.463  32.718  23.030  1.00  0.00     0.049 C 
ENDBRANCH  22  23
ENDBRANCH  17  22
ENDBRANCH   6  16
BRANCH  15  25
ATOM     25  C   UNL A   1      32.475  22.547  22.811  1.00  0.00     0.430 C 
ATOM     26  F   UNL A   1      33.211  21.566  23.391  1.00  0.00    -0.167 F 
ATOM     27  F   UNL A   1      31.239  22.056  22.585  1.00  0.00    -0.167 F 
ATOM     28  F   UNL A   1      33.034  22.790  21.598  1.00  0.00    -0.167 F 
ENDBRANCH  15  25
ENDBRANCH   3   5
ENDBRANCH   2   3
ENDBRANCH   1   2
BRANCH   1  29
ATOM     29  C   UNL A   1      36.066  21.801  25.709  1.00  0.00     0.275 C 
BRANCH  29  30
ATOM     30  O   UNL A   1      37.321  22.059  25.048  1.00  0.00    -0.458 OA
BRANCH  30  31
ATOM     31  C   UNL A   1      38.396  21.554  25.697  1.00  0.00     0.338 C 
ATOM     32  O   UNL A   1      38.740  20.377  25.704  1.00  0.00    -0.246 OA
BRANCH  31  33
ATOM     33  C   UNL A   1      39.220  22.619  26.322  1.00  0.00     0.060 A 
ATOM     34  C   UNL A   1      38.980  23.918  25.883  1.00  0.00     0.016 A 
ATOM     35  C   UNL A   1      40.210  22.408  27.293  1.00  0.00     0.016 A 
ATOM     36  C   UNL A   1      39.678  24.985  26.450  1.00  0.00     0.010 A 
ATOM     37  C   UNL A   1      40.907  23.502  27.866  1.00  0.00     0.010 A 
ATOM     38  C   UNL A   1      40.623  24.819  27.479  1.00  0.00    -0.014 A 
BRANCH  38  39
ATOM     39  C   UNL A   1      41.262  26.067  28.043  1.00  0.00     0.031 A 
ATOM     40  C   UNL A   1      42.669  26.402  27.634  1.00  0.00     0.074 A 
ATOM     41  C   UNL A   1      40.577  27.017  28.726  1.00  0.00     0.049 A 
ATOM     42  N   UNL A   1      43.332  27.520  27.791  1.00  0.00    -0.248 NA
ATOM     43  C   UNL A   1      43.422  25.343  26.944  1.00  0.00     0.031 C 
ATOM     44  C   UNL A   1      39.200  26.895  29.157  1.00  0.00     0.029 A 
ATOM     45  N   UNL A   1      40.897  28.312  29.091  1.00  0.00    -0.354 N 
ATOM     46  C   UNL A   1      44.572  27.301  27.218  1.00  0.00     0.074 A 
ATOM     47  C   UNL A   1      44.561  25.961  26.671  1.00  0.00     0.031 C 
ATOM     48  C   UNL A   1      38.719  28.093  29.522  1.00  0.00     0.029 A 
ATOM     49  C   UNL A   1      39.820  29.046  29.557  1.00  0.00     0.049 A 
ATOM     50  H   UNL A   1      41.808  28.679  29.025  1.00  0.00     0.167 HD
ATOM     51  C   UNL A   1      45.648  28.119  27.196  1.00  0.00     0.037 A 
ATOM     52  C   UNL A   1      39.723  30.319  30.003  1.00  0.00     0.037 A 
ATOM     53  C   UNL A   1      45.718  29.415  27.812  1.00  0.00     0.049 A 
ATOM     54  C   UNL A   1      40.988  31.131  30.127  1.00  0.00     0.074 A 
ATOM     55  C   UNL A   1      46.813  30.257  27.906  1.00  0.00     0.029 A 
ATOM     56  N   UNL A   1      44.672  30.047  28.464  1.00  0.00    -0.354 N 
ATOM     57  N   UNL A   1      42.175  30.888  29.635  1.00  0.00    -0.248 NA
ATOM     58  C   UNL A   1      40.906  32.387  30.892  1.00  0.00     0.031 C 
ATOM     59  C   UNL A   1      46.451  31.362  28.681  1.00  0.00     0.029 A 
ATOM     60  C   UNL A   1      45.108  31.251  28.998  1.00  0.00     0.049 A 
ATOM     61  H   UNL A   1      43.755  29.694  28.538  1.00  0.00     0.167 HD
ATOM     62  C   UNL A   1      42.970  31.967  29.998  1.00  0.00     0.074 A 
ATOM     63  C   UNL A   1      42.125  32.881  30.736  1.00  0.00     0.031 C 
ATOM     64  C   UNL A   1      44.280  32.174  29.732  1.00  0.00     0.037 A 
BRANCH  51  65
ATOM     65  C   UNL A   1      46.893  27.564  26.583  1.00  0.00     0.064 A 
ATOM     66  C   UNL A   1      47.866  26.906  27.346  1.00  0.00     0.173 A 
ATOM     67  C   UNL A   1      47.104  27.696  25.203  1.00  0.00     0.173 A 
ATOM     68  F   UNL A   1      47.720  26.793  28.675  1.00  0.00    -0.203 F 
ATOM     69  C   UNL A   1      49.015  26.401  26.745  1.00  0.00     0.198 A 
ATOM     70  C   UNL A   1      48.241  27.170  24.603  1.00  0.00     0.198 A 
ATOM     71  F   UNL A   1      46.204  28.335  24.439  1.00  0.00    -0.203 F 
ATOM     72  F   UNL A   1      49.954  25.807  27.493  1.00  0.00    -0.200 F 
ATOM     73  C   UNL A   1      49.197  26.526  25.374  1.00  0.00     0.200 A 
ATOM     74  F   UNL A   1      48.415  27.292  23.280  1.00  0.00    -0.200 F 
ATOM     75  F   UNL A   1      50.301  26.034  24.797  1.00  0.00    -0.200 F 
ENDBRANCH  51  65
BRANCH  52  76
ATOM     76  C   UNL A   1      38.422  30.928  30.433  1.00  0.00     0.064 A 
ATOM     77  C   UNL A   1      38.051  30.951  31.791  1.00  0.00     0.173 A 
ATOM     78  C   UNL A   1      37.476  31.398  29.510  1.00  0.00     0.173 A 
ATOM     79  F   UNL A   1      38.892  30.481  32.724  1.00  0.00    -0.203 F 
ATOM     80  C   UNL A   1      36.786  31.383  32.195  1.00  0.00     0.198 A 
ATOM     81  C   UNL A   1      36.232  31.879  29.920  1.00  0.00     0.198 A 
ATOM     82  F   UNL A   1      37.746  31.376  28.197  1.00  0.00    -0.203 F 
ATOM     83  F   UNL A   1      36.434  31.305  33.486  1.00  0.00    -0.200 F 
ATOM     84  C   UNL A   1      35.880  31.853  31.259  1.00  0.00     0.200 A 
ATOM     85  F   UNL A   1      35.364  32.342  29.008  1.00  0.00    -0.200 F 
ATOM     86  F   UNL A   1      34.662  32.258  31.644  1.00  0.00    -0.200 F 
ENDBRANCH  52  76
BRANCH  64  87
ATOM     87  C   UNL A   1      44.897  33.463  30.197  1.00  0.00     0.064 A 
ATOM     88  C   UNL A   1      45.542  33.579  31.437  1.00  0.00     0.173 A 
ATOM     89  C   UNL A   1      44.882  34.590  29.361  1.00  0.00     0.173 A 
ATOM     90  F   UNL A   1      45.572  32.538  32.283  1.00  0.00    -0.203 F 
ATOM     91  C   UNL A   1      46.124  34.781  31.832  1.00  0.00     0.198 A 
ATOM     92  C   UNL A   1      45.499  35.778  29.742  1.00  0.00     0.198 A 
ATOM     93  F   UNL A   1      44.279  34.536  28.164  1.00  0.00    -0.203 F 
ATOM     94  F   UNL A   1      46.687  34.883  33.045  1.00  0.00    -0.200 F 
ATOM     95  C   UNL A   1      46.112  35.876  30.981  1.00  0.00     0.200 A 
ATOM     96  F   UNL A   1      45.499  36.829  28.910  1.00  0.00    -0.200 F 
ATOM     97  F   UNL A   1      46.685  37.026  31.358  1.00  0.00    -0.200 F 
ENDBRANCH  64  87
ENDBRANCH  38  39
ENDBRANCH  31  33
ENDBRANCH  30  31
ENDBRANCH  29  30
ENDBRANCH   1  29
TORSDOF 15
ENDMDL
MODEL 3
REMARK VINA RESULT:     -12.1      0.813      7.152
REMARK SMILES CCOc1ccc(-c2cc(Cl)cc3c2O[C@H](C(F)(F)F)C(C(=O)OCCOC(=O)c2ccc(-c4c5nc(c(-c6c(F)c(F)c(F)c(F)c6F)c6ccc([nH]6)c(-c6c(F)c(F)c(F)c(F)c6F)c6nc(c(-c7c(F)c(F)c(F)c(F)c7F)c7ccc4[nH]7)C=C6)C=C5)cc2)=C3)cc1
REMARK SMILES IDX 25 1 24 2 22 3 23 4 21 5 8 6 9 7 14 8 10 9 13 10 15 11 11 12
REMARK SMILES IDX 12 13 93 14 16 15 7 16 4 17 5 18 95 19 6 20 94 21 3 22 2 23
REMARK SMILES IDX 1 24 17 25 18 26 19 27 20 28 26 29 27 30 28 31 29 32 30 33
REMARK SMILES IDX 31 34 92 35 32 36 91 37 33 38 34 39 35 40 85 41 36 42 90 43
REMARK SMILES IDX 84 44 86 45 37 46 89 47 83 48 82 49 38 51 70 52 50 53 69 54
REMARK SMILES IDX 51 55 54 56 68 57 87 58 52 59 53 60 67 62 88 63 55 64 39 65
REMARK SMILES IDX 40 66 48 67 41 68 42 69 46 70 49 71 43 72 44 73 47 74 45 75
REMARK SMILES IDX 71 76 72 77 80 78 73 79 74 80 78 81 81 82 75 83 76 84 79 85
REMARK SMILES IDX 77 86 56 87 57 88 65 89 58 90 59 91 63 92 66 93 60 94 61 95
REMARK SMILES IDX 64 96 62 97
REMARK H PARENT 86 50 54 61
REMARK Flexibility Score: inf
ROOT
ATOM      1  C   UNL A   1      38.487  19.547  25.465  1.00  0.00     0.275 C 
ENDROOT
BRANCH   1   2
ATOM      2  O   UNL A   1      37.734  20.197  24.409  1.00  0.00    -0.459 OA
BRANCH   2   3
ATOM      3  C   UNL A   1      36.724  20.975  24.876  1.00  0.00     0.338 C 
ATOM      4  O   UNL A   1      35.664  20.538  25.313  1.00  0.00    -0.246 OA
BRANCH   3   5
ATOM      5  C   UNL A   1      37.007  22.436  24.859  1.00  0.00     0.087 C 
ATOM      6  C   UNL A   1      33.779  24.867  24.794  1.00  0.00     0.026 A 
ATOM      7  C   UNL A   1      32.825  23.977  24.252  1.00  0.00     0.033 A 
ATOM      8  C   UNL A   1      35.095  24.406  24.713  1.00  0.00     0.135 A 
ATOM      9  C   UNL A   1      33.157  22.846  23.501  1.00  0.00     0.042 A 
ATOM     10  C   UNL A   1      35.423  23.429  23.741  1.00  0.00     0.019 A 
ATOM     11  O   UNL A   1      36.065  24.639  25.686  1.00  0.00    -0.475 OA
ATOM     12  Cl  UNL A   1      32.025  21.648  23.031  1.00  0.00    -0.084 Cl
ATOM     13  C   UNL A   1      34.459  22.651  23.127  1.00  0.00     0.032 A 
ATOM     14  C   UNL A   1      36.826  22.986  23.646  1.00  0.00     0.027 C 
ATOM     15  C   UNL A   1      36.825  23.373  26.042  1.00  0.00     0.316 C 
BRANCH   6  16
ATOM     16  C   UNL A   1      33.247  26.243  25.066  1.00  0.00    -0.014 A 
ATOM     17  C   UNL A   1      32.877  28.775  26.381  1.00  0.00     0.119 A 
ATOM     18  C   UNL A   1      33.607  28.671  25.195  1.00  0.00     0.047 A 
ATOM     19  C   UNL A   1      32.263  27.633  26.870  1.00  0.00     0.047 A 
ATOM     20  C   UNL A   1      33.768  27.428  24.531  1.00  0.00     0.013 A 
ATOM     21  C   UNL A   1      32.442  26.396  26.219  1.00  0.00     0.013 A 
BRANCH  17  22
ATOM     22  O   UNL A   1      32.756  30.027  26.917  1.00  0.00    -0.494 OA
BRANCH  22  23
ATOM     23  C   UNL A   1      33.872  30.585  27.622  1.00  0.00     0.226 C 
ATOM     24  C   UNL A   1      33.823  32.104  27.694  1.00  0.00     0.049 C 
ENDBRANCH  22  23
ENDBRANCH  17  22
ENDBRANCH   6  16
BRANCH  15  25
ATOM     25  C   UNL A   1      38.243  23.699  26.529  1.00  0.00     0.430 C 
ATOM     26  F   UNL A   1      38.995  22.578  26.661  1.00  0.00    -0.167 F 
ATOM     27  F   UNL A   1      38.894  24.536  25.695  1.00  0.00    -0.167 F 
ATOM     28  F   UNL A   1      38.213  24.296  27.748  1.00  0.00    -0.167 F 
ENDBRANCH  15  25
ENDBRANCH   3   5
ENDBRANCH   2   3
ENDBRANCH   1   2
BRANCH   1  29
ATOM     29  C   UNL A   1      39.995  19.805  25.393  1.00  0.00     0.275 C 
BRANCH  29  30
ATOM     30  O   UNL A   1      40.745  18.830  26.144  1.00  0.00    -0.458 OA
BRANCH  30  31
ATOM     31  C   UNL A   1      42.087  18.987  26.063  1.00  0.00     0.338 C 
ATOM     32  O   UNL A   1      42.880  18.158  25.629  1.00  0.00    -0.246 OA
BRANCH  31  33
ATOM     33  C   UNL A   1      42.513  20.356  26.449  1.00  0.00     0.060 A 
ATOM     34  C   UNL A   1      43.216  21.074  25.486  1.00  0.00     0.016 A 
ATOM     35  C   UNL A   1      42.271  20.955  27.694  1.00  0.00     0.016 A 
ATOM     36  C   UNL A   1      43.616  22.385  25.749  1.00  0.00     0.010 A 
ATOM     37  C   UNL A   1      42.676  22.291  27.945  1.00  0.00     0.010 A 
ATOM     38  C   UNL A   1      43.325  23.045  26.957  1.00  0.00    -0.014 A 
BRANCH  38  39
ATOM     39  C   UNL A   1      43.765  24.485  27.085  1.00  0.00     0.031 A 
ATOM     40  C   UNL A   1      42.785  25.489  27.626  1.00  0.00     0.074 A 
ATOM     41  C   UNL A   1      45.050  24.892  26.946  1.00  0.00     0.049 A 
ATOM     42  N   UNL A   1      43.001  26.710  28.046  1.00  0.00    -0.248 NA
ATOM     43  C   UNL A   1      41.383  25.054  27.719  1.00  0.00     0.031 C 
ATOM     44  C   UNL A   1      46.139  24.053  26.491  1.00  0.00     0.029 A 
ATOM     45  N   UNL A   1      45.690  26.075  27.267  1.00  0.00    -0.354 N 
ATOM     46  C   UNL A   1      41.767  27.186  28.455  1.00  0.00     0.074 A 
ATOM     47  C   UNL A   1      40.813  26.112  28.276  1.00  0.00     0.031 C 
ATOM     48  C   UNL A   1      47.318  24.638  26.752  1.00  0.00     0.029 A 
ATOM     49  C   UNL A   1      47.071  26.000  27.204  1.00  0.00     0.049 A 
ATOM     50  H   UNL A   1      45.208  26.896  27.516  1.00  0.00     0.167 HD
ATOM     51  C   UNL A   1      41.442  28.424  28.891  1.00  0.00     0.037 A 
ATOM     52  C   UNL A   1      48.034  26.921  27.438  1.00  0.00     0.037 A 
ATOM     53  C   UNL A   1      42.348  29.533  28.989  1.00  0.00     0.049 A 
ATOM     54  C   UNL A   1      47.612  28.336  27.745  1.00  0.00     0.074 A 
ATOM     55  C   UNL A   1      42.060  30.842  29.336  1.00  0.00     0.029 A 
ATOM     56  N   UNL A   1      43.706  29.483  28.716  1.00  0.00    -0.354 N 
ATOM     57  N   UNL A   1      46.429  28.790  28.072  1.00  0.00    -0.248 NA
ATOM     58  C   UNL A   1      48.655  29.373  27.692  1.00  0.00     0.031 C 
ATOM     59  C   UNL A   1      43.227  31.600  29.197  1.00  0.00     0.029 A 
ATOM     60  C   UNL A   1      44.260  30.748  28.847  1.00  0.00     0.049 A 
ATOM     61  H   UNL A   1      44.203  28.670  28.466  1.00  0.00     0.167 HD
ATOM     62  C   UNL A   1      46.590  30.151  28.295  1.00  0.00     0.074 A 
ATOM     63  C   UNL A   1      47.990  30.448  28.088  1.00  0.00     0.031 C 
ATOM     64  C   UNL A   1      45.652  31.061  28.647  1.00  0.00     0.037 A 
BRANCH  51  65
ATOM     65  C   UNL A   1      39.995  28.671  29.171  1.00  0.00     0.064 A 
ATOM     66  C   UNL A   1      39.438  28.459  30.439  1.00  0.00     0.173 A 
ATOM     67  C   UNL A   1      39.160  29.136  28.145  1.00  0.00     0.173 A 
ATOM     68  F   UNL A   1      40.195  27.978  31.437  1.00  0.00    -0.203 F 
ATOM     69  C   UNL A   1      38.087  28.698  30.668  1.00  0.00     0.198 A 
ATOM     70  C   UNL A   1      37.817  29.397  28.384  1.00  0.00     0.198 A 
ATOM     71  F   UNL A   1      39.651  29.336  26.912  1.00  0.00    -0.203 F 
ATOM     72  F   UNL A   1      37.561  28.454  31.875  1.00  0.00    -0.200 F 
ATOM     73  C   UNL A   1      37.280  29.174  29.643  1.00  0.00     0.200 A 
ATOM     74  F   UNL A   1      37.039  29.856  27.393  1.00  0.00    -0.200 F 
ATOM     75  F   UNL A   1      35.981  29.410  29.867  1.00  0.00    -0.200 F 
ENDBRANCH  51  65
BRANCH  52  76
ATOM     76  C   UNL A   1      49.496  26.602  27.343  1.00  0.00     0.064 A 
ATOM     77  C   UNL A   1      50.106  26.382  26.094  1.00  0.00     0.173 A 
ATOM     78  C   UNL A   1      50.293  26.403  28.481  1.00  0.00     0.173 A 
ATOM     79  F   UNL A   1      49.393  26.516  24.966  1.00  0.00    -0.203 F 
ATOM     80  C   UNL A   1      51.429  25.945  25.994  1.00  0.00     0.198 A 
ATOM     81  C   UNL A   1      51.630  26.018  28.377  1.00  0.00     0.198 A 
ATOM     82  F   UNL A   1      49.771  26.562  29.705  1.00  0.00    -0.203 F 
ATOM     83  F   UNL A   1      51.949  25.657  24.792  1.00  0.00    -0.200 F 
ATOM     84  C   UNL A   1      52.192  25.771  27.136  1.00  0.00     0.200 A 
ATOM     85  F   UNL A   1      52.365  25.861  29.488  1.00  0.00    -0.200 F 
ATOM     86  F   UNL A   1      53.459  25.342  27.043  1.00  0.00    -0.200 F 
ENDBRANCH  52  76
BRANCH  64  87
ATOM     87  C   UNL A   1      46.100  32.477  28.882  1.00  0.00     0.064 A 
ATOM     88  C   UNL A   1      46.093  33.442  27.864  1.00  0.00     0.173 A 
ATOM     89  C   UNL A   1      46.500  32.883  30.165  1.00  0.00     0.173 A 
ATOM     90  F   UNL A   1      45.736  33.105  26.615  1.00  0.00    -0.203 F 
ATOM     91  C   UNL A   1      46.493  34.752  28.117  1.00  0.00     0.198 A 
ATOM     92  C   UNL A   1      46.861  34.202  30.423  1.00  0.00     0.198 A 
ATOM     93  F   UNL A   1      46.526  32.001  31.176  1.00  0.00    -0.203 F 
ATOM     94  F   UNL A   1      46.529  35.643  27.116  1.00  0.00    -0.200 F 
ATOM     95  C   UNL A   1      46.866  35.134  29.397  1.00  0.00     0.200 A 
ATOM     96  F   UNL A   1      47.205  34.570  31.664  1.00  0.00    -0.200 F 
ATOM     97  F   UNL A   1      47.237  36.398  29.640  1.00  0.00    -0.200 F 
ENDBRANCH  64  87
ENDBRANCH  38  39
ENDBRANCH  31  33
ENDBRANCH  30  31
ENDBRANCH  29  30
ENDBRANCH   1  29
TORSDOF 15
ENDMDL
