MODEL 1
REMARK VINA RESULT:     -11.2      0.000      0.000
REMARK SMILES Cc1cc(Br)cc([N+](=O)[O-])c1OCCC[C@@](C)([NH3+])C(=O)OCCOC(=O)c1ccc(-c2c3nc(c(-c4c(F)c(F)c(F)c(F)c4F)c4ccc([nH]4)c(-c4c(F)c(F)c(F)c(F)c4F)c4nc(c(-c5c(F)c(F)c(F)c(F)c5F)c5ccc2[nH]5)C=C4)C=C3)cc1
REMARK SMILES IDX 19 1 20 2 16 3 17 4 15 5 14 6 13 7 12 8 11 9 1 10 2 11 3 12
REMARK SMILES IDX 4 13 7 14 5 15 6 16 8 17 9 18 10 19 18 20 21 24 22 25 23 26
REMARK SMILES IDX 24 27 25 28 26 29 27 30 28 31 89 32 29 33 88 34 30 35 31 36
REMARK SMILES IDX 32 37 82 38 33 39 87 40 81 41 83 42 34 43 86 44 80 45 79 46
REMARK SMILES IDX 35 48 67 49 47 50 66 51 48 52 51 53 65 54 84 55 49 56 50 57
REMARK SMILES IDX 64 59 85 60 52 61 36 62 37 63 45 64 38 65 39 66 43 67 46 68
REMARK SMILES IDX 40 69 41 70 44 71 42 72 68 73 69 74 77 75 70 76 71 77 75 78
REMARK SMILES IDX 78 79 72 80 73 81 76 82 74 83 53 84 54 85 62 86 55 87 56 88
REMARK SMILES IDX 60 89 63 90 57 91 58 92 61 93 59 94
REMARK H PARENT 18 21 18 22 18 23 83 47 51 58
REMARK Flexibility Score: inf
ROOT
ATOM      1  C   UNL A   1      31.033  26.944  25.699  1.00  0.00     0.367 C 
ATOM      2  O   UNL A   1      31.044  26.944  26.925  1.00  0.00    -0.245 OA
ENDROOT
BRANCH   1   3
ATOM      3  C   UNL A   1      31.209  25.625  24.829  1.00  0.00     0.190 C 
ATOM      4  C   UNL A   1      30.495  25.859  23.478  1.00  0.00     0.092 C 
BRANCH   3   5
ATOM      5  C   UNL A   1      32.675  25.173  24.497  1.00  0.00     0.084 C 
BRANCH   5   6
ATOM      6  C   UNL A   1      33.616  24.765  25.623  1.00  0.00     0.049 C 
BRANCH   6   7
ATOM      7  C   UNL A   1      34.518  23.590  25.285  1.00  0.00     0.230 C 
BRANCH   7   8
ATOM      8  O   UNL A   1      34.217  22.362  25.926  1.00  0.00    -0.487 OA
BRANCH   8   9
ATOM      9  C   UNL A   1      34.219  21.200  25.196  1.00  0.00     0.200 A 
ATOM     10  C   UNL A   1      36.788  20.774  25.023  1.00  0.00     0.049 C 
ATOM     11  C   UNL A   1      35.343  20.393  24.953  1.00  0.00    -0.001 A 
ATOM     12  C   UNL A   1      35.147  19.034  24.627  1.00  0.00     0.023 A 
ATOM     13  C   UNL A   1      33.884  18.498  24.419  1.00  0.00     0.025 A 
ATOM     14  C   UNL A   1      32.965  20.648  24.858  1.00  0.00     0.312 A 
ATOM     15  Br  UNL A   1      33.691  16.665  24.039  1.00  0.00    -0.051 Br
ATOM     16  C   UNL A   1      32.781  19.317  24.469  1.00  0.00     0.105 A 
BRANCH  14  17
ATOM     17  N   UNL A   1      31.779  21.455  24.738  1.00  0.00     0.066 N 
ATOM     18  O   UNL A   1      31.663  22.126  23.704  1.00  0.00    -0.258 OA
ATOM     19  O   UNL A   1      31.071  21.545  25.749  1.00  0.00    -0.258 OA
ENDBRANCH  14  17
ENDBRANCH   8   9
ENDBRANCH   7   8
ENDBRANCH   6   7
ENDBRANCH   5   6
ENDBRANCH   3   5
BRANCH   3  20
ATOM     20  N   UNL A   1      30.449  24.490  25.417  1.00  0.00    -0.344 N 
ATOM     21  H   UNL A   1      29.491  24.502  25.063  1.00  0.00     0.345 HD
ATOM     22  H   UNL A   1      30.436  24.578  26.432  1.00  0.00     0.345 HD
ATOM     23  H   UNL A   1      30.894  23.611  25.157  1.00  0.00     0.345 HD
ENDBRANCH   3  20
ENDBRANCH   1   3
BRANCH   1  24
ATOM     24  O   UNL A   1      30.799  28.077  24.955  1.00  0.00    -0.457 OA
BRANCH  24  25
ATOM     25  C   UNL A   1      31.910  29.002  24.722  1.00  0.00     0.274 C 
BRANCH  25  26
ATOM     26  C   UNL A   1      32.126  30.115  25.802  1.00  0.00     0.275 C 
BRANCH  26  27
ATOM     27  O   UNL A   1      33.364  29.996  26.565  1.00  0.00    -0.458 OA
BRANCH  27  28
ATOM     28  C   UNL A   1      33.790  31.082  27.277  1.00  0.00     0.338 C 
ATOM     29  O   UNL A   1      33.104  32.088  27.482  1.00  0.00    -0.246 OA
BRANCH  28  30
ATOM     30  C   UNL A   1      35.136  30.869  27.936  1.00  0.00     0.060 A 
ATOM     31  C   UNL A   1      35.425  29.702  28.642  1.00  0.00     0.016 A 
ATOM     32  C   UNL A   1      36.093  31.894  27.999  1.00  0.00     0.016 A 
ATOM     33  C   UNL A   1      36.464  29.627  29.574  1.00  0.00     0.010 A 
ATOM     34  C   UNL A   1      37.266  31.746  28.778  1.00  0.00     0.010 A 
ATOM     35  C   UNL A   1      37.445  30.616  29.595  1.00  0.00    -0.014 A 
BRANCH  35  36
ATOM     36  C   UNL A   1      38.776  30.227  30.126  1.00  0.00     0.031 A 
ATOM     37  C   UNL A   1      39.723  29.285  29.446  1.00  0.00     0.074 A 
ATOM     38  C   UNL A   1      39.145  30.872  31.252  1.00  0.00     0.049 A 
ATOM     39  N   UNL A   1      40.766  28.671  29.947  1.00  0.00    -0.248 NA
ATOM     40  C   UNL A   1      39.526  29.044  28.012  1.00  0.00     0.031 C 
ATOM     41  C   UNL A   1      38.398  31.986  31.857  1.00  0.00     0.029 A 
ATOM     42  N   UNL A   1      40.202  30.691  32.103  1.00  0.00    -0.354 N 
ATOM     43  C   UNL A   1      41.331  27.945  28.902  1.00  0.00     0.074 A 
ATOM     44  C   UNL A   1      40.539  28.230  27.724  1.00  0.00     0.031 C 
ATOM     45  C   UNL A   1      38.979  32.346  33.002  1.00  0.00     0.029 A 
ATOM     46  C   UNL A   1      40.034  31.392  33.276  1.00  0.00     0.049 A 
ATOM     47  H   UNL A   1      40.984  30.130  31.901  1.00  0.00     0.167 HD
ATOM     48  C   UNL A   1      42.395  27.104  28.964  1.00  0.00     0.037 A 
ATOM     49  C   UNL A   1      40.552  31.176  34.494  1.00  0.00     0.037 A 
ATOM     50  C   UNL A   1      43.121  26.860  30.190  1.00  0.00     0.049 A 
ATOM     51  C   UNL A   1      41.539  30.066  34.623  1.00  0.00     0.074 A 
ATOM     52  C   UNL A   1      44.171  25.993  30.434  1.00  0.00     0.029 A 
ATOM     53  N   UNL A   1      42.843  27.497  31.396  1.00  0.00    -0.354 N 
ATOM     54  N   UNL A   1      42.004  29.275  33.685  1.00  0.00    -0.248 NA
ATOM     55  C   UNL A   1      42.064  29.803  35.962  1.00  0.00     0.031 C 
ATOM     56  C   UNL A   1      44.480  26.059  31.800  1.00  0.00     0.029 A 
ATOM     57  C   UNL A   1      43.663  27.009  32.399  1.00  0.00     0.049 A 
ATOM     58  H   UNL A   1      42.160  28.195  31.519  1.00  0.00     0.167 HD
ATOM     59  C   UNL A   1      42.889  28.421  34.313  1.00  0.00     0.074 A 
ATOM     60  C   UNL A   1      42.902  28.807  35.715  1.00  0.00     0.031 C 
ATOM     61  C   UNL A   1      43.627  27.416  33.782  1.00  0.00     0.037 A 
BRANCH  48  62
ATOM     62  C   UNL A   1      42.766  26.314  27.735  1.00  0.00     0.064 A 
ATOM     63  C   UNL A   1      43.762  26.727  26.837  1.00  0.00     0.173 A 
ATOM     64  C   UNL A   1      42.134  25.085  27.476  1.00  0.00     0.173 A 
ATOM     65  F   UNL A   1      44.403  27.890  27.027  1.00  0.00    -0.203 F 
ATOM     66  C   UNL A   1      44.094  25.954  25.721  1.00  0.00     0.198 A 
ATOM     67  C   UNL A   1      42.481  24.305  26.372  1.00  0.00     0.198 A 
ATOM     68  F   UNL A   1      41.182  24.628  28.303  1.00  0.00    -0.203 F 
ATOM     69  F   UNL A   1      45.026  26.385  24.859  1.00  0.00    -0.200 F 
ATOM     70  C   UNL A   1      43.455  24.743  25.492  1.00  0.00     0.200 A 
ATOM     71  F   UNL A   1      41.869  23.131  26.162  1.00  0.00    -0.200 F 
ATOM     72  F   UNL A   1      43.776  24.003  24.420  1.00  0.00    -0.200 F 
ENDBRANCH  48  62
BRANCH  49  73
ATOM     73  C   UNL A   1      40.004  31.929  35.652  1.00  0.00     0.064 A 
ATOM     74  C   UNL A   1      40.576  33.133  36.071  1.00  0.00     0.173 A 
ATOM     75  C   UNL A   1      38.827  31.505  36.298  1.00  0.00     0.173 A 
ATOM     76  F   UNL A   1      41.702  33.575  35.492  1.00  0.00    -0.203 F 
ATOM     77  C   UNL A   1      39.991  33.888  37.087  1.00  0.00     0.198 A 
ATOM     78  C   UNL A   1      38.225  32.277  37.289  1.00  0.00     0.198 A 
ATOM     79  F   UNL A   1      38.226  30.364  35.925  1.00  0.00    -0.203 F 
ATOM     80  F   UNL A   1      40.565  35.034  37.479  1.00  0.00    -0.200 F 
ATOM     81  C   UNL A   1      38.811  33.468  37.684  1.00  0.00     0.200 A 
ATOM     82  F   UNL A   1      37.071  31.880  37.840  1.00  0.00    -0.200 F 
ATOM     83  F   UNL A   1      38.236  34.214  38.639  1.00  0.00    -0.200 F 
ENDBRANCH  49  73
BRANCH  61  84
ATOM     84  C   UNL A   1      44.520  26.691  34.737  1.00  0.00     0.064 A 
ATOM     85  C   UNL A   1      45.789  27.184  35.064  1.00  0.00     0.173 A 
ATOM     86  C   UNL A   1      44.091  25.497  35.334  1.00  0.00     0.173 A 
ATOM     87  F   UNL A   1      46.247  28.307  34.490  1.00  0.00    -0.203 F 
ATOM     88  C   UNL A   1      46.611  26.493  35.947  1.00  0.00     0.198 A 
ATOM     89  C   UNL A   1      44.904  24.826  36.239  1.00  0.00     0.198 A 
ATOM     90  F   UNL A   1      42.884  24.989  35.042  1.00  0.00    -0.203 F 
ATOM     91  F   UNL A   1      47.843  26.951  36.209  1.00  0.00    -0.200 F 
ATOM     92  C   UNL A   1      46.164  25.320  36.539  1.00  0.00     0.200 A 
ATOM     93  F   UNL A   1      44.470  23.697  36.817  1.00  0.00    -0.200 F 
ATOM     94  F   UNL A   1      46.956  24.659  37.394  1.00  0.00    -0.200 F 
ENDBRANCH  61  84
ENDBRANCH  35  36
ENDBRANCH  28  30
ENDBRANCH  27  28
ENDBRANCH  26  27
ENDBRANCH  25  26
ENDBRANCH  24  25
ENDBRANCH   1  24
TORSDOF 18
ENDMDL
MODEL 2
REMARK VINA RESULT:     -11.0      4.563      7.690
REMARK SMILES Cc1cc(Br)cc([N+](=O)[O-])c1OCCC[C@@](C)([NH3+])C(=O)OCCOC(=O)c1ccc(-c2c3nc(c(-c4c(F)c(F)c(F)c(F)c4F)c4ccc([nH]4)c(-c4c(F)c(F)c(F)c(F)c4F)c4nc(c(-c5c(F)c(F)c(F)c(F)c5F)c5ccc2[nH]5)C=C4)C=C3)cc1
REMARK SMILES IDX 19 1 20 2 16 3 17 4 15 5 14 6 13 7 12 8 11 9 1 10 2 11 3 12
REMARK SMILES IDX 4 13 7 14 5 15 6 16 8 17 9 18 10 19 18 20 21 24 22 25 23 26
REMARK SMILES IDX 24 27 25 28 26 29 27 30 28 31 89 32 29 33 88 34 30 35 31 36
REMARK SMILES IDX 32 37 82 38 33 39 87 40 81 41 83 42 34 43 86 44 80 45 79 46
REMARK SMILES IDX 35 48 67 49 47 50 66 51 48 52 51 53 65 54 84 55 49 56 50 57
REMARK SMILES IDX 64 59 85 60 52 61 36 62 37 63 45 64 38 65 39 66 43 67 46 68
REMARK SMILES IDX 40 69 41 70 44 71 42 72 68 73 69 74 77 75 70 76 71 77 75 78
REMARK SMILES IDX 78 79 72 80 73 81 76 82 74 83 53 84 54 85 62 86 55 87 56 88
REMARK SMILES IDX 60 89 63 90 57 91 58 92 61 93 59 94
REMARK H PARENT 18 21 18 22 18 23 83 47 51 58
REMARK Flexibility Score: inf
ROOT
ATOM      1  C   UNL A   1      33.123  36.048  29.896  1.00  0.00     0.367 C 
ATOM      2  O   UNL A   1      32.175  36.446  29.227  1.00  0.00    -0.245 OA
ENDROOT
BRANCH   1   3
ATOM      3  C   UNL A   1      33.262  36.325  31.455  1.00  0.00     0.190 C 
ATOM      4  C   UNL A   1      31.839  36.317  32.059  1.00  0.00     0.092 C 
BRANCH   3   5
ATOM      5  C   UNL A   1      34.117  35.310  32.292  1.00  0.00     0.084 C 
BRANCH   5   6
ATOM      6  C   UNL A   1      34.622  35.703  33.674  1.00  0.00     0.049 C 
BRANCH   6   7
ATOM      7  C   UNL A   1      35.352  34.590  34.409  1.00  0.00     0.230 C 
BRANCH   7   8
ATOM      8  O   UNL A   1      36.768  34.616  34.343  1.00  0.00    -0.487 OA
BRANCH   8   9
ATOM      9  C   UNL A   1      37.457  33.445  34.159  1.00  0.00     0.200 A 
ATOM     10  C   UNL A   1      37.775  32.707  36.642  1.00  0.00     0.049 C 
ATOM     11  C   UNL A   1      37.742  32.502  35.161  1.00  0.00    -0.001 A 
ATOM     12  C   UNL A   1      38.009  31.168  34.784  1.00  0.00     0.023 A 
ATOM     13  C   UNL A   1      38.119  30.783  33.456  1.00  0.00     0.025 A 
ATOM     14  C   UNL A   1      37.697  33.039  32.829  1.00  0.00     0.312 A 
ATOM     15  Br  UNL A   1      38.424  28.977  33.022  1.00  0.00    -0.051 Br
ATOM     16  C   UNL A   1      38.029  31.730  32.464  1.00  0.00     0.105 A 
BRANCH  14  17
ATOM     17  N   UNL A   1      37.771  33.979  31.741  1.00  0.00     0.066 N 
ATOM     18  O   UNL A   1      36.927  33.860  30.843  1.00  0.00    -0.258 OA
ATOM     19  O   UNL A   1      38.772  34.706  31.710  1.00  0.00    -0.258 OA
ENDBRANCH  14  17
ENDBRANCH   8   9
ENDBRANCH   7   8
ENDBRANCH   6   7
ENDBRANCH   5   6
ENDBRANCH   3   5
BRANCH   3  20
ATOM     20  N   UNL A   1      33.727  37.714  31.713  1.00  0.00    -0.344 N 
ATOM     21  H   UNL A   1      34.600  37.879  31.212  1.00  0.00     0.345 HD
ATOM     22  H   UNL A   1      33.880  37.841  32.713  1.00  0.00     0.345 HD
ATOM     23  H   UNL A   1      33.020  38.375  31.390  1.00  0.00     0.345 HD
ENDBRANCH   3  20
ENDBRANCH   1   3
BRANCH   1  24
ATOM     24  O   UNL A   1      34.126  35.263  29.376  1.00  0.00    -0.457 OA
BRANCH  24  25
ATOM     25  C   UNL A   1      33.872  33.831  29.199  1.00  0.00     0.274 C 
BRANCH  25  26
ATOM     26  C   UNL A   1      34.053  33.267  27.750  1.00  0.00     0.275 C 
BRANCH  26  27
ATOM     27  O   UNL A   1      35.239  32.439  27.558  1.00  0.00    -0.458 OA
BRANCH  27  28
ATOM     28  C   UNL A   1      35.097  31.082  27.631  1.00  0.00     0.338 C 
ATOM     29  O   UNL A   1      34.094  30.470  27.255  1.00  0.00    -0.246 OA
BRANCH  28  30
ATOM     30  C   UNL A   1      36.362  30.376  28.071  1.00  0.00     0.060 A 
ATOM     31  C   UNL A   1      37.529  30.429  27.309  1.00  0.00     0.016 A 
ATOM     32  C   UNL A   1      36.373  29.512  29.177  1.00  0.00     0.016 A 
ATOM     33  C   UNL A   1      38.563  29.501  27.455  1.00  0.00     0.010 A 
ATOM     34  C   UNL A   1      37.507  28.714  29.464  1.00  0.00     0.010 A 
ATOM     35  C   UNL A   1      38.604  28.686  28.585  1.00  0.00    -0.014 A 
BRANCH  35  36
ATOM     36  C   UNL A   1      39.939  28.184  29.001  1.00  0.00     0.031 A 
ATOM     37  C   UNL A   1      40.537  26.884  28.557  1.00  0.00     0.074 A 
ATOM     38  C   UNL A   1      40.656  29.045  29.752  1.00  0.00     0.049 A 
ATOM     39  N   UNL A   1      41.551  26.233  29.069  1.00  0.00    -0.248 NA
ATOM     40  C   UNL A   1      39.980  26.259  27.351  1.00  0.00     0.031 C 
ATOM     41  C   UNL A   1      40.261  30.434  30.034  1.00  0.00     0.029 A 
ATOM     42  N   UNL A   1      41.835  28.899  30.432  1.00  0.00    -0.354 N 
ATOM     43  C   UNL A   1      41.734  25.106  28.274  1.00  0.00     0.074 A 
ATOM     44  C   UNL A   1      40.753  25.183  27.212  1.00  0.00     0.031 C 
ATOM     45  C   UNL A   1      41.139  30.989  30.870  1.00  0.00     0.029 A 
ATOM     46  C   UNL A   1      42.057  29.951  31.292  1.00  0.00     0.049 A 
ATOM     47  H   UNL A   1      42.447  28.137  30.320  1.00  0.00     0.167 HD
ATOM     48  C   UNL A   1      42.631  24.103  28.459  1.00  0.00     0.037 A 
ATOM     49  C   UNL A   1      42.797  30.013  32.409  1.00  0.00     0.037 A 
ATOM     50  C   UNL A   1      43.568  24.094  29.560  1.00  0.00     0.049 A 
ATOM     51  C   UNL A   1      43.591  28.802  32.764  1.00  0.00     0.074 A 
ATOM     52  C   UNL A   1      44.488  23.128  29.924  1.00  0.00     0.029 A 
ATOM     53  N   UNL A   1      43.682  25.122  30.491  1.00  0.00    -0.354 N 
ATOM     54  N   UNL A   1      43.692  27.672  32.105  1.00  0.00    -0.248 NA
ATOM     55  C   UNL A   1      44.357  28.857  34.008  1.00  0.00     0.031 C 
ATOM     56  C   UNL A   1      45.108  23.544  31.112  1.00  0.00     0.029 A 
ATOM     57  C   UNL A   1      44.617  24.796  31.457  1.00  0.00     0.049 A 
ATOM     58  H   UNL A   1      43.169  25.962  30.466  1.00  0.00     0.167 HD
ATOM     59  C   UNL A   1      44.545  26.876  32.845  1.00  0.00     0.074 A 
ATOM     60  C   UNL A   1      44.941  27.667  33.999  1.00  0.00     0.031 C 
ATOM     61  C   UNL A   1      44.966  25.613  32.594  1.00  0.00     0.037 A 
BRANCH  48  62
ATOM     62  C   UNL A   1      42.577  22.904  27.546  1.00  0.00     0.064 A 
ATOM     63  C   UNL A   1      43.448  22.735  26.460  1.00  0.00     0.173 A 
ATOM     64  C   UNL A   1      41.651  21.876  27.797  1.00  0.00     0.173 A 
ATOM     65  F   UNL A   1      44.354  23.679  26.167  1.00  0.00    -0.203 F 
ATOM     66  C   UNL A   1      43.381  21.597  25.651  1.00  0.00     0.198 A 
ATOM     67  C   UNL A   1      41.599  20.732  27.000  1.00  0.00     0.198 A 
ATOM     68  F   UNL A   1      40.797  21.972  28.828  1.00  0.00    -0.203 F 
ATOM     69  F   UNL A   1      44.203  21.472  24.599  1.00  0.00    -0.200 F 
ATOM     70  C   UNL A   1      42.459  20.596  25.924  1.00  0.00     0.200 A 
ATOM     71  F   UNL A   1      40.714  19.763  27.275  1.00  0.00    -0.200 F 
ATOM     72  F   UNL A   1      42.397  19.505  25.146  1.00  0.00    -0.200 F 
ENDBRANCH  48  62
BRANCH  49  73
ATOM     73  C   UNL A   1      42.660  31.197  33.298  1.00  0.00     0.064 A 
ATOM     74  C   UNL A   1      41.870  31.152  34.449  1.00  0.00     0.173 A 
ATOM     75  C   UNL A   1      43.405  32.368  33.061  1.00  0.00     0.173 A 
ATOM     76  F   UNL A   1      41.137  30.061  34.714  1.00  0.00    -0.203 F 
ATOM     77  C   UNL A   1      41.834  32.228  35.335  1.00  0.00     0.198 A 
ATOM     78  C   UNL A   1      43.393  33.429  33.963  1.00  0.00     0.198 A 
ATOM     79  F   UNL A   1      44.192  32.460  31.978  1.00  0.00    -0.203 F 
ATOM     80  F   UNL A   1      41.060  32.165  36.427  1.00  0.00    -0.200 F 
ATOM     81  C   UNL A   1      42.605  33.358  35.099  1.00  0.00     0.200 A 
ATOM     82  F   UNL A   1      44.162  34.504  33.744  1.00  0.00    -0.200 F 
ATOM     83  F   UNL A   1      42.589  34.378  35.970  1.00  0.00    -0.200 F 
ENDBRANCH  49  73
BRANCH  61  84
ATOM     84  C   UNL A   1      45.921  25.037  33.589  1.00  0.00     0.064 A 
ATOM     85  C   UNL A   1      47.305  25.200  33.449  1.00  0.00     0.173 A 
ATOM     86  C   UNL A   1      45.441  24.324  34.696  1.00  0.00     0.173 A 
ATOM     87  F   UNL A   1      47.805  25.849  32.386  1.00  0.00    -0.203 F 
ATOM     88  C   UNL A   1      48.181  24.650  34.377  1.00  0.00     0.198 A 
ATOM     89  C   UNL A   1      46.318  23.802  35.638  1.00  0.00     0.198 A 
ATOM     90  F   UNL A   1      44.122  24.141  34.863  1.00  0.00    -0.203 F 
ATOM     91  F   UNL A   1      49.504  24.770  34.200  1.00  0.00    -0.200 F 
ATOM     92  C   UNL A   1      47.686  23.959  35.474  1.00  0.00     0.200 A 
ATOM     93  F   UNL A   1      45.840  23.141  36.702  1.00  0.00    -0.200 F 
ATOM     94  F   UNL A   1      48.532  23.434  36.371  1.00  0.00    -0.200 F 
ENDBRANCH  61  84
ENDBRANCH  35  36
ENDBRANCH  28  30
ENDBRANCH  27  28
ENDBRANCH  26  27
ENDBRANCH  25  26
ENDBRANCH  24  25
ENDBRANCH   1  24
TORSDOF 18
ENDMDL
MODEL 3
REMARK VINA RESULT:     -10.7      5.028     10.185
REMARK SMILES Cc1cc(Br)cc([N+](=O)[O-])c1OCCC[C@@](C)([NH3+])C(=O)OCCOC(=O)c1ccc(-c2c3nc(c(-c4c(F)c(F)c(F)c(F)c4F)c4ccc([nH]4)c(-c4c(F)c(F)c(F)c(F)c4F)c4nc(c(-c5c(F)c(F)c(F)c(F)c5F)c5ccc2[nH]5)C=C4)C=C3)cc1
REMARK SMILES IDX 19 1 20 2 16 3 17 4 15 5 14 6 13 7 12 8 11 9 1 10 2 11 3 12
REMARK SMILES IDX 4 13 7 14 5 15 6 16 8 17 9 18 10 19 18 20 21 24 22 25 23 26
REMARK SMILES IDX 24 27 25 28 26 29 27 30 28 31 89 32 29 33 88 34 30 35 31 36
REMARK SMILES IDX 32 37 82 38 33 39 87 40 81 41 83 42 34 43 86 44 80 45 79 46
REMARK SMILES IDX 35 48 67 49 47 50 66 51 48 52 51 53 65 54 84 55 49 56 50 57
REMARK SMILES IDX 64 59 85 60 52 61 36 62 37 63 45 64 38 65 39 66 43 67 46 68
REMARK SMILES IDX 40 69 41 70 44 71 42 72 68 73 69 74 77 75 70 76 71 77 75 78
REMARK SMILES IDX 78 79 72 80 73 81 76 82 74 83 53 84 54 85 62 86 55 87 56 88
REMARK SMILES IDX 60 89 63 90 57 91 58 92 61 93 59 94
REMARK H PARENT 18 21 18 22 18 23 83 47 51 58
REMARK Flexibility Score: inf
ROOT
ATOM      1  C   UNL A   1      43.979  18.947  25.364  1.00  0.00     0.367 C 
ATOM      2  O   UNL A   1      44.416  18.001  26.011  1.00  0.00    -0.245 OA
ENDROOT
BRANCH   1   3
ATOM      3  C   UNL A   1      44.901  19.902  24.492  1.00  0.00     0.190 C 
ATOM      4  C   UNL A   1      45.066  19.249  23.101  1.00  0.00     0.092 C 
BRANCH   3   5
ATOM      5  C   UNL A   1      44.393  21.367  24.249  1.00  0.00     0.084 C 
BRANCH   5   6
ATOM      6  C   UNL A   1      44.221  22.316  25.429  1.00  0.00     0.049 C 
BRANCH   6   7
ATOM      7  C   UNL A   1      44.634  23.750  25.139  1.00  0.00     0.230 C 
BRANCH   7   8
ATOM      8  O   UNL A   1      45.907  24.147  25.619  1.00  0.00    -0.487 OA
BRANCH   8   9
ATOM      9  C   UNL A   1      45.989  25.094  26.609  1.00  0.00     0.200 A 
ATOM     10  C   UNL A   1      45.186  23.688  28.655  1.00  0.00     0.049 C 
ATOM     11  C   UNL A   1      45.852  24.847  27.985  1.00  0.00    -0.001 A 
ATOM     12  C   UNL A   1      46.419  25.760  28.900  1.00  0.00     0.023 A 
ATOM     13  C   UNL A   1      47.001  26.952  28.491  1.00  0.00     0.025 A 
ATOM     14  C   UNL A   1      46.479  26.367  26.245  1.00  0.00     0.312 A 
ATOM     15  Br  UNL A   1      47.786  28.099  29.760  1.00  0.00    -0.051 Br
ATOM     16  C   UNL A   1      46.978  27.298  27.161  1.00  0.00     0.105 A 
BRANCH  14  17
ATOM     17  N   UNL A   1      46.363  26.878  24.904  1.00  0.00     0.066 N 
ATOM     18  O   UNL A   1      45.389  27.603  24.666  1.00  0.00    -0.258 OA
ATOM     19  O   UNL A   1      47.145  26.408  24.068  1.00  0.00    -0.258 OA
ENDBRANCH  14  17
ENDBRANCH   8   9
ENDBRANCH   7   8
ENDBRANCH   6   7
ENDBRANCH   5   6
ENDBRANCH   3   5
BRANCH   3  20
ATOM     20  N   UNL A   1      46.293  19.929  25.016  1.00  0.00    -0.344 N 
ATOM     21  H   UNL A   1      46.642  20.888  25.006  1.00  0.00     0.345 HD
ATOM     22  H   UNL A   1      46.888  19.344  24.430  1.00  0.00     0.345 HD
ATOM     23  H   UNL A   1      46.304  19.574  25.972  1.00  0.00     0.345 HD
ENDBRANCH   3  20
ENDBRANCH   1   3
BRANCH   1  24
ATOM     24  O   UNL A   1      42.635  19.232  25.275  1.00  0.00    -0.457 OA
BRANCH  24  25
ATOM     25  C   UNL A   1      41.887  19.466  26.512  1.00  0.00     0.274 C 
BRANCH  25  26
ATOM     26  C   UNL A   1      40.616  20.373  26.395  1.00  0.00     0.275 C 
BRANCH  26  27
ATOM     27  O   UNL A   1      40.890  21.800  26.266  1.00  0.00    -0.458 OA
BRANCH  27  28
ATOM     28  C   UNL A   1      39.830  22.662  26.243  1.00  0.00     0.338 C 
ATOM     29  O   UNL A   1      38.722  22.383  25.776  1.00  0.00    -0.246 OA
BRANCH  28  30
ATOM     30  C   UNL A   1      40.093  23.946  26.999  1.00  0.00     0.060 A 
ATOM     31  C   UNL A   1      39.295  24.337  28.073  1.00  0.00     0.016 A 
ATOM     32  C   UNL A   1      41.049  24.874  26.557  1.00  0.00     0.016 A 
ATOM     33  C   UNL A   1      39.246  25.657  28.530  1.00  0.00     0.010 A 
ATOM     34  C   UNL A   1      41.155  26.151  27.159  1.00  0.00     0.010 A 
ATOM     35  C   UNL A   1      40.231  26.561  28.137  1.00  0.00    -0.014 A 
BRANCH  35  36
ATOM     36  C   UNL A   1      40.500  27.698  29.052  1.00  0.00     0.031 A 
ATOM     37  C   UNL A   1      41.570  27.714  30.100  1.00  0.00     0.074 A 
ATOM     38  C   UNL A   1      39.762  28.802  28.813  1.00  0.00     0.049 A 
ATOM     39  N   UNL A   1      41.706  28.526  31.119  1.00  0.00    -0.248 NA
ATOM     40  C   UNL A   1      42.666  26.747  29.965  1.00  0.00     0.031 C 
ATOM     41  C   UNL A   1      38.865  28.971  27.658  1.00  0.00     0.029 A 
ATOM     42  N   UNL A   1      39.617  29.972  29.509  1.00  0.00    -0.354 N 
ATOM     43  C   UNL A   1      42.880  28.149  31.766  1.00  0.00     0.074 A 
ATOM     44  C   UNL A   1      43.445  27.061  30.997  1.00  0.00     0.031 C 
ATOM     45  C   UNL A   1      38.222  30.135  27.756  1.00  0.00     0.029 A 
ATOM     46  C   UNL A   1      38.550  30.708  29.046  1.00  0.00     0.049 A 
ATOM     47  H   UNL A   1      40.202  30.251  30.248  1.00  0.00     0.167 HD
ATOM     48  C   UNL A   1      43.392  28.667  32.911  1.00  0.00     0.037 A 
ATOM     49  C   UNL A   1      37.803  31.634  29.666  1.00  0.00     0.037 A 
ATOM     50  C   UNL A   1      42.751  29.746  33.629  1.00  0.00     0.049 A 
ATOM     51  C   UNL A   1      38.214  32.020  31.046  1.00  0.00     0.074 A 
ATOM     52  C   UNL A   1      43.103  30.335  34.831  1.00  0.00     0.029 A 
ATOM     53  N   UNL A   1      41.596  30.389  33.195  1.00  0.00    -0.354 N 
ATOM     54  N   UNL A   1      39.243  31.595  31.740  1.00  0.00    -0.248 NA
ATOM     55  C   UNL A   1      37.369  32.994  31.737  1.00  0.00     0.031 C 
ATOM     56  C   UNL A   1      42.123  31.285  35.152  1.00  0.00     0.029 A 
ATOM     57  C   UNL A   1      41.191  31.332  34.124  1.00  0.00     0.049 A 
ATOM     58  H   UNL A   1      41.133  30.201  32.347  1.00  0.00     0.167 HD
ATOM     59  C   UNL A   1      39.183  32.255  32.952  1.00  0.00     0.074 A 
ATOM     60  C   UNL A   1      38.017  33.122  32.886  1.00  0.00     0.031 C 
ATOM     61  C   UNL A   1      40.014  32.160  34.018  1.00  0.00     0.037 A 
BRANCH  48  62
ATOM     62  C   UNL A   1      44.615  28.024  33.514  1.00  0.00     0.064 A 
ATOM     63  C   UNL A   1      44.544  26.977  34.444  1.00  0.00     0.173 A 
ATOM     64  C   UNL A   1      45.896  28.444  33.112  1.00  0.00     0.173 A 
ATOM     65  F   UNL A   1      43.353  26.531  34.870  1.00  0.00    -0.203 F 
ATOM     66  C   UNL A   1      45.703  26.391  34.963  1.00  0.00     0.198 A 
ATOM     67  C   UNL A   1      47.050  27.845  33.615  1.00  0.00     0.198 A 
ATOM     68  F   UNL A   1      46.031  29.433  32.216  1.00  0.00    -0.203 F 
ATOM     69  F   UNL A   1      45.610  25.413  35.875  1.00  0.00    -0.200 F 
ATOM     70  C   UNL A   1      46.953  26.824  34.545  1.00  0.00     0.200 A 
ATOM     71  F   UNL A   1      48.256  28.258  33.200  1.00  0.00    -0.200 F 
ATOM     72  F   UNL A   1      48.064  26.260  35.044  1.00  0.00    -0.200 F 
ENDBRANCH  48  62
BRANCH  49  73
ATOM     73  C   UNL A   1      36.544  32.091  29.023  1.00  0.00     0.064 A 
ATOM     74  C   UNL A   1      35.473  31.217  28.824  1.00  0.00     0.173 A 
ATOM     75  C   UNL A   1      36.353  33.445  28.690  1.00  0.00     0.173 A 
ATOM     76  F   UNL A   1      35.608  29.916  29.119  1.00  0.00    -0.203 F 
ATOM     77  C   UNL A   1      34.256  31.678  28.322  1.00  0.00     0.198 A 
ATOM     78  C   UNL A   1      35.127  33.910  28.219  1.00  0.00     0.198 A 
ATOM     79  F   UNL A   1      37.343  34.332  28.875  1.00  0.00    -0.203 F 
ATOM     80  F   UNL A   1      33.247  30.817  28.128  1.00  0.00    -0.200 F 
ATOM     81  C   UNL A   1      34.080  33.024  28.034  1.00  0.00     0.200 A 
ATOM     82  F   UNL A   1      34.955  35.216  27.972  1.00  0.00    -0.200 F 
ATOM     83  F   UNL A   1      32.899  33.467  27.580  1.00  0.00    -0.200 F 
ENDBRANCH  49  73
BRANCH  61  84
ATOM     84  C   UNL A   1      39.685  33.041  35.179  1.00  0.00     0.064 A 
ATOM     85  C   UNL A   1      40.127  34.368  35.236  1.00  0.00     0.173 A 
ATOM     86  C   UNL A   1      38.911  32.548  36.240  1.00  0.00     0.173 A 
ATOM     87  F   UNL A   1      40.896  34.866  34.255  1.00  0.00    -0.203 F 
ATOM     88  C   UNL A   1      39.820  35.172  36.327  1.00  0.00     0.198 A 
ATOM     89  C   UNL A   1      38.581  33.364  37.315  1.00  0.00     0.198 A 
ATOM     90  F   UNL A   1      38.473  31.281  36.227  1.00  0.00    -0.203 F 
ATOM     91  F   UNL A   1      40.295  36.424  36.389  1.00  0.00    -0.200 F 
ATOM     92  C   UNL A   1      39.041  34.672  37.361  1.00  0.00     0.200 A 
ATOM     93  F   UNL A   1      37.822  32.884  38.310  1.00  0.00    -0.200 F 
ATOM     94  F   UNL A   1      38.742  35.449  38.410  1.00  0.00    -0.200 F 
ENDBRANCH  61  84
ENDBRANCH  35  36
ENDBRANCH  28  30
ENDBRANCH  27  28
ENDBRANCH  26  27
ENDBRANCH  25  26
ENDBRANCH  24  25
ENDBRANCH   1  24
TORSDOF 18
ENDMDL
