MODEL 1
REMARK VINA RESULT:     -11.9      0.000      0.000
REMARK SMILES C[C@@H](Oc1ccccc1Cl)C(=O)N1CC[C@H](C(=O)OCCOC(=O)c2ccc(-c3c4nc(c(-c5c(F)c(F)c(F)c(F)c5F)c5ccc([nH]5)c(-c5c(F)c(F)c(F)c(F)c5F)c5nc(c(-c6c(F)c(F)c(F)c(F)c6F)c6ccc3[nH]6)C=C5)C=C4)cc2)[C@@H]1C
REMARK SMILES IDX 20 1 19 2 17 3 18 4 16 5 13 6 14 7 88 8 15 9 89 10 11 11
REMARK SMILES IDX 12 12 2 13 1 14 3 15 4 16 5 17 9 18 6 19 8 20 10 21 7 22
REMARK SMILES IDX 21 23 22 24 23 25 24 26 25 27 26 28 87 29 27 30 86 31 28 32
REMARK SMILES IDX 29 33 30 34 80 35 31 36 85 37 79 38 81 39 32 40 84 41 78 42
REMARK SMILES IDX 77 43 33 45 65 46 45 47 64 48 46 49 49 50 63 51 82 52 47 53
REMARK SMILES IDX 48 54 62 56 83 57 50 58 34 59 35 60 43 61 36 62 37 63 41 64
REMARK SMILES IDX 44 65 38 66 39 67 42 68 40 69 66 70 67 71 75 72 68 73 69 74
REMARK SMILES IDX 73 75 76 76 70 77 71 78 74 79 72 80 51 81 52 82 60 83 53 84
REMARK SMILES IDX 54 85 58 86 61 87 55 88 56 89 59 90 57 91
REMARK H PARENT 81 44 49 55
REMARK Flexibility Score: inf
ROOT
ATOM      1  C   UNL A   1      31.441  29.319  24.582  1.00  0.00     0.274 C 
ENDROOT
BRANCH   1   2
ATOM      2  O   UNL A   1      31.070  27.997  25.037  1.00  0.00    -0.462 OA
BRANCH   2   3
ATOM      3  C   UNL A   1      31.400  26.983  24.187  1.00  0.00     0.311 C 
ATOM      4  O   UNL A   1      31.597  27.131  22.988  1.00  0.00    -0.252 OA
BRANCH   3   5
ATOM      5  C   UNL A   1      31.401  25.631  24.898  1.00  0.00     0.123 C 
ATOM      6  N   UNL A   1      33.052  24.221  23.894  1.00  0.00    -0.336 N 
ATOM      7  C   UNL A   1      31.868  24.201  23.043  1.00  0.00     0.121 C 
ATOM      8  C   UNL A   1      32.777  24.964  25.138  1.00  0.00     0.096 C 
ATOM      9  C   UNL A   1      30.727  24.624  23.962  1.00  0.00     0.039 C 
ATOM     10  C   UNL A   1      33.848  25.940  25.602  1.00  0.00     0.032 C 
BRANCH   6  11
ATOM     11  C   UNL A   1      34.092  23.392  23.523  1.00  0.00     0.263 C 
ATOM     12  O   UNL A   1      34.488  23.398  22.349  1.00  0.00    -0.271 OA
BRANCH  11  13
ATOM     13  C   UNL A   1      34.756  22.400  24.505  1.00  0.00     0.259 C 
ATOM     14  C   UNL A   1      33.817  21.245  24.846  1.00  0.00     0.064 C 
BRANCH  13  15
ATOM     15  O   UNL A   1      36.044  21.931  24.110  1.00  0.00    -0.479 OA
BRANCH  15  16
ATOM     16  C   UNL A   1      37.045  22.348  24.951  1.00  0.00     0.139 A 
ATOM     17  C   UNL A   1      37.101  23.677  25.387  1.00  0.00     0.048 A 
ATOM     18  C   UNL A   1      38.053  21.453  25.325  1.00  0.00     0.083 A 
ATOM     19  C   UNL A   1      38.121  24.088  26.248  1.00  0.00     0.004 A 
ATOM     20  C   UNL A   1      39.072  21.867  26.185  1.00  0.00     0.024 A 
ATOM     21  Cl  UNL A   1      38.057  19.821  24.759  1.00  0.00    -0.080 Cl
ATOM     22  C   UNL A   1      39.100  23.182  26.653  1.00  0.00     0.002 A 
ENDBRANCH  15  16
ENDBRANCH  13  15
ENDBRANCH  11  13
ENDBRANCH   6  11
ENDBRANCH   3   5
ENDBRANCH   2   3
ENDBRANCH   1   2
BRANCH   1  23
ATOM     23  C   UNL A   1      31.657  30.273  25.754  1.00  0.00     0.275 C 
BRANCH  23  24
ATOM     24  O   UNL A   1      33.046  30.279  26.115  1.00  0.00    -0.458 OA
BRANCH  24  25
ATOM     25  C   UNL A   1      33.402  31.212  27.026  1.00  0.00     0.338 C 
ATOM     26  O   UNL A   1      32.727  32.164  27.382  1.00  0.00    -0.246 OA
BRANCH  25  27
ATOM     27  C   UNL A   1      34.737  30.897  27.598  1.00  0.00     0.060 A 
ATOM     28  C   UNL A   1      35.123  29.589  27.910  1.00  0.00     0.016 A 
ATOM     29  C   UNL A   1      35.590  31.954  27.923  1.00  0.00     0.016 A 
ATOM     30  C   UNL A   1      36.291  29.350  28.634  1.00  0.00     0.010 A 
ATOM     31  C   UNL A   1      36.805  31.703  28.568  1.00  0.00     0.010 A 
ATOM     32  C   UNL A   1      37.152  30.402  28.973  1.00  0.00    -0.014 A 
BRANCH  32  33
ATOM     33  C   UNL A   1      38.382  30.176  29.785  1.00  0.00     0.031 A 
ATOM     34  C   UNL A   1      39.512  29.352  29.224  1.00  0.00     0.074 A 
ATOM     35  C   UNL A   1      38.503  30.684  31.027  1.00  0.00     0.049 A 
ATOM     36  N   UNL A   1      40.533  28.808  29.839  1.00  0.00    -0.248 NA
ATOM     37  C   UNL A   1      39.478  29.086  27.777  1.00  0.00     0.031 C 
ATOM     38  C   UNL A   1      37.531  31.550  31.693  1.00  0.00     0.029 A 
ATOM     39  N   UNL A   1      39.508  30.541  31.955  1.00  0.00    -0.354 N 
ATOM     40  C   UNL A   1      41.209  28.070  28.876  1.00  0.00     0.074 A 
ATOM     41  C   UNL A   1      40.497  28.252  27.629  1.00  0.00     0.031 C 
ATOM     42  C   UNL A   1      38.001  31.892  32.902  1.00  0.00     0.029 A 
ATOM     43  C   UNL A   1      39.261  31.194  33.137  1.00  0.00     0.049 A 
ATOM     44  H   UNL A   1      40.326  30.018  31.788  1.00  0.00     0.167 HD
ATOM     45  C   UNL A   1      42.316  27.302  29.024  1.00  0.00     0.037 A 
ATOM     46  C   UNL A   1      39.943  31.200  34.298  1.00  0.00     0.037 A 
ATOM     47  C   UNL A   1      43.073  27.191  30.244  1.00  0.00     0.049 A 
ATOM     48  C   UNL A   1      41.180  30.360  34.435  1.00  0.00     0.074 A 
ATOM     49  C   UNL A   1      44.215  26.446  30.489  1.00  0.00     0.029 A 
ATOM     50  N   UNL A   1      42.782  27.871  31.417  1.00  0.00    -0.354 N 
ATOM     51  N   UNL A   1      41.753  29.579  33.552  1.00  0.00    -0.248 NA
ATOM     52  C   UNL A   1      41.853  30.382  35.741  1.00  0.00     0.031 C 
ATOM     53  C   UNL A   1      44.606  26.663  31.815  1.00  0.00     0.029 A 
ATOM     54  C   UNL A   1      43.727  27.570  32.384  1.00  0.00     0.049 A 
ATOM     55  H   UNL A   1      42.018  28.478  31.544  1.00  0.00     0.167 HD
ATOM     56  C   UNL A   1      42.850  29.021  34.190  1.00  0.00     0.074 A 
ATOM     57  C   UNL A   1      42.880  29.570  35.530  1.00  0.00     0.031 C 
ATOM     58  C   UNL A   1      43.746  28.125  33.713  1.00  0.00     0.037 A 
BRANCH  45  59
ATOM     59  C   UNL A   1      42.762  26.486  27.846  1.00  0.00     0.064 A 
ATOM     60  C   UNL A   1      42.305  25.181  27.629  1.00  0.00     0.173 A 
ATOM     61  C   UNL A   1      43.625  27.050  26.893  1.00  0.00     0.173 A 
ATOM     62  F   UNL A   1      41.489  24.594  28.517  1.00  0.00    -0.203 F 
ATOM     63  C   UNL A   1      42.709  24.460  26.507  1.00  0.00     0.198 A 
ATOM     64  C   UNL A   1      44.006  26.336  25.760  1.00  0.00     0.198 A 
ATOM     65  F   UNL A   1      44.086  28.300  27.051  1.00  0.00    -0.203 F 
ATOM     66  F   UNL A   1      42.288  23.199  26.335  1.00  0.00    -0.200 F 
ATOM     67  C   UNL A   1      43.552  25.040  25.570  1.00  0.00     0.200 A 
ATOM     68  F   UNL A   1      44.811  26.904  24.850  1.00  0.00    -0.200 F 
ATOM     69  F   UNL A   1      43.930  24.349  24.486  1.00  0.00    -0.200 F 
ENDBRANCH  45  59
BRANCH  46  70
ATOM     70  C   UNL A   1      39.438  32.005  35.439  1.00  0.00     0.064 A 
ATOM     71  C   UNL A   1      39.808  33.348  35.588  1.00  0.00     0.173 A 
ATOM     72  C   UNL A   1      38.565  31.455  36.389  1.00  0.00     0.173 A 
ATOM     73  F   UNL A   1      40.666  33.906  34.722  1.00  0.00    -0.203 F 
ATOM     74  C   UNL A   1      39.323  34.112  36.646  1.00  0.00     0.198 A 
ATOM     75  C   UNL A   1      38.059  32.228  37.431  1.00  0.00     0.198 A 
ATOM     76  F   UNL A   1      38.188  30.172  36.293  1.00  0.00    -0.203 F 
ATOM     77  F   UNL A   1      39.717  35.384  36.788  1.00  0.00    -0.200 F 
ATOM     78  C   UNL A   1      38.441  33.555  37.561  1.00  0.00     0.200 A 
ATOM     79  F   UNL A   1      37.200  31.690  38.307  1.00  0.00    -0.200 F 
ATOM     80  F   UNL A   1      37.966  34.294  38.572  1.00  0.00    -0.200 F 
ENDBRANCH  46  70
BRANCH  58  81
ATOM     81  C   UNL A   1      44.849  27.704  34.636  1.00  0.00     0.064 A 
ATOM     82  C   UNL A   1      46.047  28.425  34.719  1.00  0.00     0.173 A 
ATOM     83  C   UNL A   1      44.696  26.579  35.460  1.00  0.00     0.173 A 
ATOM     84  F   UNL A   1      46.246  29.499  33.939  1.00  0.00    -0.203 F 
ATOM     85  C   UNL A   1      47.066  28.021  35.577  1.00  0.00     0.198 A 
ATOM     86  C   UNL A   1      45.708  26.190  36.332  1.00  0.00     0.198 A 
ATOM     87  F   UNL A   1      43.564  25.859  35.418  1.00  0.00    -0.203 F 
ATOM     88  F   UNL A   1      48.222  28.699  35.611  1.00  0.00    -0.200 F 
ATOM     89  C   UNL A   1      46.894  26.906  36.385  1.00  0.00     0.200 A 
ATOM     90  F   UNL A   1      45.538  25.117  37.118  1.00  0.00    -0.200 F 
ATOM     91  F   UNL A   1      47.877  26.517  37.210  1.00  0.00    -0.200 F 
ENDBRANCH  58  81
ENDBRANCH  32  33
ENDBRANCH  25  27
ENDBRANCH  24  25
ENDBRANCH  23  24
ENDBRANCH   1  23
TORSDOF 15
ENDMDL
MODEL 2
REMARK VINA RESULT:     -11.7      4.203      9.572
REMARK SMILES C[C@@H](Oc1ccccc1Cl)C(=O)N1CC[C@H](C(=O)OCCOC(=O)c2ccc(-c3c4nc(c(-c5c(F)c(F)c(F)c(F)c5F)c5ccc([nH]5)c(-c5c(F)c(F)c(F)c(F)c5F)c5nc(c(-c6c(F)c(F)c(F)c(F)c6F)c6ccc3[nH]6)C=C5)C=C4)cc2)[C@@H]1C
REMARK SMILES IDX 20 1 19 2 17 3 18 4 16 5 13 6 14 7 88 8 15 9 89 10 11 11
REMARK SMILES IDX 12 12 2 13 1 14 3 15 4 16 5 17 9 18 6 19 8 20 10 21 7 22
REMARK SMILES IDX 21 23 22 24 23 25 24 26 25 27 26 28 87 29 27 30 86 31 28 32
REMARK SMILES IDX 29 33 30 34 80 35 31 36 85 37 79 38 81 39 32 40 84 41 78 42
REMARK SMILES IDX 77 43 33 45 65 46 45 47 64 48 46 49 49 50 63 51 82 52 47 53
REMARK SMILES IDX 48 54 62 56 83 57 50 58 34 59 35 60 43 61 36 62 37 63 41 64
REMARK SMILES IDX 44 65 38 66 39 67 42 68 40 69 66 70 67 71 75 72 68 73 69 74
REMARK SMILES IDX 73 75 76 76 70 77 71 78 74 79 72 80 51 81 52 82 60 83 53 84
REMARK SMILES IDX 54 85 58 86 61 87 55 88 56 89 59 90 57 91
REMARK H PARENT 81 44 49 55
REMARK Flexibility Score: inf
ROOT
ATOM      1  C   UNL A   1      35.304  21.435  26.111  1.00  0.00     0.274 C 
ENDROOT
BRANCH   1   2
ATOM      2  O   UNL A   1      34.002  21.189  25.531  1.00  0.00    -0.462 OA
BRANCH   2   3
ATOM      3  C   UNL A   1      33.362  22.299  25.066  1.00  0.00     0.311 C 
ATOM      4  O   UNL A   1      32.850  23.148  25.786  1.00  0.00    -0.252 OA
BRANCH   3   5
ATOM      5  C   UNL A   1      33.280  22.304  23.541  1.00  0.00     0.123 C 
ATOM      6  N   UNL A   1      33.140  24.566  22.773  1.00  0.00    -0.336 N 
ATOM      7  C   UNL A   1      31.813  24.161  23.221  1.00  0.00     0.121 C 
ATOM      8  C   UNL A   1      34.063  23.415  22.799  1.00  0.00     0.096 C 
ATOM      9  C   UNL A   1      31.835  22.638  23.163  1.00  0.00     0.039 C 
ATOM     10  C   UNL A   1      35.449  23.663  23.374  1.00  0.00     0.032 C 
BRANCH   6  11
ATOM     11  C   UNL A   1      33.245  25.821  22.208  1.00  0.00     0.263 C 
ATOM     12  O   UNL A   1      33.256  25.935  20.974  1.00  0.00    -0.271 OA
BRANCH  11  13
ATOM     13  C   UNL A   1      33.409  27.103  23.055  1.00  0.00     0.259 C 
ATOM     14  C   UNL A   1      34.031  28.233  22.237  1.00  0.00     0.064 C 
BRANCH  13  15
ATOM     15  O   UNL A   1      32.230  27.534  23.732  1.00  0.00    -0.479 OA
BRANCH  15  16
ATOM     16  C   UNL A   1      32.501  28.258  24.867  1.00  0.00     0.139 A 
ATOM     17  C   UNL A   1      33.517  27.858  25.741  1.00  0.00     0.048 A 
ATOM     18  C   UNL A   1      31.712  29.370  25.183  1.00  0.00     0.083 A 
ATOM     19  C   UNL A   1      33.788  28.607  26.889  1.00  0.00     0.004 A 
ATOM     20  C   UNL A   1      31.984  30.116  26.331  1.00  0.00     0.024 A 
ATOM     21  Cl  UNL A   1      30.407  29.861  24.164  1.00  0.00    -0.080 Cl
ATOM     22  C   UNL A   1      33.028  29.740  27.179  1.00  0.00     0.002 A 
ENDBRANCH  15  16
ENDBRANCH  13  15
ENDBRANCH  11  13
ENDBRANCH   6  11
ENDBRANCH   3   5
ENDBRANCH   2   3
ENDBRANCH   1   2
BRANCH   1  23
ATOM     23  C   UNL A   1      36.404  20.711  25.340  1.00  0.00     0.275 C 
BRANCH  23  24
ATOM     24  O   UNL A   1      37.501  21.609  25.116  1.00  0.00    -0.458 OA
BRANCH  24  25
ATOM     25  C   UNL A   1      38.635  21.314  25.791  1.00  0.00     0.338 C 
ATOM     26  O   UNL A   1      39.166  20.218  25.861  1.00  0.00    -0.246 OA
BRANCH  25  27
ATOM     27  C   UNL A   1      39.204  22.539  26.411  1.00  0.00     0.060 A 
ATOM     28  C   UNL A   1      38.702  23.815  26.135  1.00  0.00     0.016 A 
ATOM     29  C   UNL A   1      40.337  22.413  27.219  1.00  0.00     0.016 A 
ATOM     30  C   UNL A   1      39.386  24.952  26.566  1.00  0.00     0.010 A 
ATOM     31  C   UNL A   1      40.968  23.553  27.726  1.00  0.00     0.010 A 
ATOM     32  C   UNL A   1      40.528  24.840  27.370  1.00  0.00    -0.014 A 
BRANCH  32  33
ATOM     33  C   UNL A   1      41.299  26.040  27.805  1.00  0.00     0.031 A 
ATOM     34  C   UNL A   1      40.629  27.105  28.634  1.00  0.00     0.074 A 
ATOM     35  C   UNL A   1      42.591  26.204  27.458  1.00  0.00     0.049 A 
ATOM     36  N   UNL A   1      41.014  28.331  28.886  1.00  0.00    -0.248 NA
ATOM     37  C   UNL A   1      39.340  26.747  29.247  1.00  0.00     0.031 C 
ATOM     38  C   UNL A   1      43.403  25.243  26.712  1.00  0.00     0.029 A 
ATOM     39  N   UNL A   1      43.451  27.251  27.694  1.00  0.00    -0.354 N 
ATOM     40  C   UNL A   1      39.981  28.914  29.609  1.00  0.00     0.074 A 
ATOM     41  C   UNL A   1      38.960  27.901  29.776  1.00  0.00     0.031 C 
ATOM     42  C   UNL A   1      44.648  25.724  26.584  1.00  0.00     0.029 A 
ATOM     43  C   UNL A   1      44.700  27.067  27.154  1.00  0.00     0.049 A 
ATOM     44  H   UNL A   1      43.196  28.055  28.200  1.00  0.00     0.167 HD
ATOM     45  C   UNL A   1      39.890  30.182  30.079  1.00  0.00     0.037 A 
ATOM     46  C   UNL A   1      45.757  27.897  27.081  1.00  0.00     0.037 A 
ATOM     47  C   UNL A   1      40.942  31.162  29.988  1.00  0.00     0.049 A 
ATOM     48  C   UNL A   1      45.645  29.291  27.628  1.00  0.00     0.074 A 
ATOM     49  C   UNL A   1      40.948  32.470  30.444  1.00  0.00     0.029 A 
ATOM     50  N   UNL A   1      42.190  30.930  29.429  1.00  0.00    -0.354 N 
ATOM     51  N   UNL A   1      44.626  29.870  28.214  1.00  0.00    -0.248 NA
ATOM     52  C   UNL A   1      46.823  30.156  27.480  1.00  0.00     0.031 C 
ATOM     53  C   UNL A   1      42.193  33.034  30.147  1.00  0.00     0.029 A 
ATOM     54  C   UNL A   1      42.974  32.066  29.537  1.00  0.00     0.049 A 
ATOM     55  H   UNL A   1      42.476  30.082  29.017  1.00  0.00     0.167 HD
ATOM     56  C   UNL A   1      45.038  31.161  28.506  1.00  0.00     0.074 A 
ATOM     57  C   UNL A   1      46.410  31.277  28.056  1.00  0.00     0.031 C 
ATOM     58  C   UNL A   1      44.338  32.166  29.086  1.00  0.00     0.037 A 
BRANCH  45  59
ATOM     59  C   UNL A   1      38.593  30.603  30.705  1.00  0.00     0.064 A 
ATOM     60  C   UNL A   1      38.415  30.642  32.094  1.00  0.00     0.173 A 
ATOM     61  C   UNL A   1      37.528  31.025  29.893  1.00  0.00     0.173 A 
ATOM     62  F   UNL A   1      39.398  30.238  32.913  1.00  0.00    -0.203 F 
ATOM     63  C   UNL A   1      37.211  31.072  32.648  1.00  0.00     0.198 A 
ATOM     64  C   UNL A   1      36.336  31.478  30.451  1.00  0.00     0.198 A 
ATOM     65  F   UNL A   1      37.650  31.014  28.557  1.00  0.00    -0.203 F 
ATOM     66  F   UNL A   1      37.050  31.068  33.979  1.00  0.00    -0.200 F 
ATOM     67  C   UNL A   1      36.177  31.496  31.827  1.00  0.00     0.200 A 
ATOM     68  F   UNL A   1      35.343  31.900  29.655  1.00  0.00    -0.200 F 
ATOM     69  F   UNL A   1      35.024  31.920  32.364  1.00  0.00    -0.200 F 
ENDBRANCH  45  59
BRANCH  46  70
ATOM     70  C   UNL A   1      47.006  27.435  26.424  1.00  0.00     0.064 A 
ATOM     71  C   UNL A   1      48.035  26.848  27.173  1.00  0.00     0.173 A 
ATOM     72  C   UNL A   1      47.188  27.553  25.039  1.00  0.00     0.173 A 
ATOM     73  F   UNL A   1      47.920  26.745  28.504  1.00  0.00    -0.203 F 
ATOM     74  C   UNL A   1      49.201  26.397  26.558  1.00  0.00     0.198 A 
ATOM     75  C   UNL A   1      48.342  27.075  24.422  1.00  0.00     0.198 A 
ATOM     76  F   UNL A   1      46.234  28.113  24.281  1.00  0.00    -0.203 F 
ATOM     77  F   UNL A   1      50.186  25.871  27.299  1.00  0.00    -0.200 F 
ATOM     78  C   UNL A   1      49.349  26.501  25.183  1.00  0.00     0.200 A 
ATOM     79  F   UNL A   1      48.477  27.170  23.093  1.00  0.00    -0.200 F 
ATOM     80  F   UNL A   1      50.466  26.056  24.592  1.00  0.00    -0.200 F 
ENDBRANCH  46  70
BRANCH  58  81
ATOM     81  C   UNL A   1      45.054  33.467  29.290  1.00  0.00     0.064 A 
ATOM     82  C   UNL A   1      45.802  33.715  30.449  1.00  0.00     0.173 A 
ATOM     83  C   UNL A   1      45.005  34.466  28.308  1.00  0.00     0.173 A 
ATOM     84  F   UNL A   1      45.864  32.795  31.423  1.00  0.00    -0.203 F 
ATOM     85  C   UNL A   1      46.457  34.930  30.629  1.00  0.00     0.198 A 
ATOM     86  C   UNL A   1      45.679  35.671  28.481  1.00  0.00     0.198 A 
ATOM     87  F   UNL A   1      44.305  34.273  27.180  1.00  0.00    -0.203 F 
ATOM     88  F   UNL A   1      47.133  35.165  31.762  1.00  0.00    -0.200 F 
ATOM     89  C   UNL A   1      46.399  35.905  29.643  1.00  0.00     0.200 A 
ATOM     90  F   UNL A   1      45.628  36.610  27.526  1.00  0.00    -0.200 F 
ATOM     91  F   UNL A   1      47.029  37.075  29.819  1.00  0.00    -0.200 F 
ENDBRANCH  58  81
ENDBRANCH  32  33
ENDBRANCH  25  27
ENDBRANCH  24  25
ENDBRANCH  23  24
ENDBRANCH   1  23
TORSDOF 15
ENDMDL
MODEL 3
REMARK VINA RESULT:     -11.6      0.919      2.008
REMARK SMILES C[C@@H](Oc1ccccc1Cl)C(=O)N1CC[C@H](C(=O)OCCOC(=O)c2ccc(-c3c4nc(c(-c5c(F)c(F)c(F)c(F)c5F)c5ccc([nH]5)c(-c5c(F)c(F)c(F)c(F)c5F)c5nc(c(-c6c(F)c(F)c(F)c(F)c6F)c6ccc3[nH]6)C=C5)C=C4)cc2)[C@@H]1C
REMARK SMILES IDX 20 1 19 2 17 3 18 4 16 5 13 6 14 7 88 8 15 9 89 10 11 11
REMARK SMILES IDX 12 12 2 13 1 14 3 15 4 16 5 17 9 18 6 19 8 20 10 21 7 22
REMARK SMILES IDX 21 23 22 24 23 25 24 26 25 27 26 28 87 29 27 30 86 31 28 32
REMARK SMILES IDX 29 33 30 34 80 35 31 36 85 37 79 38 81 39 32 40 84 41 78 42
REMARK SMILES IDX 77 43 33 45 65 46 45 47 64 48 46 49 49 50 63 51 82 52 47 53
REMARK SMILES IDX 48 54 62 56 83 57 50 58 34 59 35 60 43 61 36 62 37 63 41 64
REMARK SMILES IDX 44 65 38 66 39 67 42 68 40 69 66 70 67 71 75 72 68 73 69 74
REMARK SMILES IDX 73 75 76 76 70 77 71 78 74 79 72 80 51 81 52 82 60 83 53 84
REMARK SMILES IDX 54 85 58 86 61 87 55 88 56 89 59 90 57 91
REMARK H PARENT 81 44 49 55
REMARK Flexibility Score: inf
ROOT
ATOM      1  C   UNL A   1      31.207  29.504  24.654  1.00  0.00     0.274 C 
ENDROOT
BRANCH   1   2
ATOM      2  O   UNL A   1      31.316  28.462  23.656  1.00  0.00    -0.462 OA
BRANCH   2   3
ATOM      3  C   UNL A   1      31.085  27.200  24.116  1.00  0.00     0.311 C 
ATOM      4  O   UNL A   1      30.087  26.871  24.746  1.00  0.00    -0.252 OA
BRANCH   3   5
ATOM      5  C   UNL A   1      32.265  26.273  23.832  1.00  0.00     0.123 C 
ATOM      6  N   UNL A   1      32.522  24.750  25.659  1.00  0.00    -0.336 N 
ATOM      7  C   UNL A   1      33.124  26.020  26.046  1.00  0.00     0.121 C 
ATOM      8  C   UNL A   1      32.108  24.788  24.244  1.00  0.00     0.096 C 
ATOM      9  C   UNL A   1      33.424  26.722  24.725  1.00  0.00     0.039 C 
ATOM     10  C   UNL A   1      30.739  24.213  23.915  1.00  0.00     0.032 C 
BRANCH   6  11
ATOM     11  C   UNL A   1      32.648  23.708  26.557  1.00  0.00     0.263 C 
ATOM     12  O   UNL A   1      31.678  23.388  27.259  1.00  0.00    -0.271 OA
BRANCH  11  13
ATOM     13  C   UNL A   1      33.978  22.952  26.772  1.00  0.00     0.259 C 
ATOM     14  C   UNL A   1      33.775  21.705  27.630  1.00  0.00     0.064 C 
BRANCH  13  15
ATOM     15  O   UNL A   1      34.703  22.656  25.579  1.00  0.00    -0.479 OA
BRANCH  15  16
ATOM     16  C   UNL A   1      36.064  22.705  25.756  1.00  0.00     0.139 A 
ATOM     17  C   UNL A   1      36.685  23.889  26.168  1.00  0.00     0.048 A 
ATOM     18  C   UNL A   1      36.841  21.580  25.459  1.00  0.00     0.083 A 
ATOM     19  C   UNL A   1      38.070  23.925  26.351  1.00  0.00     0.004 A 
ATOM     20  C   UNL A   1      38.224  21.619  25.642  1.00  0.00     0.024 A 
ATOM     21  Cl  UNL A   1      36.121  20.119  24.887  1.00  0.00    -0.080 Cl
ATOM     22  C   UNL A   1      38.838  22.789  26.096  1.00  0.00     0.002 A 
ENDBRANCH  15  16
ENDBRANCH  13  15
ENDBRANCH  11  13
ENDBRANCH   6  11
ENDBRANCH   3   5
ENDBRANCH   2   3
ENDBRANCH   1   2
BRANCH   1  23
ATOM     23  C   UNL A   1      32.580  29.978  25.120  1.00  0.00     0.275 C 
BRANCH  23  24
ATOM     24  O   UNL A   1      32.599  30.052  26.553  1.00  0.00    -0.458 OA
BRANCH  24  25
ATOM     25  C   UNL A   1      33.160  31.171  27.065  1.00  0.00     0.338 C 
ATOM     26  O   UNL A   1      32.642  32.274  27.123  1.00  0.00    -0.246 OA
BRANCH  25  27
ATOM     27  C   UNL A   1      34.508  30.870  27.616  1.00  0.00     0.060 A 
ATOM     28  C   UNL A   1      34.901  29.571  27.952  1.00  0.00     0.016 A 
ATOM     29  C   UNL A   1      35.367  31.936  27.895  1.00  0.00     0.016 A 
ATOM     30  C   UNL A   1      36.086  29.350  28.656  1.00  0.00     0.010 A 
ATOM     31  C   UNL A   1      36.597  31.701  28.518  1.00  0.00     0.010 A 
ATOM     32  C   UNL A   1      36.953  30.411  28.948  1.00  0.00    -0.014 A 
BRANCH  32  33
ATOM     33  C   UNL A   1      38.201  30.206  29.738  1.00  0.00     0.031 A 
ATOM     34  C   UNL A   1      39.325  29.380  29.167  1.00  0.00     0.074 A 
ATOM     35  C   UNL A   1      38.344  30.734  30.969  1.00  0.00     0.049 A 
ATOM     36  N   UNL A   1      40.362  28.852  29.769  1.00  0.00    -0.248 NA
ATOM     37  C   UNL A   1      39.262  29.091  27.725  1.00  0.00     0.031 C 
ATOM     38  C   UNL A   1      37.381  31.605  31.641  1.00  0.00     0.029 A 
ATOM     39  N   UNL A   1      39.370  30.612  31.878  1.00  0.00    -0.354 N 
ATOM     40  C   UNL A   1      41.022  28.103  28.804  1.00  0.00     0.074 A 
ATOM     41  C   UNL A   1      40.284  28.261  27.569  1.00  0.00     0.031 C 
ATOM     42  C   UNL A   1      37.873  31.969  32.835  1.00  0.00     0.029 A 
ATOM     43  C   UNL A   1      39.142  31.283  33.054  1.00  0.00     0.049 A 
ATOM     44  H   UNL A   1      40.187  30.092  31.703  1.00  0.00     0.167 HD
ATOM     45  C   UNL A   1      42.137  27.345  28.941  1.00  0.00     0.037 A 
ATOM     46  C   UNL A   1      39.848  31.311  34.201  1.00  0.00     0.037 A 
ATOM     47  C   UNL A   1      42.921  27.258  30.147  1.00  0.00     0.049 A 
ATOM     48  C   UNL A   1      41.094  30.481  34.325  1.00  0.00     0.074 A 
ATOM     49  C   UNL A   1      44.072  26.525  30.380  1.00  0.00     0.029 A 
ATOM     50  N   UNL A   1      42.650  27.955  31.315  1.00  0.00    -0.354 N 
ATOM     51  N   UNL A   1      41.653  29.690  33.443  1.00  0.00    -0.248 NA
ATOM     52  C   UNL A   1      41.793  30.529  35.617  1.00  0.00     0.031 C 
ATOM     53  C   UNL A   1      44.489  26.765  31.693  1.00  0.00     0.029 A 
ATOM     54  C   UNL A   1      43.616  27.675  32.267  1.00  0.00     0.049 A 
ATOM     55  H   UNL A   1      41.884  28.560  31.447  1.00  0.00     0.167 HD
ATOM     56  C   UNL A   1      42.767  29.150  34.067  1.00  0.00     0.074 A 
ATOM     57  C   UNL A   1      42.821  29.720  35.397  1.00  0.00     0.031 C 
ATOM     58  C   UNL A   1      43.659  28.252  33.585  1.00  0.00     0.037 A 
BRANCH  45  59
ATOM     59  C   UNL A   1      42.564  26.513  27.768  1.00  0.00     0.064 A 
ATOM     60  C   UNL A   1      42.026  25.245  27.518  1.00  0.00     0.173 A 
ATOM     61  C   UNL A   1      43.496  27.026  26.850  1.00  0.00     0.173 A 
ATOM     62  F   UNL A   1      41.142  24.706  28.371  1.00  0.00    -0.203 F 
ATOM     63  C   UNL A   1      42.416  24.510  26.400  1.00  0.00     0.198 A 
ATOM     64  C   UNL A   1      43.863  26.300  25.720  1.00  0.00     0.198 A 
ATOM     65  F   UNL A   1      44.036  28.239  27.039  1.00  0.00    -0.203 F 
ATOM     66  F   UNL A   1      41.914  23.284  26.198  1.00  0.00    -0.200 F 
ATOM     67  C   UNL A   1      43.327  25.041  25.499  1.00  0.00     0.200 A 
ATOM     68  F   UNL A   1      44.735  26.821  24.844  1.00  0.00    -0.200 F 
ATOM     69  F   UNL A   1      43.692  24.337  24.418  1.00  0.00    -0.200 F 
ENDBRANCH  45  59
BRANCH  46  70
ATOM     70  C   UNL A   1      39.362  32.131  35.339  1.00  0.00     0.064 A 
ATOM     71  C   UNL A   1      38.528  31.576  36.318  1.00  0.00     0.173 A 
ATOM     72  C   UNL A   1      39.735  33.476  35.481  1.00  0.00     0.173 A 
ATOM     73  F   UNL A   1      38.118  30.304  36.206  1.00  0.00    -0.203 F 
ATOM     74  C   UNL A   1      38.084  32.336  37.397  1.00  0.00     0.198 A 
ATOM     75  C   UNL A   1      39.314  34.227  36.575  1.00  0.00     0.198 A 
ATOM     76  F   UNL A   1      40.528  34.054  34.566  1.00  0.00    -0.203 F 
ATOM     77  F   UNL A   1      37.259  31.794  38.302  1.00  0.00    -0.200 F 
ATOM     78  C   UNL A   1      38.485  33.658  37.530  1.00  0.00     0.200 A 
ATOM     79  F   UNL A   1      39.711  35.499  36.705  1.00  0.00    -0.200 F 
ATOM     80  F   UNL A   1      38.067  34.385  38.575  1.00  0.00    -0.200 F 
ENDBRANCH  46  70
BRANCH  58  81
ATOM     81  C   UNL A   1      44.783  27.852  34.492  1.00  0.00     0.064 A 
ATOM     82  C   UNL A   1      44.677  26.743  35.342  1.00  0.00     0.173 A 
ATOM     83  C   UNL A   1      45.984  28.576  34.497  1.00  0.00     0.173 A 
ATOM     84  F   UNL A   1      43.542  26.029  35.384  1.00  0.00    -0.203 F 
ATOM     85  C   UNL A   1      45.727  26.386  36.184  1.00  0.00     0.198 A 
ATOM     86  C   UNL A   1      47.039  28.204  35.324  1.00  0.00     0.198 A 
ATOM     87  F   UNL A   1      46.133  29.644  33.698  1.00  0.00    -0.203 F 
ATOM     88  F   UNL A   1      45.591  25.347  37.020  1.00  0.00    -0.200 F 
ATOM     89  C   UNL A   1      46.908  27.114  36.171  1.00  0.00     0.200 A 
ATOM     90  F   UNL A   1      48.182  28.904  35.307  1.00  0.00    -0.200 F 
ATOM     91  F   UNL A   1      47.917  26.770  36.984  1.00  0.00    -0.200 F 
ENDBRANCH  58  81
ENDBRANCH  32  33
ENDBRANCH  25  27
ENDBRANCH  24  25
ENDBRANCH  23  24
ENDBRANCH   1  23
TORSDOF 15
ENDMDL
