MODEL 1
REMARK VINA RESULT:     -12.8      0.000      0.000
REMARK SMILES O=C(/C=C/C(=O)N1CCn2c1nc1ccccc12)OCCOC(=O)c1ccc(-c2c3nc(c(-c4c(F)c(F)c(F)c(F)c4F)c4ccc([nH]4)c(-c4c(F)c(F)c(F)c(F)c4F)c4nc(c(-c5c(F)c(F)c(F)c(F)c5F)c5ccc2[nH]5)C=C4)C=C3)cc1
REMARK SMILES IDX 20 1 19 2 2 3 1 4 3 5 4 6 5 7 6 8 7 9 8 10 11 11 9 12 10 13
REMARK SMILES IDX 12 14 18 15 13 16 17 17 14 18 16 19 15 20 21 21 22 22 23 23
REMARK SMILES IDX 24 24 25 25 26 26 87 27 27 28 86 29 28 30 29 31 30 32 80 33
REMARK SMILES IDX 31 34 85 35 79 36 81 37 32 38 84 39 78 40 77 41 33 43 65 44
REMARK SMILES IDX 45 45 64 46 46 47 49 48 63 49 82 50 47 51 48 52 62 54 83 55
REMARK SMILES IDX 50 56 34 57 35 58 43 59 36 60 37 61 41 62 44 63 38 64 39 65
REMARK SMILES IDX 42 66 40 67 66 68 67 69 75 70 68 71 69 72 73 73 76 74 70 75
REMARK SMILES IDX 71 76 74 77 72 78 51 79 52 80 60 81 53 82 54 83 58 84 61 85
REMARK SMILES IDX 55 86 56 87 59 88 57 89
REMARK H PARENT 81 42 49 53
REMARK Flexibility Score: inf
ROOT
ATOM      1  C   UNL A   1      46.423  20.207  37.618  1.00  0.00     0.275 C 
ENDROOT
BRANCH   1   2
ATOM      2  O   UNL A   1      46.137  18.830  37.975  1.00  0.00    -0.459 OA
BRANCH   2   3
ATOM      3  C   UNL A   1      46.470  18.342  39.210  1.00  0.00     0.331 C 
ATOM      4  O   UNL A   1      47.577  18.298  39.673  1.00  0.00    -0.247 OA
BRANCH   3   5
ATOM      5  C   UNL A   1      45.332  17.621  39.755  1.00  0.00     0.099 C 
ATOM      6  C   UNL A   1      45.341  16.722  40.751  1.00  0.00     0.079 C 
BRANCH   6   7
ATOM      7  C   UNL A   1      44.088  16.667  41.555  1.00  0.00     0.253 C 
ATOM      8  O   UNL A   1      43.830  17.596  42.320  1.00  0.00    -0.269 OA
BRANCH   7   9
ATOM      9  N   UNL A   1      43.227  15.647  41.338  1.00  0.00    -0.277 N 
ATOM     10  C   UNL A   1      42.611  15.318  40.063  1.00  0.00     0.151 C 
ATOM     11  C   UNL A   1      42.969  14.675  42.255  1.00  0.00     0.213 A 
ATOM     12  C   UNL A   1      41.629  14.229  40.461  1.00  0.00     0.148 C 
ATOM     13  N   UNL A   1      42.070  13.789  41.789  1.00  0.00    -0.308 N 
ATOM     14  N   UNL A   1      43.500  14.324  43.382  1.00  0.00    -0.212 NA
ATOM     15  C   UNL A   1      42.057  12.749  42.675  1.00  0.00     0.070 A 
ATOM     16  C   UNL A   1      43.155  13.025  43.503  1.00  0.00     0.091 A 
ATOM     17  C   UNL A   1      41.321  11.611  42.945  1.00  0.00     0.028 A 
ATOM     18  C   UNL A   1      43.758  12.048  44.308  1.00  0.00     0.031 A 
ATOM     19  C   UNL A   1      41.938  10.650  43.754  1.00  0.00     0.002 A 
ATOM     20  C   UNL A   1      43.166  10.806  44.371  1.00  0.00     0.002 A 
ENDBRANCH   7   9
ENDBRANCH   6   7
ENDBRANCH   3   5
ENDBRANCH   2   3
ENDBRANCH   1   2
BRANCH   1  21
ATOM     21  C   UNL A   1      45.866  20.710  36.247  1.00  0.00     0.275 C 
BRANCH  21  22
ATOM     22  O   UNL A   1      46.261  22.017  35.685  1.00  0.00    -0.458 OA
BRANCH  22  23
ATOM     23  C   UNL A   1      45.468  23.109  35.946  1.00  0.00     0.338 C 
ATOM     24  O   UNL A   1      45.040  23.394  37.054  1.00  0.00    -0.246 OA
BRANCH  23  25
ATOM     25  C   UNL A   1      45.206  24.009  34.741  1.00  0.00     0.060 A 
ATOM     26  C   UNL A   1      44.333  23.709  33.684  1.00  0.00     0.016 A 
ATOM     27  C   UNL A   1      45.763  25.285  34.699  1.00  0.00     0.016 A 
ATOM     28  C   UNL A   1      44.214  24.567  32.518  1.00  0.00     0.010 A 
ATOM     29  C   UNL A   1      45.620  26.135  33.553  1.00  0.00     0.010 A 
ATOM     30  C   UNL A   1      44.968  25.750  32.360  1.00  0.00    -0.014 A 
BRANCH  30  31
ATOM     31  C   UNL A   1      45.108  26.598  31.036  1.00  0.00     0.031 A 
ATOM     32  C   UNL A   1      44.918  25.816  29.737  1.00  0.00     0.074 A 
ATOM     33  C   UNL A   1      44.938  27.958  30.852  1.00  0.00     0.049 A 
ATOM     34  N   UNL A   1      43.855  25.832  28.971  1.00  0.00    -0.248 NA
ATOM     35  C   UNL A   1      45.892  24.802  29.340  1.00  0.00     0.031 C 
ATOM     36  C   UNL A   1      44.269  28.845  31.775  1.00  0.00     0.029 A 
ATOM     37  N   UNL A   1      45.053  28.824  29.766  1.00  0.00    -0.354 N 
ATOM     38  C   UNL A   1      43.946  24.772  28.082  1.00  0.00     0.074 A 
ATOM     39  C   UNL A   1      45.273  24.215  28.304  1.00  0.00     0.031 C 
ATOM     40  C   UNL A   1      44.056  30.085  31.324  1.00  0.00     0.029 A 
ATOM     41  C   UNL A   1      44.552  30.136  29.968  1.00  0.00     0.049 A 
ATOM     42  H   UNL A   1      45.455  28.544  28.913  1.00  0.00     0.167 HD
ATOM     43  C   UNL A   1      42.952  24.299  27.265  1.00  0.00     0.037 A 
ATOM     44  C   UNL A   1      43.771  30.939  29.179  1.00  0.00     0.037 A 
ATOM     45  C   UNL A   1      41.579  24.746  27.379  1.00  0.00     0.049 A 
ATOM     46  C   UNL A   1      42.790  30.116  28.410  1.00  0.00     0.074 A 
ATOM     47  C   UNL A   1      40.373  24.183  27.777  1.00  0.00     0.029 A 
ATOM     48  N   UNL A   1      41.147  25.943  26.852  1.00  0.00    -0.354 N 
ATOM     49  N   UNL A   1      41.549  29.822  28.726  1.00  0.00    -0.248 NA
ATOM     50  C   UNL A   1      43.391  29.297  27.377  1.00  0.00     0.031 C 
ATOM     51  C   UNL A   1      39.470  25.284  28.008  1.00  0.00     0.029 A 
ATOM     52  C   UNL A   1      40.184  26.443  27.711  1.00  0.00     0.049 A 
ATOM     53  H   UNL A   1      41.465  26.363  26.021  1.00  0.00     0.167 HD
ATOM     54  C   UNL A   1      41.280  28.617  28.063  1.00  0.00     0.074 A 
ATOM     55  C   UNL A   1      42.514  28.311  27.365  1.00  0.00     0.031 C 
ATOM     56  C   UNL A   1      40.160  27.830  28.167  1.00  0.00     0.037 A 
BRANCH  43  57
ATOM     57  C   UNL A   1      43.198  23.281  26.224  1.00  0.00     0.064 A 
ATOM     58  C   UNL A   1      42.989  21.946  26.597  1.00  0.00     0.173 A 
ATOM     59  C   UNL A   1      43.860  23.548  25.024  1.00  0.00     0.173 A 
ATOM     60  F   UNL A   1      42.375  21.667  27.760  1.00  0.00    -0.203 F 
ATOM     61  C   UNL A   1      43.473  20.905  25.822  1.00  0.00     0.198 A 
ATOM     62  C   UNL A   1      44.332  22.497  24.238  1.00  0.00     0.198 A 
ATOM     63  F   UNL A   1      44.098  24.812  24.646  1.00  0.00    -0.203 F 
ATOM     64  F   UNL A   1      43.318  19.641  26.238  1.00  0.00    -0.200 F 
ATOM     65  C   UNL A   1      44.154  21.180  24.648  1.00  0.00     0.200 A 
ATOM     66  F   UNL A   1      44.998  22.757  23.104  1.00  0.00    -0.200 F 
ATOM     67  F   UNL A   1      44.658  20.174  23.920  1.00  0.00    -0.200 F 
ENDBRANCH  43  57
BRANCH  44  68
ATOM     68  C   UNL A   1      44.529  32.112  28.674  1.00  0.00     0.064 A 
ATOM     69  C   UNL A   1      44.057  33.404  28.980  1.00  0.00     0.173 A 
ATOM     70  C   UNL A   1      45.809  32.021  28.116  1.00  0.00     0.173 A 
ATOM     71  F   UNL A   1      42.798  33.576  29.418  1.00  0.00    -0.203 F 
ATOM     72  C   UNL A   1      44.892  34.515  28.919  1.00  0.00     0.198 A 
ATOM     73  C   UNL A   1      46.647  33.134  28.061  1.00  0.00     0.198 A 
ATOM     74  F   UNL A   1      46.299  30.852  27.689  1.00  0.00    -0.203 F 
ATOM     75  F   UNL A   1      44.445  35.709  29.332  1.00  0.00    -0.200 F 
ATOM     76  C   UNL A   1      46.203  34.370  28.503  1.00  0.00     0.200 A 
ATOM     77  F   UNL A   1      47.913  32.986  27.649  1.00  0.00    -0.200 F 
ATOM     78  F   UNL A   1      47.045  35.409  28.551  1.00  0.00    -0.200 F 
ENDBRANCH  44  68
BRANCH  56  79
ATOM     79  C   UNL A   1      38.962  28.364  28.919  1.00  0.00     0.064 A 
ATOM     80  C   UNL A   1      38.786  28.065  30.277  1.00  0.00     0.173 A 
ATOM     81  C   UNL A   1      38.027  29.256  28.364  1.00  0.00     0.173 A 
ATOM     82  F   UNL A   1      39.671  27.283  30.911  1.00  0.00    -0.203 F 
ATOM     83  C   UNL A   1      37.731  28.614  31.020  1.00  0.00     0.198 A 
ATOM     84  C   UNL A   1      36.962  29.789  29.095  1.00  0.00     0.198 A 
ATOM     85  F   UNL A   1      38.156  29.687  27.114  1.00  0.00    -0.203 F 
ATOM     86  F   UNL A   1      37.616  28.333  32.326  1.00  0.00    -0.200 F 
ATOM     87  C   UNL A   1      36.815  29.470  30.427  1.00  0.00     0.200 A 
ATOM     88  F   UNL A   1      36.102  30.639  28.512  1.00  0.00    -0.200 F 
ATOM     89  F   UNL A   1      35.816  30.005  31.144  1.00  0.00    -0.200 F 
ENDBRANCH  56  79
ENDBRANCH  30  31
ENDBRANCH  23  25
ENDBRANCH  22  23
ENDBRANCH  21  22
ENDBRANCH   1  21
TORSDOF 13
ENDMDL
MODEL 2
REMARK VINA RESULT:     -12.7      9.061     20.087
REMARK SMILES O=C(/C=C/C(=O)N1CCn2c1nc1ccccc12)OCCOC(=O)c1ccc(-c2c3nc(c(-c4c(F)c(F)c(F)c(F)c4F)c4ccc([nH]4)c(-c4c(F)c(F)c(F)c(F)c4F)c4nc(c(-c5c(F)c(F)c(F)c(F)c5F)c5ccc2[nH]5)C=C4)C=C3)cc1
REMARK SMILES IDX 20 1 19 2 2 3 1 4 3 5 4 6 5 7 6 8 7 9 8 10 11 11 9 12 10 13
REMARK SMILES IDX 12 14 18 15 13 16 17 17 14 18 16 19 15 20 21 21 22 22 23 23
REMARK SMILES IDX 24 24 25 25 26 26 87 27 27 28 86 29 28 30 29 31 30 32 80 33
REMARK SMILES IDX 31 34 85 35 79 36 81 37 32 38 84 39 78 40 77 41 33 43 65 44
REMARK SMILES IDX 45 45 64 46 46 47 49 48 63 49 82 50 47 51 48 52 62 54 83 55
REMARK SMILES IDX 50 56 34 57 35 58 43 59 36 60 37 61 41 62 44 63 38 64 39 65
REMARK SMILES IDX 42 66 40 67 66 68 67 69 75 70 68 71 69 72 73 73 76 74 70 75
REMARK SMILES IDX 71 76 74 77 72 78 51 79 52 80 60 81 53 82 54 83 58 84 61 85
REMARK SMILES IDX 55 86 56 87 59 88 57 89
REMARK H PARENT 81 42 49 53
REMARK Flexibility Score: inf
ROOT
ATOM      1  C   UNL A   1      43.773  40.967  26.026  1.00  0.00     0.275 C 
ENDROOT
BRANCH   1   2
ATOM      2  O   UNL A   1      43.184  42.008  25.204  1.00  0.00    -0.459 OA
BRANCH   2   3
ATOM      3  C   UNL A   1      43.961  42.995  24.659  1.00  0.00     0.331 C 
ATOM      4  O   UNL A   1      44.282  44.016  25.202  1.00  0.00    -0.247 OA
BRANCH   3   5
ATOM      5  C   UNL A   1      44.093  42.755  23.231  1.00  0.00     0.099 C 
ATOM      6  C   UNL A   1      43.174  42.985  22.281  1.00  0.00     0.079 C 
BRANCH   6   7
ATOM      7  C   UNL A   1      43.732  43.325  20.942  1.00  0.00     0.253 C 
ATOM      8  O   UNL A   1      44.930  43.144  20.732  1.00  0.00    -0.269 OA
BRANCH   7   9
ATOM      9  N   UNL A   1      42.878  43.722  19.970  1.00  0.00    -0.277 N 
ATOM     10  C   UNL A   1      41.494  43.298  19.836  1.00  0.00     0.151 C 
ATOM     11  C   UNL A   1      43.155  44.723  19.091  1.00  0.00     0.213 A 
ATOM     12  C   UNL A   1      41.108  43.904  18.497  1.00  0.00     0.148 C 
ATOM     13  N   UNL A   1      42.142  44.909  18.226  1.00  0.00    -0.308 N 
ATOM     14  N   UNL A   1      44.078  45.626  19.004  1.00  0.00    -0.212 NA
ATOM     15  C   UNL A   1      42.416  46.064  17.551  1.00  0.00     0.070 A 
ATOM     16  C   UNL A   1      43.502  46.596  18.264  1.00  0.00     0.091 A 
ATOM     17  C   UNL A   1      41.954  46.777  16.461  1.00  0.00     0.028 A 
ATOM     18  C   UNL A   1      43.875  47.945  18.175  1.00  0.00     0.031 A 
ATOM     19  C   UNL A   1      42.341  48.121  16.388  1.00  0.00     0.002 A 
ATOM     20  C   UNL A   1      43.220  48.739  17.260  1.00  0.00     0.002 A 
ENDBRANCH   7   9
ENDBRANCH   6   7
ENDBRANCH   3   5
ENDBRANCH   2   3
ENDBRANCH   1   2
BRANCH   1  21
ATOM     21  C   UNL A   1      42.822  39.822  26.502  1.00  0.00     0.275 C 
BRANCH  21  22
ATOM     22  O   UNL A   1      43.159  38.968  27.658  1.00  0.00    -0.458 OA
BRANCH  22  23
ATOM     23  C   UNL A   1      43.893  37.826  27.437  1.00  0.00     0.338 C 
ATOM     24  O   UNL A   1      44.895  37.782  26.741  1.00  0.00    -0.246 OA
BRANCH  23  25
ATOM     25  C   UNL A   1      43.403  36.596  28.197  1.00  0.00     0.060 A 
ATOM     26  C   UNL A   1      42.141  36.001  28.041  1.00  0.00     0.016 A 
ATOM     27  C   UNL A   1      44.278  35.908  29.035  1.00  0.00     0.016 A 
ATOM     28  C   UNL A   1      41.705  34.895  28.876  1.00  0.00     0.010 A 
ATOM     29  C   UNL A   1      43.844  34.801  29.836  1.00  0.00     0.010 A 
ATOM     30  C   UNL A   1      42.507  34.348  29.900  1.00  0.00    -0.014 A 
BRANCH  30  31
ATOM     31  C   UNL A   1      42.033  33.340  31.019  1.00  0.00     0.031 A 
ATOM     32  C   UNL A   1      40.531  33.335  31.298  1.00  0.00     0.074 A 
ATOM     33  C   UNL A   1      42.649  32.186  31.467  1.00  0.00     0.049 A 
ATOM     34  N   UNL A   1      39.674  32.427  30.903  1.00  0.00    -0.248 NA
ATOM     35  C   UNL A   1      39.891  34.501  31.902  1.00  0.00     0.031 C 
ATOM     36  C   UNL A   1      43.697  31.478  30.768  1.00  0.00     0.029 A 
ATOM     37  N   UNL A   1      42.361  31.235  32.444  1.00  0.00    -0.354 N 
ATOM     38  C   UNL A   1      38.394  32.934  31.079  1.00  0.00     0.074 A 
ATOM     39  C   UNL A   1      38.589  34.195  31.780  1.00  0.00     0.031 C 
ATOM     40  C   UNL A   1      44.027  30.290  31.285  1.00  0.00     0.029 A 
ATOM     41  C   UNL A   1      43.154  30.059  32.413  1.00  0.00     0.049 A 
ATOM     42  H   UNL A   1      41.652  31.369  33.113  1.00  0.00     0.167 HD
ATOM     43  C   UNL A   1      37.228  32.404  30.592  1.00  0.00     0.037 A 
ATOM     44  C   UNL A   1      42.817  28.736  32.522  1.00  0.00     0.037 A 
ATOM     45  C   UNL A   1      37.212  31.315  29.636  1.00  0.00     0.049 A 
ATOM     46  C   UNL A   1      41.484  28.485  31.896  1.00  0.00     0.074 A 
ATOM     47  C   UNL A   1      36.862  31.161  28.301  1.00  0.00     0.029 A 
ATOM     48  N   UNL A   1      37.400  30.003  30.011  1.00  0.00    -0.354 N 
ATOM     49  N   UNL A   1      41.221  28.085  30.672  1.00  0.00    -0.248 NA
ATOM     50  C   UNL A   1      40.374  29.064  32.625  1.00  0.00     0.031 C 
ATOM     51  C   UNL A   1      37.447  29.914  27.873  1.00  0.00     0.029 A 
ATOM     52  C   UNL A   1      38.094  29.383  28.986  1.00  0.00     0.049 A 
ATOM     53  H   UNL A   1      37.099  29.587  30.849  1.00  0.00     0.167 HD
ATOM     54  C   UNL A   1      39.934  28.568  30.400  1.00  0.00     0.074 A 
ATOM     55  C   UNL A   1      39.550  29.264  31.613  1.00  0.00     0.031 C 
ATOM     56  C   UNL A   1      39.252  28.522  29.210  1.00  0.00     0.037 A 
BRANCH  43  57
ATOM     57  C   UNL A   1      35.900  32.917  30.984  1.00  0.00     0.064 A 
ATOM     58  C   UNL A   1      35.369  33.941  30.187  1.00  0.00     0.173 A 
ATOM     59  C   UNL A   1      35.294  32.636  32.209  1.00  0.00     0.173 A 
ATOM     60  F   UNL A   1      35.951  34.244  29.014  1.00  0.00    -0.203 F 
ATOM     61  C   UNL A   1      34.296  34.701  30.624  1.00  0.00     0.198 A 
ATOM     62  C   UNL A   1      34.204  33.392  32.639  1.00  0.00     0.198 A 
ATOM     63  F   UNL A   1      35.787  31.678  33.008  1.00  0.00    -0.203 F 
ATOM     64  F   UNL A   1      33.853  35.718  29.873  1.00  0.00    -0.200 F 
ATOM     65  C   UNL A   1      33.720  34.434  31.855  1.00  0.00     0.200 A 
ATOM     66  F   UNL A   1      33.646  33.142  33.832  1.00  0.00    -0.200 F 
ATOM     67  F   UNL A   1      32.709  35.195  32.296  1.00  0.00    -0.200 F 
ENDBRANCH  43  57
BRANCH  44  68
ATOM     68  C   UNL A   1      43.324  28.145  33.787  1.00  0.00     0.064 A 
ATOM     69  C   UNL A   1      44.167  27.018  33.715  1.00  0.00     0.173 A 
ATOM     70  C   UNL A   1      43.214  28.776  35.031  1.00  0.00     0.173 A 
ATOM     71  F   UNL A   1      44.239  26.300  32.583  1.00  0.00    -0.203 F 
ATOM     72  C   UNL A   1      45.001  26.667  34.773  1.00  0.00     0.198 A 
ATOM     73  C   UNL A   1      44.054  28.428  36.088  1.00  0.00     0.198 A 
ATOM     74  F   UNL A   1      42.355  29.782  35.225  1.00  0.00    -0.203 F 
ATOM     75  F   UNL A   1      45.875  25.662  34.628  1.00  0.00    -0.200 F 
ATOM     76  C   UNL A   1      44.976  27.403  35.944  1.00  0.00     0.200 A 
ATOM     77  F   UNL A   1      44.018  29.141  37.221  1.00  0.00    -0.200 F 
ATOM     78  F   UNL A   1      45.854  27.146  36.921  1.00  0.00    -0.200 F 
ENDBRANCH  44  68
BRANCH  56  79
ATOM     79  C   UNL A   1      39.821  27.700  28.075  1.00  0.00     0.064 A 
ATOM     80  C   UNL A   1      40.601  28.307  27.083  1.00  0.00     0.173 A 
ATOM     81  C   UNL A   1      39.706  26.301  27.991  1.00  0.00     0.173 A 
ATOM     82  F   UNL A   1      40.830  29.628  27.123  1.00  0.00    -0.203 F 
ATOM     83  C   UNL A   1      41.211  27.558  26.065  1.00  0.00     0.198 A 
ATOM     84  C   UNL A   1      40.294  25.553  26.969  1.00  0.00     0.198 A 
ATOM     85  F   UNL A   1      39.073  25.612  28.936  1.00  0.00    -0.203 F 
ATOM     86  F   UNL A   1      41.981  28.170  25.155  1.00  0.00    -0.200 F 
ATOM     87  C   UNL A   1      41.051  26.182  26.005  1.00  0.00     0.200 A 
ATOM     88  F   UNL A   1      40.152  24.218  26.942  1.00  0.00    -0.200 F 
ATOM     89  F   UNL A   1      41.647  25.467  25.040  1.00  0.00    -0.200 F 
ENDBRANCH  56  79
ENDBRANCH  30  31
ENDBRANCH  23  25
ENDBRANCH  22  23
ENDBRANCH  21  22
ENDBRANCH   1  21
TORSDOF 13
ENDMDL
MODEL 3
REMARK VINA RESULT:     -12.6      7.451     12.944
REMARK SMILES O=C(/C=C/C(=O)N1CCn2c1nc1ccccc12)OCCOC(=O)c1ccc(-c2c3nc(c(-c4c(F)c(F)c(F)c(F)c4F)c4ccc([nH]4)c(-c4c(F)c(F)c(F)c(F)c4F)c4nc(c(-c5c(F)c(F)c(F)c(F)c5F)c5ccc2[nH]5)C=C4)C=C3)cc1
REMARK SMILES IDX 20 1 19 2 2 3 1 4 3 5 4 6 5 7 6 8 7 9 8 10 11 11 9 12 10 13
REMARK SMILES IDX 12 14 18 15 13 16 17 17 14 18 16 19 15 20 21 21 22 22 23 23
REMARK SMILES IDX 24 24 25 25 26 26 87 27 27 28 86 29 28 30 29 31 30 32 80 33
REMARK SMILES IDX 31 34 85 35 79 36 81 37 32 38 84 39 78 40 77 41 33 43 65 44
REMARK SMILES IDX 45 45 64 46 46 47 49 48 63 49 82 50 47 51 48 52 62 54 83 55
REMARK SMILES IDX 50 56 34 57 35 58 43 59 36 60 37 61 41 62 44 63 38 64 39 65
REMARK SMILES IDX 42 66 40 67 66 68 67 69 75 70 68 71 69 72 73 73 76 74 70 75
REMARK SMILES IDX 71 76 74 77 72 78 51 79 52 80 60 81 53 82 54 83 58 84 61 85
REMARK SMILES IDX 55 86 56 87 59 88 57 89
REMARK H PARENT 81 42 49 53
REMARK Flexibility Score: inf
ROOT
ATOM      1  C   UNL A   1      45.675  33.136  26.118  1.00  0.00     0.275 C 
ENDROOT
BRANCH   1   2
ATOM      2  O   UNL A   1      44.830  31.969  25.946  1.00  0.00    -0.459 OA
BRANCH   2   3
ATOM      3  C   UNL A   1      44.281  31.334  27.029  1.00  0.00     0.331 C 
ATOM      4  O   UNL A   1      43.755  31.871  27.964  1.00  0.00    -0.247 OA
BRANCH   3   5
ATOM      5  C   UNL A   1      44.688  29.939  27.013  1.00  0.00     0.099 C 
ATOM      6  C   UNL A   1      45.916  29.455  26.775  1.00  0.00     0.079 C 
BRANCH   6   7
ATOM      7  C   UNL A   1      46.228  28.173  27.468  1.00  0.00     0.253 C 
ATOM      8  O   UNL A   1      46.632  28.207  28.629  1.00  0.00    -0.269 OA
BRANCH   7   9
ATOM      9  N   UNL A   1      45.955  27.012  26.828  1.00  0.00    -0.277 N 
ATOM     10  C   UNL A   1      46.815  26.361  25.855  1.00  0.00     0.151 C 
ATOM     11  C   UNL A   1      44.911  26.203  27.156  1.00  0.00     0.213 A 
ATOM     12  C   UNL A   1      45.929  25.231  25.359  1.00  0.00     0.148 C 
ATOM     13  N   UNL A   1      44.862  25.120  26.360  1.00  0.00    -0.308 N 
ATOM     14  N   UNL A   1      44.073  26.154  28.141  1.00  0.00    -0.212 NA
ATOM     15  C   UNL A   1      43.940  24.276  26.910  1.00  0.00     0.070 A 
ATOM     16  C   UNL A   1      43.676  24.865  28.156  1.00  0.00     0.091 A 
ATOM     17  C   UNL A   1      43.265  23.112  26.596  1.00  0.00     0.028 A 
ATOM     18  C   UNL A   1      43.089  24.159  29.216  1.00  0.00     0.031 A 
ATOM     19  C   UNL A   1      42.682  22.424  27.666  1.00  0.00     0.002 A 
ATOM     20  C   UNL A   1      42.649  22.876  28.973  1.00  0.00     0.002 A 
ENDBRANCH   7   9
ENDBRANCH   6   7
ENDBRANCH   3   5
ENDBRANCH   2   3
ENDBRANCH   1   2
BRANCH   1  21
ATOM     21  C   UNL A   1      45.046  34.520  25.758  1.00  0.00     0.275 C 
BRANCH  21  22
ATOM     22  O   UNL A   1      45.438  35.755  26.467  1.00  0.00    -0.458 OA
BRANCH  22  23
ATOM     23  C   UNL A   1      44.467  36.458  27.143  1.00  0.00     0.338 C 
ATOM     24  O   UNL A   1      44.027  37.537  26.778  1.00  0.00    -0.246 OA
BRANCH  23  25
ATOM     25  C   UNL A   1      43.909  35.750  28.374  1.00  0.00     0.060 A 
ATOM     26  C   UNL A   1      44.611  35.538  29.571  1.00  0.00     0.016 A 
ATOM     27  C   UNL A   1      42.569  35.369  28.403  1.00  0.00     0.016 A 
ATOM     28  C   UNL A   1      44.050  34.763  30.664  1.00  0.00     0.010 A 
ATOM     29  C   UNL A   1      42.019  34.625  29.498  1.00  0.00     0.010 A 
ATOM     30  C   UNL A   1      42.774  34.164  30.600  1.00  0.00    -0.014 A 
BRANCH  30  31
ATOM     31  C   UNL A   1      42.191  33.098  31.608  1.00  0.00     0.031 A 
ATOM     32  C   UNL A   1      40.671  33.111  31.763  1.00  0.00     0.074 A 
ATOM     33  C   UNL A   1      42.744  31.903  32.028  1.00  0.00     0.049 A 
ATOM     34  N   UNL A   1      39.832  32.251  31.240  1.00  0.00    -0.248 NA
ATOM     35  C   UNL A   1      40.005  34.252  32.387  1.00  0.00     0.031 C 
ATOM     36  C   UNL A   1      43.834  31.216  31.373  1.00  0.00     0.029 A 
ATOM     37  N   UNL A   1      42.358  30.899  32.914  1.00  0.00    -0.354 N 
ATOM     38  C   UNL A   1      38.552  32.777  31.344  1.00  0.00     0.074 A 
ATOM     39  C   UNL A   1      38.712  33.986  32.139  1.00  0.00     0.031 C 
ATOM     40  C   UNL A   1      44.097  29.990  31.835  1.00  0.00     0.029 A 
ATOM     41  C   UNL A   1      43.130  29.709  32.871  1.00  0.00     0.049 A 
ATOM     42  H   UNL A   1      41.599  31.008  33.530  1.00  0.00     0.167 HD
ATOM     43  C   UNL A   1      37.420  32.308  30.729  1.00  0.00     0.037 A 
ATOM     44  C   UNL A   1      42.760  28.390  32.866  1.00  0.00     0.037 A 
ATOM     45  C   UNL A   1      37.464  31.283  29.707  1.00  0.00     0.049 A 
ATOM     46  C   UNL A   1      41.478  28.212  32.117  1.00  0.00     0.074 A 
ATOM     47  C   UNL A   1      37.223  31.222  28.340  1.00  0.00     0.029 A 
ATOM     48  N   UNL A   1      37.595  29.946  30.009  1.00  0.00    -0.354 N 
ATOM     49  N   UNL A   1      41.311  27.897  30.853  1.00  0.00    -0.248 NA
ATOM     50  C   UNL A   1      40.323  28.770  32.790  1.00  0.00     0.031 C 
ATOM     51  C   UNL A   1      37.817  29.991  27.880  1.00  0.00     0.029 A 
ATOM     52  C   UNL A   1      38.359  29.375  29.006  1.00  0.00     0.049 A 
ATOM     53  H   UNL A   1      37.217  29.484  30.791  1.00  0.00     0.167 HD
ATOM     54  C   UNL A   1      40.060  28.427  30.509  1.00  0.00     0.074 A 
ATOM     55  C   UNL A   1      39.590  29.054  31.729  1.00  0.00     0.031 C 
ATOM     56  C   UNL A   1      39.478  28.473  29.266  1.00  0.00     0.037 A 
BRANCH  43  57
ATOM     57  C   UNL A   1      36.074  32.827  31.044  1.00  0.00     0.064 A 
ATOM     58  C   UNL A   1      35.592  33.849  30.215  1.00  0.00     0.173 A 
ATOM     59  C   UNL A   1      35.400  32.554  32.236  1.00  0.00     0.173 A 
ATOM     60  F   UNL A   1      36.239  34.144  29.074  1.00  0.00    -0.203 F 
ATOM     61  C   UNL A   1      34.499  34.614  30.587  1.00  0.00     0.198 A 
ATOM     62  C   UNL A   1      34.290  33.316  32.600  1.00  0.00     0.198 A 
ATOM     63  F   UNL A   1      35.845  31.599  33.066  1.00  0.00    -0.203 F 
ATOM     64  F   UNL A   1      34.101  35.628  29.807  1.00  0.00    -0.200 F 
ATOM     65  C   UNL A   1      33.854  34.355  31.786  1.00  0.00     0.200 A 
ATOM     66  F   UNL A   1      33.666  33.074  33.762  1.00  0.00    -0.200 F 
ATOM     67  F   UNL A   1      32.822  35.121  32.165  1.00  0.00    -0.200 F 
ENDBRANCH  43  57
BRANCH  44  68
ATOM     68  C   UNL A   1      43.148  27.708  34.126  1.00  0.00     0.064 A 
ATOM     69  C   UNL A   1      42.284  27.797  35.236  1.00  0.00     0.173 A 
ATOM     70  C   UNL A   1      44.198  26.787  34.213  1.00  0.00     0.173 A 
ATOM     71  F   UNL A   1      41.320  28.731  35.268  1.00  0.00    -0.203 F 
ATOM     72  C   UNL A   1      42.349  26.880  36.281  1.00  0.00     0.198 A 
ATOM     73  C   UNL A   1      44.258  25.865  35.257  1.00  0.00     0.198 A 
ATOM     74  F   UNL A   1      45.134  26.709  33.261  1.00  0.00    -0.203 F 
ATOM     75  F   UNL A   1      41.435  26.921  37.261  1.00  0.00    -0.200 F 
ATOM     76  C   UNL A   1      43.309  25.884  36.266  1.00  0.00     0.200 A 
ATOM     77  F   UNL A   1      45.197  24.909  35.239  1.00  0.00    -0.200 F 
ATOM     78  F   UNL A   1      43.306  24.931  37.205  1.00  0.00    -0.200 F 
ENDBRANCH  44  68
BRANCH  56  79
ATOM     79  C   UNL A   1      40.124  27.712  28.131  1.00  0.00     0.064 A 
ATOM     80  C   UNL A   1      39.871  26.345  27.960  1.00  0.00     0.173 A 
ATOM     81  C   UNL A   1      40.910  28.318  27.133  1.00  0.00     0.173 A 
ATOM     82  F   UNL A   1      39.071  25.698  28.819  1.00  0.00    -0.203 F 
ATOM     83  C   UNL A   1      40.389  25.632  26.868  1.00  0.00     0.198 A 
ATOM     84  C   UNL A   1      41.444  27.608  26.056  1.00  0.00     0.198 A 
ATOM     85  F   UNL A   1      41.128  29.629  27.141  1.00  0.00    -0.203 F 
ATOM     86  F   UNL A   1      40.095  24.333  26.719  1.00  0.00    -0.200 F 
ATOM     87  C   UNL A   1      41.181  26.262  25.921  1.00  0.00     0.200 A 
ATOM     88  F   UNL A   1      42.185  28.240  25.132  1.00  0.00    -0.200 F 
ATOM     89  F   UNL A   1      41.662  25.581  24.870  1.00  0.00    -0.200 F 
ENDBRANCH  56  79
ENDBRANCH  30  31
ENDBRANCH  23  25
ENDBRANCH  22  23
ENDBRANCH  21  22
ENDBRANCH   1  21
TORSDOF 13
ENDMDL
