MODEL 1
REMARK VINA RESULT:     -12.7      0.000      0.000
REMARK SMILES O=C(OCCOC(=O)c1cc(F)cc(-c2cccc(F)c2F)c1)c1ccc(-c2c3nc(c(-c4c(F)c(F)c(F)c(F)c4F)c4ccc([nH]4)c(-c4c(F)c(F)c(F)c(F)c4F)c4nc(c(-c5c(F)c(F)c(F)c(F)c5F)c5ccc2[nH]5)C=C4)C=C3)cc1
REMARK SMILES IDX 4 1 3 2 2 3 1 4 24 5 25 6 86 7 26 8 85 9 27 10 28 11 29 12
REMARK SMILES IDX 79 13 30 14 84 15 78 16 80 17 31 18 83 19 77 20 76 21 32 23
REMARK SMILES IDX 64 24 44 25 63 26 45 27 48 28 62 29 81 30 46 31 47 32 61 34
REMARK SMILES IDX 82 35 49 36 33 37 34 38 42 39 35 40 36 41 40 42 43 43 37 44
REMARK SMILES IDX 38 45 41 46 39 47 65 48 66 49 74 50 67 51 68 52 72 53 75 54
REMARK SMILES IDX 69 55 70 56 73 57 71 58 50 59 51 60 59 61 52 62 53 63 57 64
REMARK SMILES IDX 60 65 54 66 55 67 58 68 56 69 5 70 6 71 7 72 8 73 9 74 10 75
REMARK SMILES IDX 23 76 11 77 14 78 12 79 13 80 15 81 16 82 21 83 17 84 19 85
REMARK SMILES IDX 22 86 18 87 20 88
REMARK H PARENT 80 22 48 33
REMARK Flexibility Score: inf
ROOT
ATOM      1  C   UNL A   1      43.581  21.443  25.482  1.00  0.00     0.275 C 
ENDROOT
BRANCH   1   2
ATOM      2  O   UNL A   1      43.029  22.729  25.171  1.00  0.00    -0.458 OA
BRANCH   2   3
ATOM      3  C   UNL A   1      43.607  23.949  25.219  1.00  0.00     0.338 C 
ATOM      4  O   UNL A   1      44.527  24.190  24.437  1.00  0.00    -0.246 OA
BRANCH   3   5
ATOM      5  C   UNL A   1      43.300  24.986  26.261  1.00  0.00     0.060 A 
ATOM      6  C   UNL A   1      43.682  26.329  26.271  1.00  0.00     0.016 A 
ATOM      7  C   UNL A   1      42.487  24.545  27.316  1.00  0.00     0.016 A 
ATOM      8  C   UNL A   1      43.180  27.223  27.225  1.00  0.00     0.010 A 
ATOM      9  C   UNL A   1      41.950  25.433  28.249  1.00  0.00     0.010 A 
ATOM     10  C   UNL A   1      42.290  26.787  28.203  1.00  0.00    -0.014 A 
BRANCH  10  11
ATOM     11  C   UNL A   1      41.827  27.697  29.274  1.00  0.00     0.031 A 
ATOM     12  C   UNL A   1      42.476  27.580  30.618  1.00  0.00     0.074 A 
ATOM     13  C   UNL A   1      40.846  28.594  29.061  1.00  0.00     0.049 A 
ATOM     14  N   UNL A   1      42.172  28.184  31.734  1.00  0.00    -0.248 NA
ATOM     15  C   UNL A   1      43.640  26.681  30.714  1.00  0.00     0.031 C 
ATOM     16  C   UNL A   1      40.221  28.871  27.771  1.00  0.00     0.029 A 
ATOM     17  N   UNL A   1      40.168  29.410  29.934  1.00  0.00    -0.354 N 
ATOM     18  C   UNL A   1      43.127  27.769  32.647  1.00  0.00     0.074 A 
ATOM     19  C   UNL A   1      43.969  26.796  31.991  1.00  0.00     0.031 C 
ATOM     20  C   UNL A   1      39.180  29.702  27.951  1.00  0.00     0.029 A 
ATOM     21  C   UNL A   1      39.069  30.017  29.368  1.00  0.00     0.049 A 
ATOM     22  H   UNL A   1      40.441  29.547  30.870  1.00  0.00     0.167 HD
ATOM     23  C   UNL A   1      43.314  28.213  33.908  1.00  0.00     0.037 A 
ATOM     24  C   UNL A   1      38.068  30.713  29.940  1.00  0.00     0.037 A 
ATOM     25  C   UNL A   1      42.479  29.196  34.533  1.00  0.00     0.049 A 
ATOM     26  C   UNL A   1      38.185  31.051  31.400  1.00  0.00     0.074 A 
ATOM     27  C   UNL A   1      42.611  29.761  35.787  1.00  0.00     0.029 A 
ATOM     28  N   UNL A   1      41.348  29.753  33.952  1.00  0.00    -0.354 N 
ATOM     29  N   UNL A   1      39.132  30.714  32.242  1.00  0.00    -0.248 NA
ATOM     30  C   UNL A   1      37.138  31.900  31.984  1.00  0.00     0.031 C 
ATOM     31  C   UNL A   1      41.521  30.609  35.992  1.00  0.00     0.029 A 
ATOM     32  C   UNL A   1      40.742  30.618  34.844  1.00  0.00     0.049 A 
ATOM     33  H   UNL A   1      41.027  29.560  33.041  1.00  0.00     0.167 HD
ATOM     34  C   UNL A   1      38.829  31.352  33.434  1.00  0.00     0.074 A 
ATOM     35  C   UNL A   1      37.600  32.085  33.215  1.00  0.00     0.031 C 
ATOM     36  C   UNL A   1      39.525  31.349  34.596  1.00  0.00     0.037 A 
BRANCH  23  37
ATOM     37  C   UNL A   1      44.467  27.657  34.681  1.00  0.00     0.064 A 
ATOM     38  C   UNL A   1      44.297  26.532  35.498  1.00  0.00     0.173 A 
ATOM     39  C   UNL A   1      45.724  28.281  34.666  1.00  0.00     0.173 A 
ATOM     40  F   UNL A   1      43.115  25.898  35.537  1.00  0.00    -0.203 F 
ATOM     41  C   UNL A   1      45.337  26.064  36.294  1.00  0.00     0.198 A 
ATOM     42  C   UNL A   1      46.770  27.795  35.444  1.00  0.00     0.198 A 
ATOM     43  F   UNL A   1      45.941  29.347  33.881  1.00  0.00    -0.203 F 
ATOM     44  F   UNL A   1      45.143  25.006  37.092  1.00  0.00    -0.200 F 
ATOM     45  C   UNL A   1      46.572  26.695  36.266  1.00  0.00     0.200 A 
ATOM     46  F   UNL A   1      47.970  28.389  35.396  1.00  0.00    -0.200 F 
ATOM     47  F   UNL A   1      47.574  26.242  37.032  1.00  0.00    -0.200 F 
ENDBRANCH  23  37
BRANCH  24  48
ATOM     48  C   UNL A   1      36.883  31.120  29.139  1.00  0.00     0.064 A 
ATOM     49  C   UNL A   1      35.903  30.180  28.780  1.00  0.00     0.173 A 
ATOM     50  C   UNL A   1      36.692  32.445  28.727  1.00  0.00     0.173 A 
ATOM     51  F   UNL A   1      36.030  28.900  29.157  1.00  0.00    -0.203 F 
ATOM     52  C   UNL A   1      34.783  30.550  28.035  1.00  0.00     0.198 A 
ATOM     53  C   UNL A   1      35.561  32.818  28.001  1.00  0.00     0.198 A 
ATOM     54  F   UNL A   1      37.587  33.385  29.064  1.00  0.00    -0.203 F 
ATOM     55  F   UNL A   1      33.867  29.633  27.698  1.00  0.00    -0.200 F 
ATOM     56  C   UNL A   1      34.609  31.871  27.652  1.00  0.00     0.200 A 
ATOM     57  F   UNL A   1      35.385  34.101  27.656  1.00  0.00    -0.200 F 
ATOM     58  F   UNL A   1      33.522  32.234  26.957  1.00  0.00    -0.200 F 
ENDBRANCH  24  48
BRANCH  36  59
ATOM     59  C   UNL A   1      39.005  32.177  35.728  1.00  0.00     0.064 A 
ATOM     60  C   UNL A   1      39.429  33.508  35.879  1.00  0.00     0.173 A 
ATOM     61  C   UNL A   1      38.217  31.613  36.738  1.00  0.00     0.173 A 
ATOM     62  F   UNL A   1      40.195  34.083  34.940  1.00  0.00    -0.203 F 
ATOM     63  C   UNL A   1      39.121  34.227  37.028  1.00  0.00     0.198 A 
ATOM     64  C   UNL A   1      37.883  32.348  37.872  1.00  0.00     0.198 A 
ATOM     65  F   UNL A   1      37.778  30.351  36.627  1.00  0.00    -0.203 F 
ATOM     66  F   UNL A   1      39.595  35.471  37.184  1.00  0.00    -0.200 F 
ATOM     67  C   UNL A   1      38.350  33.646  38.024  1.00  0.00     0.200 A 
ATOM     68  F   UNL A   1      37.123  31.793  38.825  1.00  0.00    -0.200 F 
ATOM     69  F   UNL A   1      38.065  34.334  39.137  1.00  0.00    -0.200 F 
ENDBRANCH  36  59
ENDBRANCH  10  11
ENDBRANCH   3   5
ENDBRANCH   2   3
ENDBRANCH   1   2
BRANCH   1  70
ATOM     70  C   UNL A   1      42.606  20.469  26.156  1.00  0.00     0.275 C 
BRANCH  70  71
ATOM     71  O   UNL A   1      41.409  21.082  26.670  1.00  0.00    -0.458 OA
BRANCH  71  72
ATOM     72  C   UNL A   1      40.241  20.648  26.121  1.00  0.00     0.338 C 
ATOM     73  O   UNL A   1      39.985  19.520  25.751  1.00  0.00    -0.246 OA
BRANCH  72  74
ATOM     74  C   UNL A   1      39.260  21.756  26.117  1.00  0.00     0.063 A 
ATOM     75  C   UNL A   1      39.577  22.965  26.733  1.00  0.00     0.055 A 
ATOM     76  C   UNL A   1      38.024  21.594  25.458  1.00  0.00     0.024 A 
ATOM     77  C   UNL A   1      38.643  23.989  26.708  1.00  0.00     0.124 A 
ATOM     78  C   UNL A   1      37.060  22.622  25.468  1.00  0.00    -0.012 A 
ATOM     79  F   UNL A   1      38.953  25.172  27.255  1.00  0.00    -0.207 F 
ATOM     80  C   UNL A   1      37.391  23.818  26.126  1.00  0.00     0.048 A 
BRANCH  78  81
ATOM     81  C   UNL A   1      35.756  22.502  24.786  1.00  0.00     0.021 A 
ATOM     82  C   UNL A   1      35.486  23.127  23.556  1.00  0.00     0.012 A 
ATOM     83  C   UNL A   1      34.738  21.704  25.329  1.00  0.00     0.166 A 
ATOM     84  C   UNL A   1      34.265  22.953  22.890  1.00  0.00     0.004 A 
ATOM     85  C   UNL A   1      33.520  21.537  24.674  1.00  0.00     0.159 A 
ATOM     86  F   UNL A   1      34.932  21.078  26.501  1.00  0.00    -0.203 F 
ATOM     87  C   UNL A   1      33.277  22.154  23.453  1.00  0.00     0.042 A 
ATOM     88  F   UNL A   1      32.570  20.764  25.216  1.00  0.00    -0.204 F 
ENDBRANCH  78  81
ENDBRANCH  72  74
ENDBRANCH  71  72
ENDBRANCH  70  71
ENDBRANCH   1  70
TORSDOF 12
ENDMDL
MODEL 2
REMARK VINA RESULT:     -12.5      0.613      2.074
REMARK SMILES O=C(OCCOC(=O)c1cc(F)cc(-c2cccc(F)c2F)c1)c1ccc(-c2c3nc(c(-c4c(F)c(F)c(F)c(F)c4F)c4ccc([nH]4)c(-c4c(F)c(F)c(F)c(F)c4F)c4nc(c(-c5c(F)c(F)c(F)c(F)c5F)c5ccc2[nH]5)C=C4)C=C3)cc1
REMARK SMILES IDX 4 1 3 2 2 3 1 4 24 5 25 6 86 7 26 8 85 9 27 10 28 11 29 12
REMARK SMILES IDX 79 13 30 14 84 15 78 16 80 17 31 18 83 19 77 20 76 21 32 23
REMARK SMILES IDX 64 24 44 25 63 26 45 27 48 28 62 29 81 30 46 31 47 32 61 34
REMARK SMILES IDX 82 35 49 36 33 37 34 38 42 39 35 40 36 41 40 42 43 43 37 44
REMARK SMILES IDX 38 45 41 46 39 47 65 48 66 49 74 50 67 51 68 52 72 53 75 54
REMARK SMILES IDX 69 55 70 56 73 57 71 58 50 59 51 60 59 61 52 62 53 63 57 64
REMARK SMILES IDX 60 65 54 66 55 67 58 68 56 69 5 70 6 71 7 72 8 73 9 74 10 75
REMARK SMILES IDX 23 76 11 77 14 78 12 79 13 80 15 81 16 82 21 83 17 84 19 85
REMARK SMILES IDX 22 86 18 87 20 88
REMARK H PARENT 80 22 48 33
REMARK Flexibility Score: inf
ROOT
ATOM      1  C   UNL A   1      43.149  20.845  25.581  1.00  0.00     0.275 C 
ENDROOT
BRANCH   1   2
ATOM      2  O   UNL A   1      42.707  22.114  25.080  1.00  0.00    -0.458 OA
BRANCH   2   3
ATOM      3  C   UNL A   1      43.341  23.306  25.074  1.00  0.00     0.338 C 
ATOM      4  O   UNL A   1      44.232  23.489  24.244  1.00  0.00    -0.246 OA
BRANCH   3   5
ATOM      5  C   UNL A   1      43.133  24.376  26.107  1.00  0.00     0.060 A 
ATOM      6  C   UNL A   1      43.645  25.676  26.111  1.00  0.00     0.016 A 
ATOM      7  C   UNL A   1      42.275  24.025  27.161  1.00  0.00     0.016 A 
ATOM      8  C   UNL A   1      43.229  26.621  27.056  1.00  0.00     0.010 A 
ATOM      9  C   UNL A   1      41.824  24.968  28.085  1.00  0.00     0.010 A 
ATOM     10  C   UNL A   1      42.296  26.282  28.032  1.00  0.00    -0.014 A 
BRANCH  10  11
ATOM     11  C   UNL A   1      41.920  27.241  29.094  1.00  0.00     0.031 A 
ATOM     12  C   UNL A   1      42.638  27.149  30.404  1.00  0.00     0.074 A 
ATOM     13  C   UNL A   1      40.955  28.161  28.903  1.00  0.00     0.049 A 
ATOM     14  N   UNL A   1      42.414  27.799  31.513  1.00  0.00    -0.248 NA
ATOM     15  C   UNL A   1      43.779  26.218  30.468  1.00  0.00     0.031 C 
ATOM     16  C   UNL A   1      40.268  28.414  27.640  1.00  0.00     0.029 A 
ATOM     17  N   UNL A   1      40.351  29.026  29.783  1.00  0.00    -0.354 N 
ATOM     18  C   UNL A   1      43.406  27.385  32.387  1.00  0.00     0.074 A 
ATOM     19  C   UNL A   1      44.181  26.366  31.721  1.00  0.00     0.031 C 
ATOM     20  C   UNL A   1      39.264  29.283  27.847  1.00  0.00     0.029 A 
ATOM     21  C   UNL A   1      39.241  29.647  29.256  1.00  0.00     0.049 A 
ATOM     22  H   UNL A   1      40.678  29.185  30.697  1.00  0.00     0.167 HD
ATOM     23  C   UNL A   1      43.675  27.864  33.619  1.00  0.00     0.037 A 
ATOM     24  C   UNL A   1      38.293  30.393  29.857  1.00  0.00     0.037 A 
ATOM     25  C   UNL A   1      42.905  28.894  34.254  1.00  0.00     0.049 A 
ATOM     26  C   UNL A   1      38.500  30.776  31.296  1.00  0.00     0.074 A 
ATOM     27  C   UNL A   1      43.122  29.495  35.479  1.00  0.00     0.029 A 
ATOM     28  N   UNL A   1      41.761  29.466  33.716  1.00  0.00    -0.354 N 
ATOM     29  N   UNL A   1      39.482  30.438  32.097  1.00  0.00    -0.248 NA
ATOM     30  C   UNL A   1      37.513  31.676  31.906  1.00  0.00     0.031 C 
ATOM     31  C   UNL A   1      42.071  30.383  35.712  1.00  0.00     0.029 A 
ATOM     32  C   UNL A   1      41.230  30.378  34.609  1.00  0.00     0.049 A 
ATOM     33  H   UNL A   1      41.384  29.253  32.831  1.00  0.00     0.167 HD
ATOM     34  C   UNL A   1      39.265  31.125  33.281  1.00  0.00     0.074 A 
ATOM     35  C   UNL A   1      38.047  31.887  33.103  1.00  0.00     0.031 C 
ATOM     36  C   UNL A   1      40.023  31.138  34.402  1.00  0.00     0.037 A 
BRANCH  23  37
ATOM     37  C   UNL A   1      44.852  27.300  34.347  1.00  0.00     0.064 A 
ATOM     38  C   UNL A   1      46.128  27.849  34.166  1.00  0.00     0.173 A 
ATOM     39  C   UNL A   1      44.728  26.170  35.171  1.00  0.00     0.173 A 
ATOM     40  F   UNL A   1      46.293  28.934  33.395  1.00  0.00    -0.203 F 
ATOM     41  C   UNL A   1      47.244  27.273  34.764  1.00  0.00     0.198 A 
ATOM     42  C   UNL A   1      45.843  25.612  35.788  1.00  0.00     0.198 A 
ATOM     43  F   UNL A   1      43.523  25.624  35.394  1.00  0.00    -0.203 F 
ATOM     44  F   UNL A   1      48.459  27.795  34.552  1.00  0.00    -0.200 F 
ATOM     45  C   UNL A   1      47.101  26.156  35.574  1.00  0.00     0.200 A 
ATOM     46  F   UNL A   1      45.700  24.549  36.592  1.00  0.00    -0.200 F 
ATOM     47  F   UNL A   1      48.177  25.604  36.151  1.00  0.00    -0.200 F 
ENDBRANCH  23  37
BRANCH  24  48
ATOM     48  C   UNL A   1      37.078  30.810  29.108  1.00  0.00     0.064 A 
ATOM     49  C   UNL A   1      36.904  32.146  28.710  1.00  0.00     0.173 A 
ATOM     50  C   UNL A   1      36.076  29.895  28.761  1.00  0.00     0.173 A 
ATOM     51  F   UNL A   1      37.838  33.062  29.006  1.00  0.00    -0.203 F 
ATOM     52  C   UNL A   1      35.773  32.549  28.001  1.00  0.00     0.198 A 
ATOM     53  C   UNL A   1      34.956  30.295  28.032  1.00  0.00     0.198 A 
ATOM     54  F   UNL A   1      36.204  28.603  29.098  1.00  0.00    -0.203 F 
ATOM     55  F   UNL A   1      35.628  33.831  27.640  1.00  0.00    -0.200 F 
ATOM     56  C   UNL A   1      34.802  31.621  27.656  1.00  0.00     0.200 A 
ATOM     57  F   UNL A   1      34.033  29.390  27.679  1.00  0.00    -0.200 F 
ATOM     58  F   UNL A   1      33.726  32.001  26.953  1.00  0.00    -0.200 F 
ENDBRANCH  24  48
BRANCH  36  59
ATOM     59  C   UNL A   1      39.591  32.020  35.531  1.00  0.00     0.064 A 
ATOM     60  C   UNL A   1      38.610  31.577  36.434  1.00  0.00     0.173 A 
ATOM     61  C   UNL A   1      40.031  33.345  35.626  1.00  0.00     0.173 A 
ATOM     62  F   UNL A   1      38.152  30.318  36.370  1.00  0.00    -0.203 F 
ATOM     63  C   UNL A   1      38.051  32.449  37.361  1.00  0.00     0.198 A 
ATOM     64  C   UNL A   1      39.492  34.205  36.578  1.00  0.00     0.198 A 
ATOM     65  F   UNL A   1      40.977  33.804  34.794  1.00  0.00    -0.203 F 
ATOM     66  F   UNL A   1      37.066  32.026  38.166  1.00  0.00    -0.200 F 
ATOM     67  C   UNL A   1      38.491  33.762  37.431  1.00  0.00     0.200 A 
ATOM     68  F   UNL A   1      39.931  35.469  36.658  1.00  0.00    -0.200 F 
ATOM     69  F   UNL A   1      37.942  34.606  38.315  1.00  0.00    -0.200 F 
ENDBRANCH  36  59
ENDBRANCH  10  11
ENDBRANCH   3   5
ENDBRANCH   2   3
ENDBRANCH   1   2
BRANCH   1  70
ATOM     70  C   UNL A   1      42.042  19.968  26.180  1.00  0.00     0.275 C 
BRANCH  70  71
ATOM     71  O   UNL A   1      40.847  20.681  26.545  1.00  0.00    -0.458 OA
BRANCH  71  72
ATOM     72  C   UNL A   1      39.725  20.349  25.848  1.00  0.00     0.338 C 
ATOM     73  O   UNL A   1      39.454  19.264  25.377  1.00  0.00    -0.246 OA
BRANCH  72  74
ATOM     74  C   UNL A   1      38.807  21.510  25.816  1.00  0.00     0.063 A 
ATOM     75  C   UNL A   1      39.192  22.715  26.401  1.00  0.00     0.055 A 
ATOM     76  C   UNL A   1      37.562  21.399  25.163  1.00  0.00     0.024 A 
ATOM     77  C   UNL A   1      38.315  23.788  26.351  1.00  0.00     0.124 A 
ATOM     78  C   UNL A   1      36.657  22.479  25.148  1.00  0.00    -0.012 A 
ATOM     79  F   UNL A   1      38.692  24.965  26.867  1.00  0.00    -0.207 F 
ATOM     80  C   UNL A   1      37.054  23.672  25.775  1.00  0.00     0.048 A 
BRANCH  78  81
ATOM     81  C   UNL A   1      35.346  22.414  24.472  1.00  0.00     0.021 A 
ATOM     82  C   UNL A   1      35.030  23.213  23.358  1.00  0.00     0.012 A 
ATOM     83  C   UNL A   1      34.369  21.501  24.895  1.00  0.00     0.166 A 
ATOM     84  C   UNL A   1      33.805  23.095  22.687  1.00  0.00     0.004 A 
ATOM     85  C   UNL A   1      33.146  21.389  24.236  1.00  0.00     0.159 A 
ATOM     86  F   UNL A   1      34.607  20.708  25.952  1.00  0.00    -0.203 F 
ATOM     87  C   UNL A   1      32.858  22.178  23.129  1.00  0.00     0.042 A 
ATOM     88  F   UNL A   1      32.236  20.503  24.661  1.00  0.00    -0.204 F 
ENDBRANCH  78  81
ENDBRANCH  72  74
ENDBRANCH  71  72
ENDBRANCH  70  71
ENDBRANCH   1  70
TORSDOF 12
ENDMDL
MODEL 3
REMARK VINA RESULT:     -12.4      4.805     11.112
REMARK SMILES O=C(OCCOC(=O)c1cc(F)cc(-c2cccc(F)c2F)c1)c1ccc(-c2c3nc(c(-c4c(F)c(F)c(F)c(F)c4F)c4ccc([nH]4)c(-c4c(F)c(F)c(F)c(F)c4F)c4nc(c(-c5c(F)c(F)c(F)c(F)c5F)c5ccc2[nH]5)C=C4)C=C3)cc1
REMARK SMILES IDX 4 1 3 2 2 3 1 4 24 5 25 6 86 7 26 8 85 9 27 10 28 11 29 12
REMARK SMILES IDX 79 13 30 14 84 15 78 16 80 17 31 18 83 19 77 20 76 21 32 23
REMARK SMILES IDX 64 24 44 25 63 26 45 27 48 28 62 29 81 30 46 31 47 32 61 34
REMARK SMILES IDX 82 35 49 36 33 37 34 38 42 39 35 40 36 41 40 42 43 43 37 44
REMARK SMILES IDX 38 45 41 46 39 47 65 48 66 49 74 50 67 51 68 52 72 53 75 54
REMARK SMILES IDX 69 55 70 56 73 57 71 58 50 59 51 60 59 61 52 62 53 63 57 64
REMARK SMILES IDX 60 65 54 66 55 67 58 68 56 69 5 70 6 71 7 72 8 73 9 74 10 75
REMARK SMILES IDX 23 76 11 77 14 78 12 79 13 80 15 81 16 82 21 83 17 84 19 85
REMARK SMILES IDX 22 86 18 87 20 88
REMARK H PARENT 80 22 48 33
REMARK Flexibility Score: inf
ROOT
ATOM      1  C   UNL A   1      34.088  32.760  28.093  1.00  0.00     0.275 C 
ENDROOT
BRANCH   1   2
ATOM      2  O   UNL A   1      33.599  31.486  27.652  1.00  0.00    -0.458 OA
BRANCH   2   3
ATOM      3  C   UNL A   1      34.225  30.290  27.617  1.00  0.00     0.338 C 
ATOM      4  O   UNL A   1      33.596  29.314  27.206  1.00  0.00    -0.246 OA
BRANCH   3   5
ATOM      5  C   UNL A   1      35.594  30.038  28.181  1.00  0.00     0.060 A 
ATOM      6  C   UNL A   1      35.931  29.697  29.494  1.00  0.00     0.016 A 
ATOM      7  C   UNL A   1      36.642  30.107  27.251  1.00  0.00     0.016 A 
ATOM      8  C   UNL A   1      37.235  29.327  29.839  1.00  0.00     0.010 A 
ATOM      9  C   UNL A   1      37.937  29.703  27.574  1.00  0.00     0.010 A 
ATOM     10  C   UNL A   1      38.241  29.300  28.877  1.00  0.00    -0.014 A 
BRANCH  10  11
ATOM     11  C   UNL A   1      39.643  29.003  29.245  1.00  0.00     0.031 A 
ATOM     12  C   UNL A   1      40.447  30.100  29.871  1.00  0.00     0.074 A 
ATOM     13  C   UNL A   1      40.190  27.795  29.018  1.00  0.00     0.049 A 
ATOM     14  N   UNL A   1      41.715  30.119  30.179  1.00  0.00    -0.248 NA
ATOM     15  C   UNL A   1      39.722  31.335  30.221  1.00  0.00     0.031 C 
ATOM     16  C   UNL A   1      39.475  26.624  28.518  1.00  0.00     0.029 A 
ATOM     17  N   UNL A   1      41.489  27.359  29.134  1.00  0.00    -0.354 N 
ATOM     18  C   UNL A   1      41.926  31.343  30.791  1.00  0.00     0.074 A 
ATOM     19  C   UNL A   1      40.687  32.081  30.735  1.00  0.00     0.031 C 
ATOM     20  C   UNL A   1      40.355  25.642  28.261  1.00  0.00     0.029 A 
ATOM     21  C   UNL A   1      41.694  26.114  28.582  1.00  0.00     0.049 A 
ATOM     22  H   UNL A   1      42.199  27.884  29.567  1.00  0.00     0.167 HD
ATOM     23  C   UNL A   1      43.049  31.782  31.397  1.00  0.00     0.037 A 
ATOM     24  C   UNL A   1      42.840  25.452  28.330  1.00  0.00     0.037 A 
ATOM     25  C   UNL A   1      44.264  31.023  31.460  1.00  0.00     0.049 A 
ATOM     26  C   UNL A   1      44.124  26.038  28.847  1.00  0.00     0.074 A 
ATOM     27  C   UNL A   1      45.445  31.347  32.098  1.00  0.00     0.029 A 
ATOM     28  N   UNL A   1      44.454  29.790  30.851  1.00  0.00    -0.354 N 
ATOM     29  N   UNL A   1      44.306  27.166  29.490  1.00  0.00    -0.248 NA
ATOM     30  C   UNL A   1      45.351  25.253  28.657  1.00  0.00     0.031 C 
ATOM     31  C   UNL A   1      46.373  30.342  31.819  1.00  0.00     0.029 A 
ATOM     32  C   UNL A   1      45.753  29.364  31.055  1.00  0.00     0.049 A 
ATOM     33  H   UNL A   1      43.766  29.295  30.348  1.00  0.00     0.167 HD
ATOM     34  C   UNL A   1      45.648  27.201  29.832  1.00  0.00     0.074 A 
ATOM     35  C   UNL A   1      46.243  25.988  29.309  1.00  0.00     0.031 C 
ATOM     36  C   UNL A   1      46.318  28.143  30.536  1.00  0.00     0.037 A 
BRANCH  23  37
ATOM     37  C   UNL A   1      43.010  33.125  32.053  1.00  0.00     0.064 A 
ATOM     38  C   UNL A   1      42.489  33.268  33.346  1.00  0.00     0.173 A 
ATOM     39  C   UNL A   1      43.425  34.281  31.375  1.00  0.00     0.173 A 
ATOM     40  F   UNL A   1      42.088  32.189  34.035  1.00  0.00    -0.203 F 
ATOM     41  C   UNL A   1      42.360  34.524  33.928  1.00  0.00     0.198 A 
ATOM     42  C   UNL A   1      43.318  35.534  31.970  1.00  0.00     0.198 A 
ATOM     43  F   UNL A   1      43.952  34.191  30.144  1.00  0.00    -0.203 F 
ATOM     44  F   UNL A   1      41.830  34.641  35.152  1.00  0.00    -0.200 F 
ATOM     45  C   UNL A   1      42.775  35.655  33.241  1.00  0.00     0.200 A 
ATOM     46  F   UNL A   1      43.744  36.623  31.316  1.00  0.00    -0.200 F 
ATOM     47  F   UNL A   1      42.653  36.865  33.804  1.00  0.00    -0.200 F 
ENDBRANCH  23  37
BRANCH  24  48
ATOM     48  C   UNL A   1      42.820  24.184  27.553  1.00  0.00     0.064 A 
ATOM     49  C   UNL A   1      42.534  22.962  28.184  1.00  0.00     0.173 A 
ATOM     50  C   UNL A   1      43.069  24.160  26.175  1.00  0.00     0.173 A 
ATOM     51  F   UNL A   1      42.277  22.929  29.500  1.00  0.00    -0.203 F 
ATOM     52  C   UNL A   1      42.505  21.766  27.466  1.00  0.00     0.198 A 
ATOM     53  C   UNL A   1      43.017  22.967  25.455  1.00  0.00     0.198 A 
ATOM     54  F   UNL A   1      43.324  25.303  25.522  1.00  0.00    -0.203 F 
ATOM     55  F   UNL A   1      42.237  20.613  28.093  1.00  0.00    -0.200 F 
ATOM     56  C   UNL A   1      42.739  21.771  26.100  1.00  0.00     0.200 A 
ATOM     57  F   UNL A   1      43.220  22.980  24.130  1.00  0.00    -0.200 F 
ATOM     58  F   UNL A   1      42.688  20.627  25.403  1.00  0.00    -0.200 F 
ENDBRANCH  24  48
BRANCH  36  59
ATOM     59  C   UNL A   1      47.768  27.909  30.820  1.00  0.00     0.064 A 
ATOM     60  C   UNL A   1      48.742  28.329  29.899  1.00  0.00     0.173 A 
ATOM     61  C   UNL A   1      48.179  27.142  31.917  1.00  0.00     0.173 A 
ATOM     62  F   UNL A   1      48.390  29.056  28.828  1.00  0.00    -0.203 F 
ATOM     63  C   UNL A   1      50.070  27.945  30.043  1.00  0.00     0.198 A 
ATOM     64  C   UNL A   1      49.515  26.788  32.075  1.00  0.00     0.198 A 
ATOM     65  F   UNL A   1      47.284  26.734  32.828  1.00  0.00    -0.203 F 
ATOM     66  F   UNL A   1      50.971  28.296  29.115  1.00  0.00    -0.200 F 
ATOM     67  C   UNL A   1      50.455  27.173  31.129  1.00  0.00     0.200 A 
ATOM     68  F   UNL A   1      49.890  26.059  33.135  1.00  0.00    -0.200 F 
ATOM     69  F   UNL A   1      51.732  26.792  31.261  1.00  0.00    -0.200 F 
ENDBRANCH  36  59
ENDBRANCH  10  11
ENDBRANCH   3   5
ENDBRANCH   2   3
ENDBRANCH   1   2
BRANCH   1  70
ATOM     70  C   UNL A   1      33.071  33.906  28.001  1.00  0.00     0.275 C 
BRANCH  70  71
ATOM     71  O   UNL A   1      32.630  34.417  29.271  1.00  0.00    -0.458 OA
BRANCH  71  72
ATOM     72  C   UNL A   1      33.057  35.672  29.584  1.00  0.00     0.338 C 
ATOM     73  O   UNL A   1      32.872  36.686  28.942  1.00  0.00    -0.246 OA
BRANCH  72  74
ATOM     74  C   UNL A   1      33.725  35.647  30.904  1.00  0.00     0.063 A 
ATOM     75  C   UNL A   1      33.376  36.581  31.876  1.00  0.00     0.055 A 
ATOM     76  C   UNL A   1      34.687  34.654  31.182  1.00  0.00     0.024 A 
ATOM     77  C   UNL A   1      34.013  36.531  33.107  1.00  0.00     0.124 A 
ATOM     78  C   UNL A   1      35.361  34.628  32.419  1.00  0.00    -0.012 A 
ATOM     79  F   UNL A   1      33.652  37.393  34.066  1.00  0.00    -0.207 F 
ATOM     80  C   UNL A   1      35.015  35.603  33.370  1.00  0.00     0.048 A 
BRANCH  78  81
ATOM     81  C   UNL A   1      36.369  33.604  32.759  1.00  0.00     0.021 A 
ATOM     82  C   UNL A   1      37.640  33.935  33.264  1.00  0.00     0.012 A 
ATOM     83  C   UNL A   1      36.071  32.239  32.635  1.00  0.00     0.166 A 
ATOM     84  C   UNL A   1      38.564  32.950  33.642  1.00  0.00     0.004 A 
ATOM     85  C   UNL A   1      36.991  31.259  33.001  1.00  0.00     0.159 A 
ATOM     86  F   UNL A   1      34.875  31.857  32.161  1.00  0.00    -0.203 F 
ATOM     87  C   UNL A   1      38.237  31.606  33.508  1.00  0.00     0.042 A 
ATOM     88  F   UNL A   1      36.674  29.964  32.875  1.00  0.00    -0.204 F 
ENDBRANCH  78  81
ENDBRANCH  72  74
ENDBRANCH  71  72
ENDBRANCH  70  71
ENDBRANCH   1  70
TORSDOF 12
ENDMDL
