MODEL 1
REMARK VINA RESULT:     -12.2      0.000      0.000
REMARK SMILES O=C(OCCOC(=O)c1ccc(-c2c3nc(c(-c4c(F)c(F)c(F)c(F)c4F)c4ccc([nH]4)c(-c4c(F)c(F)c(F)c(F)c4F)c4nc(c(-c5c(F)c(F)c(F)c(F)c5F)c5ccc2[nH]5)C=C4)C=C3)cc1)c1ccc(NC(=S)NC(=O)C(Cl)(Cl)Cl)cc1
REMARK SMILES IDX 4 1 3 2 2 3 1 4 72 5 73 6 87 7 74 8 86 9 75 10 76 11 77 13
REMARK SMILES IDX 78 14 79 15 80 16 81 18 82 19 83 20 84 21 85 22 5 23 6 24
REMARK SMILES IDX 7 25 8 26 9 27 10 28 71 29 11 30 70 31 12 32 13 33 14 34
REMARK SMILES IDX 64 35 15 36 69 37 63 38 65 39 16 40 68 41 62 42 61 43 17 45
REMARK SMILES IDX 49 46 29 47 48 48 30 49 33 50 47 51 66 52 31 53 32 54 46 56
REMARK SMILES IDX 67 57 34 58 18 59 19 60 27 61 20 62 21 63 25 64 28 65 22 66
REMARK SMILES IDX 23 67 26 68 24 69 50 70 51 71 59 72 52 73 53 74 57 75 60 76
REMARK SMILES IDX 54 77 55 78 58 79 56 80 35 81 36 82 44 83 37 84 38 85 42 86
REMARK SMILES IDX 45 87 39 88 40 89 43 90 41 91
REMARK H PARENT 76 12 79 17 65 44 33 55
REMARK Flexibility Score: inf
ROOT
ATOM      1  C   UNL A   1      32.345  29.782  25.441  1.00  0.00     0.275 C 
ENDROOT
BRANCH   1   2
ATOM      2  O   UNL A   1      31.503  28.607  25.538  1.00  0.00    -0.458 OA
BRANCH   2   3
ATOM      3  C   UNL A   1      31.564  27.607  26.452  1.00  0.00     0.338 C 
ATOM      4  O   UNL A   1      31.366  27.856  27.640  1.00  0.00    -0.246 OA
BRANCH   3   5
ATOM      5  C   UNL A   1      31.940  26.207  26.084  1.00  0.00     0.060 A 
ATOM      6  C   UNL A   1      31.057  25.135  26.127  1.00  0.00     0.018 A 
ATOM      7  C   UNL A   1      33.208  25.958  25.549  1.00  0.00     0.018 A 
ATOM      8  C   UNL A   1      31.407  23.848  25.731  1.00  0.00     0.027 A 
ATOM      9  C   UNL A   1      33.591  24.653  25.204  1.00  0.00     0.027 A 
ATOM     10  C   UNL A   1      32.707  23.581  25.378  1.00  0.00     0.040 A 
BRANCH  10  11
ATOM     11  N   UNL A   1      33.160  22.282  25.160  1.00  0.00    -0.332 N 
ATOM     12  H   UNL A   1      32.864  21.909  24.298  1.00  0.00     0.169 HD
BRANCH  11  13
ATOM     13  C   UNL A   1      33.911  21.431  25.869  1.00  0.00     0.177 C 
ATOM     14  S   UNL A   1      34.037  21.743  27.515  1.00  0.00    -0.040 S 
BRANCH  13  15
ATOM     15  N   UNL A   1      34.583  20.311  25.430  1.00  0.00    -0.299 N 
ATOM     16  C   UNL A   1      34.671  19.082  24.753  1.00  0.00     0.278 C 
ATOM     17  H   UNL A   1      35.494  20.443  25.779  1.00  0.00     0.172 HD
ATOM     18  O   UNL A   1      35.853  18.707  24.626  1.00  0.00    -0.270 OA
BRANCH  16  19
ATOM     19  C   UNL A   1      33.527  18.215  24.195  1.00  0.00     0.269 C 
ATOM     20  Cl  UNL A   1      34.014  16.922  23.108  1.00  0.00    -0.073 Cl
ATOM     21  Cl  UNL A   1      32.536  17.645  25.576  1.00  0.00    -0.073 Cl
ATOM     22  Cl  UNL A   1      32.438  19.302  23.236  1.00  0.00    -0.073 Cl
ENDBRANCH  16  19
ENDBRANCH  13  15
ENDBRANCH  11  13
ENDBRANCH  10  11
ENDBRANCH   3   5
ENDBRANCH   2   3
ENDBRANCH   1   2
BRANCH   1  23
ATOM     23  C   UNL A   1      31.808  30.917  26.339  1.00  0.00     0.275 C 
BRANCH  23  24
ATOM     24  O   UNL A   1      32.583  31.037  27.550  1.00  0.00    -0.458 OA
BRANCH  24  25
ATOM     25  C   UNL A   1      33.375  32.141  27.627  1.00  0.00     0.338 C 
ATOM     26  O   UNL A   1      32.999  33.294  27.598  1.00  0.00    -0.246 OA
BRANCH  25  27
ATOM     27  C   UNL A   1      34.770  31.738  27.982  1.00  0.00     0.060 A 
ATOM     28  C   UNL A   1      35.022  30.369  28.121  1.00  0.00     0.016 A 
ATOM     29  C   UNL A   1      35.830  32.645  28.107  1.00  0.00     0.016 A 
ATOM     30  C   UNL A   1      36.300  29.912  28.460  1.00  0.00     0.010 A 
ATOM     31  C   UNL A   1      37.125  32.179  28.392  1.00  0.00     0.010 A 
ATOM     32  C   UNL A   1      37.357  30.815  28.643  1.00  0.00    -0.014 A 
BRANCH  32  33
ATOM     33  C   UNL A   1      38.604  30.340  29.316  1.00  0.00     0.031 A 
ATOM     34  C   UNL A   1      38.848  30.747  30.751  1.00  0.00     0.074 A 
ATOM     35  C   UNL A   1      39.464  29.483  28.730  1.00  0.00     0.049 A 
ATOM     36  N   UNL A   1      39.754  30.321  31.599  1.00  0.00    -0.248 NA
ATOM     37  C   UNL A   1      37.957  31.778  31.305  1.00  0.00     0.031 C 
ATOM     38  C   UNL A   1      39.386  29.002  27.352  1.00  0.00     0.029 A 
ATOM     39  N   UNL A   1      40.572  28.845  29.244  1.00  0.00    -0.354 N 
ATOM     40  C   UNL A   1      39.526  31.020  32.777  1.00  0.00     0.074 A 
ATOM     41  C   UNL A   1      38.457  31.955  32.516  1.00  0.00     0.031 C 
ATOM     42  C   UNL A   1      40.386  28.126  27.138  1.00  0.00     0.029 A 
ATOM     43  C   UNL A   1      41.175  27.980  28.362  1.00  0.00     0.049 A 
ATOM     44  H   UNL A   1      40.902  28.995  30.159  1.00  0.00     0.167 HD
ATOM     45  C   UNL A   1      40.117  30.878  33.987  1.00  0.00     0.037 A 
ATOM     46  C   UNL A   1      42.224  27.147  28.531  1.00  0.00     0.037 A 
ATOM     47  C   UNL A   1      41.169  29.947  34.281  1.00  0.00     0.049 A 
ATOM     48  C   UNL A   1      42.895  27.030  29.881  1.00  0.00     0.074 A 
ATOM     49  C   UNL A   1      41.796  29.708  35.492  1.00  0.00     0.029 A 
ATOM     50  N   UNL A   1      41.758  29.107  33.352  1.00  0.00    -0.354 N 
ATOM     51  N   UNL A   1      42.598  27.621  31.012  1.00  0.00    -0.248 NA
ATOM     52  C   UNL A   1      44.035  26.104  29.976  1.00  0.00     0.031 C 
ATOM     53  C   UNL A   1      42.798  28.755  35.285  1.00  0.00     0.029 A 
ATOM     54  C   UNL A   1      42.758  28.362  33.957  1.00  0.00     0.049 A 
ATOM     55  H   UNL A   1      41.504  29.045  32.402  1.00  0.00     0.167 HD
ATOM     56  C   UNL A   1      43.475  27.099  31.959  1.00  0.00     0.074 A 
ATOM     57  C   UNL A   1      44.315  26.143  31.272  1.00  0.00     0.031 C 
ATOM     58  C   UNL A   1      43.569  27.385  33.281  1.00  0.00     0.037 A 
BRANCH  45  59
ATOM     59  C   UNL A   1      39.622  31.761  35.094  1.00  0.00     0.064 A 
ATOM     60  C   UNL A   1      38.667  31.311  36.019  1.00  0.00     0.173 A 
ATOM     61  C   UNL A   1      40.110  33.068  35.235  1.00  0.00     0.173 A 
ATOM     62  F   UNL A   1      38.155  30.075  35.914  1.00  0.00    -0.203 F 
ATOM     63  C   UNL A   1      38.191  32.151  37.022  1.00  0.00     0.198 A 
ATOM     64  C   UNL A   1      39.656  33.893  36.260  1.00  0.00     0.198 A 
ATOM     65  F   UNL A   1      41.025  33.544  34.378  1.00  0.00    -0.203 F 
ATOM     66  F   UNL A   1      37.233  31.720  37.856  1.00  0.00    -0.200 F 
ATOM     67  C   UNL A   1      38.690  33.438  37.146  1.00  0.00     0.200 A 
ATOM     68  F   UNL A   1      40.146  35.135  36.384  1.00  0.00    -0.200 F 
ATOM     69  F   UNL A   1      38.232  34.246  38.111  1.00  0.00    -0.200 F 
ENDBRANCH  45  59
BRANCH  46  70
ATOM     70  C   UNL A   1      42.703  26.301  27.402  1.00  0.00     0.064 A 
ATOM     71  C   UNL A   1      42.174  25.019  27.185  1.00  0.00     0.173 A 
ATOM     72  C   UNL A   1      43.747  26.724  26.568  1.00  0.00     0.173 A 
ATOM     73  F   UNL A   1      41.196  24.556  27.976  1.00  0.00    -0.203 F 
ATOM     74  C   UNL A   1      42.694  24.182  26.199  1.00  0.00     0.198 A 
ATOM     75  C   UNL A   1      44.248  25.896  25.565  1.00  0.00     0.198 A 
ATOM     76  F   UNL A   1      44.292  27.938  26.738  1.00  0.00    -0.203 F 
ATOM     77  F   UNL A   1      42.213  22.939  26.057  1.00  0.00    -0.200 F 
ATOM     78  C   UNL A   1      43.730  24.622  25.389  1.00  0.00     0.200 A 
ATOM     79  F   UNL A   1      45.246  26.326  24.781  1.00  0.00    -0.200 F 
ATOM     80  F   UNL A   1      44.238  23.813  24.450  1.00  0.00    -0.200 F 
ENDBRANCH  46  70
BRANCH  58  81
ATOM     81  C   UNL A   1      44.564  26.612  34.102  1.00  0.00     0.064 A 
ATOM     82  C   UNL A   1      44.243  25.385  34.701  1.00  0.00     0.173 A 
ATOM     83  C   UNL A   1      45.879  27.087  34.247  1.00  0.00     0.173 A 
ATOM     84  F   UNL A   1      43.001  24.891  34.601  1.00  0.00    -0.203 F 
ATOM     85  C   UNL A   1      45.190  24.678  35.438  1.00  0.00     0.198 A 
ATOM     86  C   UNL A   1      46.830  26.361  34.958  1.00  0.00     0.198 A 
ATOM     87  F   UNL A   1      46.244  28.249  33.686  1.00  0.00    -0.203 F 
ATOM     88  F   UNL A   1      44.846  23.531  36.042  1.00  0.00    -0.200 F 
ATOM     89  C   UNL A   1      46.485  25.162  35.560  1.00  0.00     0.200 A 
ATOM     90  F   UNL A   1      48.086  26.822  35.058  1.00  0.00    -0.200 F 
ATOM     91  F   UNL A   1      47.395  24.474  36.262  1.00  0.00    -0.200 F 
ENDBRANCH  58  81
ENDBRANCH  32  33
ENDBRANCH  25  27
ENDBRANCH  24  25
ENDBRANCH  23  24
ENDBRANCH   1  23
TORSDOF 15
ENDMDL
MODEL 2
REMARK VINA RESULT:     -12.2      4.415     10.043
REMARK SMILES O=C(OCCOC(=O)c1ccc(-c2c3nc(c(-c4c(F)c(F)c(F)c(F)c4F)c4ccc([nH]4)c(-c4c(F)c(F)c(F)c(F)c4F)c4nc(c(-c5c(F)c(F)c(F)c(F)c5F)c5ccc2[nH]5)C=C4)C=C3)cc1)c1ccc(NC(=S)NC(=O)C(Cl)(Cl)Cl)cc1
REMARK SMILES IDX 4 1 3 2 2 3 1 4 72 5 73 6 87 7 74 8 86 9 75 10 76 11 77 13
REMARK SMILES IDX 78 14 79 15 80 16 81 18 82 19 83 20 84 21 85 22 5 23 6 24
REMARK SMILES IDX 7 25 8 26 9 27 10 28 71 29 11 30 70 31 12 32 13 33 14 34
REMARK SMILES IDX 64 35 15 36 69 37 63 38 65 39 16 40 68 41 62 42 61 43 17 45
REMARK SMILES IDX 49 46 29 47 48 48 30 49 33 50 47 51 66 52 31 53 32 54 46 56
REMARK SMILES IDX 67 57 34 58 18 59 19 60 27 61 20 62 21 63 25 64 28 65 22 66
REMARK SMILES IDX 23 67 26 68 24 69 50 70 51 71 59 72 52 73 53 74 57 75 60 76
REMARK SMILES IDX 54 77 55 78 58 79 56 80 35 81 36 82 44 83 37 84 38 85 42 86
REMARK SMILES IDX 45 87 39 88 40 89 43 90 41 91
REMARK H PARENT 76 12 79 17 65 44 33 55
REMARK Flexibility Score: inf
ROOT
ATOM      1  C   UNL A   1      35.748  21.012  25.294  1.00  0.00     0.275 C 
ENDROOT
BRANCH   1   2
ATOM      2  O   UNL A   1      34.824  20.116  24.629  1.00  0.00    -0.458 OA
BRANCH   2   3
ATOM      3  C   UNL A   1      33.473  20.079  24.735  1.00  0.00     0.338 C 
ATOM      4  O   UNL A   1      32.907  19.004  24.929  1.00  0.00    -0.246 OA
BRANCH   3   5
ATOM      5  C   UNL A   1      32.620  21.294  24.548  1.00  0.00     0.060 A 
ATOM      6  C   UNL A   1      31.769  21.796  25.524  1.00  0.00     0.018 A 
ATOM      7  C   UNL A   1      32.758  22.053  23.381  1.00  0.00     0.018 A 
ATOM      8  C   UNL A   1      31.022  22.958  25.356  1.00  0.00     0.027 A 
ATOM      9  C   UNL A   1      31.964  23.192  23.175  1.00  0.00     0.027 A 
ATOM     10  C   UNL A   1      31.031  23.594  24.139  1.00  0.00     0.040 A 
BRANCH  10  11
ATOM     11  N   UNL A   1      30.162  24.642  23.849  1.00  0.00    -0.332 N 
ATOM     12  H   UNL A   1      29.650  24.502  23.020  1.00  0.00     0.169 HD
BRANCH  11  13
ATOM     13  C   UNL A   1      29.872  25.801  24.453  1.00  0.00     0.177 C 
ATOM     14  S   UNL A   1      28.551  26.646  23.849  1.00  0.00    -0.040 S 
BRANCH  13  15
ATOM     15  N   UNL A   1      30.505  26.388  25.527  1.00  0.00    -0.299 N 
ATOM     16  C   UNL A   1      31.620  26.938  26.184  1.00  0.00     0.278 C 
ATOM     17  H   UNL A   1      29.788  26.463  26.198  1.00  0.00     0.172 HD
ATOM     18  O   UNL A   1      31.297  27.515  27.240  1.00  0.00    -0.270 OA
BRANCH  16  19
ATOM     19  C   UNL A   1      33.097  26.896  25.753  1.00  0.00     0.269 C 
ATOM     20  Cl  UNL A   1      33.928  25.372  26.033  1.00  0.00    -0.073 Cl
ATOM     21  Cl  UNL A   1      33.198  27.458  24.053  1.00  0.00    -0.073 Cl
ATOM     22  Cl  UNL A   1      33.984  28.143  26.726  1.00  0.00    -0.073 Cl
ENDBRANCH  16  19
ENDBRANCH  13  15
ENDBRANCH  11  13
ENDBRANCH  10  11
ENDBRANCH   3   5
ENDBRANCH   2   3
ENDBRANCH   1   2
BRANCH   1  23
ATOM     23  C   UNL A   1      37.209  20.617  24.993  1.00  0.00     0.275 C 
BRANCH  23  24
ATOM     24  O   UNL A   1      38.115  21.702  25.283  1.00  0.00    -0.458 OA
BRANCH  24  25
ATOM     25  C   UNL A   1      39.210  21.364  26.017  1.00  0.00     0.338 C 
ATOM     26  O   UNL A   1      39.801  20.306  25.973  1.00  0.00    -0.246 OA
BRANCH  25  27
ATOM     27  C   UNL A   1      39.729  22.569  26.733  1.00  0.00     0.060 A 
ATOM     28  C   UNL A   1      39.074  23.783  26.496  1.00  0.00     0.016 A 
ATOM     29  C   UNL A   1      40.772  22.526  27.667  1.00  0.00     0.016 A 
ATOM     30  C   UNL A   1      39.504  24.957  27.123  1.00  0.00     0.010 A 
ATOM     31  C   UNL A   1      41.167  23.697  28.337  1.00  0.00     0.010 A 
ATOM     32  C   UNL A   1      40.584  24.936  28.017  1.00  0.00    -0.014 A 
BRANCH  32  33
ATOM     33  C   UNL A   1      41.223  26.230  28.407  1.00  0.00     0.031 A 
ATOM     34  C   UNL A   1      42.623  26.519  27.918  1.00  0.00     0.074 A 
ATOM     35  C   UNL A   1      40.565  27.188  29.090  1.00  0.00     0.049 A 
ATOM     36  N   UNL A   1      43.315  27.632  27.971  1.00  0.00    -0.248 NA
ATOM     37  C   UNL A   1      43.346  25.401  27.290  1.00  0.00     0.031 C 
ATOM     38  C   UNL A   1      39.219  27.069  29.647  1.00  0.00     0.029 A 
ATOM     39  N   UNL A   1      40.946  28.472  29.411  1.00  0.00    -0.354 N 
ATOM     40  C   UNL A   1      44.536  27.346  27.372  1.00  0.00     0.074 A 
ATOM     41  C   UNL A   1      44.526  25.941  27.040  1.00  0.00     0.031 C 
ATOM     42  C   UNL A   1      38.876  28.240  30.217  1.00  0.00     0.029 A 
ATOM     43  C   UNL A   1      39.976  29.194  30.065  1.00  0.00     0.049 A 
ATOM     44  H   UNL A   1      41.832  28.840  29.192  1.00  0.00     0.167 HD
ATOM     45  C   UNL A   1      45.564  28.178  27.081  1.00  0.00     0.037 A 
ATOM     46  C   UNL A   1      39.966  30.482  30.471  1.00  0.00     0.037 A 
ATOM     47  C   UNL A   1      45.595  29.581  27.384  1.00  0.00     0.049 A 
ATOM     48  C   UNL A   1      41.140  31.385  30.169  1.00  0.00     0.074 A 
ATOM     49  C   UNL A   1      46.580  30.506  27.086  1.00  0.00     0.029 A 
ATOM     50  N   UNL A   1      44.598  30.260  28.064  1.00  0.00    -0.354 N 
ATOM     51  N   UNL A   1      42.242  31.126  29.508  1.00  0.00    -0.248 NA
ATOM     52  C   UNL A   1      41.050  32.772  30.652  1.00  0.00     0.031 C 
ATOM     53  C   UNL A   1      46.200  31.738  27.628  1.00  0.00     0.029 A 
ATOM     54  C   UNL A   1      44.955  31.591  28.215  1.00  0.00     0.049 A 
ATOM     55  H   UNL A   1      43.760  29.859  28.390  1.00  0.00     0.167 HD
ATOM     56  C   UNL A   1      42.945  32.325  29.450  1.00  0.00     0.074 A 
ATOM     57  C   UNL A   1      42.147  33.314  30.141  1.00  0.00     0.031 C 
ATOM     58  C   UNL A   1      44.144  32.582  28.871  1.00  0.00     0.037 A 
BRANCH  45  59
ATOM     59  C   UNL A   1      46.749  27.576  26.386  1.00  0.00     0.064 A 
ATOM     60  C   UNL A   1      47.780  26.950  27.105  1.00  0.00     0.173 A 
ATOM     61  C   UNL A   1      46.853  27.619  24.989  1.00  0.00     0.173 A 
ATOM     62  F   UNL A   1      47.735  26.900  28.446  1.00  0.00    -0.203 F 
ATOM     63  C   UNL A   1      48.890  26.423  26.451  1.00  0.00     0.198 A 
ATOM     64  C   UNL A   1      47.950  27.062  24.337  1.00  0.00     0.198 A 
ATOM     65  F   UNL A   1      45.894  28.204  24.257  1.00  0.00    -0.203 F 
ATOM     66  F   UNL A   1      49.892  25.885  27.163  1.00  0.00    -0.200 F 
ATOM     67  C   UNL A   1      48.971  26.474  25.068  1.00  0.00     0.200 A 
ATOM     68  F   UNL A   1      48.023  27.103  22.999  1.00  0.00    -0.200 F 
ATOM     69  F   UNL A   1      50.040  25.967  24.440  1.00  0.00    -0.200 F 
ENDBRANCH  45  59
BRANCH  46  70
ATOM     70  C   UNL A   1      38.779  31.039  31.178  1.00  0.00     0.064 A 
ATOM     71  C   UNL A   1      38.671  30.965  32.575  1.00  0.00     0.173 A 
ATOM     72  C   UNL A   1      37.701  31.587  30.469  1.00  0.00     0.173 A 
ATOM     73  F   UNL A   1      39.661  30.421  33.296  1.00  0.00    -0.203 F 
ATOM     74  C   UNL A   1      37.515  31.387  33.232  1.00  0.00     0.198 A 
ATOM     75  C   UNL A   1      36.557  32.032  31.129  1.00  0.00     0.198 A 
ATOM     76  F   UNL A   1      37.752  31.675  29.132  1.00  0.00    -0.203 F 
ATOM     77  F   UNL A   1      37.413  31.244  34.560  1.00  0.00    -0.200 F 
ATOM     78  C   UNL A   1      36.460  31.921  32.508  1.00  0.00     0.200 A 
ATOM     79  F   UNL A   1      35.541  32.553  30.428  1.00  0.00    -0.200 F 
ATOM     80  F   UNL A   1      35.344  32.314  33.138  1.00  0.00    -0.200 F 
ENDBRANCH  46  70
BRANCH  58  81
ATOM     81  C   UNL A   1      44.648  33.999  28.887  1.00  0.00     0.064 A 
ATOM     82  C   UNL A   1      45.484  34.481  29.905  1.00  0.00     0.173 A 
ATOM     83  C   UNL A   1      44.328  34.874  27.835  1.00  0.00     0.173 A 
ATOM     84  F   UNL A   1      45.813  33.691  30.937  1.00  0.00    -0.203 F 
ATOM     85  C   UNL A   1      45.955  35.791  29.885  1.00  0.00     0.198 A 
ATOM     86  C   UNL A   1      44.827  36.173  27.803  1.00  0.00     0.198 A 
ATOM     87  F   UNL A   1      43.541  34.462  26.829  1.00  0.00    -0.203 F 
ATOM     88  F   UNL A   1      46.714  36.244  30.894  1.00  0.00    -0.200 F 
ATOM     89  C   UNL A   1      45.634  36.634  28.831  1.00  0.00     0.200 A 
ATOM     90  F   UNL A   1      44.529  36.979  26.773  1.00  0.00    -0.200 F 
ATOM     91  F   UNL A   1      46.097  37.891  28.810  1.00  0.00    -0.200 F 
ENDBRANCH  58  81
ENDBRANCH  32  33
ENDBRANCH  25  27
ENDBRANCH  24  25
ENDBRANCH  23  24
ENDBRANCH   1  23
TORSDOF 15
ENDMDL
MODEL 3
REMARK VINA RESULT:     -12.1      1.359      1.932
REMARK SMILES O=C(OCCOC(=O)c1ccc(-c2c3nc(c(-c4c(F)c(F)c(F)c(F)c4F)c4ccc([nH]4)c(-c4c(F)c(F)c(F)c(F)c4F)c4nc(c(-c5c(F)c(F)c(F)c(F)c5F)c5ccc2[nH]5)C=C4)C=C3)cc1)c1ccc(NC(=S)NC(=O)C(Cl)(Cl)Cl)cc1
REMARK SMILES IDX 4 1 3 2 2 3 1 4 72 5 73 6 87 7 74 8 86 9 75 10 76 11 77 13
REMARK SMILES IDX 78 14 79 15 80 16 81 18 82 19 83 20 84 21 85 22 5 23 6 24
REMARK SMILES IDX 7 25 8 26 9 27 10 28 71 29 11 30 70 31 12 32 13 33 14 34
REMARK SMILES IDX 64 35 15 36 69 37 63 38 65 39 16 40 68 41 62 42 61 43 17 45
REMARK SMILES IDX 49 46 29 47 48 48 30 49 33 50 47 51 66 52 31 53 32 54 46 56
REMARK SMILES IDX 67 57 34 58 18 59 19 60 27 61 20 62 21 63 25 64 28 65 22 66
REMARK SMILES IDX 23 67 26 68 24 69 50 70 51 71 59 72 52 73 53 74 57 75 60 76
REMARK SMILES IDX 54 77 55 78 58 79 56 80 35 81 36 82 44 83 37 84 38 85 42 86
REMARK SMILES IDX 45 87 39 88 40 89 43 90 41 91
REMARK H PARENT 76 12 79 17 65 44 33 55
REMARK Flexibility Score: inf
ROOT
ATOM      1  C   UNL A   1      32.355  28.762  25.111  1.00  0.00     0.275 C 
ENDROOT
BRANCH   1   2
ATOM      2  O   UNL A   1      31.308  27.777  25.291  1.00  0.00    -0.458 OA
BRANCH   2   3
ATOM      3  C   UNL A   1      31.183  26.861  26.283  1.00  0.00     0.338 C 
ATOM      4  O   UNL A   1      30.952  27.236  27.431  1.00  0.00    -0.246 OA
BRANCH   3   5
ATOM      5  C   UNL A   1      31.390  25.397  26.054  1.00  0.00     0.060 A 
ATOM      6  C   UNL A   1      30.801  24.690  25.013  1.00  0.00     0.018 A 
ATOM      7  C   UNL A   1      32.315  24.706  26.843  1.00  0.00     0.018 A 
ATOM      8  C   UNL A   1      31.045  23.340  24.780  1.00  0.00     0.027 A 
ATOM      9  C   UNL A   1      32.522  23.330  26.656  1.00  0.00     0.027 A 
ATOM     10  C   UNL A   1      31.815  22.631  25.669  1.00  0.00     0.040 A 
BRANCH  10  11
ATOM     11  N   UNL A   1      31.937  21.245  25.599  1.00  0.00    -0.332 N 
ATOM     12  H   UNL A   1      31.121  20.771  25.879  1.00  0.00     0.169 HD
BRANCH  11  13
ATOM     13  C   UNL A   1      32.924  20.418  25.233  1.00  0.00     0.177 C 
ATOM     14  S   UNL A   1      32.468  18.857  24.809  1.00  0.00    -0.040 S 
BRANCH  13  15
ATOM     15  N   UNL A   1      34.272  20.684  25.137  1.00  0.00    -0.299 N 
ATOM     16  C   UNL A   1      35.374  21.496  24.815  1.00  0.00     0.278 C 
ATOM     17  H   UNL A   1      34.690  19.860  25.476  1.00  0.00     0.172 HD
ATOM     18  O   UNL A   1      36.440  21.026  25.259  1.00  0.00    -0.270 OA
BRANCH  16  19
ATOM     19  C   UNL A   1      35.389  22.815  24.023  1.00  0.00     0.269 C 
ATOM     20  Cl  UNL A   1      34.031  23.063  22.933  1.00  0.00    -0.073 Cl
ATOM     21  Cl  UNL A   1      35.620  24.161  25.185  1.00  0.00    -0.073 Cl
ATOM     22  Cl  UNL A   1      36.876  22.813  22.987  1.00  0.00    -0.073 Cl
ENDBRANCH  16  19
ENDBRANCH  13  15
ENDBRANCH  11  13
ENDBRANCH  10  11
ENDBRANCH   3   5
ENDBRANCH   2   3
ENDBRANCH   1   2
BRANCH   1  23
ATOM     23  C   UNL A   1      32.011  30.070  25.855  1.00  0.00     0.275 C 
BRANCH  23  24
ATOM     24  O   UNL A   1      32.704  30.151  27.118  1.00  0.00    -0.458 OA
BRANCH  24  25
ATOM     25  C   UNL A   1      33.329  31.335  27.363  1.00  0.00     0.338 C 
ATOM     26  O   UNL A   1      32.798  32.423  27.433  1.00  0.00    -0.246 OA
BRANCH  25  27
ATOM     27  C   UNL A   1      34.747  31.084  27.762  1.00  0.00     0.060 A 
ATOM     28  C   UNL A   1      35.179  29.753  27.776  1.00  0.00     0.016 A 
ATOM     29  C   UNL A   1      35.664  32.104  28.045  1.00  0.00     0.016 A 
ATOM     30  C   UNL A   1      36.491  29.435  28.146  1.00  0.00     0.010 A 
ATOM     31  C   UNL A   1      36.996  31.786  28.362  1.00  0.00     0.010 A 
ATOM     32  C   UNL A   1      37.402  30.445  28.486  1.00  0.00    -0.014 A 
BRANCH  32  33
ATOM     33  C   UNL A   1      38.669  30.068  29.184  1.00  0.00     0.031 A 
ATOM     34  C   UNL A   1      38.887  30.559  30.597  1.00  0.00     0.074 A 
ATOM     35  C   UNL A   1      39.574  29.227  28.644  1.00  0.00     0.049 A 
ATOM     36  N   UNL A   1      39.810  30.223  31.466  1.00  0.00    -0.248 NA
ATOM     37  C   UNL A   1      37.943  31.571  31.096  1.00  0.00     0.031 C 
ATOM     38  C   UNL A   1      39.526  28.674  27.292  1.00  0.00     0.029 A 
ATOM     39  N   UNL A   1      40.710  28.673  29.190  1.00  0.00    -0.354 N 
ATOM     40  C   UNL A   1      39.542  30.969  32.608  1.00  0.00     0.074 A 
ATOM     41  C   UNL A   1      38.428  31.834  32.297  1.00  0.00     0.031 C 
ATOM     42  C   UNL A   1      40.569  27.839  27.124  1.00  0.00     0.029 A 
ATOM     43  C   UNL A   1      41.359  27.796  28.355  1.00  0.00     0.049 A 
ATOM     44  H   UNL A   1      41.029  28.886  30.097  1.00  0.00     0.167 HD
ATOM     45  C   UNL A   1      40.135  30.918  33.824  1.00  0.00     0.037 A 
ATOM     46  C   UNL A   1      42.449  27.026  28.567  1.00  0.00     0.037 A 
ATOM     47  C   UNL A   1      41.231  30.058  34.166  1.00  0.00     0.049 A 
ATOM     48  C   UNL A   1      43.119  27.012  29.922  1.00  0.00     0.074 A 
ATOM     49  C   UNL A   1      41.864  29.912  35.389  1.00  0.00     0.029 A 
ATOM     50  N   UNL A   1      41.865  29.202  33.282  1.00  0.00    -0.354 N 
ATOM     51  N   UNL A   1      42.788  27.644  31.022  1.00  0.00    -0.248 NA
ATOM     52  C   UNL A   1      44.304  26.151  30.066  1.00  0.00     0.031 C 
ATOM     53  C   UNL A   1      42.914  29.002  35.231  1.00  0.00     0.029 A 
ATOM     54  C   UNL A   1      42.899  28.541  33.925  1.00  0.00     0.049 A 
ATOM     55  H   UNL A   1      41.619  29.080  32.336  1.00  0.00     0.167 HD
ATOM     56  C   UNL A   1      43.687  27.216  31.995  1.00  0.00     0.074 A 
ATOM     57  C   UNL A   1      44.577  26.270  31.358  1.00  0.00     0.031 C 
ATOM     58  C   UNL A   1      43.761  27.573  33.301  1.00  0.00     0.037 A 
BRANCH  45  59
ATOM     59  C   UNL A   1      39.591  31.830  34.884  1.00  0.00     0.064 A 
ATOM     60  C   UNL A   1      38.684  31.371  35.851  1.00  0.00     0.173 A 
ATOM     61  C   UNL A   1      39.985  33.175  34.937  1.00  0.00     0.173 A 
ATOM     62  F   UNL A   1      38.261  30.097  35.830  1.00  0.00    -0.203 F 
ATOM     63  C   UNL A   1      38.162  32.235  36.810  1.00  0.00     0.198 A 
ATOM     64  C   UNL A   1      39.486  34.027  35.917  1.00  0.00     0.198 A 
ATOM     65  F   UNL A   1      40.852  33.662  34.036  1.00  0.00    -0.203 F 
ATOM     66  F   UNL A   1      37.249  31.788  37.685  1.00  0.00    -0.200 F 
ATOM     67  C   UNL A   1      38.568  33.560  36.846  1.00  0.00     0.200 A 
ATOM     68  F   UNL A   1      39.886  35.306  35.958  1.00  0.00    -0.200 F 
ATOM     69  F   UNL A   1      38.064  34.390  37.768  1.00  0.00    -0.200 F 
ENDBRANCH  45  59
BRANCH  46  70
ATOM     70  C   UNL A   1      42.974  26.149  27.484  1.00  0.00     0.064 A 
ATOM     71  C   UNL A   1      43.996  26.590  26.629  1.00  0.00     0.173 A 
ATOM     72  C   UNL A   1      42.416  24.888  27.235  1.00  0.00     0.173 A 
ATOM     73  F   UNL A   1      44.540  27.802  26.805  1.00  0.00    -0.203 F 
ATOM     74  C   UNL A   1      44.415  25.817  25.547  1.00  0.00     0.198 A 
ATOM     75  C   UNL A   1      42.854  24.104  26.169  1.00  0.00     0.198 A 
ATOM     76  F   UNL A   1      41.433  24.422  28.020  1.00  0.00    -0.203 F 
ATOM     77  F   UNL A   1      45.346  26.291  24.708  1.00  0.00    -0.200 F 
ATOM     78  C   UNL A   1      43.844  24.574  25.319  1.00  0.00     0.200 A 
ATOM     79  F   UNL A   1      42.305  22.901  25.955  1.00  0.00    -0.200 F 
ATOM     80  F   UNL A   1      44.238  23.836  24.272  1.00  0.00    -0.200 F 
ENDBRANCH  46  70
BRANCH  58  81
ATOM     81  C   UNL A   1      44.791  26.894  34.162  1.00  0.00     0.064 A 
ATOM     82  C   UNL A   1      44.523  25.694  34.837  1.00  0.00     0.173 A 
ATOM     83  C   UNL A   1      46.085  27.430  34.269  1.00  0.00     0.173 A 
ATOM     84  F   UNL A   1      43.302  25.144  34.777  1.00  0.00    -0.203 F 
ATOM     85  C   UNL A   1      45.502  25.074  35.610  1.00  0.00     0.198 A 
ATOM     86  C   UNL A   1      47.069  26.790  35.017  1.00  0.00     0.198 A 
ATOM     87  F   UNL A   1      46.400  28.570  33.634  1.00  0.00    -0.203 F 
ATOM     88  F   UNL A   1      45.208  23.954  36.286  1.00  0.00    -0.200 F 
ATOM     89  C   UNL A   1      46.776  25.617  35.693  1.00  0.00     0.200 A 
ATOM     90  F   UNL A   1      48.304  27.307  35.080  1.00  0.00    -0.200 F 
ATOM     91  F   UNL A   1      47.717  25.012  36.430  1.00  0.00    -0.200 F 
ENDBRANCH  58  81
ENDBRANCH  32  33
ENDBRANCH  25  27
ENDBRANCH  24  25
ENDBRANCH  23  24
ENDBRANCH   1  23
TORSDOF 15
ENDMDL
