MODEL 1
REMARK VINA RESULT:     -12.6      0.000      0.000
REMARK SMILES Cc1ccc(F)c(NC(=O)NC(=O)CCCCC(=O)OCCOC(=O)c2ccc(-c3c4nc(c(-c5c(F)c(F)c(F)c(F)c5F)c5ccc([nH]5)c(-c5c(F)c(F)c(F)c(F)c5F)c5nc(c(-c6c(F)c(F)c(F)c(F)c6F)c6ccc3[nH]6)C=C5)C=C4)cc2)c1
REMARK SMILES IDX 20 1 18 2 19 3 17 4 16 5 15 6 14 7 12 8 8 9 9 10 10 12 11 13
REMARK SMILES IDX 13 15 7 16 1 17 2 18 3 19 89 20 4 21 5 22 6 23 21 24 22 25
REMARK SMILES IDX 23 26 24 27 25 28 26 29 27 30 88 31 28 32 87 33 29 34 30 35
REMARK SMILES IDX 31 36 81 37 32 38 86 39 80 40 82 41 33 42 85 43 79 44 78 45
REMARK SMILES IDX 34 47 66 48 46 49 65 50 47 51 50 52 64 53 83 54 48 55 49 56
REMARK SMILES IDX 63 58 84 59 51 60 35 61 36 62 44 63 37 64 38 65 42 66 45 67
REMARK SMILES IDX 39 68 40 69 43 70 41 71 67 72 68 73 76 74 69 75 70 76 74 77
REMARK SMILES IDX 77 78 71 79 72 80 75 81 73 82 52 83 53 84 61 85 54 86 55 87
REMARK SMILES IDX 59 88 62 89 56 90 57 91 60 92 58 93
REMARK H PARENT 8 11 11 14 82 46 50 57
REMARK Flexibility Score: inf
ROOT
ATOM      1  O   UNL A   1      33.153  28.870  27.762  1.00  0.00    -0.462 OA
ENDROOT
BRANCH   1   2
ATOM      2  C   UNL A   1      32.072  28.124  27.390  1.00  0.00     0.305 C 
ATOM      3  O   UNL A   1      31.056  28.029  28.041  1.00  0.00    -0.252 OA
BRANCH   2   4
ATOM      4  C   UNL A   1      32.269  27.303  26.123  1.00  0.00     0.123 C 
BRANCH   4   5
ATOM      5  C   UNL A   1      31.320  26.176  25.745  1.00  0.00     0.012 C 
BRANCH   5   6
ATOM      6  C   UNL A   1      30.199  26.291  24.728  1.00  0.00     0.010 C 
BRANCH   6   7
ATOM      7  C   UNL A   1      30.414  25.925  23.257  1.00  0.00     0.100 C 
BRANCH   7   8
ATOM      8  C   UNL A   1      31.020  26.861  22.235  1.00  0.00     0.227 C 
ATOM      9  N   UNL A   1      32.858  24.306  21.534  1.00  0.00    -0.305 N 
ATOM     10  C   UNL A   1      32.702  25.497  20.918  1.00  0.00     0.325 C 
ATOM     11  H   UNL A   1      32.953  23.541  20.922  1.00  0.00     0.171 HD
ATOM     12  O   UNL A   1      32.933  25.564  19.708  1.00  0.00    -0.248 OA
ATOM     13  N   UNL A   1      32.178  26.594  21.537  1.00  0.00    -0.278 N 
ATOM     14  H   UNL A   1      32.765  27.380  21.469  1.00  0.00     0.174 HD
ATOM     15  O   UNL A   1      30.481  27.958  22.031  1.00  0.00    -0.275 OA
BRANCH   9  16
ATOM     16  C   UNL A   1      32.906  23.967  22.888  1.00  0.00     0.079 A 
ATOM     17  C   UNL A   1      35.548  24.302  25.581  1.00  0.00     0.044 C 
ATOM     18  C   UNL A   1      34.233  23.994  24.922  1.00  0.00    -0.049 A 
ATOM     19  C   UNL A   1      33.343  23.086  25.500  1.00  0.00     0.006 A 
ATOM     20  C   UNL A   1      33.957  24.500  23.644  1.00  0.00     0.032 A 
ATOM     21  C   UNL A   1      32.210  22.667  24.800  1.00  0.00     0.042 A 
ATOM     22  C   UNL A   1      32.012  23.083  23.488  1.00  0.00     0.146 A 
ATOM     23  F   UNL A   1      30.968  22.602  22.801  1.00  0.00    -0.205 F 
ENDBRANCH   9  16
ENDBRANCH   7   8
ENDBRANCH   6   7
ENDBRANCH   5   6
ENDBRANCH   4   5
ENDBRANCH   2   4
ENDBRANCH   1   2
BRANCH   1  24
ATOM     24  C   UNL A   1      33.657  29.786  26.754  1.00  0.00     0.274 C 
BRANCH  24  25
ATOM     25  C   UNL A   1      34.605  30.853  27.303  1.00  0.00     0.275 C 
BRANCH  25  26
ATOM     26  O   UNL A   1      34.128  31.332  28.561  1.00  0.00    -0.458 OA
BRANCH  26  27
ATOM     27  C   UNL A   1      33.928  32.650  28.534  1.00  0.00     0.338 C 
ATOM     28  O   UNL A   1      33.198  33.286  27.752  1.00  0.00    -0.246 OA
BRANCH  27  29
ATOM     29  C   UNL A   1      34.776  33.346  29.488  1.00  0.00     0.060 A 
ATOM     30  C   UNL A   1      35.962  33.834  28.909  1.00  0.00     0.016 A 
ATOM     31  C   UNL A   1      34.777  32.638  30.686  1.00  0.00     0.016 A 
ATOM     32  C   UNL A   1      37.167  33.289  29.308  1.00  0.00     0.010 A 
ATOM     33  C   UNL A   1      35.966  32.061  31.051  1.00  0.00     0.010 A 
ATOM     34  C   UNL A   1      37.134  32.320  30.301  1.00  0.00    -0.014 A 
BRANCH  34  35
ATOM     35  C   UNL A   1      38.310  31.630  30.783  1.00  0.00     0.031 A 
ATOM     36  C   UNL A   1      38.570  30.306  30.191  1.00  0.00     0.074 A 
ATOM     37  C   UNL A   1      39.282  32.365  31.363  1.00  0.00     0.049 A 
ATOM     38  N   UNL A   1      39.539  29.531  30.524  1.00  0.00    -0.248 NA
ATOM     39  C   UNL A   1      37.698  29.745  29.157  1.00  0.00     0.031 C 
ATOM     40  C   UNL A   1      40.718  32.205  31.175  1.00  0.00     0.029 A 
ATOM     41  N   UNL A   1      39.172  33.401  32.298  1.00  0.00    -0.354 N 
ATOM     42  C   UNL A   1      39.637  28.589  29.526  1.00  0.00     0.074 A 
ATOM     43  C   UNL A   1      38.410  28.686  28.771  1.00  0.00     0.031 C 
ATOM     44  C   UNL A   1      41.370  32.948  32.085  1.00  0.00     0.029 A 
ATOM     45  C   UNL A   1      40.382  33.417  33.039  1.00  0.00     0.049 A 
ATOM     46  H   UNL A   1      38.402  34.003  32.417  1.00  0.00     0.167 HD
ATOM     47  C   UNL A   1      40.833  27.973  29.307  1.00  0.00     0.037 A 
ATOM     48  C   UNL A   1      40.432  33.144  34.388  1.00  0.00     0.037 A 
ATOM     49  C   UNL A   1      41.830  28.401  30.284  1.00  0.00     0.049 A 
ATOM     50  C   UNL A   1      41.269  31.943  34.738  1.00  0.00     0.074 A 
ATOM     51  C   UNL A   1      42.821  29.369  30.237  1.00  0.00     0.029 A 
ATOM     52  N   UNL A   1      41.646  28.099  31.630  1.00  0.00    -0.354 N 
ATOM     53  N   UNL A   1      41.616  31.039  33.871  1.00  0.00    -0.248 NA
ATOM     54  C   UNL A   1      41.634  31.594  36.106  1.00  0.00     0.031 C 
ATOM     55  C   UNL A   1      43.199  29.681  31.564  1.00  0.00     0.029 A 
ATOM     56  C   UNL A   1      42.451  28.897  32.424  1.00  0.00     0.049 A 
ATOM     57  H   UNL A   1      41.028  27.412  31.971  1.00  0.00     0.167 HD
ATOM     58  C   UNL A   1      42.128  29.962  34.535  1.00  0.00     0.074 A 
ATOM     59  C   UNL A   1      42.166  30.374  35.925  1.00  0.00     0.031 C 
ATOM     60  C   UNL A   1      42.407  28.802  33.876  1.00  0.00     0.037 A 
BRANCH  47  61
ATOM     61  C   UNL A   1      41.133  27.314  27.986  1.00  0.00     0.064 A 
ATOM     62  C   UNL A   1      41.045  25.916  27.832  1.00  0.00     0.173 A 
ATOM     63  C   UNL A   1      41.595  28.013  26.855  1.00  0.00     0.173 A 
ATOM     64  F   UNL A   1      40.540  25.134  28.791  1.00  0.00    -0.203 F 
ATOM     65  C   UNL A   1      41.493  25.262  26.683  1.00  0.00     0.198 A 
ATOM     66  C   UNL A   1      42.096  27.355  25.727  1.00  0.00     0.198 A 
ATOM     67  F   UNL A   1      41.557  29.353  26.812  1.00  0.00    -0.203 F 
ATOM     68  F   UNL A   1      41.397  23.928  26.599  1.00  0.00    -0.200 F 
ATOM     69  C   UNL A   1      42.055  25.978  25.645  1.00  0.00     0.200 A 
ATOM     70  F   UNL A   1      42.633  28.066  24.725  1.00  0.00    -0.200 F 
ATOM     71  F   UNL A   1      42.535  25.344  24.568  1.00  0.00    -0.200 F 
ENDBRANCH  47  61
BRANCH  48  72
ATOM     72  C   UNL A   1      39.145  33.396  35.113  1.00  0.00     0.064 A 
ATOM     73  C   UNL A   1      38.387  32.253  35.382  1.00  0.00     0.173 A 
ATOM     74  C   UNL A   1      39.137  34.445  36.047  1.00  0.00     0.173 A 
ATOM     75  F   UNL A   1      38.288  31.273  34.469  1.00  0.00    -0.203 F 
ATOM     76  C   UNL A   1      38.068  31.978  36.698  1.00  0.00     0.198 A 
ATOM     77  C   UNL A   1      38.749  34.195  37.346  1.00  0.00     0.198 A 
ATOM     78  F   UNL A   1      39.692  35.630  35.761  1.00  0.00    -0.203 F 
ATOM     79  F   UNL A   1      37.704  30.726  37.004  1.00  0.00    -0.200 F 
ATOM     80  C   UNL A   1      38.334  32.926  37.685  1.00  0.00     0.200 A 
ATOM     81  F   UNL A   1      38.929  35.116  38.303  1.00  0.00    -0.200 F 
ATOM     82  F   UNL A   1      38.314  32.615  38.985  1.00  0.00    -0.200 F 
ENDBRANCH  48  72
BRANCH  60  83
ATOM     83  C   UNL A   1      42.746  27.507  34.549  1.00  0.00     0.064 A 
ATOM     84  C   UNL A   1      41.816  26.485  34.797  1.00  0.00     0.173 A 
ATOM     85  C   UNL A   1      44.089  27.212  34.870  1.00  0.00     0.173 A 
ATOM     86  F   UNL A   1      40.538  26.593  34.404  1.00  0.00    -0.203 F 
ATOM     87  C   UNL A   1      42.187  25.291  35.415  1.00  0.00     0.198 A 
ATOM     88  C   UNL A   1      44.467  25.993  35.423  1.00  0.00     0.198 A 
ATOM     89  F   UNL A   1      45.074  28.092  34.636  1.00  0.00    -0.203 F 
ATOM     90  F   UNL A   1      41.252  24.372  35.696  1.00  0.00    -0.200 F 
ATOM     91  C   UNL A   1      43.511  25.043  35.721  1.00  0.00     0.200 A 
ATOM     92  F   UNL A   1      45.762  25.741  35.654  1.00  0.00    -0.200 F 
ATOM     93  F   UNL A   1      43.869  23.882  36.285  1.00  0.00    -0.200 F 
ENDBRANCH  60  83
ENDBRANCH  34  35
ENDBRANCH  27  29
ENDBRANCH  26  27
ENDBRANCH  25  26
ENDBRANCH  24  25
ENDBRANCH   1  24
TORSDOF 16
ENDMDL
MODEL 2
REMARK VINA RESULT:     -12.4      1.786      2.531
REMARK SMILES Cc1ccc(F)c(NC(=O)NC(=O)CCCCC(=O)OCCOC(=O)c2ccc(-c3c4nc(c(-c5c(F)c(F)c(F)c(F)c5F)c5ccc([nH]5)c(-c5c(F)c(F)c(F)c(F)c5F)c5nc(c(-c6c(F)c(F)c(F)c(F)c6F)c6ccc3[nH]6)C=C5)C=C4)cc2)c1
REMARK SMILES IDX 20 1 18 2 19 3 17 4 16 5 15 6 14 7 12 8 8 9 9 10 10 12 11 13
REMARK SMILES IDX 13 15 7 16 1 17 2 18 3 19 89 20 4 21 5 22 6 23 21 24 22 25
REMARK SMILES IDX 23 26 24 27 25 28 26 29 27 30 88 31 28 32 87 33 29 34 30 35
REMARK SMILES IDX 31 36 81 37 32 38 86 39 80 40 82 41 33 42 85 43 79 44 78 45
REMARK SMILES IDX 34 47 66 48 46 49 65 50 47 51 50 52 64 53 83 54 48 55 49 56
REMARK SMILES IDX 63 58 84 59 51 60 35 61 36 62 44 63 37 64 38 65 42 66 45 67
REMARK SMILES IDX 39 68 40 69 43 70 41 71 67 72 68 73 76 74 69 75 70 76 74 77
REMARK SMILES IDX 77 78 71 79 72 80 75 81 73 82 52 83 53 84 61 85 54 86 55 87
REMARK SMILES IDX 59 88 62 89 56 90 57 91 60 92 58 93
REMARK H PARENT 8 11 11 14 82 46 50 57
REMARK Flexibility Score: inf
ROOT
ATOM      1  O   UNL A   1      32.728  28.090  26.482  1.00  0.00    -0.462 OA
ENDROOT
BRANCH   1   2
ATOM      2  C   UNL A   1      32.701  26.734  26.331  1.00  0.00     0.305 C 
ATOM      3  O   UNL A   1      31.883  26.009  26.851  1.00  0.00    -0.252 OA
BRANCH   2   4
ATOM      4  C   UNL A   1      33.863  26.157  25.535  1.00  0.00     0.123 C 
BRANCH   4   5
ATOM      5  C   UNL A   1      34.234  24.684  25.614  1.00  0.00     0.012 C 
BRANCH   5   6
ATOM      6  C   UNL A   1      35.369  24.033  24.845  1.00  0.00     0.010 C 
BRANCH   6   7
ATOM      7  C   UNL A   1      35.263  22.594  24.332  1.00  0.00     0.100 C 
BRANCH   7   8
ATOM      8  C   UNL A   1      35.702  21.382  25.125  1.00  0.00     0.227 C 
ATOM      9  N   UNL A   1      32.913  20.151  24.075  1.00  0.00    -0.305 N 
ATOM     10  C   UNL A   1      33.955  19.589  24.722  1.00  0.00     0.325 C 
ATOM     11  H   UNL A   1      32.508  19.580  23.383  1.00  0.00     0.171 HD
ATOM     12  O   UNL A   1      34.148  18.379  24.581  1.00  0.00    -0.248 OA
ATOM     13  N   UNL A   1      34.881  20.314  25.415  1.00  0.00    -0.278 N 
ATOM     14  H   UNL A   1      34.986  20.000  26.341  1.00  0.00     0.174 HD
ATOM     15  O   UNL A   1      36.851  21.349  25.586  1.00  0.00    -0.275 OA
BRANCH   9  16
ATOM     16  C   UNL A   1      32.306  21.402  24.212  1.00  0.00     0.079 A 
ATOM     17  C   UNL A   1      30.112  22.973  26.869  1.00  0.00     0.044 C 
ATOM     18  C   UNL A   1      30.935  22.829  25.621  1.00  0.00    -0.049 A 
ATOM     19  C   UNL A   1      30.749  23.694  24.540  1.00  0.00     0.006 A 
ATOM     20  C   UNL A   1      31.792  21.729  25.472  1.00  0.00     0.032 A 
ATOM     21  C   UNL A   1      31.384  23.448  23.321  1.00  0.00     0.042 A 
ATOM     22  C   UNL A   1      32.133  22.289  23.152  1.00  0.00     0.146 A 
ATOM     23  F   UNL A   1      32.663  22.023  21.950  1.00  0.00    -0.205 F 
ENDBRANCH   9  16
ENDBRANCH   7   8
ENDBRANCH   6   7
ENDBRANCH   5   6
ENDBRANCH   4   5
ENDBRANCH   2   4
ENDBRANCH   1   2
BRANCH   1  24
ATOM     24  C   UNL A   1      33.972  28.637  26.996  1.00  0.00     0.274 C 
BRANCH  24  25
ATOM     25  C   UNL A   1      34.089  30.155  26.853  1.00  0.00     0.275 C 
BRANCH  25  26
ATOM     26  O   UNL A   1      34.434  30.741  28.108  1.00  0.00    -0.458 OA
BRANCH  26  27
ATOM     27  C   UNL A   1      34.015  32.005  28.186  1.00  0.00     0.338 C 
ATOM     28  O   UNL A   1      33.057  32.520  27.582  1.00  0.00    -0.246 OA
BRANCH  27  29
ATOM     29  C   UNL A   1      34.898  32.818  29.008  1.00  0.00     0.060 A 
ATOM     30  C   UNL A   1      36.066  33.209  28.329  1.00  0.00     0.016 A 
ATOM     31  C   UNL A   1      34.934  32.281  30.292  1.00  0.00     0.016 A 
ATOM     32  C   UNL A   1      37.282  32.714  28.761  1.00  0.00     0.010 A 
ATOM     33  C   UNL A   1      36.132  31.750  30.694  1.00  0.00     0.010 A 
ATOM     34  C   UNL A   1      37.276  31.892  29.879  1.00  0.00    -0.014 A 
BRANCH  34  35
ATOM     35  C   UNL A   1      38.465  31.263  30.414  1.00  0.00     0.031 A 
ATOM     36  C   UNL A   1      38.792  29.934  29.870  1.00  0.00     0.074 A 
ATOM     37  C   UNL A   1      39.390  32.054  30.996  1.00  0.00     0.049 A 
ATOM     38  N   UNL A   1      39.781  29.208  30.253  1.00  0.00    -0.248 NA
ATOM     39  C   UNL A   1      37.972  29.307  28.832  1.00  0.00     0.031 C 
ATOM     40  C   UNL A   1      40.836  31.946  30.852  1.00  0.00     0.029 A 
ATOM     41  N   UNL A   1      39.213  33.113  31.895  1.00  0.00    -0.354 N 
ATOM     42  C   UNL A   1      39.944  28.241  29.288  1.00  0.00     0.074 A 
ATOM     43  C   UNL A   1      38.735  28.267  28.497  1.00  0.00     0.031 C 
ATOM     44  C   UNL A   1      41.433  32.741  31.755  1.00  0.00     0.029 A 
ATOM     45  C   UNL A   1      40.401  33.198  32.668  1.00  0.00     0.049 A 
ATOM     46  H   UNL A   1      38.418  33.687  31.974  1.00  0.00     0.167 HD
ATOM     47  C   UNL A   1      41.168  27.667  29.121  1.00  0.00     0.037 A 
ATOM     48  C   UNL A   1      40.423  32.969  34.025  1.00  0.00     0.037 A 
ATOM     49  C   UNL A   1      42.120  28.163  30.110  1.00  0.00     0.049 A 
ATOM     50  C   UNL A   1      41.296  31.813  34.434  1.00  0.00     0.074 A 
ATOM     51  C   UNL A   1      43.074  29.168  30.060  1.00  0.00     0.029 A 
ATOM     52  N   UNL A   1      41.910  27.895  31.460  1.00  0.00    -0.354 N 
ATOM     53  N   UNL A   1      41.702  30.898  33.606  1.00  0.00    -0.248 NA
ATOM     54  C   UNL A   1      41.636  31.520  35.823  1.00  0.00     0.031 C 
ATOM     55  C   UNL A   1      43.402  29.535  31.387  1.00  0.00     0.029 A 
ATOM     56  C   UNL A   1      42.660  28.748  32.250  1.00  0.00     0.049 A 
ATOM     57  H   UNL A   1      41.310  27.195  31.805  1.00  0.00     0.167 HD
ATOM     58  C   UNL A   1      42.237  29.863  34.317  1.00  0.00     0.074 A 
ATOM     59  C   UNL A   1      42.219  30.317  35.694  1.00  0.00     0.031 C 
ATOM     60  C   UNL A   1      42.580  28.696  33.703  1.00  0.00     0.037 A 
BRANCH  47  61
ATOM     61  C   UNL A   1      41.531  26.980  27.830  1.00  0.00     0.064 A 
ATOM     62  C   UNL A   1      41.546  25.575  27.730  1.00  0.00     0.173 A 
ATOM     63  C   UNL A   1      41.954  27.667  26.676  1.00  0.00     0.173 A 
ATOM     64  F   UNL A   1      41.088  24.796  28.715  1.00  0.00    -0.203 F 
ATOM     65  C   UNL A   1      42.054  24.911  26.612  1.00  0.00     0.198 A 
ATOM     66  C   UNL A   1      42.514  27.004  25.580  1.00  0.00     0.198 A 
ATOM     67  F   UNL A   1      41.819  28.998  26.579  1.00  0.00    -0.203 F 
ATOM     68  F   UNL A   1      42.056  23.571  26.580  1.00  0.00    -0.200 F 
ATOM     69  C   UNL A   1      42.574  25.625  25.552  1.00  0.00     0.200 A 
ATOM     70  F   UNL A   1      43.010  27.713  24.555  1.00  0.00    -0.200 F 
ATOM     71  F   UNL A   1      43.112  24.987  24.504  1.00  0.00    -0.200 F 
ENDBRANCH  47  61
BRANCH  48  72
ATOM     72  C   UNL A   1      39.108  33.191  34.707  1.00  0.00     0.064 A 
ATOM     73  C   UNL A   1      38.394  32.026  35.004  1.00  0.00     0.173 A 
ATOM     74  C   UNL A   1      39.029  34.275  35.597  1.00  0.00     0.173 A 
ATOM     75  F   UNL A   1      38.362  31.008  34.129  1.00  0.00    -0.203 F 
ATOM     76  C   UNL A   1      38.052  31.790  36.321  1.00  0.00     0.198 A 
ATOM     77  C   UNL A   1      38.617  34.060  36.895  1.00  0.00     0.198 A 
ATOM     78  F   UNL A   1      39.538  35.472  35.277  1.00  0.00    -0.203 F 
ATOM     79  F   UNL A   1      37.736  30.536  36.669  1.00  0.00    -0.200 F 
ATOM     80  C   UNL A   1      38.250  32.788  37.275  1.00  0.00     0.200 A 
ATOM     81  F   UNL A   1      38.731  35.025  37.818  1.00  0.00    -0.200 F 
ATOM     82  F   UNL A   1      38.208  32.528  38.585  1.00  0.00    -0.200 F 
ENDBRANCH  48  72
BRANCH  60  83
ATOM     83  C   UNL A   1      42.950  27.436  34.425  1.00  0.00     0.064 A 
ATOM     84  C   UNL A   1      42.029  26.438  34.783  1.00  0.00     0.173 A 
ATOM     85  C   UNL A   1      44.308  27.146  34.682  1.00  0.00     0.173 A 
ATOM     86  F   UNL A   1      40.731  26.536  34.461  1.00  0.00    -0.203 F 
ATOM     87  C   UNL A   1      42.428  25.276  35.443  1.00  0.00     0.198 A 
ATOM     88  C   UNL A   1      44.709  25.955  35.278  1.00  0.00     0.198 A 
ATOM     89  F   UNL A   1      45.283  28.002  34.341  1.00  0.00    -0.203 F 
ATOM     90  F   UNL A   1      41.506  24.383  35.829  1.00  0.00    -0.200 F 
ATOM     91  C   UNL A   1      43.767  25.032  35.684  1.00  0.00     0.200 A 
ATOM     92  F   UNL A   1      46.014  25.703  35.445  1.00  0.00    -0.200 F 
ATOM     93  F   UNL A   1      44.151  23.900  36.288  1.00  0.00    -0.200 F 
ENDBRANCH  60  83
ENDBRANCH  34  35
ENDBRANCH  27  29
ENDBRANCH  26  27
ENDBRANCH  25  26
ENDBRANCH  24  25
ENDBRANCH   1  24
TORSDOF 16
ENDMDL
MODEL 3
REMARK VINA RESULT:     -12.4      4.441      9.820
REMARK SMILES Cc1ccc(F)c(NC(=O)NC(=O)CCCCC(=O)OCCOC(=O)c2ccc(-c3c4nc(c(-c5c(F)c(F)c(F)c(F)c5F)c5ccc([nH]5)c(-c5c(F)c(F)c(F)c(F)c5F)c5nc(c(-c6c(F)c(F)c(F)c(F)c6F)c6ccc3[nH]6)C=C5)C=C4)cc2)c1
REMARK SMILES IDX 20 1 18 2 19 3 17 4 16 5 15 6 14 7 12 8 8 9 9 10 10 12 11 13
REMARK SMILES IDX 13 15 7 16 1 17 2 18 3 19 89 20 4 21 5 22 6 23 21 24 22 25
REMARK SMILES IDX 23 26 24 27 25 28 26 29 27 30 88 31 28 32 87 33 29 34 30 35
REMARK SMILES IDX 31 36 81 37 32 38 86 39 80 40 82 41 33 42 85 43 79 44 78 45
REMARK SMILES IDX 34 47 66 48 46 49 65 50 47 51 50 52 64 53 83 54 48 55 49 56
REMARK SMILES IDX 63 58 84 59 51 60 35 61 36 62 44 63 37 64 38 65 42 66 45 67
REMARK SMILES IDX 39 68 40 69 43 70 41 71 67 72 68 73 76 74 69 75 70 76 74 77
REMARK SMILES IDX 77 78 71 79 72 80 75 81 73 82 52 83 53 84 61 85 54 86 55 87
REMARK SMILES IDX 59 88 62 89 56 90 57 91 60 92 58 93
REMARK H PARENT 8 11 11 14 82 46 50 57
REMARK Flexibility Score: inf
ROOT
ATOM      1  O   UNL A   1      36.952  23.778  24.734  1.00  0.00    -0.462 OA
ENDROOT
BRANCH   1   2
ATOM      2  C   UNL A   1      35.661  23.409  24.490  1.00  0.00     0.305 C 
ATOM      3  O   UNL A   1      35.343  22.398  23.907  1.00  0.00    -0.252 OA
BRANCH   2   4
ATOM      4  C   UNL A   1      34.615  24.432  24.911  1.00  0.00     0.123 C 
BRANCH   4   5
ATOM      5  C   UNL A   1      33.724  25.129  23.894  1.00  0.00     0.012 C 
BRANCH   5   6
ATOM      6  C   UNL A   1      32.635  24.448  23.085  1.00  0.00     0.010 C 
BRANCH   6   7
ATOM      7  C   UNL A   1      31.473  23.718  23.764  1.00  0.00     0.100 C 
BRANCH   7   8
ATOM      8  C   UNL A   1      31.644  22.739  24.904  1.00  0.00     0.227 C 
ATOM      9  N   UNL A   1      29.768  24.830  26.487  1.00  0.00    -0.305 N 
ATOM     10  C   UNL A   1      30.204  23.594  26.808  1.00  0.00     0.325 C 
ATOM     11  H   UNL A   1      28.841  25.017  26.757  1.00  0.00     0.171 HD
ATOM     12  O   UNL A   1      29.531  22.922  27.594  1.00  0.00    -0.248 OA
ATOM     13  N   UNL A   1      31.276  23.002  26.206  1.00  0.00    -0.278 N 
ATOM     14  H   UNL A   1      31.946  22.690  26.856  1.00  0.00     0.174 HD
ATOM     15  O   UNL A   1      32.185  21.647  24.683  1.00  0.00    -0.275 OA
BRANCH   9  16
ATOM     16  C   UNL A   1      30.401  25.893  25.838  1.00  0.00     0.079 A 
ATOM     17  C   UNL A   1      33.060  28.385  26.870  1.00  0.00     0.044 C 
ATOM     18  C   UNL A   1      32.070  27.649  26.012  1.00  0.00    -0.049 A 
ATOM     19  C   UNL A   1      31.549  28.240  24.858  1.00  0.00     0.006 A 
ATOM     20  C   UNL A   1      31.546  26.423  26.445  1.00  0.00     0.032 A 
ATOM     21  C   UNL A   1      30.500  27.632  24.166  1.00  0.00     0.042 A 
ATOM     22  C   UNL A   1      29.911  26.480  24.674  1.00  0.00     0.146 A 
ATOM     23  F   UNL A   1      28.849  25.958  24.045  1.00  0.00    -0.205 F 
ENDBRANCH   9  16
ENDBRANCH   7   8
ENDBRANCH   6   7
ENDBRANCH   5   6
ENDBRANCH   4   5
ENDBRANCH   2   4
ENDBRANCH   1   2
BRANCH   1  24
ATOM     24  C   UNL A   1      37.525  23.273  25.969  1.00  0.00     0.274 C 
BRANCH  24  25
ATOM     25  C   UNL A   1      38.374  22.014  25.792  1.00  0.00     0.275 C 
BRANCH  25  26
ATOM     26  O   UNL A   1      39.586  22.130  26.538  1.00  0.00    -0.458 OA
BRANCH  26  27
ATOM     27  C   UNL A   1      40.376  21.073  26.348  1.00  0.00     0.338 C 
ATOM     28  O   UNL A   1      40.037  19.935  25.980  1.00  0.00    -0.246 OA
BRANCH  27  29
ATOM     29  C   UNL A   1      41.750  21.348  26.740  1.00  0.00     0.060 A 
ATOM     30  C   UNL A   1      41.899  21.507  28.129  1.00  0.00     0.016 A 
ATOM     31  C   UNL A   1      42.304  22.245  25.830  1.00  0.00     0.016 A 
ATOM     32  C   UNL A   1      42.257  22.747  28.621  1.00  0.00     0.010 A 
ATOM     33  C   UNL A   1      42.612  23.489  26.316  1.00  0.00     0.010 A 
ATOM     34  C   UNL A   1      42.497  23.756  27.697  1.00  0.00    -0.014 A 
BRANCH  34  35
ATOM     35  C   UNL A   1      42.832  25.114  28.067  1.00  0.00     0.031 A 
ATOM     36  C   UNL A   1      41.721  26.080  28.048  1.00  0.00     0.074 A 
ATOM     37  C   UNL A   1      43.951  25.313  28.794  1.00  0.00     0.049 A 
ATOM     38  N   UNL A   1      41.835  27.335  28.304  1.00  0.00    -0.248 NA
ATOM     39  C   UNL A   1      40.357  25.674  27.701  1.00  0.00     0.031 C 
ATOM     40  C   UNL A   1      44.103  26.229  29.917  1.00  0.00     0.029 A 
ATOM     41  N   UNL A   1      45.224  24.752  28.634  1.00  0.00    -0.354 N 
ATOM     42  C   UNL A   1      40.559  27.799  28.524  1.00  0.00     0.074 A 
ATOM     43  C   UNL A   1      39.674  26.773  28.024  1.00  0.00     0.031 C 
ATOM     44  C   UNL A   1      45.404  26.332  30.233  1.00  0.00     0.029 A 
ATOM     45  C   UNL A   1      46.153  25.681  29.174  1.00  0.00     0.049 A 
ATOM     46  H   UNL A   1      45.433  23.881  28.227  1.00  0.00     0.167 HD
ATOM     47  C   UNL A   1      40.377  28.903  29.301  1.00  0.00     0.037 A 
ATOM     48  C   UNL A   1      47.101  26.316  28.405  1.00  0.00     0.037 A 
ATOM     49  C   UNL A   1      41.657  29.467  29.720  1.00  0.00     0.049 A 
ATOM     50  C   UNL A   1      46.966  27.815  28.384  1.00  0.00     0.074 A 
ATOM     51  C   UNL A   1      42.404  29.317  30.878  1.00  0.00     0.029 A 
ATOM     52  N   UNL A   1      42.525  29.985  28.763  1.00  0.00    -0.354 N 
ATOM     53  N   UNL A   1      45.882  28.438  28.739  1.00  0.00    -0.248 NA
ATOM     54  C   UNL A   1      47.975  28.701  27.813  1.00  0.00     0.031 C 
ATOM     55  C   UNL A   1      43.736  29.705  30.600  1.00  0.00     0.029 A 
ATOM     56  C   UNL A   1      43.805  30.103  29.277  1.00  0.00     0.049 A 
ATOM     57  H   UNL A   1      42.265  30.234  27.846  1.00  0.00     0.167 HD
ATOM     58  C   UNL A   1      45.977  29.745  28.358  1.00  0.00     0.074 A 
ATOM     59  C   UNL A   1      47.321  29.875  27.828  1.00  0.00     0.031 C 
ATOM     60  C   UNL A   1      44.906  30.581  28.453  1.00  0.00     0.037 A 
BRANCH  47  61
ATOM     61  C   UNL A   1      39.047  29.181  29.953  1.00  0.00     0.064 A 
ATOM     62  C   UNL A   1      38.081  29.991  29.325  1.00  0.00     0.173 A 
ATOM     63  C   UNL A   1      38.706  28.734  31.244  1.00  0.00     0.173 A 
ATOM     64  F   UNL A   1      38.231  30.413  28.065  1.00  0.00    -0.203 F 
ATOM     65  C   UNL A   1      36.923  30.416  29.979  1.00  0.00     0.198 A 
ATOM     66  C   UNL A   1      37.576  29.205  31.920  1.00  0.00     0.198 A 
ATOM     67  F   UNL A   1      39.456  27.818  31.876  1.00  0.00    -0.203 F 
ATOM     68  F   UNL A   1      36.047  31.199  29.334  1.00  0.00    -0.200 F 
ATOM     69  C   UNL A   1      36.689  30.055  31.290  1.00  0.00     0.200 A 
ATOM     70  F   UNL A   1      37.360  28.839  33.191  1.00  0.00    -0.200 F 
ATOM     71  F   UNL A   1      35.606  30.510  31.934  1.00  0.00    -0.200 F 
ENDBRANCH  47  61
BRANCH  48  72
ATOM     72  C   UNL A   1      47.470  25.581  27.152  1.00  0.00     0.064 A 
ATOM     73  C   UNL A   1      46.816  26.020  25.997  1.00  0.00     0.173 A 
ATOM     74  C   UNL A   1      48.796  25.132  27.046  1.00  0.00     0.173 A 
ATOM     75  F   UNL A   1      45.518  26.360  26.040  1.00  0.00    -0.203 F 
ATOM     76  C   UNL A   1      47.588  26.452  24.936  1.00  0.00     0.198 A 
ATOM     77  C   UNL A   1      49.552  25.498  25.953  1.00  0.00     0.198 A 
ATOM     78  F   UNL A   1      49.408  24.532  28.075  1.00  0.00    -0.203 F 
ATOM     79  F   UNL A   1      47.003  27.224  24.012  1.00  0.00    -0.200 F 
ATOM     80  C   UNL A   1      48.969  26.262  24.965  1.00  0.00     0.200 A 
ATOM     81  F   UNL A   1      50.871  25.264  25.924  1.00  0.00    -0.200 F 
ATOM     82  F   UNL A   1      49.786  26.898  24.121  1.00  0.00    -0.200 F 
ENDBRANCH  48  72
BRANCH  60  83
ATOM     83  C   UNL A   1      44.845  31.952  27.850  1.00  0.00     0.064 A 
ATOM     84  C   UNL A   1      44.205  32.246  26.635  1.00  0.00     0.173 A 
ATOM     85  C   UNL A   1      45.353  33.058  28.565  1.00  0.00     0.173 A 
ATOM     86  F   UNL A   1      43.560  31.299  25.938  1.00  0.00    -0.203 F 
ATOM     87  C   UNL A   1      44.165  33.543  26.124  1.00  0.00     0.198 A 
ATOM     88  C   UNL A   1      45.251  34.359  28.085  1.00  0.00     0.198 A 
ATOM     89  F   UNL A   1      45.944  32.907  29.760  1.00  0.00    -0.203 F 
ATOM     90  F   UNL A   1      43.605  33.766  24.926  1.00  0.00    -0.200 F 
ATOM     91  C   UNL A   1      44.681  34.598  26.851  1.00  0.00     0.200 A 
ATOM     92  F   UNL A   1      45.696  35.379  28.830  1.00  0.00    -0.200 F 
ATOM     93  F   UNL A   1      44.612  35.847  26.373  1.00  0.00    -0.200 F 
ENDBRANCH  60  83
ENDBRANCH  34  35
ENDBRANCH  27  29
ENDBRANCH  26  27
ENDBRANCH  25  26
ENDBRANCH  24  25
ENDBRANCH   1  24
TORSDOF 16
ENDMDL
