MODEL 1
REMARK VINA RESULT:     -11.8      0.000      0.000
REMARK SMILES CC(C)[C@H]([NH2+]C[C@H]1CC[C@@H](C(=O)OCCOC(=O)c2ccc(-c3c4nc(c(-c5c(F)c(F)c(F)c(F)c5F)c5ccc([nH]5)c(-c5c(F)c(F)c(F)c(F)c5F)c5nc(c(-c6c(F)c(F)c(F)c(F)c6F)c6ccc3[nH]6)C=C5)C=C4)cc2)CC1)c1ccccc1
REMARK SMILES IDX 14 1 13 2 11 3 12 4 10 5 7 6 8 7 83 8 9 9 82 10 6 11 5 12
REMARK SMILES IDX 4 15 2 16 1 17 3 18 84 19 85 20 89 21 86 22 88 23 87 24
REMARK SMILES IDX 15 25 16 26 17 27 18 28 19 29 20 30 81 31 21 32 80 33 22 34
REMARK SMILES IDX 23 35 24 36 74 37 25 38 79 39 73 40 75 41 26 42 78 43 72 44
REMARK SMILES IDX 71 45 27 47 59 48 39 49 58 50 40 51 43 52 57 53 76 54 41 55
REMARK SMILES IDX 42 56 56 58 77 59 44 60 28 61 29 62 37 63 30 64 31 65 35 66
REMARK SMILES IDX 38 67 32 68 33 69 36 70 34 71 60 72 61 73 69 74 62 75 63 76
REMARK SMILES IDX 67 77 70 78 64 79 65 80 68 81 66 82 45 83 46 84 54 85 47 86
REMARK SMILES IDX 48 87 52 88 55 89 49 90 50 91 53 92 51 93
REMARK H PARENT 5 13 5 14 75 46 43 57
REMARK Flexibility Score: inf
ROOT
ATOM      1  C   UNL A   1      36.624  22.595  23.563  1.00  0.00     0.274 C 
ENDROOT
BRANCH   1   2
ATOM      2  O   UNL A   1      35.390  23.237  23.932  1.00  0.00    -0.462 OA
BRANCH   2   3
ATOM      3  C   UNL A   1      34.301  22.993  23.162  1.00  0.00     0.309 C 
ATOM      4  O   UNL A   1      34.105  23.483  22.056  1.00  0.00    -0.252 OA
BRANCH   3   5
ATOM      5  C   UNL A   1      33.298  22.051  23.827  1.00  0.00     0.099 C 
ATOM      6  C   UNL A   1      31.045  23.626  25.002  1.00  0.00     0.044 C 
ATOM      7  C   UNL A   1      31.200  23.402  23.484  1.00  0.00     0.010 C 
ATOM      8  C   UNL A   1      32.356  23.419  25.777  1.00  0.00     0.010 C 
ATOM      9  C   UNL A   1      31.945  22.123  23.138  1.00  0.00     0.016 C 
ATOM     10  C   UNL A   1      33.153  22.194  25.343  1.00  0.00     0.016 C 
BRANCH   6  11
ATOM     11  C   UNL A   1      30.533  25.056  25.298  1.00  0.00     0.264 C 
BRANCH  11  12
ATOM     12  N   UNL A   1      30.483  25.857  24.092  1.00  0.00    -0.340 N 
ATOM     13  H   UNL A   1      30.905  25.297  23.352  1.00  0.00     0.346 HD
ATOM     14  H   UNL A   1      29.492  26.086  24.010  1.00  0.00     0.346 HD
BRANCH  12  15
ATOM     15  C   UNL A   1      31.139  27.189  24.044  1.00  0.00     0.216 C 
BRANCH  15  16
ATOM     16  C   UNL A   1      32.585  27.225  23.411  1.00  0.00     0.046 C 
ATOM     17  C   UNL A   1      33.724  26.517  24.154  1.00  0.00     0.014 C 
ATOM     18  C   UNL A   1      32.546  26.600  21.997  1.00  0.00     0.014 C 
ENDBRANCH  15  16
BRANCH  15  19
ATOM     19  C   UNL A   1      30.029  28.166  23.618  1.00  0.00     0.009 A 
ATOM     20  C   UNL A   1      30.286  29.547  23.805  1.00  0.00     0.010 A 
ATOM     21  C   UNL A   1      28.750  27.812  23.182  1.00  0.00     0.010 A 
ATOM     22  C   UNL A   1      29.318  30.520  23.551  1.00  0.00     0.001 A 
ATOM     23  C   UNL A   1      27.794  28.791  22.876  1.00  0.00     0.001 A 
ATOM     24  C   UNL A   1      28.074  30.142  23.067  1.00  0.00     0.000 A 
ENDBRANCH  15  19
ENDBRANCH  12  15
ENDBRANCH  11  12
ENDBRANCH   6  11
ENDBRANCH   3   5
ENDBRANCH   2   3
ENDBRANCH   1   2
BRANCH   1  25
ATOM     25  C   UNL A   1      36.913  21.408  24.482  1.00  0.00     0.275 C 
BRANCH  25  26
ATOM     26  O   UNL A   1      37.398  21.864  25.758  1.00  0.00    -0.458 OA
BRANCH  26  27
ATOM     27  C   UNL A   1      38.667  21.513  26.055  1.00  0.00     0.338 C 
ATOM     28  O   UNL A   1      39.220  20.442  25.847  1.00  0.00    -0.246 OA
BRANCH  27  29
ATOM     29  C   UNL A   1      39.374  22.687  26.574  1.00  0.00     0.060 A 
ATOM     30  C   UNL A   1      38.932  23.953  26.183  1.00  0.00     0.016 A 
ATOM     31  C   UNL A   1      40.501  22.546  27.380  1.00  0.00     0.016 A 
ATOM     32  C   UNL A   1      39.611  25.093  26.595  1.00  0.00     0.010 A 
ATOM     33  C   UNL A   1      41.182  23.691  27.801  1.00  0.00     0.010 A 
ATOM     34  C   UNL A   1      40.745  24.969  27.403  1.00  0.00    -0.014 A 
BRANCH  34  35
ATOM     35  C   UNL A   1      41.516  26.173  27.783  1.00  0.00     0.031 A 
ATOM     36  C   UNL A   1      40.850  27.248  28.587  1.00  0.00     0.074 A 
ATOM     37  C   UNL A   1      42.803  26.292  27.414  1.00  0.00     0.049 A 
ATOM     38  N   UNL A   1      41.281  28.445  28.890  1.00  0.00    -0.248 NA
ATOM     39  C   UNL A   1      39.515  26.933  29.119  1.00  0.00     0.031 C 
ATOM     40  C   UNL A   1      43.572  25.280  26.693  1.00  0.00     0.029 A 
ATOM     41  N   UNL A   1      43.688  27.327  27.587  1.00  0.00    -0.354 N 
ATOM     42  C   UNL A   1      40.262  29.036  29.625  1.00  0.00     0.074 A 
ATOM     43  C   UNL A   1      39.187  28.071  29.714  1.00  0.00     0.031 C 
ATOM     44  C   UNL A   1      44.810  25.748  26.470  1.00  0.00     0.029 A 
ATOM     45  C   UNL A   1      44.901  27.113  26.982  1.00  0.00     0.049 A 
ATOM     46  H   UNL A   1      43.473  28.143  28.094  1.00  0.00     0.167 HD
ATOM     47  C   UNL A   1      40.234  30.273  30.173  1.00  0.00     0.037 A 
ATOM     48  C   UNL A   1      45.949  27.943  26.822  1.00  0.00     0.037 A 
ATOM     49  C   UNL A   1      41.316  31.218  30.087  1.00  0.00     0.049 A 
ATOM     50  C   UNL A   1      45.863  29.340  27.376  1.00  0.00     0.074 A 
ATOM     51  C   UNL A   1      41.387  32.501  30.599  1.00  0.00     0.029 A 
ATOM     52  N   UNL A   1      42.524  30.974  29.448  1.00  0.00    -0.354 N 
ATOM     53  N   UNL A   1      44.887  29.908  28.041  1.00  0.00    -0.248 NA
ATOM     54  C   UNL A   1      47.022  30.215  27.149  1.00  0.00     0.031 C 
ATOM     55  C   UNL A   1      42.624  33.048  30.237  1.00  0.00     0.029 A 
ATOM     56  C   UNL A   1      43.340  32.089  29.538  1.00  0.00     0.049 A 
ATOM     57  H   UNL A   1      42.764  30.132  28.996  1.00  0.00     0.167 HD
ATOM     58  C   UNL A   1      45.319  31.195  28.330  1.00  0.00     0.074 A 
ATOM     59  C   UNL A   1      46.652  31.322  27.778  1.00  0.00     0.031 C 
ATOM     60  C   UNL A   1      44.669  32.185  28.990  1.00  0.00     0.037 A 
BRANCH  47  61
ATOM     61  C   UNL A   1      38.978  30.687  30.882  1.00  0.00     0.064 A 
ATOM     62  C   UNL A   1      38.840  30.565  32.271  1.00  0.00     0.173 A 
ATOM     63  C   UNL A   1      37.908  31.237  30.161  1.00  0.00     0.173 A 
ATOM     64  F   UNL A   1      39.829  30.029  33.003  1.00  0.00    -0.203 F 
ATOM     65  C   UNL A   1      37.668  30.959  32.911  1.00  0.00     0.198 A 
ATOM     66  C   UNL A   1      36.747  31.654  30.807  1.00  0.00     0.198 A 
ATOM     67  F   UNL A   1      37.990  31.378  28.829  1.00  0.00    -0.203 F 
ATOM     68  F   UNL A   1      37.541  30.792  34.236  1.00  0.00    -0.200 F 
ATOM     69  C   UNL A   1      36.625  31.508  32.180  1.00  0.00     0.200 A 
ATOM     70  F   UNL A   1      35.745  32.193  30.100  1.00  0.00    -0.200 F 
ATOM     71  F   UNL A   1      35.499  31.890  32.798  1.00  0.00    -0.200 F 
ENDBRANCH  47  61
BRANCH  48  72
ATOM     72  C   UNL A   1      47.147  27.489  26.070  1.00  0.00     0.064 A 
ATOM     73  C   UNL A   1      48.254  26.946  26.733  1.00  0.00     0.173 A 
ATOM     74  C   UNL A   1      47.211  27.596  24.672  1.00  0.00     0.173 A 
ATOM     75  F   UNL A   1      48.252  26.848  28.071  1.00  0.00    -0.203 F 
ATOM     76  C   UNL A   1      49.386  26.539  26.029  1.00  0.00     0.198 A 
ATOM     77  C   UNL A   1      48.331  27.163  23.967  1.00  0.00     0.198 A 
ATOM     78  F   UNL A   1      46.178  28.113  23.990  1.00  0.00    -0.203 F 
ATOM     79  F   UNL A   1      50.450  26.065  26.691  1.00  0.00    -0.200 F 
ATOM     80  C   UNL A   1      49.421  26.642  24.647  1.00  0.00     0.200 A 
ATOM     81  F   UNL A   1      48.354  27.254  22.630  1.00  0.00    -0.200 F 
ATOM     82  F   UNL A   1      50.507  26.247  23.970  1.00  0.00    -0.200 F 
ENDBRANCH  48  72
BRANCH  60  83
ATOM     83  C   UNL A   1      45.406  33.477  29.184  1.00  0.00     0.064 A 
ATOM     84  C   UNL A   1      45.296  34.530  28.266  1.00  0.00     0.173 A 
ATOM     85  C   UNL A   1      46.195  33.676  30.327  1.00  0.00     0.173 A 
ATOM     86  F   UNL A   1      44.566  34.380  27.150  1.00  0.00    -0.203 F 
ATOM     87  C   UNL A   1      45.964  35.733  28.477  1.00  0.00     0.198 A 
ATOM     88  C   UNL A   1      46.841  34.889  30.547  1.00  0.00     0.198 A 
ATOM     89  F   UNL A   1      46.327  32.699  31.237  1.00  0.00    -0.203 F 
ATOM     90  F   UNL A   1      45.877  36.714  27.568  1.00  0.00    -0.200 F 
ATOM     91  C   UNL A   1      46.729  35.914  29.620  1.00  0.00     0.200 A 
ATOM     92  F   UNL A   1      47.570  35.066  31.658  1.00  0.00    -0.200 F 
ATOM     93  F   UNL A   1      47.365  37.075  29.825  1.00  0.00    -0.200 F 
ENDBRANCH  60  83
ENDBRANCH  34  35
ENDBRANCH  27  29
ENDBRANCH  26  27
ENDBRANCH  25  26
ENDBRANCH   1  25
TORSDOF 16
ENDMDL
MODEL 2
REMARK VINA RESULT:     -11.7      4.320      9.770
REMARK SMILES CC(C)[C@H]([NH2+]C[C@H]1CC[C@@H](C(=O)OCCOC(=O)c2ccc(-c3c4nc(c(-c5c(F)c(F)c(F)c(F)c5F)c5ccc([nH]5)c(-c5c(F)c(F)c(F)c(F)c5F)c5nc(c(-c6c(F)c(F)c(F)c(F)c6F)c6ccc3[nH]6)C=C5)C=C4)cc2)CC1)c1ccccc1
REMARK SMILES IDX 14 1 13 2 11 3 12 4 10 5 7 6 8 7 83 8 9 9 82 10 6 11 5 12
REMARK SMILES IDX 4 15 2 16 1 17 3 18 84 19 85 20 89 21 86 22 88 23 87 24
REMARK SMILES IDX 15 25 16 26 17 27 18 28 19 29 20 30 81 31 21 32 80 33 22 34
REMARK SMILES IDX 23 35 24 36 74 37 25 38 79 39 73 40 75 41 26 42 78 43 72 44
REMARK SMILES IDX 71 45 27 47 59 48 39 49 58 50 40 51 43 52 57 53 76 54 41 55
REMARK SMILES IDX 42 56 56 58 77 59 44 60 28 61 29 62 37 63 30 64 31 65 35 66
REMARK SMILES IDX 38 67 32 68 33 69 36 70 34 71 60 72 61 73 69 74 62 75 63 76
REMARK SMILES IDX 67 77 70 78 64 79 65 80 68 81 66 82 45 83 46 84 54 85 47 86
REMARK SMILES IDX 48 87 52 88 55 89 49 90 50 91 53 92 51 93
REMARK H PARENT 5 13 5 14 75 46 43 57
REMARK Flexibility Score: inf
ROOT
ATOM      1  C   UNL A   1      31.399  29.987  25.002  1.00  0.00     0.274 C 
ENDROOT
BRANCH   1   2
ATOM      2  O   UNL A   1      31.544  28.558  24.890  1.00  0.00    -0.462 OA
BRANCH   2   3
ATOM      3  C   UNL A   1      32.161  28.076  23.784  1.00  0.00     0.309 C 
ATOM      4  O   UNL A   1      33.361  28.174  23.555  1.00  0.00    -0.252 OA
BRANCH   3   5
ATOM      5  C   UNL A   1      31.196  27.407  22.806  1.00  0.00     0.099 C 
ATOM      6  C   UNL A   1      30.631  24.607  23.686  1.00  0.00     0.044 C 
ATOM      7  C   UNL A   1      30.040  25.839  24.402  1.00  0.00     0.010 C 
ATOM      8  C   UNL A   1      31.876  24.938  22.848  1.00  0.00     0.010 C 
ATOM      9  C   UNL A   1      29.888  27.047  23.493  1.00  0.00     0.016 C 
ATOM     10  C   UNL A   1      31.754  26.216  22.026  1.00  0.00     0.016 C 
BRANCH   6  11
ATOM     11  C   UNL A   1      31.017  23.509  24.705  1.00  0.00     0.264 C 
BRANCH  11  12
ATOM     12  N   UNL A   1      32.433  23.205  24.639  1.00  0.00    -0.340 N 
ATOM     13  H   UNL A   1      32.794  23.675  23.809  1.00  0.00     0.346 HD
ATOM     14  H   UNL A   1      32.776  23.516  25.549  1.00  0.00     0.346 HD
BRANCH  12  15
ATOM     15  C   UNL A   1      32.899  21.797  24.569  1.00  0.00     0.216 C 
BRANCH  15  16
ATOM     16  C   UNL A   1      32.061  20.838  23.636  1.00  0.00     0.046 C 
ATOM     17  C   UNL A   1      32.042  21.120  22.129  1.00  0.00     0.014 C 
ATOM     18  C   UNL A   1      32.575  19.388  23.790  1.00  0.00     0.014 C 
ENDBRANCH  15  16
BRANCH  15  19
ATOM     19  C   UNL A   1      34.433  21.887  24.493  1.00  0.00     0.009 A 
ATOM     20  C   UNL A   1      34.974  22.811  23.565  1.00  0.00     0.010 A 
ATOM     21  C   UNL A   1      35.337  21.057  25.161  1.00  0.00     0.010 A 
ATOM     22  C   UNL A   1      36.347  22.909  23.334  1.00  0.00     0.001 A 
ATOM     23  C   UNL A   1      36.719  21.190  24.969  1.00  0.00     0.001 A 
ATOM     24  C   UNL A   1      37.224  22.109  24.053  1.00  0.00     0.000 A 
ENDBRANCH  15  19
ENDBRANCH  12  15
ENDBRANCH  11  12
ENDBRANCH   6  11
ENDBRANCH   3   5
ENDBRANCH   2   3
ENDBRANCH   1   2
BRANCH   1  25
ATOM     25  C   UNL A   1      31.777  30.460  26.406  1.00  0.00     0.275 C 
BRANCH  25  26
ATOM     26  O   UNL A   1      33.203  30.617  26.517  1.00  0.00    -0.458 OA
BRANCH  26  27
ATOM     27  C   UNL A   1      33.615  31.675  27.249  1.00  0.00     0.338 C 
ATOM     28  O   UNL A   1      33.016  32.720  27.464  1.00  0.00    -0.246 OA
BRANCH  27  29
ATOM     29  C   UNL A   1      34.888  31.338  27.892  1.00  0.00     0.060 A 
ATOM     30  C   UNL A   1      35.057  30.045  28.390  1.00  0.00     0.016 A 
ATOM     31  C   UNL A   1      35.878  32.303  28.065  1.00  0.00     0.016 A 
ATOM     32  C   UNL A   1      36.221  29.699  29.066  1.00  0.00     0.010 A 
ATOM     33  C   UNL A   1      37.052  31.956  28.741  1.00  0.00     0.010 A 
ATOM     34  C   UNL A   1      37.224  30.655  29.251  1.00  0.00    -0.014 A 
BRANCH  34  35
ATOM     35  C   UNL A   1      38.432  30.315  30.035  1.00  0.00     0.031 A 
ATOM     36  C   UNL A   1      39.448  29.381  29.452  1.00  0.00     0.074 A 
ATOM     37  C   UNL A   1      38.614  30.849  31.255  1.00  0.00     0.049 A 
ATOM     38  N   UNL A   1      40.488  28.826  30.019  1.00  0.00    -0.248 NA
ATOM     39  C   UNL A   1      39.266  29.020  28.037  1.00  0.00     0.031 C 
ATOM     40  C   UNL A   1      37.728  31.822  31.892  1.00  0.00     0.029 A 
ATOM     41  N   UNL A   1      39.603  30.636  32.183  1.00  0.00    -0.354 N 
ATOM     42  C   UNL A   1      41.069  28.031  29.041  1.00  0.00     0.074 A 
ATOM     43  C   UNL A   1      40.262  28.165  27.847  1.00  0.00     0.031 C 
ATOM     44  C   UNL A   1      38.204  32.111  33.114  1.00  0.00     0.029 A 
ATOM     45  C   UNL A   1      39.393  31.302  33.365  1.00  0.00     0.049 A 
ATOM     46  H   UNL A   1      40.384  30.061  32.017  1.00  0.00     0.167 HD
ATOM     47  C   UNL A   1      42.177  27.260  29.138  1.00  0.00     0.037 A 
ATOM     48  C   UNL A   1      40.062  31.229  34.531  1.00  0.00     0.037 A 
ATOM     49  C   UNL A   1      42.978  27.145  30.328  1.00  0.00     0.049 A 
ATOM     50  C   UNL A   1      41.247  30.307  34.636  1.00  0.00     0.074 A 
ATOM     51  C   UNL A   1      44.115  26.386  30.537  1.00  0.00     0.029 A 
ATOM     52  N   UNL A   1      42.724  27.819  31.515  1.00  0.00    -0.354 N 
ATOM     53  N   UNL A   1      41.775  29.531  33.721  1.00  0.00    -0.248 NA
ATOM     54  C   UNL A   1      41.924  30.244  35.940  1.00  0.00     0.031 C 
ATOM     55  C   UNL A   1      44.527  26.570  31.861  1.00  0.00     0.029 A 
ATOM     56  C   UNL A   1      43.673  27.480  32.464  1.00  0.00     0.049 A 
ATOM     57  H   UNL A   1      41.977  28.446  31.660  1.00  0.00     0.167 HD
ATOM     58  C   UNL A   1      42.855  28.904  34.328  1.00  0.00     0.074 A 
ATOM     59  C   UNL A   1      42.915  29.400  35.687  1.00  0.00     0.031 C 
ATOM     60  C   UNL A   1      43.718  27.997  33.808  1.00  0.00     0.037 A 
BRANCH  47  61
ATOM     61  C   UNL A   1      42.566  26.453  27.935  1.00  0.00     0.064 A 
ATOM     62  C   UNL A   1      42.040  25.175  27.702  1.00  0.00     0.173 A 
ATOM     63  C   UNL A   1      43.458  26.979  26.989  1.00  0.00     0.173 A 
ATOM     64  F   UNL A   1      41.195  24.621  28.585  1.00  0.00    -0.203 F 
ATOM     65  C   UNL A   1      42.409  24.443  26.576  1.00  0.00     0.198 A 
ATOM     66  C   UNL A   1      43.806  26.255  25.851  1.00  0.00     0.198 A 
ATOM     67  F   UNL A   1      43.989  28.199  27.163  1.00  0.00    -0.203 F 
ATOM     68  F   UNL A   1      41.928  23.204  26.396  1.00  0.00    -0.200 F 
ATOM     69  C   UNL A   1      43.287  24.986  25.649  1.00  0.00     0.200 A 
ATOM     70  F   UNL A   1      44.647  26.785  24.952  1.00  0.00    -0.200 F 
ATOM     71  F   UNL A   1      43.639  24.281  24.564  1.00  0.00    -0.200 F 
ENDBRANCH  47  61
BRANCH  48  72
ATOM     72  C   UNL A   1      39.600  32.020  35.701  1.00  0.00     0.064 A 
ATOM     73  C   UNL A   1      40.160  33.269  35.997  1.00  0.00     0.173 A 
ATOM     74  C   UNL A   1      38.593  31.538  36.552  1.00  0.00     0.173 A 
ATOM     75  F   UNL A   1      41.144  33.761  35.229  1.00  0.00    -0.203 F 
ATOM     76  C   UNL A   1      39.740  34.001  37.106  1.00  0.00     0.198 A 
ATOM     77  C   UNL A   1      38.154  32.283  37.644  1.00  0.00     0.198 A 
ATOM     78  F   UNL A   1      38.028  30.345  36.314  1.00  0.00    -0.203 F 
ATOM     79  F   UNL A   1      40.323  35.173  37.393  1.00  0.00    -0.200 F 
ATOM     80  C   UNL A   1      38.734  33.510  37.925  1.00  0.00     0.200 A 
ATOM     81  F   UNL A   1      37.174  31.808  38.424  1.00  0.00    -0.200 F 
ATOM     82  F   UNL A   1      38.329  34.215  38.989  1.00  0.00    -0.200 F 
ENDBRANCH  48  72
BRANCH  60  83
ATOM     83  C   UNL A   1      44.821  27.513  34.700  1.00  0.00     0.064 A 
ATOM     84  C   UNL A   1      46.040  28.197  34.798  1.00  0.00     0.173 A 
ATOM     85  C   UNL A   1      44.635  26.375  35.501  1.00  0.00     0.173 A 
ATOM     86  F   UNL A   1      46.270  29.280  34.040  1.00  0.00    -0.203 F 
ATOM     87  C   UNL A   1      47.044  27.748  35.653  1.00  0.00     0.198 A 
ATOM     88  C   UNL A   1      45.631  25.945  36.374  1.00  0.00     0.198 A 
ATOM     89  F   UNL A   1      43.484  25.690  35.446  1.00  0.00    -0.203 F 
ATOM     90  F   UNL A   1      48.217  28.394  35.703  1.00  0.00    -0.200 F 
ATOM     91  C   UNL A   1      46.835  26.629  36.445  1.00  0.00     0.200 A 
ATOM     92  F   UNL A   1      45.423  24.870  37.146  1.00  0.00    -0.200 F 
ATOM     93  F   UNL A   1      47.798  26.204  37.274  1.00  0.00    -0.200 F 
ENDBRANCH  60  83
ENDBRANCH  34  35
ENDBRANCH  27  29
ENDBRANCH  26  27
ENDBRANCH  25  26
ENDBRANCH   1  25
TORSDOF 16
ENDMDL
MODEL 3
REMARK VINA RESULT:     -11.7      0.923      2.103
REMARK SMILES CC(C)[C@H]([NH2+]C[C@H]1CC[C@@H](C(=O)OCCOC(=O)c2ccc(-c3c4nc(c(-c5c(F)c(F)c(F)c(F)c5F)c5ccc([nH]5)c(-c5c(F)c(F)c(F)c(F)c5F)c5nc(c(-c6c(F)c(F)c(F)c(F)c6F)c6ccc3[nH]6)C=C5)C=C4)cc2)CC1)c1ccccc1
REMARK SMILES IDX 14 1 13 2 11 3 12 4 10 5 7 6 8 7 83 8 9 9 82 10 6 11 5 12
REMARK SMILES IDX 4 15 2 16 1 17 3 18 84 19 85 20 89 21 86 22 88 23 87 24
REMARK SMILES IDX 15 25 16 26 17 27 18 28 19 29 20 30 81 31 21 32 80 33 22 34
REMARK SMILES IDX 23 35 24 36 74 37 25 38 79 39 73 40 75 41 26 42 78 43 72 44
REMARK SMILES IDX 71 45 27 47 59 48 39 49 58 50 40 51 43 52 57 53 76 54 41 55
REMARK SMILES IDX 42 56 56 58 77 59 44 60 28 61 29 62 37 63 30 64 31 65 35 66
REMARK SMILES IDX 38 67 32 68 33 69 36 70 34 71 60 72 61 73 69 74 62 75 63 76
REMARK SMILES IDX 67 77 70 78 64 79 65 80 68 81 66 82 45 83 46 84 54 85 47 86
REMARK SMILES IDX 48 87 52 88 55 89 49 90 50 91 53 92 51 93
REMARK H PARENT 5 13 5 14 75 46 43 57
REMARK Flexibility Score: inf
ROOT
ATOM      1  C   UNL A   1      35.513  21.714  24.549  1.00  0.00     0.274 C 
ENDROOT
BRANCH   1   2
ATOM      2  O   UNL A   1      35.326  23.096  24.188  1.00  0.00    -0.462 OA
BRANCH   2   3
ATOM      3  C   UNL A   1      34.259  23.403  23.411  1.00  0.00     0.309 C 
ATOM      4  O   UNL A   1      34.246  23.342  22.187  1.00  0.00    -0.252 OA
BRANCH   3   5
ATOM      5  C   UNL A   1      33.049  23.873  24.218  1.00  0.00     0.099 C 
ATOM      6  C   UNL A   1      32.630  26.805  23.811  1.00  0.00     0.044 C 
ATOM      7  C   UNL A   1      32.291  25.759  22.730  1.00  0.00     0.010 C 
ATOM      8  C   UNL A   1      33.626  26.285  24.859  1.00  0.00     0.010 C 
ATOM      9  C   UNL A   1      31.952  24.391  23.301  1.00  0.00     0.016 C 
ATOM     10  C   UNL A   1      33.342  24.867  25.342  1.00  0.00     0.016 C 
BRANCH   6  11
ATOM     11  C   UNL A   1      33.228  28.082  23.174  1.00  0.00     0.264 C 
BRANCH  11  12
ATOM     12  N   UNL A   1      32.531  29.270  23.626  1.00  0.00    -0.340 N 
ATOM     13  H   UNL A   1      33.237  29.887  24.028  1.00  0.00     0.346 HD
ATOM     14  H   UNL A   1      32.047  29.585  22.786  1.00  0.00     0.346 HD
BRANCH  12  15
ATOM     15  C   UNL A   1      31.437  29.168  24.625  1.00  0.00     0.216 C 
BRANCH  15  16
ATOM     16  C   UNL A   1      31.784  29.665  26.083  1.00  0.00     0.046 C 
ATOM     17  C   UNL A   1      31.655  28.671  27.243  1.00  0.00     0.014 C 
ATOM     18  C   UNL A   1      33.242  30.177  26.122  1.00  0.00     0.014 C 
ENDBRANCH  15  16
BRANCH  15  19
ATOM     19  C   UNL A   1      30.171  29.624  23.878  1.00  0.00     0.009 A 
ATOM     20  C   UNL A   1      29.744  30.957  24.100  1.00  0.00     0.010 A 
ATOM     21  C   UNL A   1      29.339  28.812  23.105  1.00  0.00     0.010 A 
ATOM     22  C   UNL A   1      28.556  31.452  23.559  1.00  0.00     0.001 A 
ATOM     23  C   UNL A   1      28.173  29.322  22.518  1.00  0.00     0.001 A 
ATOM     24  C   UNL A   1      27.778  30.637  22.750  1.00  0.00     0.000 A 
ENDBRANCH  15  19
ENDBRANCH  12  15
ENDBRANCH  11  12
ENDBRANCH   6  11
ENDBRANCH   3   5
ENDBRANCH   2   3
ENDBRANCH   1   2
BRANCH   1  25
ATOM     25  C   UNL A   1      37.000  21.384  24.677  1.00  0.00     0.275 C 
BRANCH  25  26
ATOM     26  O   UNL A   1      37.538  21.944  25.889  1.00  0.00    -0.458 OA
BRANCH  26  27
ATOM     27  C   UNL A   1      38.824  21.631  26.151  1.00  0.00     0.338 C 
ATOM     28  O   UNL A   1      39.402  20.575  25.932  1.00  0.00    -0.246 OA
BRANCH  27  29
ATOM     29  C   UNL A   1      39.511  22.827  26.645  1.00  0.00     0.060 A 
ATOM     30  C   UNL A   1      39.148  24.067  26.112  1.00  0.00     0.016 A 
ATOM     31  C   UNL A   1      40.548  22.727  27.570  1.00  0.00     0.016 A 
ATOM     32  C   UNL A   1      39.817  25.221  26.500  1.00  0.00     0.010 A 
ATOM     33  C   UNL A   1      41.218  23.888  27.965  1.00  0.00     0.010 A 
ATOM     34  C   UNL A   1      40.861  25.138  27.426  1.00  0.00    -0.014 A 
BRANCH  34  35
ATOM     35  C   UNL A   1      41.626  26.352  27.786  1.00  0.00     0.031 A 
ATOM     36  C   UNL A   1      40.968  27.419  28.607  1.00  0.00     0.074 A 
ATOM     37  C   UNL A   1      42.902  26.487  27.384  1.00  0.00     0.049 A 
ATOM     38  N   UNL A   1      41.392  28.621  28.900  1.00  0.00    -0.248 NA
ATOM     39  C   UNL A   1      39.652  27.087  29.175  1.00  0.00     0.031 C 
ATOM     40  C   UNL A   1      43.665  25.485  26.641  1.00  0.00     0.029 A 
ATOM     41  N   UNL A   1      43.778  27.534  27.533  1.00  0.00    -0.354 N 
ATOM     42  C   UNL A   1      40.386  29.199  29.662  1.00  0.00     0.074 A 
ATOM     43  C   UNL A   1      39.326  28.220  29.779  1.00  0.00     0.031 C 
ATOM     44  C   UNL A   1      44.890  25.969  26.386  1.00  0.00     0.029 A 
ATOM     45  C   UNL A   1      44.978  27.335  26.896  1.00  0.00     0.049 A 
ATOM     46  H   UNL A   1      43.566  28.347  28.046  1.00  0.00     0.167 HD
ATOM     47  C   UNL A   1      40.357  30.436  30.211  1.00  0.00     0.037 A 
ATOM     48  C   UNL A   1      46.010  28.178  26.709  1.00  0.00     0.037 A 
ATOM     49  C   UNL A   1      41.424  31.394  30.097  1.00  0.00     0.049 A 
ATOM     50  C   UNL A   1      45.921  29.574  27.266  1.00  0.00     0.074 A 
ATOM     51  C   UNL A   1      41.493  32.678  30.607  1.00  0.00     0.029 A 
ATOM     52  N   UNL A   1      42.617  31.165  29.426  1.00  0.00    -0.354 N 
ATOM     53  N   UNL A   1      44.956  30.130  27.957  1.00  0.00    -0.248 NA
ATOM     54  C   UNL A   1      47.062  30.464  27.008  1.00  0.00     0.031 C 
ATOM     55  C   UNL A   1      42.712  33.240  30.212  1.00  0.00     0.029 A 
ATOM     56  C   UNL A   1      43.421  32.291  29.494  1.00  0.00     0.049 A 
ATOM     57  H   UNL A   1      42.856  30.327  28.967  1.00  0.00     0.167 HD
ATOM     58  C   UNL A   1      45.378  31.422  28.234  1.00  0.00     0.074 A 
ATOM     59  C   UNL A   1      46.695  31.565  27.647  1.00  0.00     0.031 C 
ATOM     60  C   UNL A   1      44.734  32.404  28.911  1.00  0.00     0.037 A 
BRANCH  47  61
ATOM     61  C   UNL A   1      39.115  30.833  30.953  1.00  0.00     0.064 A 
ATOM     62  C   UNL A   1      38.988  30.642  32.336  1.00  0.00     0.173 A 
ATOM     63  C   UNL A   1      38.048  31.437  30.272  1.00  0.00     0.173 A 
ATOM     64  F   UNL A   1      39.974  30.053  33.029  1.00  0.00    -0.203 F 
ATOM     65  C   UNL A   1      37.829  31.022  33.007  1.00  0.00     0.198 A 
ATOM     66  C   UNL A   1      36.900  31.840  30.951  1.00  0.00     0.198 A 
ATOM     67  F   UNL A   1      38.119  31.645  28.948  1.00  0.00    -0.203 F 
ATOM     68  F   UNL A   1      37.711  30.790  34.323  1.00  0.00    -0.200 F 
ATOM     69  C   UNL A   1      36.789  31.626  32.316  1.00  0.00     0.200 A 
ATOM     70  F   UNL A   1      35.900  32.431  30.283  1.00  0.00    -0.200 F 
ATOM     71  F   UNL A   1      35.675  31.994  32.965  1.00  0.00    -0.200 F 
ENDBRANCH  47  61
BRANCH  48  72
ATOM     72  C   UNL A   1      47.193  27.740  25.925  1.00  0.00     0.064 A 
ATOM     73  C   UNL A   1      47.191  27.784  24.526  1.00  0.00     0.173 A 
ATOM     74  C   UNL A   1      48.349  27.262  26.562  1.00  0.00     0.173 A 
ATOM     75  F   UNL A   1      46.101  28.208  23.870  1.00  0.00    -0.203 F 
ATOM     76  C   UNL A   1      48.295  27.354  23.791  1.00  0.00     0.198 A 
ATOM     77  C   UNL A   1      49.462  26.860  25.828  1.00  0.00     0.198 A 
ATOM     78  F   UNL A   1      48.400  27.196  27.901  1.00  0.00    -0.203 F 
ATOM     79  F   UNL A   1      48.251  27.364  22.452  1.00  0.00    -0.200 F 
ATOM     80  C   UNL A   1      49.431  26.898  24.443  1.00  0.00     0.200 A 
ATOM     81  F   UNL A   1      50.561  26.430  26.463  1.00  0.00    -0.200 F 
ATOM     82  F   UNL A   1      50.493  26.488  23.736  1.00  0.00    -0.200 F 
ENDBRANCH  48  72
BRANCH  60  83
ATOM     83  C   UNL A   1      45.460  33.705  29.086  1.00  0.00     0.064 A 
ATOM     84  C   UNL A   1      46.321  33.925  30.169  1.00  0.00     0.173 A 
ATOM     85  C   UNL A   1      45.324  34.724  28.131  1.00  0.00     0.173 A 
ATOM     86  F   UNL A   1      46.469  32.987  31.116  1.00  0.00    -0.203 F 
ATOM     87  C   UNL A   1      47.009  35.129  30.300  1.00  0.00     0.198 A 
ATOM     88  C   UNL A   1      46.033  35.915  28.251  1.00  0.00     0.198 A 
ATOM     89  F   UNL A   1      44.516  34.557  27.074  1.00  0.00    -0.203 F 
ATOM     90  F   UNL A   1      47.797  35.335  31.364  1.00  0.00    -0.200 F 
ATOM     91  C   UNL A   1      46.870  36.119  29.338  1.00  0.00     0.200 A 
ATOM     92  F   UNL A   1      45.907  36.865  27.315  1.00  0.00    -0.200 F 
ATOM     93  F   UNL A   1      47.539  37.273  29.461  1.00  0.00    -0.200 F 
ENDBRANCH  60  83
ENDBRANCH  34  35
ENDBRANCH  27  29
ENDBRANCH  26  27
ENDBRANCH  25  26
ENDBRANCH   1  25
TORSDOF 16
ENDMDL
