MODEL 1
REMARK VINA RESULT:     -11.3      0.000      0.000
REMARK SMILES CC[NH2+][C@]1(C(=O)OCCOC(=O)c2ccc(-c3c4nc(c(-c5c(F)c(F)c(F)c(F)c5F)c5ccc([nH]5)c(-c5c(F)c(F)c(F)c(F)c5F)c5nc(c(-c6c(F)c(F)c(F)c(F)c6F)c6ccc3[nH]6)C=C5)C=C4)cc2)CCC[C@@H]1CCSc1ccc(C)cc1
REMARK SMILES IDX 8 1 7 2 5 3 6 4 4 5 76 6 79 7 77 8 78 9 3 10 2 13 1 14 80 15
REMARK SMILES IDX 81 16 82 17 83 18 84 19 89 20 85 21 88 22 86 23 87 24 9 25
REMARK SMILES IDX 10 26 11 27 12 28 13 29 14 30 75 31 15 32 74 33 16 34 17 35
REMARK SMILES IDX 18 36 68 37 19 38 73 39 67 40 69 41 20 42 72 43 66 44 65 45
REMARK SMILES IDX 21 47 53 48 33 49 52 50 34 51 37 52 51 53 70 54 35 55 36 56
REMARK SMILES IDX 50 58 71 59 38 60 22 61 23 62 31 63 24 64 25 65 29 66 32 67
REMARK SMILES IDX 26 68 27 69 30 70 28 71 54 72 55 73 63 74 56 75 57 76 61 77
REMARK SMILES IDX 64 78 58 79 59 80 62 81 60 82 39 83 40 84 48 85 41 86 42 87
REMARK SMILES IDX 46 88 49 89 43 90 44 91 47 92 45 93
REMARK H PARENT 3 11 3 12 69 46 37 57
REMARK Flexibility Score: inf
ROOT
ATOM      1  C   UNL A   1      31.168  30.121  24.959  1.00  0.00     0.274 C 
ENDROOT
BRANCH   1   2
ATOM      2  O   UNL A   1      31.208  28.688  24.779  1.00  0.00    -0.457 OA
BRANCH   2   3
ATOM      3  C   UNL A   1      32.140  28.238  23.905  1.00  0.00     0.368 C 
ATOM      4  O   UNL A   1      32.679  28.960  23.063  1.00  0.00    -0.245 OA
BRANCH   3   5
ATOM      5  C   UNL A   1      32.368  26.675  23.890  1.00  0.00     0.197 C 
ATOM      6  C   UNL A   1      33.821  26.465  24.360  1.00  0.00     0.081 C 
ATOM      7  C   UNL A   1      31.538  25.860  24.942  1.00  0.00     0.063 C 
ATOM      8  C   UNL A   1      33.764  26.281  25.867  1.00  0.00     0.008 C 
ATOM      9  C   UNL A   1      32.472  25.538  26.117  1.00  0.00     0.011 C 
BRANCH   5  10
ATOM     10  N   UNL A   1      32.025  26.311  22.480  1.00  0.00    -0.332 N 
ATOM     11  H   UNL A   1      31.277  25.619  22.514  1.00  0.00     0.347 HD
ATOM     12  H   UNL A   1      31.776  27.194  22.033  1.00  0.00     0.347 HD
BRANCH  10  13
ATOM     13  C   UNL A   1      33.097  25.760  21.659  1.00  0.00     0.257 C 
ATOM     14  C   UNL A   1      32.567  25.486  20.259  1.00  0.00     0.071 C 
ENDBRANCH  10  13
ENDBRANCH   5  10
BRANCH   7  15
ATOM     15  C   UNL A   1      30.738  24.605  24.508  1.00  0.00     0.022 C 
BRANCH  15  16
ATOM     16  C   UNL A   1      31.210  23.158  24.755  1.00  0.00     0.075 C 
BRANCH  16  17
ATOM     17  S   UNL A   1      32.431  22.329  23.651  1.00  0.00    -0.126 SA
BRANCH  17  18
ATOM     18  C   UNL A   1      34.071  22.729  24.235  1.00  0.00     0.007 A 
ATOM     19  C   UNL A   1      35.163  23.092  23.447  1.00  0.00     0.015 A 
ATOM     20  C   UNL A   1      34.288  22.572  25.609  1.00  0.00     0.015 A 
ATOM     21  C   UNL A   1      36.388  23.460  24.037  1.00  0.00     0.004 A 
ATOM     22  C   UNL A   1      35.514  22.898  26.198  1.00  0.00     0.004 A 
ATOM     23  C   UNL A   1      36.565  23.387  25.422  1.00  0.00    -0.051 A 
ATOM     24  C   UNL A   1      37.832  23.864  26.070  1.00  0.00     0.044 C 
ENDBRANCH  17  18
ENDBRANCH  16  17
ENDBRANCH  15  16
ENDBRANCH   7  15
ENDBRANCH   3   5
ENDBRANCH   2   3
ENDBRANCH   1   2
BRANCH   1  25
ATOM     25  C   UNL A   1      31.643  30.555  26.347  1.00  0.00     0.275 C 
BRANCH  25  26
ATOM     26  O   UNL A   1      33.079  30.623  26.430  1.00  0.00    -0.458 OA
BRANCH  26  27
ATOM     27  C   UNL A   1      33.548  31.594  27.243  1.00  0.00     0.338 C 
ATOM     28  O   UNL A   1      32.983  32.624  27.564  1.00  0.00    -0.246 OA
BRANCH  27  29
ATOM     29  C   UNL A   1      34.886  31.250  27.742  1.00  0.00     0.060 A 
ATOM     30  C   UNL A   1      35.137  29.945  28.161  1.00  0.00     0.016 A 
ATOM     31  C   UNL A   1      35.828  32.253  27.956  1.00  0.00     0.016 A 
ATOM     32  C   UNL A   1      36.290  29.646  28.879  1.00  0.00     0.010 A 
ATOM     33  C   UNL A   1      37.025  31.935  28.602  1.00  0.00     0.010 A 
ATOM     34  C   UNL A   1      37.254  30.636  29.094  1.00  0.00    -0.014 A 
BRANCH  34  35
ATOM     35  C   UNL A   1      38.500  30.333  29.842  1.00  0.00     0.031 A 
ATOM     36  C   UNL A   1      39.511  29.393  29.253  1.00  0.00     0.074 A 
ATOM     37  C   UNL A   1      38.705  30.870  31.059  1.00  0.00     0.049 A 
ATOM     38  N   UNL A   1      40.514  28.784  29.831  1.00  0.00    -0.248 NA
ATOM     39  C   UNL A   1      39.365  29.088  27.821  1.00  0.00     0.031 C 
ATOM     40  C   UNL A   1      37.836  31.850  31.713  1.00  0.00     0.029 A 
ATOM     41  N   UNL A   1      39.703  30.648  31.976  1.00  0.00    -0.354 N 
ATOM     42  C   UNL A   1      41.082  27.980  28.852  1.00  0.00     0.074 A 
ATOM     43  C   UNL A   1      40.318  28.184  27.639  1.00  0.00     0.031 C 
ATOM     44  C   UNL A   1      38.335  32.143  32.924  1.00  0.00     0.029 A 
ATOM     45  C   UNL A   1      39.505  31.307  33.164  1.00  0.00     0.049 A 
ATOM     46  H   UNL A   1      40.483  30.074  31.798  1.00  0.00     0.167 HD
ATOM     47  C   UNL A   1      42.141  27.142  28.965  1.00  0.00     0.037 A 
ATOM     48  C   UNL A   1      40.154  31.202  34.338  1.00  0.00     0.037 A 
ATOM     49  C   UNL A   1      42.914  26.982  30.170  1.00  0.00     0.049 A 
ATOM     50  C   UNL A   1      41.293  30.228  34.457  1.00  0.00     0.074 A 
ATOM     51  C   UNL A   1      44.008  26.164  30.393  1.00  0.00     0.029 A 
ATOM     52  N   UNL A   1      42.678  27.668  31.353  1.00  0.00    -0.354 N 
ATOM     53  N   UNL A   1      41.791  29.425  33.549  1.00  0.00    -0.248 NA
ATOM     54  C   UNL A   1      41.947  30.134  35.767  1.00  0.00     0.031 C 
ATOM     55  C   UNL A   1      44.413  26.332  31.722  1.00  0.00     0.029 A 
ATOM     56  C   UNL A   1      43.600  27.286  32.314  1.00  0.00     0.049 A 
ATOM     57  H   UNL A   1      41.961  28.329  31.489  1.00  0.00     0.167 HD
ATOM     58  C   UNL A   1      42.832  28.749  34.167  1.00  0.00     0.074 A 
ATOM     59  C   UNL A   1      42.899  29.241  35.528  1.00  0.00     0.031 C 
ATOM     60  C   UNL A   1      43.658  27.805  33.655  1.00  0.00     0.037 A 
BRANCH  47  61
ATOM     61  C   UNL A   1      42.497  26.305  27.773  1.00  0.00     0.064 A 
ATOM     62  C   UNL A   1      43.492  26.691  26.864  1.00  0.00     0.173 A 
ATOM     63  C   UNL A   1      41.851  25.078  27.557  1.00  0.00     0.173 A 
ATOM     64  F   UNL A   1      44.130  27.863  27.017  1.00  0.00    -0.203 F 
ATOM     65  C   UNL A   1      43.810  25.892  25.768  1.00  0.00     0.198 A 
ATOM     66  C   UNL A   1      42.190  24.268  26.475  1.00  0.00     0.198 A 
ATOM     67  F   UNL A   1      40.894  24.659  28.398  1.00  0.00    -0.203 F 
ATOM     68  F   UNL A   1      44.734  26.301  24.888  1.00  0.00    -0.200 F 
ATOM     69  C   UNL A   1      43.164  24.679  25.579  1.00  0.00     0.200 A 
ATOM     70  F   UNL A   1      41.571  23.093  26.300  1.00  0.00    -0.200 F 
ATOM     71  F   UNL A   1      43.475  23.909  24.527  1.00  0.00    -0.200 F 
ENDBRANCH  47  61
BRANCH  48  72
ATOM     72  C   UNL A   1      39.708  32.007  35.503  1.00  0.00     0.064 A 
ATOM     73  C   UNL A   1      38.705  31.537  36.360  1.00  0.00     0.173 A 
ATOM     74  C   UNL A   1      40.280  33.256  35.789  1.00  0.00     0.173 A 
ATOM     75  F   UNL A   1      38.114  30.359  36.114  1.00  0.00    -0.203 F 
ATOM     76  C   UNL A   1      38.283  32.289  37.453  1.00  0.00     0.198 A 
ATOM     77  C   UNL A   1      39.877  33.995  36.899  1.00  0.00     0.198 A 
ATOM     78  F   UNL A   1      41.245  33.751  35.000  1.00  0.00    -0.203 F 
ATOM     79  F   UNL A   1      37.296  31.833  38.236  1.00  0.00    -0.200 F 
ATOM     80  C   UNL A   1      38.874  33.514  37.726  1.00  0.00     0.200 A 
ATOM     81  F   UNL A   1      40.462  35.170  37.167  1.00  0.00    -0.200 F 
ATOM     82  F   UNL A   1      38.473  34.233  38.784  1.00  0.00    -0.200 F 
ENDBRANCH  48  72
BRANCH  60  83
ATOM     83  C   UNL A   1      44.740  27.287  34.553  1.00  0.00     0.064 A 
ATOM     84  C   UNL A   1      45.983  27.925  34.653  1.00  0.00     0.173 A 
ATOM     85  C   UNL A   1      44.508  26.160  35.357  1.00  0.00     0.173 A 
ATOM     86  F   UNL A   1      46.256  28.995  33.892  1.00  0.00    -0.203 F 
ATOM     87  C   UNL A   1      46.965  27.442  35.514  1.00  0.00     0.198 A 
ATOM     88  C   UNL A   1      45.483  25.695  36.233  1.00  0.00     0.198 A 
ATOM     89  F   UNL A   1      43.331  25.517  35.297  1.00  0.00    -0.203 F 
ATOM     90  F   UNL A   1      48.162  28.043  35.566  1.00  0.00    -0.200 F 
ATOM     91  C   UNL A   1      46.712  26.332  36.308  1.00  0.00     0.200 A 
ATOM     92  F   UNL A   1      45.232  24.629  37.007  1.00  0.00    -0.200 F 
ATOM     93  F   UNL A   1      47.656  25.874  37.140  1.00  0.00    -0.200 F 
ENDBRANCH  60  83
ENDBRANCH  34  35
ENDBRANCH  27  29
ENDBRANCH  26  27
ENDBRANCH  25  26
ENDBRANCH   1  25
TORSDOF 17
ENDMDL
MODEL 2
REMARK VINA RESULT:     -11.2      4.537      9.616
REMARK SMILES CC[NH2+][C@]1(C(=O)OCCOC(=O)c2ccc(-c3c4nc(c(-c5c(F)c(F)c(F)c(F)c5F)c5ccc([nH]5)c(-c5c(F)c(F)c(F)c(F)c5F)c5nc(c(-c6c(F)c(F)c(F)c(F)c6F)c6ccc3[nH]6)C=C5)C=C4)cc2)CCC[C@@H]1CCSc1ccc(C)cc1
REMARK SMILES IDX 8 1 7 2 5 3 6 4 4 5 76 6 79 7 77 8 78 9 3 10 2 13 1 14 80 15
REMARK SMILES IDX 81 16 82 17 83 18 84 19 89 20 85 21 88 22 86 23 87 24 9 25
REMARK SMILES IDX 10 26 11 27 12 28 13 29 14 30 75 31 15 32 74 33 16 34 17 35
REMARK SMILES IDX 18 36 68 37 19 38 73 39 67 40 69 41 20 42 72 43 66 44 65 45
REMARK SMILES IDX 21 47 53 48 33 49 52 50 34 51 37 52 51 53 70 54 35 55 36 56
REMARK SMILES IDX 50 58 71 59 38 60 22 61 23 62 31 63 24 64 25 65 29 66 32 67
REMARK SMILES IDX 26 68 27 69 30 70 28 71 54 72 55 73 63 74 56 75 57 76 61 77
REMARK SMILES IDX 64 78 58 79 59 80 62 81 60 82 39 83 40 84 48 85 41 86 42 87
REMARK SMILES IDX 46 88 49 89 43 90 44 91 47 92 45 93
REMARK H PARENT 3 11 3 12 69 46 37 57
REMARK Flexibility Score: inf
ROOT
ATOM      1  C   UNL A   1      35.747  20.195  25.090  1.00  0.00     0.274 C 
ENDROOT
BRANCH   1   2
ATOM      2  O   UNL A   1      34.513  20.781  24.621  1.00  0.00    -0.457 OA
BRANCH   2   3
ATOM      3  C   UNL A   1      33.828  21.505  25.538  1.00  0.00     0.368 C 
ATOM      4  O   UNL A   1      33.568  21.089  26.669  1.00  0.00    -0.245 OA
BRANCH   3   5
ATOM      5  C   UNL A   1      33.202  22.858  25.013  1.00  0.00     0.197 C 
ATOM      6  C   UNL A   1      33.714  23.950  25.974  1.00  0.00     0.081 C 
ATOM      7  C   UNL A   1      33.721  23.347  23.617  1.00  0.00     0.063 C 
ATOM      8  C   UNL A   1      34.994  24.493  25.365  1.00  0.00     0.008 C 
ATOM      9  C   UNL A   1      34.764  24.445  23.872  1.00  0.00     0.011 C 
BRANCH   5  10
ATOM     10  N   UNL A   1      31.737  22.556  25.009  1.00  0.00    -0.332 N 
ATOM     11  H   UNL A   1      31.424  22.563  24.038  1.00  0.00     0.347 HD
ATOM     12  H   UNL A   1      31.652  21.656  25.483  1.00  0.00     0.347 HD
BRANCH  10  13
ATOM     13  C   UNL A   1      30.871  23.460  25.756  1.00  0.00     0.257 C 
ATOM     14  C   UNL A   1      30.187  22.691  26.876  1.00  0.00     0.071 C 
ENDBRANCH  10  13
ENDBRANCH   5  10
BRANCH   7  15
ATOM     15  C   UNL A   1      32.719  23.777  22.515  1.00  0.00     0.022 C 
BRANCH  15  16
ATOM     16  C   UNL A   1      32.327  25.242  22.234  1.00  0.00     0.075 C 
BRANCH  16  17
ATOM     17  S   UNL A   1      31.145  26.158  23.311  1.00  0.00    -0.126 SA
BRANCH  17  18
ATOM     18  C   UNL A   1      32.086  27.039  24.547  1.00  0.00     0.007 A 
ATOM     19  C   UNL A   1      31.780  27.135  25.905  1.00  0.00     0.015 A 
ATOM     20  C   UNL A   1      33.183  27.771  24.078  1.00  0.00     0.015 A 
ATOM     21  C   UNL A   1      32.648  27.797  26.795  1.00  0.00     0.004 A 
ATOM     22  C   UNL A   1      34.028  28.464  24.949  1.00  0.00     0.004 A 
ATOM     23  C   UNL A   1      33.792  28.449  26.325  1.00  0.00    -0.051 A 
ATOM     24  C   UNL A   1      34.773  29.078  27.272  1.00  0.00     0.044 C 
ENDBRANCH  17  18
ENDBRANCH  16  17
ENDBRANCH  15  16
ENDBRANCH   7  15
ENDBRANCH   3   5
ENDBRANCH   2   3
ENDBRANCH   1   2
BRANCH   1  25
ATOM     25  C   UNL A   1      36.979  21.001  24.676  1.00  0.00     0.275 C 
BRANCH  25  26
ATOM     26  O   UNL A   1      37.469  21.830  25.748  1.00  0.00    -0.458 OA
BRANCH  26  27
ATOM     27  C   UNL A   1      38.757  21.606  26.086  1.00  0.00     0.338 C 
ATOM     28  O   UNL A   1      39.395  20.582  25.923  1.00  0.00    -0.246 OA
BRANCH  27  29
ATOM     29  C   UNL A   1      39.347  22.804  26.696  1.00  0.00     0.060 A 
ATOM     30  C   UNL A   1      38.935  24.061  26.257  1.00  0.00     0.016 A 
ATOM     31  C   UNL A   1      40.425  22.681  27.570  1.00  0.00     0.016 A 
ATOM     32  C   UNL A   1      39.650  25.200  26.612  1.00  0.00     0.010 A 
ATOM     33  C   UNL A   1      41.091  23.833  27.995  1.00  0.00     0.010 A 
ATOM     34  C   UNL A   1      40.728  25.099  27.497  1.00  0.00    -0.014 A 
BRANCH  34  35
ATOM     35  C   UNL A   1      41.492  26.305  27.903  1.00  0.00     0.031 A 
ATOM     36  C   UNL A   1      40.816  27.381  28.700  1.00  0.00     0.074 A 
ATOM     37  C   UNL A   1      42.777  26.449  27.526  1.00  0.00     0.049 A 
ATOM     38  N   UNL A   1      41.197  28.613  28.923  1.00  0.00    -0.248 NA
ATOM     39  C   UNL A   1      39.529  27.027  29.320  1.00  0.00     0.031 C 
ATOM     40  C   UNL A   1      43.570  25.448  26.811  1.00  0.00     0.029 A 
ATOM     41  N   UNL A   1      43.636  27.509  27.674  1.00  0.00    -0.354 N 
ATOM     42  C   UNL A   1      40.173  29.196  29.657  1.00  0.00     0.074 A 
ATOM     43  C   UNL A   1      39.157  28.183  29.850  1.00  0.00     0.031 C 
ATOM     44  C   UNL A   1      44.796  25.940  26.580  1.00  0.00     0.029 A 
ATOM     45  C   UNL A   1      44.845  27.320  27.050  1.00  0.00     0.049 A 
ATOM     46  H   UNL A   1      43.409  28.324  28.178  1.00  0.00     0.167 HD
ATOM     47  C   UNL A   1      40.091  30.469  30.118  1.00  0.00     0.037 A 
ATOM     48  C   UNL A   1      45.855  28.180  26.826  1.00  0.00     0.037 A 
ATOM     49  C   UNL A   1      41.130  31.452  29.950  1.00  0.00     0.049 A 
ATOM     50  C   UNL A   1      45.721  29.600  27.299  1.00  0.00     0.074 A 
ATOM     51  C   UNL A   1      41.153  32.768  30.379  1.00  0.00     0.029 A 
ATOM     52  N   UNL A   1      42.338  31.219  29.310  1.00  0.00    -0.354 N 
ATOM     53  N   UNL A   1      44.729  30.167  27.940  1.00  0.00    -0.248 NA
ATOM     54  C   UNL A   1      46.840  30.503  27.003  1.00  0.00     0.031 C 
ATOM     55  C   UNL A   1      42.363  33.339  29.970  1.00  0.00     0.029 A 
ATOM     56  C   UNL A   1      43.112  32.368  29.324  1.00  0.00     0.049 A 
ATOM     57  H   UNL A   1      42.607  30.362  28.905  1.00  0.00     0.167 HD
ATOM     58  C   UNL A   1      45.111  31.484  28.146  1.00  0.00     0.074 A 
ATOM     59  C   UNL A   1      46.432  31.631  27.568  1.00  0.00     0.031 C 
ATOM     60  C   UNL A   1      44.431  32.483  28.760  1.00  0.00     0.037 A 
BRANCH  47  61
ATOM     61  C   UNL A   1      38.824  30.881  30.805  1.00  0.00     0.064 A 
ATOM     62  C   UNL A   1      38.698  30.871  32.202  1.00  0.00     0.173 A 
ATOM     63  C   UNL A   1      37.726  31.323  30.050  1.00  0.00     0.173 A 
ATOM     64  F   UNL A   1      39.713  30.443  32.968  1.00  0.00    -0.203 F 
ATOM     65  C   UNL A   1      37.512  31.266  32.816  1.00  0.00     0.198 A 
ATOM     66  C   UNL A   1      36.550  31.743  30.669  1.00  0.00     0.198 A 
ATOM     67  F   UNL A   1      37.794  31.356  28.711  1.00  0.00    -0.203 F 
ATOM     68  F   UNL A   1      37.399  31.208  34.150  1.00  0.00    -0.200 F 
ATOM     69  C   UNL A   1      36.442  31.707  32.050  1.00  0.00     0.200 A 
ATOM     70  F   UNL A   1      35.523  32.178  29.927  1.00  0.00    -0.200 F 
ATOM     71  F   UNL A   1      35.304  32.091  32.644  1.00  0.00    -0.200 F 
ENDBRANCH  47  61
BRANCH  48  72
ATOM     72  C   UNL A   1      47.055  27.729  26.076  1.00  0.00     0.064 A 
ATOM     73  C   UNL A   1      48.186  27.253  26.750  1.00  0.00     0.173 A 
ATOM     74  C   UNL A   1      47.092  27.756  24.674  1.00  0.00     0.173 A 
ATOM     75  F   UNL A   1      48.205  27.230  28.091  1.00  0.00    -0.203 F 
ATOM     76  C   UNL A   1      49.314  26.830  26.051  1.00  0.00     0.198 A 
ATOM     77  C   UNL A   1      48.210  27.307  23.975  1.00  0.00     0.198 A 
ATOM     78  F   UNL A   1      46.034  28.203  23.981  1.00  0.00    -0.203 F 
ATOM     79  F   UNL A   1      50.397  26.414  26.721  1.00  0.00    -0.200 F 
ATOM     80  C   UNL A   1      49.322  26.850  24.664  1.00  0.00     0.200 A 
ATOM     81  F   UNL A   1      48.207  27.314  22.635  1.00  0.00    -0.200 F 
ATOM     82  F   UNL A   1      50.405  26.435  23.992  1.00  0.00    -0.200 F 
ENDBRANCH  48  72
BRANCH  60  83
ATOM     83  C   UNL A   1      45.127  33.804  28.886  1.00  0.00     0.064 A 
ATOM     84  C   UNL A   1      44.978  34.810  27.922  1.00  0.00     0.173 A 
ATOM     85  C   UNL A   1      45.918  34.078  30.012  1.00  0.00     0.173 A 
ATOM     86  F   UNL A   1      44.246  34.586  26.820  1.00  0.00    -0.203 F 
ATOM     87  C   UNL A   1      45.613  36.040  28.072  1.00  0.00     0.198 A 
ATOM     88  C   UNL A   1      46.530  35.317  30.170  1.00  0.00     0.198 A 
ATOM     89  F   UNL A   1      46.087  33.147  30.963  1.00  0.00    -0.203 F 
ATOM     90  F   UNL A   1      45.491  36.975  27.119  1.00  0.00    -0.200 F 
ATOM     91  C   UNL A   1      46.382  36.294  29.198  1.00  0.00     0.200 A 
ATOM     92  F   UNL A   1      47.265  35.564  31.264  1.00  0.00    -0.200 F 
ATOM     93  F   UNL A   1      46.986  37.482  29.344  1.00  0.00    -0.200 F 
ENDBRANCH  60  83
ENDBRANCH  34  35
ENDBRANCH  27  29
ENDBRANCH  26  27
ENDBRANCH  25  26
ENDBRANCH   1  25
TORSDOF 17
ENDMDL
MODEL 3
REMARK VINA RESULT:     -11.0      0.157      1.600
REMARK SMILES CC[NH2+][C@]1(C(=O)OCCOC(=O)c2ccc(-c3c4nc(c(-c5c(F)c(F)c(F)c(F)c5F)c5ccc([nH]5)c(-c5c(F)c(F)c(F)c(F)c5F)c5nc(c(-c6c(F)c(F)c(F)c(F)c6F)c6ccc3[nH]6)C=C5)C=C4)cc2)CCC[C@@H]1CCSc1ccc(C)cc1
REMARK SMILES IDX 8 1 7 2 5 3 6 4 4 5 76 6 79 7 77 8 78 9 3 10 2 13 1 14 80 15
REMARK SMILES IDX 81 16 82 17 83 18 84 19 89 20 85 21 88 22 86 23 87 24 9 25
REMARK SMILES IDX 10 26 11 27 12 28 13 29 14 30 75 31 15 32 74 33 16 34 17 35
REMARK SMILES IDX 18 36 68 37 19 38 73 39 67 40 69 41 20 42 72 43 66 44 65 45
REMARK SMILES IDX 21 47 53 48 33 49 52 50 34 51 37 52 51 53 70 54 35 55 36 56
REMARK SMILES IDX 50 58 71 59 38 60 22 61 23 62 31 63 24 64 25 65 29 66 32 67
REMARK SMILES IDX 26 68 27 69 30 70 28 71 54 72 55 73 63 74 56 75 57 76 61 77
REMARK SMILES IDX 64 78 58 79 59 80 62 81 60 82 39 83 40 84 48 85 41 86 42 87
REMARK SMILES IDX 46 88 49 89 43 90 44 91 47 92 45 93
REMARK H PARENT 3 11 3 12 69 46 37 57
REMARK Flexibility Score: inf
ROOT
ATOM      1  C   UNL A   1      31.239  30.138  24.983  1.00  0.00     0.274 C 
ENDROOT
BRANCH   1   2
ATOM      2  O   UNL A   1      31.276  28.707  24.788  1.00  0.00    -0.457 OA
BRANCH   2   3
ATOM      3  C   UNL A   1      32.197  28.265  23.898  1.00  0.00     0.368 C 
ATOM      4  O   UNL A   1      32.742  28.999  23.071  1.00  0.00    -0.245 OA
BRANCH   3   5
ATOM      5  C   UNL A   1      32.402  26.699  23.846  1.00  0.00     0.197 C 
ATOM      6  C   UNL A   1      33.834  26.453  24.361  1.00  0.00     0.081 C 
ATOM      7  C   UNL A   1      31.523  25.867  24.841  1.00  0.00     0.063 C 
ATOM      8  C   UNL A   1      33.719  26.226  25.859  1.00  0.00     0.008 C 
ATOM      9  C   UNL A   1      32.408  25.497  26.040  1.00  0.00     0.011 C 
BRANCH   5  10
ATOM     10  N   UNL A   1      32.107  26.383  22.414  1.00  0.00    -0.332 N 
ATOM     11  H   UNL A   1      31.370  25.676  22.401  1.00  0.00     0.347 HD
ATOM     12  H   UNL A   1      31.854  27.277  21.993  1.00  0.00     0.347 HD
BRANCH  10  13
ATOM     13  C   UNL A   1      33.211  25.882  21.604  1.00  0.00     0.257 C 
ATOM     14  C   UNL A   1      32.678  24.876  20.594  1.00  0.00     0.071 C 
ENDBRANCH  10  13
ENDBRANCH   5  10
BRANCH   7  15
ATOM     15  C   UNL A   1      30.721  24.638  24.342  1.00  0.00     0.022 C 
BRANCH  15  16
ATOM     16  C   UNL A   1      31.128  23.177  24.618  1.00  0.00     0.075 C 
BRANCH  16  17
ATOM     17  S   UNL A   1      32.349  22.289  23.560  1.00  0.00    -0.126 SA
BRANCH  17  18
ATOM     18  C   UNL A   1      33.989  22.700  24.137  1.00  0.00     0.007 A 
ATOM     19  C   UNL A   1      35.069  23.089  23.345  1.00  0.00     0.015 A 
ATOM     20  C   UNL A   1      34.220  22.525  25.507  1.00  0.00     0.015 A 
ATOM     21  C   UNL A   1      36.295  23.463  23.930  1.00  0.00     0.004 A 
ATOM     22  C   UNL A   1      35.446  22.858  26.090  1.00  0.00     0.004 A 
ATOM     23  C   UNL A   1      36.484  23.372  25.313  1.00  0.00    -0.051 A 
ATOM     24  C   UNL A   1      37.751  23.855  25.957  1.00  0.00     0.044 C 
ENDBRANCH  17  18
ENDBRANCH  16  17
ENDBRANCH  15  16
ENDBRANCH   7  15
ENDBRANCH   3   5
ENDBRANCH   2   3
ENDBRANCH   1   2
BRANCH   1  25
ATOM     25  C   UNL A   1      31.687  30.555  26.385  1.00  0.00     0.275 C 
BRANCH  25  26
ATOM     26  O   UNL A   1      33.121  30.576  26.511  1.00  0.00    -0.458 OA
BRANCH  26  27
ATOM     27  C   UNL A   1      33.601  31.571  27.289  1.00  0.00     0.338 C 
ATOM     28  O   UNL A   1      33.045  32.616  27.577  1.00  0.00    -0.246 OA
BRANCH  27  29
ATOM     29  C   UNL A   1      34.937  31.233  27.796  1.00  0.00     0.060 A 
ATOM     30  C   UNL A   1      35.185  29.935  28.238  1.00  0.00     0.016 A 
ATOM     31  C   UNL A   1      35.880  32.238  27.995  1.00  0.00     0.016 A 
ATOM     32  C   UNL A   1      36.337  29.646  28.962  1.00  0.00     0.010 A 
ATOM     33  C   UNL A   1      37.076  31.929  28.647  1.00  0.00     0.010 A 
ATOM     34  C   UNL A   1      37.303  30.638  29.162  1.00  0.00    -0.014 A 
BRANCH  34  35
ATOM     35  C   UNL A   1      38.547  30.346  29.916  1.00  0.00     0.031 A 
ATOM     36  C   UNL A   1      39.574  29.423  29.329  1.00  0.00     0.074 A 
ATOM     37  C   UNL A   1      38.737  30.878  31.138  1.00  0.00     0.049 A 
ATOM     38  N   UNL A   1      40.580  28.823  29.910  1.00  0.00    -0.248 NA
ATOM     39  C   UNL A   1      39.441  29.125  27.894  1.00  0.00     0.031 C 
ATOM     40  C   UNL A   1      37.851  31.844  31.793  1.00  0.00     0.029 A 
ATOM     41  N   UNL A   1      39.730  30.663  32.061  1.00  0.00    -0.354 N 
ATOM     42  C   UNL A   1      41.165  28.033  28.930  1.00  0.00     0.074 A 
ATOM     43  C   UNL A   1      40.407  28.234  27.713  1.00  0.00     0.031 C 
ATOM     44  C   UNL A   1      38.337  32.135  33.008  1.00  0.00     0.029 A 
ATOM     45  C   UNL A   1      39.516  31.311  33.252  1.00  0.00     0.049 A 
ATOM     46  H   UNL A   1      40.519  30.100  31.885  1.00  0.00     0.167 HD
ATOM     47  C   UNL A   1      42.233  27.207  29.045  1.00  0.00     0.037 A 
ATOM     48  C   UNL A   1      40.159  31.207  34.429  1.00  0.00     0.037 A 
ATOM     49  C   UNL A   1      43.000  27.049  30.255  1.00  0.00     0.049 A 
ATOM     50  C   UNL A   1      41.308  30.247  34.550  1.00  0.00     0.074 A 
ATOM     51  C   UNL A   1      44.102  26.243  30.481  1.00  0.00     0.029 A 
ATOM     52  N   UNL A   1      42.747  27.724  31.440  1.00  0.00    -0.354 N 
ATOM     53  N   UNL A   1      41.823  29.456  33.641  1.00  0.00    -0.248 NA
ATOM     54  C   UNL A   1      41.955  30.153  35.864  1.00  0.00     0.031 C 
ATOM     55  C   UNL A   1      44.496  26.407  31.813  1.00  0.00     0.029 A 
ATOM     56  C   UNL A   1      43.667  27.347  32.405  1.00  0.00     0.049 A 
ATOM     57  H   UNL A   1      42.021  28.375  31.575  1.00  0.00     0.167 HD
ATOM     58  C   UNL A   1      42.868  28.790  34.262  1.00  0.00     0.074 A 
ATOM     59  C   UNL A   1      42.919  29.273  35.627  1.00  0.00     0.031 C 
ATOM     60  C   UNL A   1      43.709  27.859  33.750  1.00  0.00     0.037 A 
BRANCH  47  61
ATOM     61  C   UNL A   1      42.608  26.382  27.851  1.00  0.00     0.064 A 
ATOM     62  C   UNL A   1      41.992  25.153  27.573  1.00  0.00     0.173 A 
ATOM     63  C   UNL A   1      43.581  26.847  26.952  1.00  0.00     0.173 A 
ATOM     64  F   UNL A   1      41.067  24.657  28.409  1.00  0.00    -0.203 F 
ATOM     65  C   UNL A   1      42.354  24.409  26.452  1.00  0.00     0.198 A 
ATOM     66  C   UNL A   1      43.920  26.113  25.818  1.00  0.00     0.198 A 
ATOM     67  F   UNL A   1      44.199  28.017  27.168  1.00  0.00    -0.203 F 
ATOM     68  F   UNL A   1      41.783  23.217  26.229  1.00  0.00    -0.200 F 
ATOM     69  C   UNL A   1      43.312  24.892  25.573  1.00  0.00     0.200 A 
ATOM     70  F   UNL A   1      44.839  26.587  24.965  1.00  0.00    -0.200 F 
ATOM     71  F   UNL A   1      43.654  24.176  24.492  1.00  0.00    -0.200 F 
ENDBRANCH  47  61
BRANCH  48  72
ATOM     72  C   UNL A   1      39.694  32.000  35.597  1.00  0.00     0.064 A 
ATOM     73  C   UNL A   1      38.672  31.524  36.427  1.00  0.00     0.173 A 
ATOM     74  C   UNL A   1      40.268  33.241  35.911  1.00  0.00     0.173 A 
ATOM     75  F   UNL A   1      38.078  30.353  36.152  1.00  0.00    -0.203 F 
ATOM     76  C   UNL A   1      38.232  32.264  37.522  1.00  0.00     0.198 A 
ATOM     77  C   UNL A   1      39.847  33.967  37.022  1.00  0.00     0.198 A 
ATOM     78  F   UNL A   1      41.252  33.740  35.148  1.00  0.00    -0.203 F 
ATOM     79  F   UNL A   1      37.227  31.804  38.279  1.00  0.00    -0.200 F 
ATOM     80  C   UNL A   1      38.826  33.481  37.823  1.00  0.00     0.200 A 
ATOM     81  F   UNL A   1      40.434  35.135  37.318  1.00  0.00    -0.200 F 
ATOM     82  F   UNL A   1      38.408  34.189  38.882  1.00  0.00    -0.200 F 
ENDBRANCH  48  72
BRANCH  60  83
ATOM     83  C   UNL A   1      44.791  27.348  34.652  1.00  0.00     0.064 A 
ATOM     84  C   UNL A   1      44.619  26.196  35.430  1.00  0.00     0.173 A 
ATOM     85  C   UNL A   1      46.033  28.000  34.703  1.00  0.00     0.173 A 
ATOM     86  F   UNL A   1      43.443  25.549  35.427  1.00  0.00    -0.203 F 
ATOM     87  C   UNL A   1      45.646  25.724  36.243  1.00  0.00     0.198 A 
ATOM     88  C   UNL A   1      47.065  27.512  35.496  1.00  0.00     0.198 A 
ATOM     89  F   UNL A   1      46.246  29.107  33.973  1.00  0.00    -0.203 F 
ATOM     90  F   UNL A   1      45.448  24.643  37.009  1.00  0.00    -0.200 F 
ATOM     91  C   UNL A   1      46.870  26.378  36.269  1.00  0.00     0.200 A 
ATOM     92  F   UNL A   1      48.249  28.139  35.513  1.00  0.00    -0.200 F 
ATOM     93  F   UNL A   1      47.859  25.917  37.046  1.00  0.00    -0.200 F 
ENDBRANCH  60  83
ENDBRANCH  34  35
ENDBRANCH  27  29
ENDBRANCH  26  27
ENDBRANCH  25  26
ENDBRANCH   1  25
TORSDOF 17
ENDMDL
