MODEL 1
REMARK VINA RESULT:     -13.1      0.000      0.000
REMARK SMILES Cc1c(Cl)cc2c(c1C)O[C@H](C(F)(F)F)C(C(=O)OCCOC(=O)c1ccc(-c3c4nc(c(-c5c(F)c(F)c(F)c(F)c5F)c5ccc([nH]5)c(-c5c(F)c(F)c(F)c(F)c5F)c5nc(c(-c6c(F)c(F)c(F)c(F)c6F)c6ccc3[nH]6)C=C5)C=C4)cc1)=C2
REMARK SMILES IDX 21 1 20 2 19 3 17 4 18 5 16 6 1 7 2 8 3 9 8 10 4 11 5 12
REMARK SMILES IDX 7 13 9 14 6 15 10 16 88 17 11 18 12 19 13 20 14 21 15 22
REMARK SMILES IDX 22 23 23 24 24 25 25 26 26 27 87 28 27 29 86 30 28 31 29 32
REMARK SMILES IDX 30 33 80 34 31 35 85 36 79 37 81 38 32 39 84 40 78 41 77 42
REMARK SMILES IDX 33 44 65 45 45 46 64 47 46 48 49 49 63 50 82 51 47 52 48 53
REMARK SMILES IDX 62 55 83 56 50 57 34 58 35 59 43 60 36 61 37 62 41 63 44 64
REMARK SMILES IDX 38 65 39 66 42 67 40 68 66 69 67 70 75 71 68 72 69 73 73 74
REMARK SMILES IDX 76 75 70 76 71 77 74 78 72 79 51 80 52 81 60 82 53 83 54 84
REMARK SMILES IDX 58 85 61 86 55 87 56 88 59 89 57 90
REMARK H PARENT 81 43 49 54
REMARK Flexibility Score: inf
ROOT
ATOM      1  C   UNL A   1      31.820  29.622  25.807  1.00  0.00     0.275 C 
ENDROOT
BRANCH   1   2
ATOM      2  C   UNL A   1      31.490  28.135  25.667  1.00  0.00     0.275 C 
BRANCH   2   3
ATOM      3  O   UNL A   1      32.615  27.305  26.033  1.00  0.00    -0.459 OA
BRANCH   3   4
ATOM      4  C   UNL A   1      33.426  26.944  25.014  1.00  0.00     0.338 C 
ATOM      5  O   UNL A   1      33.874  27.676  24.144  1.00  0.00    -0.246 OA
BRANCH   4   6
ATOM      6  C   UNL A   1      33.759  25.510  25.094  1.00  0.00     0.087 C 
ATOM      7  C   UNL A   1      36.746  19.700  24.928  1.00  0.00     0.046 C 
ATOM      8  C   UNL A   1      36.249  21.116  25.078  1.00  0.00    -0.026 A 
ATOM      9  C   UNL A   1      37.157  22.125  25.460  1.00  0.00     0.045 A 
ATOM     10  C   UNL A   1      34.883  21.463  24.895  1.00  0.00    -0.004 A 
ATOM     11  Cl  UNL A   1      38.821  21.794  25.806  1.00  0.00    -0.084 Cl
ATOM     12  C   UNL A   1      36.747  23.450  25.578  1.00  0.00     0.032 A 
ATOM     13  C   UNL A   1      34.487  22.815  25.010  1.00  0.00     0.131 A 
ATOM     14  C   UNL A   1      33.817  20.453  24.551  1.00  0.00     0.049 C 
ATOM     15  C   UNL A   1      35.420  23.797  25.330  1.00  0.00     0.019 A 
ATOM     16  O   UNL A   1      33.159  23.105  24.812  1.00  0.00    -0.475 OA
ATOM     17  C   UNL A   1      35.023  25.187  25.379  1.00  0.00     0.027 C 
ATOM     18  C   UNL A   1      32.727  24.492  24.708  1.00  0.00     0.316 C 
BRANCH  18  19
ATOM     19  C   UNL A   1      32.211  24.744  23.282  1.00  0.00     0.430 C 
ATOM     20  F   UNL A   1      33.217  25.092  22.446  1.00  0.00    -0.167 F 
ATOM     21  F   UNL A   1      31.639  23.633  22.758  1.00  0.00    -0.167 F 
ATOM     22  F   UNL A   1      31.287  25.731  23.242  1.00  0.00    -0.167 F 
ENDBRANCH  18  19
ENDBRANCH   4   6
ENDBRANCH   3   4
ENDBRANCH   2   3
ENDBRANCH   1   2
BRANCH   1  23
ATOM     23  O   UNL A   1      32.360  29.898  27.113  1.00  0.00    -0.458 OA
BRANCH  23  24
ATOM     24  C   UNL A   1      33.005  31.080  27.223  1.00  0.00     0.338 C 
ATOM     25  O   UNL A   1      32.513  32.196  27.218  1.00  0.00    -0.246 OA
BRANCH  24  26
ATOM     26  C   UNL A   1      34.443  30.875  27.453  1.00  0.00     0.060 A 
ATOM     27  C   UNL A   1      34.903  29.577  27.631  1.00  0.00     0.016 A 
ATOM     28  C   UNL A   1      35.259  31.954  27.779  1.00  0.00     0.016 A 
ATOM     29  C   UNL A   1      36.084  29.352  28.332  1.00  0.00     0.010 A 
ATOM     30  C   UNL A   1      36.523  31.717  28.331  1.00  0.00     0.010 A 
ATOM     31  C   UNL A   1      36.921  30.415  28.692  1.00  0.00    -0.014 A 
BRANCH  31  32
ATOM     32  C   UNL A   1      38.164  30.195  29.493  1.00  0.00     0.031 A 
ATOM     33  C   UNL A   1      39.282  29.349  28.931  1.00  0.00     0.074 A 
ATOM     34  C   UNL A   1      38.323  30.751  30.712  1.00  0.00     0.049 A 
ATOM     35  N   UNL A   1      40.288  28.779  29.548  1.00  0.00    -0.248 NA
ATOM     36  C   UNL A   1      39.254  29.097  27.481  1.00  0.00     0.031 C 
ATOM     37  C   UNL A   1      37.391  31.674  31.361  1.00  0.00     0.029 A 
ATOM     38  N   UNL A   1      39.339  30.616  31.631  1.00  0.00    -0.354 N 
ATOM     39  C   UNL A   1      40.964  28.046  28.578  1.00  0.00     0.074 A 
ATOM     40  C   UNL A   1      40.256  28.242  27.332  1.00  0.00     0.031 C 
ATOM     41  C   UNL A   1      37.894  32.056  32.543  1.00  0.00     0.029 A 
ATOM     42  C   UNL A   1      39.113  31.301  32.800  1.00  0.00     0.049 A 
ATOM     43  H   UNL A   1      40.148  30.082  31.465  1.00  0.00     0.167 HD
ATOM     44  C   UNL A   1      42.072  27.279  28.721  1.00  0.00     0.037 A 
ATOM     45  C   UNL A   1      39.763  31.273  33.979  1.00  0.00     0.037 A 
ATOM     46  C   UNL A   1      42.809  27.148  29.953  1.00  0.00     0.049 A 
ATOM     47  C   UNL A   1      40.936  30.352  34.143  1.00  0.00     0.074 A 
ATOM     48  C   UNL A   1      43.941  26.393  30.208  1.00  0.00     0.029 A 
ATOM     49  N   UNL A   1      42.501  27.812  31.132  1.00  0.00    -0.354 N 
ATOM     50  N   UNL A   1      41.503  29.567  33.260  1.00  0.00    -0.248 NA
ATOM     51  C   UNL A   1      41.543  30.291  35.480  1.00  0.00     0.031 C 
ATOM     52  C   UNL A   1      44.291  26.566  31.551  1.00  0.00     0.029 A 
ATOM     53  C   UNL A   1      43.409  27.469  32.121  1.00  0.00     0.049 A 
ATOM     54  H   UNL A   1      41.748  28.435  31.249  1.00  0.00     0.167 HD
ATOM     55  C   UNL A   1      42.533  28.922  33.929  1.00  0.00     0.074 A 
ATOM     56  C   UNL A   1      42.536  29.436  35.285  1.00  0.00     0.031 C 
ATOM     57  C   UNL A   1      43.393  27.981  33.467  1.00  0.00     0.037 A 
BRANCH  44  58
ATOM     58  C   UNL A   1      42.546  26.489  27.533  1.00  0.00     0.064 A 
ATOM     59  C   UNL A   1      43.563  26.951  26.685  1.00  0.00     0.173 A 
ATOM     60  C   UNL A   1      42.012  25.215  27.277  1.00  0.00     0.173 A 
ATOM     61  F   UNL A   1      44.101  28.165  26.875  1.00  0.00    -0.203 F 
ATOM     62  C   UNL A   1      44.016  26.176  25.619  1.00  0.00     0.198 A 
ATOM     63  C   UNL A   1      42.488  24.430  26.229  1.00  0.00     0.198 A 
ATOM     64  F   UNL A   1      41.040  24.720  28.058  1.00  0.00    -0.203 F 
ATOM     65  F   UNL A   1      44.962  26.654  24.799  1.00  0.00    -0.200 F 
ATOM     66  C   UNL A   1      43.485  24.914  25.398  1.00  0.00     0.200 A 
ATOM     67  F   UNL A   1      41.984  23.204  26.029  1.00  0.00    -0.200 F 
ATOM     68  F   UNL A   1      43.933  24.163  24.382  1.00  0.00    -0.200 F 
ENDBRANCH  44  58
BRANCH  45  69
ATOM     69  C   UNL A   1      39.268  32.098  35.114  1.00  0.00     0.064 A 
ATOM     70  C   UNL A   1      38.472  31.535  36.119  1.00  0.00     0.173 A 
ATOM     71  C   UNL A   1      39.596  33.460  35.231  1.00  0.00     0.173 A 
ATOM     72  F   UNL A   1      38.103  30.248  36.037  1.00  0.00    -0.203 F 
ATOM     73  C   UNL A   1      38.023  32.298  37.196  1.00  0.00     0.198 A 
ATOM     74  C   UNL A   1      39.179  34.211  36.326  1.00  0.00     0.198 A 
ATOM     75  F   UNL A   1      40.352  34.052  34.294  1.00  0.00    -0.203 F 
ATOM     76  F   UNL A   1      37.232  31.743  38.123  1.00  0.00    -0.200 F 
ATOM     77  C   UNL A   1      38.388  33.632  37.305  1.00  0.00     0.200 A 
ATOM     78  F   UNL A   1      39.551  35.494  36.436  1.00  0.00    -0.200 F 
ATOM     79  F   UNL A   1      37.973  34.359  38.351  1.00  0.00    -0.200 F 
ENDBRANCH  45  69
BRANCH  57  80
ATOM     80  C   UNL A   1      44.413  27.456  34.435  1.00  0.00     0.064 A 
ATOM     81  C   UNL A   1      44.176  26.299  35.194  1.00  0.00     0.173 A 
ATOM     82  C   UNL A   1      45.648  28.103  34.592  1.00  0.00     0.173 A 
ATOM     83  F   UNL A   1      43.004  25.654  35.092  1.00  0.00    -0.203 F 
ATOM     84  C   UNL A   1      45.124  25.830  36.098  1.00  0.00     0.198 A 
ATOM     85  C   UNL A   1      46.608  27.610  35.473  1.00  0.00     0.198 A 
ATOM     86  F   UNL A   1      45.929  29.208  33.886  1.00  0.00    -0.203 F 
ATOM     87  F   UNL A   1      44.851  24.757  36.853  1.00  0.00    -0.200 F 
ATOM     88  C   UNL A   1      46.341  26.480  36.231  1.00  0.00     0.200 A 
ATOM     89  F   UNL A   1      47.789  28.231  35.590  1.00  0.00    -0.200 F 
ATOM     90  F   UNL A   1      47.254  26.024  37.100  1.00  0.00    -0.200 F 
ENDBRANCH  57  80
ENDBRANCH  31  32
ENDBRANCH  24  26
ENDBRANCH  23  24
ENDBRANCH   1  23
TORSDOF 12
ENDMDL
MODEL 2
REMARK VINA RESULT:     -13.1      0.604      1.409
REMARK SMILES Cc1c(Cl)cc2c(c1C)O[C@H](C(F)(F)F)C(C(=O)OCCOC(=O)c1ccc(-c3c4nc(c(-c5c(F)c(F)c(F)c(F)c5F)c5ccc([nH]5)c(-c5c(F)c(F)c(F)c(F)c5F)c5nc(c(-c6c(F)c(F)c(F)c(F)c6F)c6ccc3[nH]6)C=C5)C=C4)cc1)=C2
REMARK SMILES IDX 21 1 20 2 19 3 17 4 18 5 16 6 1 7 2 8 3 9 8 10 4 11 5 12
REMARK SMILES IDX 7 13 9 14 6 15 10 16 88 17 11 18 12 19 13 20 14 21 15 22
REMARK SMILES IDX 22 23 23 24 24 25 25 26 26 27 87 28 27 29 86 30 28 31 29 32
REMARK SMILES IDX 30 33 80 34 31 35 85 36 79 37 81 38 32 39 84 40 78 41 77 42
REMARK SMILES IDX 33 44 65 45 45 46 64 47 46 48 49 49 63 50 82 51 47 52 48 53
REMARK SMILES IDX 62 55 83 56 50 57 34 58 35 59 43 60 36 61 37 62 41 63 44 64
REMARK SMILES IDX 38 65 39 66 42 67 40 68 66 69 67 70 75 71 68 72 69 73 73 74
REMARK SMILES IDX 76 75 70 76 71 77 74 78 72 79 51 80 52 81 60 82 53 83 54 84
REMARK SMILES IDX 58 85 61 86 55 87 56 88 59 89 57 90
REMARK H PARENT 81 43 49 54
REMARK Flexibility Score: inf
ROOT
ATOM      1  C   UNL A   1      32.319  29.978  25.382  1.00  0.00     0.275 C 
ENDROOT
BRANCH   1   2
ATOM      2  C   UNL A   1      31.587  28.691  24.996  1.00  0.00     0.275 C 
BRANCH   2   3
ATOM      3  O   UNL A   1      32.392  27.522  25.263  1.00  0.00    -0.459 OA
BRANCH   3   4
ATOM      4  C   UNL A   1      31.841  26.615  26.099  1.00  0.00     0.338 C 
ATOM      5  O   UNL A   1      30.912  26.806  26.871  1.00  0.00    -0.246 OA
BRANCH   4   6
ATOM      6  C   UNL A   1      32.486  25.299  25.944  1.00  0.00     0.087 C 
ATOM      7  C   UNL A   1      36.658  20.409  24.767  1.00  0.00     0.046 C 
ATOM      8  C   UNL A   1      35.874  21.639  25.153  1.00  0.00    -0.026 A 
ATOM      9  C   UNL A   1      36.563  22.764  25.649  1.00  0.00     0.045 A 
ATOM     10  C   UNL A   1      34.456  21.686  25.080  1.00  0.00    -0.004 A 
ATOM     11  Cl  UNL A   1      38.280  22.777  25.873  1.00  0.00    -0.084 Cl
ATOM     12  C   UNL A   1      35.881  23.930  25.986  1.00  0.00     0.032 A 
ATOM     13  C   UNL A   1      33.781  22.881  25.417  1.00  0.00     0.131 A 
ATOM     14  C   UNL A   1      33.615  20.518  24.627  1.00  0.00     0.049 C 
ATOM     15  C   UNL A   1      34.496  23.995  25.847  1.00  0.00     0.019 A 
ATOM     16  O   UNL A   1      32.411  22.884  25.320  1.00  0.00    -0.475 OA
ATOM     17  C   UNL A   1      33.808  25.237  26.125  1.00  0.00     0.027 C 
ATOM     18  C   UNL A   1      31.678  24.137  25.448  1.00  0.00     0.316 C 
BRANCH  18  19
ATOM     19  C   UNL A   1      31.015  24.462  24.100  1.00  0.00     0.430 C 
ATOM     20  F   UNL A   1      30.648  23.336  23.443  1.00  0.00    -0.167 F 
ATOM     21  F   UNL A   1      29.889  25.198  24.265  1.00  0.00    -0.167 F 
ATOM     22  F   UNL A   1      31.837  25.161  23.283  1.00  0.00    -0.167 F 
ENDBRANCH  18  19
ENDBRANCH   4   6
ENDBRANCH   3   4
ENDBRANCH   2   3
ENDBRANCH   1   2
BRANCH   1  23
ATOM     23  O   UNL A   1      32.512  30.040  26.808  1.00  0.00    -0.458 OA
BRANCH  23  24
ATOM     24  C   UNL A   1      33.131  31.157  27.248  1.00  0.00     0.338 C 
ATOM     25  O   UNL A   1      32.622  32.233  27.513  1.00  0.00    -0.246 OA
BRANCH  24  26
ATOM     26  C   UNL A   1      34.562  30.907  27.480  1.00  0.00     0.060 A 
ATOM     27  C   UNL A   1      34.984  29.594  27.647  1.00  0.00     0.016 A 
ATOM     28  C   UNL A   1      35.409  31.959  27.817  1.00  0.00     0.016 A 
ATOM     29  C   UNL A   1      36.156  29.329  28.349  1.00  0.00     0.010 A 
ATOM     30  C   UNL A   1      36.664  31.680  28.370  1.00  0.00     0.010 A 
ATOM     31  C   UNL A   1      37.023  30.363  28.720  1.00  0.00    -0.014 A 
BRANCH  31  32
ATOM     32  C   UNL A   1      38.256  30.100  29.522  1.00  0.00     0.031 A 
ATOM     33  C   UNL A   1      39.353  29.231  28.952  1.00  0.00     0.074 A 
ATOM     34  C   UNL A   1      38.426  30.636  30.749  1.00  0.00     0.049 A 
ATOM     35  N   UNL A   1      40.341  28.625  29.565  1.00  0.00    -0.248 NA
ATOM     36  C   UNL A   1      39.323  28.997  27.499  1.00  0.00     0.031 C 
ATOM     37  C   UNL A   1      37.518  31.575  31.407  1.00  0.00     0.029 A 
ATOM     38  N   UNL A   1      39.435  30.462  31.668  1.00  0.00    -0.354 N 
ATOM     39  C   UNL A   1      41.000  27.887  28.588  1.00  0.00     0.074 A 
ATOM     40  C   UNL A   1      40.301  28.117  27.342  1.00  0.00     0.031 C 
ATOM     41  C   UNL A   1      38.027  31.928  32.594  1.00  0.00     0.029 A 
ATOM     42  C   UNL A   1      39.224  31.138  32.845  1.00  0.00     0.049 A 
ATOM     43  H   UNL A   1      40.230  29.907  31.499  1.00  0.00     0.167 HD
ATOM     44  C   UNL A   1      42.086  27.088  28.724  1.00  0.00     0.037 A 
ATOM     45  C   UNL A   1      39.869  31.077  34.026  1.00  0.00     0.037 A 
ATOM     46  C   UNL A   1      42.816  26.921  29.957  1.00  0.00     0.049 A 
ATOM     47  C   UNL A   1      41.017  30.123  34.182  1.00  0.00     0.074 A 
ATOM     48  C   UNL A   1      43.926  26.133  30.206  1.00  0.00     0.029 A 
ATOM     49  N   UNL A   1      42.522  27.579  31.144  1.00  0.00    -0.354 N 
ATOM     50  N   UNL A   1      41.565  29.333  33.290  1.00  0.00    -0.248 NA
ATOM     51  C   UNL A   1      41.618  30.028  35.519  1.00  0.00     0.031 C 
ATOM     52  C   UNL A   1      44.276  26.279  31.552  1.00  0.00     0.029 A 
ATOM     53  C   UNL A   1      43.417  27.199  32.131  1.00  0.00     0.049 A 
ATOM     54  H   UNL A   1      41.785  28.220  31.266  1.00  0.00     0.167 HD
ATOM     55  C   UNL A   1      42.575  28.652  33.954  1.00  0.00     0.074 A 
ATOM     56  C   UNL A   1      42.588  29.149  35.316  1.00  0.00     0.031 C 
ATOM     57  C   UNL A   1      43.410  27.694  33.483  1.00  0.00     0.037 A 
BRANCH  44  58
ATOM     58  C   UNL A   1      42.542  26.300  27.528  1.00  0.00     0.064 A 
ATOM     59  C   UNL A   1      43.570  26.748  26.686  1.00  0.00     0.173 A 
ATOM     60  C   UNL A   1      41.979  25.041  27.258  1.00  0.00     0.173 A 
ATOM     61  F   UNL A   1      44.135  27.948  26.888  1.00  0.00    -0.203 F 
ATOM     62  C   UNL A   1      44.005  25.974  25.610  1.00  0.00     0.198 A 
ATOM     63  C   UNL A   1      42.438  24.258  26.202  1.00  0.00     0.198 A 
ATOM     64  F   UNL A   1      40.996  24.561  28.034  1.00  0.00    -0.203 F 
ATOM     65  F   UNL A   1      44.963  26.440  24.796  1.00  0.00    -0.200 F 
ATOM     66  C   UNL A   1      43.446  24.727  25.376  1.00  0.00     0.200 A 
ATOM     67  F   UNL A   1      41.905  23.046  25.988  1.00  0.00    -0.200 F 
ATOM     68  F   UNL A   1      43.877  23.978  24.352  1.00  0.00    -0.200 F 
ENDBRANCH  44  58
BRANCH  45  69
ATOM     69  C   UNL A   1      39.394  31.901  35.170  1.00  0.00     0.064 A 
ATOM     70  C   UNL A   1      38.567  31.351  36.157  1.00  0.00     0.173 A 
ATOM     71  C   UNL A   1      39.770  33.247  35.313  1.00  0.00     0.173 A 
ATOM     72  F   UNL A   1      38.152  30.080  36.050  1.00  0.00    -0.203 F 
ATOM     73  C   UNL A   1      38.136  32.112  37.243  1.00  0.00     0.198 A 
ATOM     74  C   UNL A   1      39.370  33.996  36.416  1.00  0.00     0.198 A 
ATOM     75  F   UNL A   1      40.556  33.827  34.393  1.00  0.00    -0.203 F 
ATOM     76  F   UNL A   1      37.316  31.571  38.153  1.00  0.00    -0.200 F 
ATOM     77  C   UNL A   1      38.549  33.429  37.378  1.00  0.00     0.200 A 
ATOM     78  F   UNL A   1      39.787  35.262  36.551  1.00  0.00    -0.200 F 
ATOM     79  F   UNL A   1      38.150  34.154  38.432  1.00  0.00    -0.200 F 
ENDBRANCH  45  69
BRANCH  57  80
ATOM     80  C   UNL A   1      44.413  27.129  34.447  1.00  0.00     0.064 A 
ATOM     81  C   UNL A   1      45.667  27.731  34.636  1.00  0.00     0.173 A 
ATOM     82  C   UNL A   1      44.111  25.988  35.205  1.00  0.00     0.173 A 
ATOM     83  F   UNL A   1      46.010  28.814  33.923  1.00  0.00    -0.203 F 
ATOM     84  C   UNL A   1      46.593  27.191  35.524  1.00  0.00     0.198 A 
ATOM     85  C   UNL A   1      45.027  25.471  36.118  1.00  0.00     0.198 A 
ATOM     86  F   UNL A   1      42.924  25.379  35.069  1.00  0.00    -0.203 F 
ATOM     87  F   UNL A   1      47.805  27.749  35.644  1.00  0.00    -0.200 F 
ATOM     88  C   UNL A   1      46.270  26.067  36.268  1.00  0.00     0.200 A 
ATOM     89  F   UNL A   1      44.708  24.393  36.847  1.00  0.00    -0.200 F 
ATOM     90  F   UNL A   1      47.163  25.551  37.125  1.00  0.00    -0.200 F 
ENDBRANCH  57  80
ENDBRANCH  31  32
ENDBRANCH  24  26
ENDBRANCH  23  24
ENDBRANCH   1  23
TORSDOF 12
ENDMDL
MODEL 3
REMARK VINA RESULT:     -13.0      1.151      2.175
REMARK SMILES Cc1c(Cl)cc2c(c1C)O[C@H](C(F)(F)F)C(C(=O)OCCOC(=O)c1ccc(-c3c4nc(c(-c5c(F)c(F)c(F)c(F)c5F)c5ccc([nH]5)c(-c5c(F)c(F)c(F)c(F)c5F)c5nc(c(-c6c(F)c(F)c(F)c(F)c6F)c6ccc3[nH]6)C=C5)C=C4)cc1)=C2
REMARK SMILES IDX 21 1 20 2 19 3 17 4 18 5 16 6 1 7 2 8 3 9 8 10 4 11 5 12
REMARK SMILES IDX 7 13 9 14 6 15 10 16 88 17 11 18 12 19 13 20 14 21 15 22
REMARK SMILES IDX 22 23 23 24 24 25 25 26 26 27 87 28 27 29 86 30 28 31 29 32
REMARK SMILES IDX 30 33 80 34 31 35 85 36 79 37 81 38 32 39 84 40 78 41 77 42
REMARK SMILES IDX 33 44 65 45 45 46 64 47 46 48 49 49 63 50 82 51 47 52 48 53
REMARK SMILES IDX 62 55 83 56 50 57 34 58 35 59 43 60 36 61 37 62 41 63 44 64
REMARK SMILES IDX 38 65 39 66 42 67 40 68 66 69 67 70 75 71 68 72 69 73 73 74
REMARK SMILES IDX 76 75 70 76 71 77 74 78 72 79 51 80 52 81 60 82 53 83 54 84
REMARK SMILES IDX 58 85 61 86 55 87 56 88 59 89 57 90
REMARK H PARENT 81 43 49 54
REMARK Flexibility Score: inf
ROOT
ATOM      1  C   UNL A   1      31.444  31.240  26.508  1.00  0.00     0.275 C 
ENDROOT
BRANCH   1   2
ATOM      2  C   UNL A   1      31.405  30.411  25.224  1.00  0.00     0.275 C 
BRANCH   2   3
ATOM      3  O   UNL A   1      32.659  29.731  24.993  1.00  0.00    -0.459 OA
BRANCH   3   4
ATOM      4  C   UNL A   1      32.605  28.689  24.133  1.00  0.00     0.338 C 
ATOM      5  O   UNL A   1      32.559  28.753  22.913  1.00  0.00    -0.246 OA
BRANCH   4   6
ATOM      6  C   UNL A   1      32.649  27.408  24.860  1.00  0.00     0.087 C 
ATOM      7  C   UNL A   1      34.015  21.360  26.924  1.00  0.00     0.046 C 
ATOM      8  C   UNL A   1      33.932  22.785  26.437  1.00  0.00    -0.026 A 
ATOM      9  C   UNL A   1      35.091  23.403  25.924  1.00  0.00     0.045 A 
ATOM     10  C   UNL A   1      32.736  23.547  26.522  1.00  0.00    -0.004 A 
ATOM     11  Cl  UNL A   1      36.624  22.600  25.868  1.00  0.00    -0.084 Cl
ATOM     12  C   UNL A   1      35.051  24.706  25.434  1.00  0.00     0.032 A 
ATOM     13  C   UNL A   1      32.711  24.864  26.012  1.00  0.00     0.131 A 
ATOM     14  C   UNL A   1      31.457  23.007  27.114  1.00  0.00     0.049 C 
ATOM     15  C   UNL A   1      33.858  25.425  25.457  1.00  0.00     0.019 A 
ATOM     16  O   UNL A   1      31.530  25.558  26.105  1.00  0.00    -0.475 OA
ATOM     17  C   UNL A   1      33.810  26.748  24.873  1.00  0.00     0.027 C 
ATOM     18  C   UNL A   1      31.380  26.832  25.413  1.00  0.00     0.316 C 
BRANCH  18  19
ATOM     19  C   UNL A   1      30.320  26.674  24.310  1.00  0.00     0.430 C 
ATOM     20  F   UNL A   1      30.850  26.133  23.188  1.00  0.00    -0.167 F 
ATOM     21  F   UNL A   1      29.317  25.850  24.700  1.00  0.00    -0.167 F 
ATOM     22  F   UNL A   1      29.761  27.857  23.967  1.00  0.00    -0.167 F 
ENDBRANCH  18  19
ENDBRANCH   4   6
ENDBRANCH   3   4
ENDBRANCH   2   3
ENDBRANCH   1   2
BRANCH   1  23
ATOM     23  O   UNL A   1      32.633  30.944  27.264  1.00  0.00    -0.458 OA
BRANCH  23  24
ATOM     24  C   UNL A   1      33.416  32.013  27.532  1.00  0.00     0.338 C 
ATOM     25  O   UNL A   1      33.067  33.174  27.662  1.00  0.00    -0.246 OA
BRANCH  24  26
ATOM     26  C   UNL A   1      34.810  31.600  27.755  1.00  0.00     0.060 A 
ATOM     27  C   UNL A   1      35.067  30.259  28.011  1.00  0.00     0.016 A 
ATOM     28  C   UNL A   1      35.791  32.556  27.998  1.00  0.00     0.016 A 
ATOM     29  C   UNL A   1      36.216  29.896  28.709  1.00  0.00     0.010 A 
ATOM     30  C   UNL A   1      37.016  32.159  28.547  1.00  0.00     0.010 A 
ATOM     31  C   UNL A   1      37.216  30.836  28.986  1.00  0.00    -0.014 A 
BRANCH  31  32
ATOM     32  C   UNL A   1      38.428  30.474  29.783  1.00  0.00     0.031 A 
ATOM     33  C   UNL A   1      39.478  29.568  29.185  1.00  0.00     0.074 A 
ATOM     34  C   UNL A   1      38.620  30.954  31.029  1.00  0.00     0.049 A 
ATOM     35  N   UNL A   1      40.428  28.887  29.778  1.00  0.00    -0.248 NA
ATOM     36  C   UNL A   1      39.445  29.390  27.724  1.00  0.00     0.031 C 
ATOM     37  C   UNL A   1      37.761  31.917  31.718  1.00  0.00     0.029 A 
ATOM     38  N   UNL A   1      39.613  30.691  31.946  1.00  0.00    -0.354 N 
ATOM     39  C   UNL A   1      41.051  28.150  28.777  1.00  0.00     0.074 A 
ATOM     40  C   UNL A   1      40.374  28.464  27.538  1.00  0.00     0.031 C 
ATOM     41  C   UNL A   1      38.282  32.198  32.920  1.00  0.00     0.029 A 
ATOM     42  C   UNL A   1      39.432  31.333  33.146  1.00  0.00     0.049 A 
ATOM     43  H   UNL A   1      40.377  30.100  31.758  1.00  0.00     0.167 HD
ATOM     44  C   UNL A   1      42.091  27.287  28.888  1.00  0.00     0.037 A 
ATOM     45  C   UNL A   1      40.066  31.193  34.327  1.00  0.00     0.037 A 
ATOM     46  C   UNL A   1      42.802  27.034  30.116  1.00  0.00     0.049 A 
ATOM     47  C   UNL A   1      41.158  30.171  34.451  1.00  0.00     0.074 A 
ATOM     48  C   UNL A   1      43.866  26.177  30.339  1.00  0.00     0.029 A 
ATOM     49  N   UNL A   1      42.538  27.663  31.325  1.00  0.00    -0.354 N 
ATOM     50  N   UNL A   1      41.667  29.386  33.532  1.00  0.00    -0.248 NA
ATOM     51  C   UNL A   1      41.744  29.994  35.786  1.00  0.00     0.031 C 
ATOM     52  C   UNL A   1      44.216  26.253  31.691  1.00  0.00     0.029 A 
ATOM     53  C   UNL A   1      43.405  27.197  32.301  1.00  0.00     0.049 A 
ATOM     54  H   UNL A   1      41.837  28.339  31.468  1.00  0.00     0.167 HD
ATOM     55  C   UNL A   1      42.634  28.626  34.174  1.00  0.00     0.074 A 
ATOM     56  C   UNL A   1      42.666  29.070  35.554  1.00  0.00     0.031 C 
ATOM     57  C   UNL A   1      43.418  27.641  33.670  1.00  0.00     0.037 A 
BRANCH  44  58
ATOM     58  C   UNL A   1      42.510  26.520  27.664  1.00  0.00     0.064 A 
ATOM     59  C   UNL A   1      43.519  26.978  26.805  1.00  0.00     0.173 A 
ATOM     60  C   UNL A   1      41.930  25.272  27.383  1.00  0.00     0.173 A 
ATOM     61  F   UNL A   1      44.099  28.169  27.017  1.00  0.00    -0.203 F 
ATOM     62  C   UNL A   1      43.921  26.223  25.704  1.00  0.00     0.198 A 
ATOM     63  C   UNL A   1      42.355  24.506  26.300  1.00  0.00     0.198 A 
ATOM     64  F   UNL A   1      40.963  24.783  28.174  1.00  0.00    -0.203 F 
ATOM     65  F   UNL A   1      44.861  26.697  24.874  1.00  0.00    -0.200 F 
ATOM     66  C   UNL A   1      43.345  24.985  25.459  1.00  0.00     0.200 A 
ATOM     67  F   UNL A   1      41.808  23.303  26.076  1.00  0.00    -0.200 F 
ATOM     68  F   UNL A   1      43.745  24.253  24.409  1.00  0.00    -0.200 F 
ENDBRANCH  44  58
BRANCH  45  69
ATOM     69  C   UNL A   1      39.629  31.999  35.499  1.00  0.00     0.064 A 
ATOM     70  C   UNL A   1      40.172  33.267  35.741  1.00  0.00     0.173 A 
ATOM     71  C   UNL A   1      38.648  31.530  36.388  1.00  0.00     0.173 A 
ATOM     72  F   UNL A   1      41.136  33.746  34.940  1.00  0.00    -0.203 F 
ATOM     73  C   UNL A   1      39.751  34.035  36.825  1.00  0.00     0.198 A 
ATOM     74  C   UNL A   1      38.202  32.313  37.449  1.00  0.00     0.198 A 
ATOM     75  F   UNL A   1      38.099  30.320  36.206  1.00  0.00    -0.203 F 
ATOM     76  F   UNL A   1      40.314  35.229  37.055  1.00  0.00    -0.200 F 
ATOM     77  C   UNL A   1      38.758  33.564  37.670  1.00  0.00     0.200 A 
ATOM     78  F   UNL A   1      37.229  31.861  38.250  1.00  0.00    -0.200 F 
ATOM     79  F   UNL A   1      38.340  34.312  38.701  1.00  0.00    -0.200 F 
ENDBRANCH  45  69
BRANCH  57  80
ATOM     80  C   UNL A   1      44.382  26.987  34.617  1.00  0.00     0.064 A 
ATOM     81  C   UNL A   1      45.645  27.541  34.875  1.00  0.00     0.173 A 
ATOM     82  C   UNL A   1      44.033  25.806  35.288  1.00  0.00     0.173 A 
ATOM     83  F   UNL A   1      46.033  28.660  34.245  1.00  0.00    -0.203 F 
ATOM     84  C   UNL A   1      46.536  26.918  35.745  1.00  0.00     0.198 A 
ATOM     85  C   UNL A   1      44.913  25.204  36.184  1.00  0.00     0.198 A 
ATOM     86  F   UNL A   1      42.835  25.238  35.084  1.00  0.00    -0.203 F 
ATOM     87  F   UNL A   1      47.758  27.434  35.930  1.00  0.00    -0.200 F 
ATOM     88  C   UNL A   1      46.166  25.755  36.404  1.00  0.00     0.200 A 
ATOM     89  F   UNL A   1      44.550  24.089  36.831  1.00  0.00    -0.200 F 
ATOM     90  F   UNL A   1      47.025  25.159  37.243  1.00  0.00    -0.200 F 
ENDBRANCH  57  80
ENDBRANCH  31  32
ENDBRANCH  24  26
ENDBRANCH  23  24
ENDBRANCH   1  23
TORSDOF 12
ENDMDL
