MODEL 1
REMARK VINA RESULT:     -13.7      0.000      0.000
REMARK SMILES Cc1ccc(NC(=O)N2CCCC[C@@H]2C(=O)OCCOC(=O)c2ccc(-c3c4nc(c(-c5c(F)c(F)c(F)c(F)c5F)c5ccc([nH]5)c(-c5c(F)c(F)c(F)c(F)c5F)c5nc(c(-c6c(F)c(F)c(F)c(F)c6F)c6ccc3[nH]6)C=C5)C=C4)cc2)cc1
REMARK SMILES IDX 18 1 17 2 15 3 16 4 14 5 9 6 10 7 11 8 13 9 12 10 7 11 6 12
REMARK SMILES IDX 8 14 5 15 1 16 2 17 3 18 87 19 4 20 86 21 19 22 20 23 21 24
REMARK SMILES IDX 22 25 23 26 24 27 85 28 25 29 84 30 26 31 27 32 28 33 78 34
REMARK SMILES IDX 29 35 83 36 77 37 79 38 30 39 82 40 76 41 75 42 31 44 63 45
REMARK SMILES IDX 43 46 62 47 44 48 47 49 61 50 80 51 45 52 46 53 60 55 81 56
REMARK SMILES IDX 48 57 32 58 33 59 41 60 34 61 35 62 39 63 42 64 36 65 37 66
REMARK SMILES IDX 40 67 38 68 64 69 65 70 73 71 66 72 67 73 71 74 74 75 68 76
REMARK SMILES IDX 69 77 72 78 70 79 49 80 50 81 58 82 51 83 52 84 56 85 59 86
REMARK SMILES IDX 53 87 54 88 57 89 55 90
REMARK H PARENT 6 13 79 43 47 54
REMARK Flexibility Score: inf
ROOT
ATOM      1  C   UNL A   1      32.521  28.961  26.218  1.00  0.00     0.274 C 
ENDROOT
BRANCH   1   2
ATOM      2  O   UNL A   1      33.282  27.780  25.958  1.00  0.00    -0.461 OA
BRANCH   2   3
ATOM      3  C   UNL A   1      33.842  27.682  24.707  1.00  0.00     0.329 C 
ATOM      4  O   UNL A   1      34.023  28.630  23.959  1.00  0.00    -0.250 OA
BRANCH   3   5
ATOM      5  C   UNL A   1      34.000  26.184  24.372  1.00  0.00     0.196 C 
ATOM      6  N   UNL A   1      33.019  25.593  23.429  1.00  0.00    -0.311 N 
ATOM      7  C   UNL A   1      32.217  24.430  23.767  1.00  0.00     0.122 C 
ATOM      8  C   UNL A   1      32.078  24.174  25.250  1.00  0.00     0.022 C 
ATOM      9  C   UNL A   1      34.071  25.527  25.767  1.00  0.00     0.037 C 
ATOM     10  C   UNL A   1      33.459  24.146  25.871  1.00  0.00     0.005 C 
BRANCH   6  11
ATOM     11  C   UNL A   1      32.861  26.032  22.149  1.00  0.00     0.322 C 
ATOM     12  N   UNL A   1      32.031  27.063  21.844  1.00  0.00    -0.308 N 
ATOM     13  H   UNL A   1      32.237  27.448  20.961  1.00  0.00     0.171 HD
ATOM     14  O   UNL A   1      33.593  25.613  21.251  1.00  0.00    -0.248 OA
BRANCH  12  15
ATOM     15  C   UNL A   1      30.954  27.726  22.461  1.00  0.00     0.042 A 
ATOM     16  C   UNL A   1      27.278  29.868  23.126  1.00  0.00     0.044 C 
ATOM     17  C   UNL A   1      28.607  29.174  23.054  1.00  0.00    -0.051 A 
ATOM     18  C   UNL A   1      28.723  27.823  23.397  1.00  0.00     0.005 A 
ATOM     19  C   UNL A   1      29.737  29.841  22.581  1.00  0.00     0.005 A 
ATOM     20  C   UNL A   1      29.901  27.113  23.126  1.00  0.00     0.026 A 
ATOM     21  C   UNL A   1      30.895  29.117  22.272  1.00  0.00     0.026 A 
ENDBRANCH  12  15
ENDBRANCH   6  11
ENDBRANCH   3   5
ENDBRANCH   2   3
ENDBRANCH   1   2
BRANCH   1  22
ATOM     22  C   UNL A   1      33.215  29.869  27.251  1.00  0.00     0.275 C 
BRANCH  22  23
ATOM     23  O   UNL A   1      34.593  29.564  27.603  1.00  0.00    -0.458 OA
BRANCH  23  24
ATOM     24  C   UNL A   1      35.496  30.368  28.229  1.00  0.00     0.338 C 
ATOM     25  O   UNL A   1      35.199  31.439  28.722  1.00  0.00    -0.246 OA
BRANCH  24  26
ATOM     26  C   UNL A   1      36.853  29.822  28.379  1.00  0.00     0.060 A 
ATOM     27  C   UNL A   1      37.130  29.012  29.485  1.00  0.00     0.016 A 
ATOM     28  C   UNL A   1      37.783  29.989  27.360  1.00  0.00     0.016 A 
ATOM     29  C   UNL A   1      38.287  28.233  29.494  1.00  0.00     0.010 A 
ATOM     30  C   UNL A   1      38.906  29.181  27.352  1.00  0.00     0.010 A 
ATOM     31  C   UNL A   1      39.156  28.280  28.405  1.00  0.00    -0.014 A 
BRANCH  31  32
ATOM     32  C   UNL A   1      40.438  27.572  28.372  1.00  0.00     0.031 A 
ATOM     33  C   UNL A   1      40.616  26.117  28.118  1.00  0.00     0.074 A 
ATOM     34  C   UNL A   1      41.516  28.341  28.626  1.00  0.00     0.049 A 
ATOM     35  N   UNL A   1      41.665  25.448  28.482  1.00  0.00    -0.248 NA
ATOM     36  C   UNL A   1      39.636  25.286  27.436  1.00  0.00     0.031 C 
ATOM     37  C   UNL A   1      42.926  28.001  28.524  1.00  0.00     0.029 A 
ATOM     38  N   UNL A   1      41.500  29.577  29.299  1.00  0.00    -0.354 N 
ATOM     39  C   UNL A   1      41.616  24.205  27.886  1.00  0.00     0.074 A 
ATOM     40  C   UNL A   1      40.297  24.126  27.305  1.00  0.00     0.031 C 
ATOM     41  C   UNL A   1      43.607  28.786  29.374  1.00  0.00     0.029 A 
ATOM     42  C   UNL A   1      42.630  29.552  30.136  1.00  0.00     0.049 A 
ATOM     43  H   UNL A   1      40.841  30.302  29.203  1.00  0.00     0.167 HD
ATOM     44  C   UNL A   1      42.745  23.435  27.849  1.00  0.00     0.037 A 
ATOM     45  C   UNL A   1      42.460  29.508  31.490  1.00  0.00     0.037 A 
ATOM     46  C   UNL A   1      43.812  24.015  28.654  1.00  0.00     0.049 A 
ATOM     47  C   UNL A   1      43.034  28.284  32.157  1.00  0.00     0.074 A 
ATOM     48  C   UNL A   1      44.913  24.806  28.373  1.00  0.00     0.029 A 
ATOM     49  N   UNL A   1      43.650  24.051  30.027  1.00  0.00    -0.354 N 
ATOM     50  N   UNL A   1      43.469  27.236  31.518  1.00  0.00    -0.248 NA
ATOM     51  C   UNL A   1      43.091  28.113  33.610  1.00  0.00     0.031 C 
ATOM     52  C   UNL A   1      45.393  25.349  29.597  1.00  0.00     0.029 A 
ATOM     53  C   UNL A   1      44.580  24.887  30.613  1.00  0.00     0.049 A 
ATOM     54  H   UNL A   1      42.962  23.549  30.522  1.00  0.00     0.167 HD
ATOM     55  C   UNL A   1      43.909  26.309  32.418  1.00  0.00     0.074 A 
ATOM     56  C   UNL A   1      43.622  26.883  33.716  1.00  0.00     0.031 C 
ATOM     57  C   UNL A   1      44.496  25.143  32.035  1.00  0.00     0.037 A 
BRANCH  44  58
ATOM     58  C   UNL A   1      42.971  22.277  26.900  1.00  0.00     0.064 A 
ATOM     59  C   UNL A   1      42.278  21.056  27.079  1.00  0.00     0.173 A 
ATOM     60  C   UNL A   1      43.885  22.281  25.832  1.00  0.00     0.173 A 
ATOM     61  F   UNL A   1      41.314  20.923  28.001  1.00  0.00    -0.203 F 
ATOM     62  C   UNL A   1      42.553  19.912  26.328  1.00  0.00     0.198 A 
ATOM     63  C   UNL A   1      44.190  21.123  25.103  1.00  0.00     0.198 A 
ATOM     64  F   UNL A   1      44.476  23.414  25.432  1.00  0.00    -0.203 F 
ATOM     65  F   UNL A   1      41.869  18.782  26.562  1.00  0.00    -0.200 F 
ATOM     66  C   UNL A   1      43.535  19.934  25.362  1.00  0.00     0.200 A 
ATOM     67  F   UNL A   1      45.129  21.162  24.147  1.00  0.00    -0.200 F 
ATOM     68  F   UNL A   1      43.833  18.824  24.674  1.00  0.00    -0.200 F 
ENDBRANCH  44  58
BRANCH  45  69
ATOM     69  C   UNL A   1      41.246  30.232  31.952  1.00  0.00     0.064 A 
ATOM     70  C   UNL A   1      40.112  29.488  32.333  1.00  0.00     0.173 A 
ATOM     71  C   UNL A   1      41.313  31.565  32.369  1.00  0.00     0.173 A 
ATOM     72  F   UNL A   1      40.015  28.194  31.989  1.00  0.00    -0.203 F 
ATOM     73  C   UNL A   1      39.125  30.031  33.154  1.00  0.00     0.198 A 
ATOM     74  C   UNL A   1      40.330  32.091  33.206  1.00  0.00     0.198 A 
ATOM     75  F   UNL A   1      42.376  32.322  32.057  1.00  0.00    -0.203 F 
ATOM     76  F   UNL A   1      38.099  29.273  33.565  1.00  0.00    -0.200 F 
ATOM     77  C   UNL A   1      39.246  31.330  33.606  1.00  0.00     0.200 A 
ATOM     78  F   UNL A   1      40.473  33.315  33.716  1.00  0.00    -0.200 F 
ATOM     79  F   UNL A   1      38.342  31.841  34.452  1.00  0.00    -0.200 F 
ENDBRANCH  45  69
BRANCH  57  80
ATOM     80  C   UNL A   1      45.119  24.178  32.987  1.00  0.00     0.064 A 
ATOM     81  C   UNL A   1      44.445  23.025  33.416  1.00  0.00     0.173 A 
ATOM     82  C   UNL A   1      46.338  24.476  33.626  1.00  0.00     0.173 A 
ATOM     83  F   UNL A   1      43.253  22.695  32.896  1.00  0.00    -0.203 F 
ATOM     84  C   UNL A   1      44.971  22.204  34.412  1.00  0.00     0.198 A 
ATOM     85  C   UNL A   1      46.839  23.679  34.651  1.00  0.00     0.198 A 
ATOM     86  F   UNL A   1      47.066  25.543  33.262  1.00  0.00    -0.203 F 
ATOM     87  F   UNL A   1      44.314  21.094  34.772  1.00  0.00    -0.200 F 
ATOM     88  C   UNL A   1      46.159  22.540  35.039  1.00  0.00     0.200 A 
ATOM     89  F   UNL A   1      47.981  24.022  35.264  1.00  0.00    -0.200 F 
ATOM     90  F   UNL A   1      46.646  21.766  36.019  1.00  0.00    -0.200 F 
ENDBRANCH  57  80
ENDBRANCH  31  32
ENDBRANCH  24  26
ENDBRANCH  23  24
ENDBRANCH  22  23
ENDBRANCH   1  22
TORSDOF 13
ENDMDL
MODEL 2
REMARK VINA RESULT:     -13.7      1.275      2.937
REMARK SMILES Cc1ccc(NC(=O)N2CCCC[C@@H]2C(=O)OCCOC(=O)c2ccc(-c3c4nc(c(-c5c(F)c(F)c(F)c(F)c5F)c5ccc([nH]5)c(-c5c(F)c(F)c(F)c(F)c5F)c5nc(c(-c6c(F)c(F)c(F)c(F)c6F)c6ccc3[nH]6)C=C5)C=C4)cc2)cc1
REMARK SMILES IDX 18 1 17 2 15 3 16 4 14 5 9 6 10 7 11 8 13 9 12 10 7 11 6 12
REMARK SMILES IDX 8 14 5 15 1 16 2 17 3 18 87 19 4 20 86 21 19 22 20 23 21 24
REMARK SMILES IDX 22 25 23 26 24 27 85 28 25 29 84 30 26 31 27 32 28 33 78 34
REMARK SMILES IDX 29 35 83 36 77 37 79 38 30 39 82 40 76 41 75 42 31 44 63 45
REMARK SMILES IDX 43 46 62 47 44 48 47 49 61 50 80 51 45 52 46 53 60 55 81 56
REMARK SMILES IDX 48 57 32 58 33 59 41 60 34 61 35 62 39 63 42 64 36 65 37 66
REMARK SMILES IDX 40 67 38 68 64 69 65 70 73 71 66 72 67 73 71 74 74 75 68 76
REMARK SMILES IDX 69 77 72 78 70 79 49 80 50 81 58 82 51 83 52 84 56 85 59 86
REMARK SMILES IDX 53 87 54 88 57 89 55 90
REMARK H PARENT 6 13 79 43 47 54
REMARK Flexibility Score: inf
ROOT
ATOM      1  C   UNL A   1      33.920  27.614  26.466  1.00  0.00     0.274 C 
ENDROOT
BRANCH   1   2
ATOM      2  O   UNL A   1      32.703  27.375  25.755  1.00  0.00    -0.461 OA
BRANCH   2   3
ATOM      3  C   UNL A   1      31.595  27.113  26.524  1.00  0.00     0.329 C 
ATOM      4  O   UNL A   1      31.505  27.373  27.713  1.00  0.00    -0.250 OA
BRANCH   3   5
ATOM      5  C   UNL A   1      30.611  26.281  25.673  1.00  0.00     0.196 C 
ATOM      6  N   UNL A   1      30.945  24.852  25.454  1.00  0.00    -0.311 N 
ATOM      7  C   UNL A   1      31.056  24.273  24.126  1.00  0.00     0.122 C 
ATOM      8  C   UNL A   1      31.300  25.277  23.023  1.00  0.00     0.022 C 
ATOM      9  C   UNL A   1      30.454  27.137  24.398  1.00  0.00     0.037 C 
ATOM     10  C   UNL A   1      30.250  26.365  23.112  1.00  0.00     0.005 C 
BRANCH   6  11
ATOM     11  C   UNL A   1      31.080  23.957  26.472  1.00  0.00     0.322 C 
ATOM     12  N   UNL A   1      32.279  23.397  26.777  1.00  0.00    -0.308 N 
ATOM     13  H   UNL A   1      32.282  23.014  27.685  1.00  0.00     0.171 HD
ATOM     14  O   UNL A   1      30.148  23.753  27.251  1.00  0.00    -0.248 OA
BRANCH  12  15
ATOM     15  C   UNL A   1      33.520  23.222  26.135  1.00  0.00     0.042 A 
ATOM     16  C   UNL A   1      36.597  22.953  23.136  1.00  0.00     0.044 C 
ATOM     17  C   UNL A   1      35.631  22.954  24.285  1.00  0.00    -0.051 A 
ATOM     18  C   UNL A   1      35.595  24.027  25.181  1.00  0.00     0.005 A 
ATOM     19  C   UNL A   1      34.707  21.921  24.443  1.00  0.00     0.005 A 
ATOM     20  C   UNL A   1      34.558  24.143  26.118  1.00  0.00     0.026 A 
ATOM     21  C   UNL A   1      33.650  22.064  25.350  1.00  0.00     0.026 A 
ENDBRANCH  12  15
ENDBRANCH   6  11
ENDBRANCH   3   5
ENDBRANCH   2   3
ENDBRANCH   1   2
BRANCH   1  22
ATOM     22  C   UNL A   1      34.176  29.120  26.663  1.00  0.00     0.275 C 
BRANCH  22  23
ATOM     23  O   UNL A   1      34.552  29.574  27.993  1.00  0.00    -0.458 OA
BRANCH  23  24
ATOM     24  C   UNL A   1      35.528  30.461  28.332  1.00  0.00     0.338 C 
ATOM     25  O   UNL A   1      35.301  31.626  28.597  1.00  0.00    -0.246 OA
BRANCH  24  26
ATOM     26  C   UNL A   1      36.884  29.909  28.470  1.00  0.00     0.060 A 
ATOM     27  C   UNL A   1      37.167  29.099  29.573  1.00  0.00     0.016 A 
ATOM     28  C   UNL A   1      37.806  30.072  27.443  1.00  0.00     0.016 A 
ATOM     29  C   UNL A   1      38.321  28.314  29.573  1.00  0.00     0.010 A 
ATOM     30  C   UNL A   1      38.925  29.259  27.425  1.00  0.00     0.010 A 
ATOM     31  C   UNL A   1      39.181  28.357  28.475  1.00  0.00    -0.014 A 
BRANCH  31  32
ATOM     32  C   UNL A   1      40.459  27.643  28.431  1.00  0.00     0.031 A 
ATOM     33  C   UNL A   1      40.629  26.189  28.169  1.00  0.00     0.074 A 
ATOM     34  C   UNL A   1      41.542  28.407  28.683  1.00  0.00     0.049 A 
ATOM     35  N   UNL A   1      41.676  25.513  28.524  1.00  0.00    -0.248 NA
ATOM     36  C   UNL A   1      39.641  25.366  27.489  1.00  0.00     0.031 C 
ATOM     37  C   UNL A   1      42.950  28.061  28.570  1.00  0.00     0.029 A 
ATOM     38  N   UNL A   1      41.535  29.639  29.361  1.00  0.00    -0.354 N 
ATOM     39  C   UNL A   1      41.618  24.273  27.922  1.00  0.00     0.074 A 
ATOM     40  C   UNL A   1      40.296  24.204  27.348  1.00  0.00     0.031 C 
ATOM     41  C   UNL A   1      43.639  28.838  29.421  1.00  0.00     0.029 A 
ATOM     42  C   UNL A   1      42.671  29.604  30.192  1.00  0.00     0.049 A 
ATOM     43  H   UNL A   1      40.879  30.367  29.274  1.00  0.00     0.167 HD
ATOM     44  C   UNL A   1      42.743  23.498  27.873  1.00  0.00     0.037 A 
ATOM     45  C   UNL A   1      42.509  29.555  31.547  1.00  0.00     0.037 A 
ATOM     46  C   UNL A   1      43.818  24.069  28.676  1.00  0.00     0.049 A 
ATOM     47  C   UNL A   1      43.081  28.324  32.204  1.00  0.00     0.074 A 
ATOM     48  C   UNL A   1      44.921  24.857  28.391  1.00  0.00     0.029 A 
ATOM     49  N   UNL A   1      43.664  24.100  30.050  1.00  0.00    -0.354 N 
ATOM     50  N   UNL A   1      43.507  27.278  31.557  1.00  0.00    -0.248 NA
ATOM     51  C   UNL A   1      43.146  28.146  33.656  1.00  0.00     0.031 C 
ATOM     52  C   UNL A   1      45.411  25.392  29.615  1.00  0.00     0.029 A 
ATOM     53  C   UNL A   1      44.602  24.929  30.634  1.00  0.00     0.049 A 
ATOM     54  H   UNL A   1      42.978  23.599  30.546  1.00  0.00     0.167 HD
ATOM     55  C   UNL A   1      43.949  26.344  32.450  1.00  0.00     0.074 A 
ATOM     56  C   UNL A   1      43.672  26.914  33.753  1.00  0.00     0.031 C 
ATOM     57  C   UNL A   1      44.528  25.177  32.057  1.00  0.00     0.037 A 
BRANCH  44  58
ATOM     58  C   UNL A   1      42.959  22.344  26.918  1.00  0.00     0.064 A 
ATOM     59  C   UNL A   1      42.255  21.128  27.091  1.00  0.00     0.173 A 
ATOM     60  C   UNL A   1      43.871  22.347  25.848  1.00  0.00     0.173 A 
ATOM     61  F   UNL A   1      41.292  20.998  28.013  1.00  0.00    -0.203 F 
ATOM     62  C   UNL A   1      42.520  19.986  26.333  1.00  0.00     0.198 A 
ATOM     63  C   UNL A   1      44.165  21.190  25.112  1.00  0.00     0.198 A 
ATOM     64  F   UNL A   1      44.471  23.478  25.455  1.00  0.00    -0.203 F 
ATOM     65  F   UNL A   1      41.827  18.861  26.561  1.00  0.00    -0.200 F 
ATOM     66  C   UNL A   1      43.501  20.006  25.365  1.00  0.00     0.200 A 
ATOM     67  F   UNL A   1      45.103  21.228  24.155  1.00  0.00    -0.200 F 
ATOM     68  F   UNL A   1      43.789  18.897  24.670  1.00  0.00    -0.200 F 
ENDBRANCH  44  58
BRANCH  45  69
ATOM     69  C   UNL A   1      41.301  30.282  32.020  1.00  0.00     0.064 A 
ATOM     70  C   UNL A   1      40.163  29.542  32.396  1.00  0.00     0.173 A 
ATOM     71  C   UNL A   1      41.378  31.609  32.450  1.00  0.00     0.173 A 
ATOM     72  F   UNL A   1      40.056  28.252  32.038  1.00  0.00    -0.203 F 
ATOM     73  C   UNL A   1      39.181  30.082  33.225  1.00  0.00     0.198 A 
ATOM     74  C   UNL A   1      40.400  32.134  33.296  1.00  0.00     0.198 A 
ATOM     75  F   UNL A   1      42.445  32.363  32.144  1.00  0.00    -0.203 F 
ATOM     76  F   UNL A   1      38.152  29.327  33.631  1.00  0.00    -0.200 F 
ATOM     77  C   UNL A   1      39.313  31.375  33.691  1.00  0.00     0.200 A 
ATOM     78  F   UNL A   1      40.553  33.351  33.818  1.00  0.00    -0.200 F 
ATOM     79  F   UNL A   1      38.414  31.884  34.545  1.00  0.00    -0.200 F 
ENDBRANCH  45  69
BRANCH  57  80
ATOM     80  C   UNL A   1      45.152  24.205  33.001  1.00  0.00     0.064 A 
ATOM     81  C   UNL A   1      44.476  23.053  33.427  1.00  0.00     0.173 A 
ATOM     82  C   UNL A   1      46.375  24.495  33.635  1.00  0.00     0.173 A 
ATOM     83  F   UNL A   1      43.280  22.730  32.912  1.00  0.00    -0.203 F 
ATOM     84  C   UNL A   1      45.004  22.224  34.416  1.00  0.00     0.198 A 
ATOM     85  C   UNL A   1      46.879  23.690  34.653  1.00  0.00     0.198 A 
ATOM     86  F   UNL A   1      47.106  25.561  33.273  1.00  0.00    -0.203 F 
ATOM     87  F   UNL A   1      44.345  21.115  34.774  1.00  0.00    -0.200 F 
ATOM     88  C   UNL A   1      46.197  22.552  35.039  1.00  0.00     0.200 A 
ATOM     89  F   UNL A   1      48.026  24.026  35.262  1.00  0.00    -0.200 F 
ATOM     90  F   UNL A   1      46.686  21.771  36.011  1.00  0.00    -0.200 F 
ENDBRANCH  57  80
ENDBRANCH  31  32
ENDBRANCH  24  26
ENDBRANCH  23  24
ENDBRANCH  22  23
ENDBRANCH   1  22
TORSDOF 13
ENDMDL
MODEL 3
REMARK VINA RESULT:     -13.5      4.136     10.055
REMARK SMILES Cc1ccc(NC(=O)N2CCCC[C@@H]2C(=O)OCCOC(=O)c2ccc(-c3c4nc(c(-c5c(F)c(F)c(F)c(F)c5F)c5ccc([nH]5)c(-c5c(F)c(F)c(F)c(F)c5F)c5nc(c(-c6c(F)c(F)c(F)c(F)c6F)c6ccc3[nH]6)C=C5)C=C4)cc2)cc1
REMARK SMILES IDX 18 1 17 2 15 3 16 4 14 5 9 6 10 7 11 8 13 9 12 10 7 11 6 12
REMARK SMILES IDX 8 14 5 15 1 16 2 17 3 18 87 19 4 20 86 21 19 22 20 23 21 24
REMARK SMILES IDX 22 25 23 26 24 27 85 28 25 29 84 30 26 31 27 32 28 33 78 34
REMARK SMILES IDX 29 35 83 36 77 37 79 38 30 39 82 40 76 41 75 42 31 44 63 45
REMARK SMILES IDX 43 46 62 47 44 48 47 49 61 50 80 51 45 52 46 53 60 55 81 56
REMARK SMILES IDX 48 57 32 58 33 59 41 60 34 61 35 62 39 63 42 64 36 65 37 66
REMARK SMILES IDX 40 67 38 68 64 69 65 70 73 71 66 72 67 73 71 74 74 75 68 76
REMARK SMILES IDX 69 77 72 78 70 79 49 80 50 81 58 82 51 83 52 84 56 85 59 86
REMARK SMILES IDX 53 87 54 88 57 89 55 90
REMARK H PARENT 6 13 79 43 47 54
REMARK Flexibility Score: inf
ROOT
ATOM      1  C   UNL A   1      36.083  22.631  25.960  1.00  0.00     0.274 C 
ENDROOT
BRANCH   1   2
ATOM      2  O   UNL A   1      35.383  23.057  24.790  1.00  0.00    -0.461 OA
BRANCH   2   3
ATOM      3  C   UNL A   1      34.567  24.154  24.937  1.00  0.00     0.329 C 
ATOM      4  O   UNL A   1      34.919  25.210  25.437  1.00  0.00    -0.250 OA
BRANCH   3   5
ATOM      5  C   UNL A   1      33.132  23.735  24.549  1.00  0.00     0.196 C 
ATOM      6  N   UNL A   1      32.347  22.989  25.562  1.00  0.00    -0.311 N 
ATOM      7  C   UNL A   1      31.752  21.692  25.286  1.00  0.00     0.122 C 
ATOM      8  C   UNL A   1      32.377  20.950  24.127  1.00  0.00     0.022 C 
ATOM      9  C   UNL A   1      33.339  23.019  23.197  1.00  0.00     0.037 C 
ATOM     10  C   UNL A   1      32.400  21.864  22.919  1.00  0.00     0.005 C 
BRANCH   6  11
ATOM     11  C   UNL A   1      32.044  23.497  26.790  1.00  0.00     0.322 C 
ATOM     12  N   UNL A   1      31.295  24.621  26.933  1.00  0.00    -0.308 N 
ATOM     13  H   UNL A   1      30.924  24.697  27.842  1.00  0.00     0.171 HD
ATOM     14  O   UNL A   1      32.304  22.858  27.811  1.00  0.00    -0.248 OA
BRANCH  12  15
ATOM     15  C   UNL A   1      30.910  25.705  26.122  1.00  0.00     0.042 A 
ATOM     16  C   UNL A   1      30.800  28.675  23.007  1.00  0.00     0.044 C 
ATOM     17  C   UNL A   1      30.730  27.744  24.181  1.00  0.00    -0.051 A 
ATOM     18  C   UNL A   1      29.818  26.685  24.196  1.00  0.00     0.005 A 
ATOM     19  C   UNL A   1      31.617  27.875  25.251  1.00  0.00     0.005 A 
ATOM     20  C   UNL A   1      29.893  25.686  25.177  1.00  0.00     0.026 A 
ATOM     21  C   UNL A   1      31.715  26.853  26.203  1.00  0.00     0.026 A 
ENDBRANCH  12  15
ENDBRANCH   6  11
ENDBRANCH   3   5
ENDBRANCH   2   3
ENDBRANCH   1   2
BRANCH   1  22
ATOM     22  C   UNL A   1      37.605  22.582  25.726  1.00  0.00     0.275 C 
BRANCH  22  23
ATOM     23  O   UNL A   1      38.368  23.793  25.982  1.00  0.00    -0.458 OA
BRANCH  23  24
ATOM     24  C   UNL A   1      39.542  23.917  26.662  1.00  0.00     0.338 C 
ATOM     25  O   UNL A   1      40.443  23.105  26.579  1.00  0.00    -0.246 OA
BRANCH  24  26
ATOM     26  C   UNL A   1      39.714  25.157  27.433  1.00  0.00     0.060 A 
ATOM     27  C   UNL A   1      40.222  26.285  26.781  1.00  0.00     0.016 A 
ATOM     28  C   UNL A   1      39.238  25.235  28.736  1.00  0.00     0.016 A 
ATOM     29  C   UNL A   1      40.103  27.539  27.381  1.00  0.00     0.010 A 
ATOM     30  C   UNL A   1      39.081  26.485  29.308  1.00  0.00     0.010 A 
ATOM     31  C   UNL A   1      39.489  27.647  28.628  1.00  0.00    -0.014 A 
BRANCH  31  32
ATOM     32  C   UNL A   1      39.408  28.906  29.373  1.00  0.00     0.031 A 
ATOM     33  C   UNL A   1      38.421  29.992  29.133  1.00  0.00     0.074 A 
ATOM     34  C   UNL A   1      40.346  29.058  30.331  1.00  0.00     0.049 A 
ATOM     35  N   UNL A   1      38.602  31.222  29.499  1.00  0.00    -0.248 NA
ATOM     36  C   UNL A   1      37.145  29.796  28.461  1.00  0.00     0.031 C 
ATOM     37  C   UNL A   1      40.461  30.097  31.341  1.00  0.00     0.029 A 
ATOM     38  N   UNL A   1      41.573  28.372  30.390  1.00  0.00    -0.354 N 
ATOM     39  C   UNL A   1      37.411  31.902  29.346  1.00  0.00     0.074 A 
ATOM     40  C   UNL A   1      36.556  30.989  28.626  1.00  0.00     0.031 C 
ATOM     41  C   UNL A   1      41.756  30.210  31.678  1.00  0.00     0.029 A 
ATOM     42  C   UNL A   1      42.513  29.339  30.791  1.00  0.00     0.049 A 
ATOM     43  H   UNL A   1      41.737  27.421  30.195  1.00  0.00     0.167 HD
ATOM     44  C   UNL A   1      37.249  33.115  29.955  1.00  0.00     0.037 A 
ATOM     45  C   UNL A   1      43.480  29.738  29.912  1.00  0.00     0.037 A 
ATOM     46  C   UNL A   1      38.498  33.589  30.538  1.00  0.00     0.049 A 
ATOM     47  C   UNL A   1      43.442  31.202  29.556  1.00  0.00     0.074 A 
ATOM     48  C   UNL A   1      39.045  33.555  31.810  1.00  0.00     0.029 A 
ATOM     49  N   UNL A   1      39.528  33.940  29.684  1.00  0.00    -0.354 N 
ATOM     50  N   UNL A   1      42.465  32.006  29.864  1.00  0.00    -0.248 NA
ATOM     51  C   UNL A   1      44.473  31.861  28.753  1.00  0.00     0.031 C 
ATOM     52  C   UNL A   1      40.430  33.857  31.705  1.00  0.00     0.029 A 
ATOM     53  C   UNL A   1      40.718  34.071  30.372  1.00  0.00     0.049 A 
ATOM     54  H   UNL A   1      39.426  34.077  28.715  1.00  0.00     0.167 HD
ATOM     55  C   UNL A   1      42.740  33.254  29.385  1.00  0.00     0.074 A 
ATOM     56  C   UNL A   1      43.989  33.111  28.666  1.00  0.00     0.031 C 
ATOM     57  C   UNL A   1      41.933  34.323  29.629  1.00  0.00     0.037 A 
BRANCH  44  58
ATOM     58  C   UNL A   1      35.914  33.772  30.233  1.00  0.00     0.064 A 
ATOM     59  C   UNL A   1      35.132  34.285  29.170  1.00  0.00     0.173 A 
ATOM     60  C   UNL A   1      35.369  33.974  31.513  1.00  0.00     0.173 A 
ATOM     61  F   UNL A   1      35.476  34.096  27.889  1.00  0.00    -0.203 F 
ATOM     62  C   UNL A   1      33.968  35.027  29.377  1.00  0.00     0.198 A 
ATOM     63  C   UNL A   1      34.222  34.752  31.723  1.00  0.00     0.198 A 
ATOM     64  F   UNL A   1      35.904  33.388  32.592  1.00  0.00    -0.203 F 
ATOM     65  F   UNL A   1      33.284  35.499  28.324  1.00  0.00    -0.200 F 
ATOM     66  C   UNL A   1      33.530  35.292  30.656  1.00  0.00     0.200 A 
ATOM     67  F   UNL A   1      33.790  34.981  32.972  1.00  0.00    -0.200 F 
ATOM     68  F   UNL A   1      32.440  36.044  30.857  1.00  0.00    -0.200 F 
ENDBRANCH  44  58
BRANCH  45  69
ATOM     69  C   UNL A   1      43.918  28.655  28.992  1.00  0.00     0.064 A 
ATOM     70  C   UNL A   1      43.457  28.664  27.660  1.00  0.00     0.173 A 
ATOM     71  C   UNL A   1      45.033  27.865  29.283  1.00  0.00     0.173 A 
ATOM     72  F   UNL A   1      42.411  29.433  27.320  1.00  0.00    -0.203 F 
ATOM     73  C   UNL A   1      44.126  27.972  26.652  1.00  0.00     0.198 A 
ATOM     74  C   UNL A   1      45.706  27.192  28.263  1.00  0.00     0.198 A 
ATOM     75  F   UNL A   1      45.535  27.828  30.527  1.00  0.00    -0.203 F 
ATOM     76  F   UNL A   1      43.710  28.065  25.381  1.00  0.00    -0.200 F 
ATOM     77  C   UNL A   1      45.264  27.250  26.953  1.00  0.00     0.200 A 
ATOM     78  F   UNL A   1      46.850  26.559  28.523  1.00  0.00    -0.200 F 
ATOM     79  F   UNL A   1      45.957  26.638  25.983  1.00  0.00    -0.200 F 
ENDBRANCH  45  69
BRANCH  57  80
ATOM     80  C   UNL A   1      42.278  35.724  29.247  1.00  0.00     0.064 A 
ATOM     81  C   UNL A   1      41.816  36.298  28.054  1.00  0.00     0.173 A 
ATOM     82  C   UNL A   1      43.221  36.464  29.985  1.00  0.00     0.173 A 
ATOM     83  F   UNL A   1      40.955  35.639  27.264  1.00  0.00    -0.203 F 
ATOM     84  C   UNL A   1      42.255  37.553  27.634  1.00  0.00     0.198 A 
ATOM     85  C   UNL A   1      43.691  37.696  29.541  1.00  0.00     0.198 A 
ATOM     86  F   UNL A   1      43.697  36.006  31.154  1.00  0.00    -0.203 F 
ATOM     87  F   UNL A   1      41.767  38.083  26.505  1.00  0.00    -0.200 F 
ATOM     88  C   UNL A   1      43.204  38.243  28.370  1.00  0.00     0.200 A 
ATOM     89  F   UNL A   1      44.623  38.349  30.252  1.00  0.00    -0.200 F 
ATOM     90  F   UNL A   1      43.648  39.434  27.946  1.00  0.00    -0.200 F 
ENDBRANCH  57  80
ENDBRANCH  31  32
ENDBRANCH  24  26
ENDBRANCH  23  24
ENDBRANCH  22  23
ENDBRANCH   1  22
TORSDOF 13
ENDMDL
