MODEL 1
REMARK VINA RESULT:     -12.2      0.000      0.000
REMARK SMILES O=C(OCCOC(=O)[C@@H]1CCCC[C@@H]1C(=O)Nc1nc(-c2ccc(Cl)c(Cl)c2)cs1)c1ccc(-c2c3nc(c(-c4c(F)c(F)c(F)c(F)c4F)c4ccc([nH]4)c(-c4c(F)c(F)c(F)c(F)c4F)c4nc(c(-c5c(F)c(F)c(F)c(F)c5F)c5ccc2[nH]5)C=C4)C=C3)cc1
REMARK SMILES IDX 5 1 4 2 3 3 2 4 1 5 31 6 32 7 93 8 33 9 92 10 34 11 35 12
REMARK SMILES IDX 36 13 86 14 37 15 91 16 85 17 87 18 38 19 90 20 84 21 83 22
REMARK SMILES IDX 39 24 71 25 51 26 70 27 52 28 55 29 69 30 88 31 53 32 54 33
REMARK SMILES IDX 68 35 89 36 56 37 40 38 41 39 49 40 42 41 43 42 47 43 50 44
REMARK SMILES IDX 44 45 45 46 48 47 46 48 72 49 73 50 81 51 74 52 75 53 79 54
REMARK SMILES IDX 82 55 76 56 77 57 80 58 78 59 57 60 58 61 66 62 59 63 60 64
REMARK SMILES IDX 64 65 67 66 61 67 62 68 65 69 63 70 6 71 7 72 8 73 9 74
REMARK SMILES IDX 10 75 14 76 11 77 13 78 12 79 15 80 16 81 17 82 18 84 19 85
REMARK SMILES IDX 30 86 20 87 29 88 21 89 22 90 28 91 23 92 26 93 24 94 27 95
REMARK SMILES IDX 25 96
REMARK H PARENT 87 23 55 34 17 83
REMARK Flexibility Score: inf
ROOT
ATOM      1  C   UNL A   1      34.070  28.357  26.138  1.00  0.00     0.274 C 
ENDROOT
BRANCH   1   2
ATOM      2  C   UNL A   1      33.197  29.180  27.086  1.00  0.00     0.275 C 
BRANCH   2   3
ATOM      3  O   UNL A   1      33.702  30.492  27.362  1.00  0.00    -0.458 OA
BRANCH   3   4
ATOM      4  C   UNL A   1      34.625  30.868  28.277  1.00  0.00     0.338 C 
ATOM      5  O   UNL A   1      34.397  31.859  28.970  1.00  0.00    -0.246 OA
BRANCH   4   6
ATOM      6  C   UNL A   1      35.981  30.233  28.392  1.00  0.00     0.060 A 
ATOM      7  C   UNL A   1      36.984  30.180  27.413  1.00  0.00     0.016 A 
ATOM      8  C   UNL A   1      36.272  29.680  29.647  1.00  0.00     0.016 A 
ATOM      9  C   UNL A   1      38.284  29.731  27.708  1.00  0.00     0.010 A 
ATOM     10  C   UNL A   1      37.566  29.257  29.953  1.00  0.00     0.010 A 
ATOM     11  C   UNL A   1      38.600  29.309  28.995  1.00  0.00    -0.014 A 
BRANCH  11  12
ATOM     12  C   UNL A   1      39.941  28.784  29.368  1.00  0.00     0.031 A 
ATOM     13  C   UNL A   1      40.835  29.748  30.086  1.00  0.00     0.074 A 
ATOM     14  C   UNL A   1      40.416  27.582  28.977  1.00  0.00     0.049 A 
ATOM     15  N   UNL A   1      42.121  29.703  30.298  1.00  0.00    -0.248 NA
ATOM     16  C   UNL A   1      40.182  30.982  30.561  1.00  0.00     0.031 C 
ATOM     17  C   UNL A   1      39.672  26.538  28.274  1.00  0.00     0.029 A 
ATOM     18  N   UNL A   1      41.688  27.060  29.066  1.00  0.00    -0.354 N 
ATOM     19  C   UNL A   1      42.420  30.916  30.897  1.00  0.00     0.074 A 
ATOM     20  C   UNL A   1      41.229  31.729  30.849  1.00  0.00     0.031 C 
ATOM     21  C   UNL A   1      40.513  25.551  27.912  1.00  0.00     0.029 A 
ATOM     22  C   UNL A   1      41.853  25.870  28.392  1.00  0.00     0.049 A 
ATOM     23  H   UNL A   1      42.415  27.499  29.565  1.00  0.00     0.167 HD
ATOM     24  C   UNL A   1      43.557  31.291  31.524  1.00  0.00     0.037 A 
ATOM     25  C   UNL A   1      42.962  25.127  28.193  1.00  0.00     0.037 A 
ATOM     26  C   UNL A   1      44.712  30.451  31.615  1.00  0.00     0.049 A 
ATOM     27  C   UNL A   1      44.247  25.560  28.853  1.00  0.00     0.074 A 
ATOM     28  C   UNL A   1      45.895  30.675  32.286  1.00  0.00     0.029 A 
ATOM     29  N   UNL A   1      44.815  29.210  31.002  1.00  0.00    -0.354 N 
ATOM     30  N   UNL A   1      44.497  26.654  29.533  1.00  0.00    -0.248 NA
ATOM     31  C   UNL A   1      45.392  24.640  28.766  1.00  0.00     0.031 C 
ATOM     32  C   UNL A   1      46.734  29.582  32.047  1.00  0.00     0.029 A 
ATOM     33  C   UNL A   1      46.051  28.656  31.269  1.00  0.00     0.049 A 
ATOM     34  H   UNL A   1      44.112  28.787  30.457  1.00  0.00     0.167 HD
ATOM     35  C   UNL A   1      45.793  26.523  30.012  1.00  0.00     0.074 A 
ATOM     36  C   UNL A   1      46.292  25.254  29.522  1.00  0.00     0.031 C 
ATOM     37  C   UNL A   1      46.499  27.366  30.805  1.00  0.00     0.037 A 
BRANCH  24  38
ATOM     38  C   UNL A   1      43.537  32.646  32.166  1.00  0.00     0.064 A 
ATOM     39  C   UNL A   1      43.036  32.827  33.468  1.00  0.00     0.173 A 
ATOM     40  C   UNL A   1      43.885  33.785  31.431  1.00  0.00     0.173 A 
ATOM     41  F   UNL A   1      42.667  31.767  34.205  1.00  0.00    -0.203 F 
ATOM     42  C   UNL A   1      42.791  34.101  33.969  1.00  0.00     0.198 A 
ATOM     43  C   UNL A   1      43.686  35.059  31.958  1.00  0.00     0.198 A 
ATOM     44  F   UNL A   1      44.376  33.668  30.189  1.00  0.00    -0.203 F 
ATOM     45  F   UNL A   1      42.186  34.246  35.157  1.00  0.00    -0.200 F 
ATOM     46  C   UNL A   1      43.114  35.216  33.213  1.00  0.00     0.200 A 
ATOM     47  F   UNL A   1      44.008  36.138  31.232  1.00  0.00    -0.200 F 
ATOM     48  F   UNL A   1      42.848  36.442  33.681  1.00  0.00    -0.200 F 
ENDBRANCH  24  38
BRANCH  25  49
ATOM     49  C   UNL A   1      42.901  23.864  27.404  1.00  0.00     0.064 A 
ATOM     50  C   UNL A   1      42.522  22.655  28.006  1.00  0.00     0.173 A 
ATOM     51  C   UNL A   1      43.247  23.827  26.045  1.00  0.00     0.173 A 
ATOM     52  F   UNL A   1      42.202  22.630  29.309  1.00  0.00    -0.203 F 
ATOM     53  C   UNL A   1      42.515  21.458  27.291  1.00  0.00     0.198 A 
ATOM     54  C   UNL A   1      43.222  22.632  25.323  1.00  0.00     0.198 A 
ATOM     55  F   UNL A   1      43.615  24.953  25.416  1.00  0.00    -0.203 F 
ATOM     56  F   UNL A   1      42.191  20.312  27.907  1.00  0.00    -0.200 F 
ATOM     57  C   UNL A   1      42.863  21.446  25.949  1.00  0.00     0.200 A 
ATOM     58  F   UNL A   1      43.556  22.625  24.026  1.00  0.00    -0.200 F 
ATOM     59  F   UNL A   1      42.863  20.295  25.263  1.00  0.00    -0.200 F 
ENDBRANCH  25  49
BRANCH  37  60
ATOM     60  C   UNL A   1      47.853  26.931  31.276  1.00  0.00     0.064 A 
ATOM     61  C   UNL A   1      48.013  26.066  32.365  1.00  0.00     0.173 A 
ATOM     62  C   UNL A   1      48.989  27.265  30.520  1.00  0.00     0.173 A 
ATOM     63  F   UNL A   1      46.958  25.732  33.123  1.00  0.00    -0.203 F 
ATOM     64  C   UNL A   1      49.264  25.539  32.674  1.00  0.00     0.198 A 
ATOM     65  C   UNL A   1      50.230  26.713  30.814  1.00  0.00     0.198 A 
ATOM     66  F   UNL A   1      48.881  28.086  29.464  1.00  0.00    -0.203 F 
ATOM     67  F   UNL A   1      49.400  24.717  33.724  1.00  0.00    -0.200 F 
ATOM     68  C   UNL A   1      50.365  25.847  31.888  1.00  0.00     0.200 A 
ATOM     69  F   UNL A   1      51.287  26.994  30.040  1.00  0.00    -0.200 F 
ATOM     70  F   UNL A   1      51.559  25.302  32.162  1.00  0.00    -0.200 F 
ENDBRANCH  37  60
ENDBRANCH  11  12
ENDBRANCH   4   6
ENDBRANCH   3   4
ENDBRANCH   2   3
ENDBRANCH   1   2
BRANCH   1  71
ATOM     71  O   UNL A   1      33.564  28.258  24.792  1.00  0.00    -0.462 OA
BRANCH  71  72
ATOM     72  C   UNL A   1      33.328  26.991  24.339  1.00  0.00     0.309 C 
ATOM     73  O   UNL A   1      34.164  26.093  24.365  1.00  0.00    -0.252 OA
BRANCH  72  74
ATOM     74  C   UNL A   1      31.970  26.859  23.638  1.00  0.00     0.111 C 
ATOM     75  C   UNL A   1      31.238  28.168  23.450  1.00  0.00     0.016 C 
ATOM     76  C   UNL A   1      31.076  25.854  24.367  1.00  0.00     0.093 C 
ATOM     77  C   UNL A   1      29.840  28.057  22.850  1.00  0.00     0.001 C 
ATOM     78  C   UNL A   1      29.667  25.746  23.753  1.00  0.00     0.014 C 
ATOM     79  C   UNL A   1      28.971  27.095  23.636  1.00  0.00     0.001 C 
BRANCH  76  80
ATOM     80  C   UNL A   1      30.940  26.129  25.886  1.00  0.00     0.230 C 
ATOM     81  O   UNL A   1      30.481  27.194  26.308  1.00  0.00    -0.274 OA
ATOM     82  N   UNL A   1      31.130  25.106  26.773  1.00  0.00    -0.302 N 
ATOM     83  H   UNL A   1      30.741  25.185  27.674  1.00  0.00     0.172 HD
BRANCH  82  84
ATOM     84  C   UNL A   1      31.834  23.986  26.464  1.00  0.00     0.189 A 
ATOM     85  N   UNL A   1      33.110  23.802  26.651  1.00  0.00    -0.220 NA
ATOM     86  S   UNL A   1      31.003  22.734  25.674  1.00  0.00    -0.105 S 
ATOM     87  C   UNL A   1      33.536  22.722  25.930  1.00  0.00     0.084 A 
ATOM     88  C   UNL A   1      32.533  22.016  25.297  1.00  0.00     0.097 A 
BRANCH  87  89
ATOM     89  C   UNL A   1      34.955  22.444  25.869  1.00  0.00     0.003 A 
ATOM     90  C   UNL A   1      35.865  23.485  26.099  1.00  0.00     0.012 A 
ATOM     91  C   UNL A   1      35.430  21.187  25.483  1.00  0.00     0.032 A 
ATOM     92  C   UNL A   1      37.238  23.255  26.014  1.00  0.00     0.023 A 
ATOM     93  C   UNL A   1      36.807  20.960  25.381  1.00  0.00     0.060 A 
ATOM     94  C   UNL A   1      37.713  21.989  25.665  1.00  0.00     0.059 A 
ATOM     95  Cl  UNL A   1      37.322  19.386  24.885  1.00  0.00    -0.083 Cl
ATOM     96  Cl  UNL A   1      39.425  21.764  25.599  1.00  0.00    -0.083 Cl
ENDBRANCH  87  89
ENDBRANCH  82  84
ENDBRANCH  76  80
ENDBRANCH  72  74
ENDBRANCH  71  72
ENDBRANCH   1  71
TORSDOF 14
ENDMDL
MODEL 2
REMARK VINA RESULT:     -12.1      4.394      9.173
REMARK SMILES O=C(OCCOC(=O)[C@@H]1CCCC[C@@H]1C(=O)Nc1nc(-c2ccc(Cl)c(Cl)c2)cs1)c1ccc(-c2c3nc(c(-c4c(F)c(F)c(F)c(F)c4F)c4ccc([nH]4)c(-c4c(F)c(F)c(F)c(F)c4F)c4nc(c(-c5c(F)c(F)c(F)c(F)c5F)c5ccc2[nH]5)C=C4)C=C3)cc1
REMARK SMILES IDX 5 1 4 2 3 3 2 4 1 5 31 6 32 7 93 8 33 9 92 10 34 11 35 12
REMARK SMILES IDX 36 13 86 14 37 15 91 16 85 17 87 18 38 19 90 20 84 21 83 22
REMARK SMILES IDX 39 24 71 25 51 26 70 27 52 28 55 29 69 30 88 31 53 32 54 33
REMARK SMILES IDX 68 35 89 36 56 37 40 38 41 39 49 40 42 41 43 42 47 43 50 44
REMARK SMILES IDX 44 45 45 46 48 47 46 48 72 49 73 50 81 51 74 52 75 53 79 54
REMARK SMILES IDX 82 55 76 56 77 57 80 58 78 59 57 60 58 61 66 62 59 63 60 64
REMARK SMILES IDX 64 65 67 66 61 67 62 68 65 69 63 70 6 71 7 72 8 73 9 74
REMARK SMILES IDX 10 75 14 76 11 77 13 78 12 79 15 80 16 81 17 82 18 84 19 85
REMARK SMILES IDX 30 86 20 87 29 88 21 89 22 90 28 91 23 92 26 93 24 94 27 95
REMARK SMILES IDX 25 96
REMARK H PARENT 87 23 55 34 17 83
REMARK Flexibility Score: inf
ROOT
ATOM      1  C   UNL A   1      37.728  21.079  24.993  1.00  0.00     0.274 C 
ENDROOT
BRANCH   1   2
ATOM      2  C   UNL A   1      38.489  19.860  25.516  1.00  0.00     0.275 C 
BRANCH   2   3
ATOM      3  O   UNL A   1      39.883  20.092  25.749  1.00  0.00    -0.458 OA
BRANCH   3   4
ATOM      4  C   UNL A   1      40.504  20.419  26.906  1.00  0.00     0.338 C 
ATOM      5  O   UNL A   1      40.708  19.534  27.735  1.00  0.00    -0.246 OA
BRANCH   4   6
ATOM      6  C   UNL A   1      40.824  21.833  27.300  1.00  0.00     0.060 A 
ATOM      7  C   UNL A   1      41.649  22.260  28.351  1.00  0.00     0.016 A 
ATOM      8  C   UNL A   1      40.262  22.819  26.477  1.00  0.00     0.016 A 
ATOM      9  C   UNL A   1      42.028  23.606  28.495  1.00  0.00     0.010 A 
ATOM     10  C   UNL A   1      40.654  24.153  26.600  1.00  0.00     0.010 A 
ATOM     11  C   UNL A   1      41.571  24.560  27.591  1.00  0.00    -0.014 A 
BRANCH  11  12
ATOM     12  C   UNL A   1      41.897  26.007  27.706  1.00  0.00     0.031 A 
ATOM     13  C   UNL A   1      43.253  26.404  27.209  1.00  0.00     0.074 A 
ATOM     14  C   UNL A   1      41.117  26.907  28.341  1.00  0.00     0.049 A 
ATOM     15  N   UNL A   1      43.935  27.497  27.412  1.00  0.00    -0.248 NA
ATOM     16  C   UNL A   1      43.970  25.372  26.436  1.00  0.00     0.031 C 
ATOM     17  C   UNL A   1      39.777  26.675  28.879  1.00  0.00     0.029 A 
ATOM     18  N   UNL A   1      41.383  28.210  28.704  1.00  0.00    -0.354 N 
ATOM     19  C   UNL A   1      45.164  27.258  26.819  1.00  0.00     0.074 A 
ATOM     20  C   UNL A   1      45.190  25.873  26.414  1.00  0.00     0.031 C 
ATOM     21  C   UNL A   1      39.380  27.754  29.579  1.00  0.00     0.029 A 
ATOM     22  C   UNL A   1      40.419  28.775  29.509  1.00  0.00     0.049 A 
ATOM     23  H   UNL A   1      42.191  28.694  28.414  1.00  0.00     0.167 HD
ATOM     24  C   UNL A   1      46.153  28.136  26.541  1.00  0.00     0.037 A 
ATOM     25  C   UNL A   1      40.385  29.980  30.115  1.00  0.00     0.037 A 
ATOM     26  C   UNL A   1      46.090  29.520  26.897  1.00  0.00     0.049 A 
ATOM     27  C   UNL A   1      41.506  30.953  29.847  1.00  0.00     0.074 A 
ATOM     28  C   UNL A   1      46.983  30.531  26.607  1.00  0.00     0.029 A 
ATOM     29  N   UNL A   1      45.055  30.084  27.631  1.00  0.00    -0.354 N 
ATOM     30  N   UNL A   1      42.617  30.766  29.173  1.00  0.00    -0.248 NA
ATOM     31  C   UNL A   1      41.354  32.317  30.375  1.00  0.00     0.031 C 
ATOM     32  C   UNL A   1      46.506  31.704  27.201  1.00  0.00     0.029 A 
ATOM     33  C   UNL A   1      45.291  31.432  27.816  1.00  0.00     0.049 A 
ATOM     34  H   UNL A   1      44.270  29.595  27.969  1.00  0.00     0.167 HD
ATOM     35  C   UNL A   1      43.257  31.997  29.135  1.00  0.00     0.074 A 
ATOM     36  C   UNL A   1      42.426  32.922  29.878  1.00  0.00     0.031 C 
ATOM     37  C   UNL A   1      44.417  32.336  28.521  1.00  0.00     0.037 A 
BRANCH  24  38
ATOM     38  C   UNL A   1      47.331  27.585  25.795  1.00  0.00     0.064 A 
ATOM     39  C   UNL A   1      48.479  27.138  26.476  1.00  0.00     0.173 A 
ATOM     40  C   UNL A   1      47.374  27.634  24.397  1.00  0.00     0.173 A 
ATOM     41  F   UNL A   1      48.496  27.094  27.818  1.00  0.00    -0.203 F 
ATOM     42  C   UNL A   1      49.654  26.859  25.788  1.00  0.00     0.198 A 
ATOM     43  C   UNL A   1      48.539  27.304  23.710  1.00  0.00     0.198 A 
ATOM     44  F   UNL A   1      46.305  28.044  23.700  1.00  0.00    -0.203 F 
ATOM     45  F   UNL A   1      50.773  26.569  26.469  1.00  0.00    -0.200 F 
ATOM     46  C   UNL A   1      49.685  26.944  24.406  1.00  0.00     0.200 A 
ATOM     47  F   UNL A   1      48.566  27.375  22.372  1.00  0.00    -0.200 F 
ATOM     48  F   UNL A   1      50.826  26.707  23.745  1.00  0.00    -0.200 F 
ENDBRANCH  24  38
BRANCH  25  49
ATOM     49  C   UNL A   1      39.226  30.373  30.967  1.00  0.00     0.064 A 
ATOM     50  C   UNL A   1      38.114  31.026  30.415  1.00  0.00     0.173 A 
ATOM     51  C   UNL A   1      39.214  30.133  32.349  1.00  0.00     0.173 A 
ATOM     52  F   UNL A   1      38.085  31.299  29.102  1.00  0.00    -0.203 F 
ATOM     53  C   UNL A   1      37.050  31.446  31.212  1.00  0.00     0.198 A 
ATOM     54  C   UNL A   1      38.140  30.537  33.144  1.00  0.00     0.198 A 
ATOM     55  F   UNL A   1      40.249  29.510  32.931  1.00  0.00    -0.203 F 
ATOM     56  F   UNL A   1      36.022  32.108  30.661  1.00  0.00    -0.200 F 
ATOM     57  C   UNL A   1      37.061  31.201  32.577  1.00  0.00     0.200 A 
ATOM     58  F   UNL A   1      38.153  30.295  34.462  1.00  0.00    -0.200 F 
ATOM     59  F   UNL A   1      36.042  31.611  33.343  1.00  0.00    -0.200 F 
ENDBRANCH  25  49
BRANCH  37  60
ATOM     60  C   UNL A   1      44.834  33.775  28.539  1.00  0.00     0.064 A 
ATOM     61  C   UNL A   1      44.348  34.696  27.603  1.00  0.00     0.173 A 
ATOM     62  C   UNL A   1      45.608  34.258  29.608  1.00  0.00     0.173 A 
ATOM     63  F   UNL A   1      43.618  34.277  26.560  1.00  0.00    -0.203 F 
ATOM     64  C   UNL A   1      44.611  36.056  27.744  1.00  0.00     0.198 A 
ATOM     65  C   UNL A   1      45.842  35.619  29.760  1.00  0.00     0.198 A 
ATOM     66  F   UNL A   1      46.089  33.412  30.531  1.00  0.00    -0.203 F 
ATOM     67  F   UNL A   1      44.143  36.923  26.836  1.00  0.00    -0.200 F 
ATOM     68  C   UNL A   1      45.340  36.518  28.832  1.00  0.00     0.200 A 
ATOM     69  F   UNL A   1      46.527  36.065  30.823  1.00  0.00    -0.200 F 
ATOM     70  F   UNL A   1      45.553  37.831  28.988  1.00  0.00    -0.200 F 
ENDBRANCH  37  60
ENDBRANCH  11  12
ENDBRANCH   4   6
ENDBRANCH   3   4
ENDBRANCH   2   3
ENDBRANCH   1   2
BRANCH   1  71
ATOM     71  O   UNL A   1      36.293  20.969  25.072  1.00  0.00    -0.462 OA
BRANCH  71  72
ATOM     72  C   UNL A   1      35.591  22.070  24.671  1.00  0.00     0.309 C 
ATOM     73  O   UNL A   1      35.705  22.582  23.561  1.00  0.00    -0.252 OA
BRANCH  72  74
ATOM     74  C   UNL A   1      34.779  22.700  25.811  1.00  0.00     0.111 C 
ATOM     75  C   UNL A   1      34.409  21.737  26.915  1.00  0.00     0.016 C 
ATOM     76  C   UNL A   1      33.526  23.390  25.269  1.00  0.00     0.093 C 
ATOM     77  C   UNL A   1      33.514  22.308  28.010  1.00  0.00     0.001 C 
ATOM     78  C   UNL A   1      32.629  23.967  26.381  1.00  0.00     0.014 C 
ATOM     79  C   UNL A   1      32.257  22.932  27.434  1.00  0.00     0.001 C 
BRANCH  76  80
ATOM     80  C   UNL A   1      32.665  22.487  24.350  1.00  0.00     0.230 C 
ATOM     81  O   UNL A   1      32.637  21.261  24.496  1.00  0.00    -0.274 OA
ATOM     82  N   UNL A   1      31.759  23.061  23.502  1.00  0.00    -0.302 N 
ATOM     83  H   UNL A   1      31.010  22.513  23.171  1.00  0.00     0.172 HD
BRANCH  82  84
ATOM     84  C   UNL A   1      31.848  24.354  23.097  1.00  0.00     0.189 A 
ATOM     85  N   UNL A   1      31.065  25.331  23.458  1.00  0.00    -0.220 NA
ATOM     86  S   UNL A   1      33.031  24.730  21.939  1.00  0.00    -0.105 S 
ATOM     87  C   UNL A   1      31.227  26.394  22.615  1.00  0.00     0.084 A 
ATOM     88  C   UNL A   1      32.241  26.252  21.690  1.00  0.00     0.097 A 
BRANCH  87  89
ATOM     89  C   UNL A   1      30.330  27.524  22.742  1.00  0.00     0.003 A 
ATOM     90  C   UNL A   1      30.843  28.820  22.602  1.00  0.00     0.012 A 
ATOM     91  C   UNL A   1      28.992  27.347  23.104  1.00  0.00     0.032 A 
ATOM     92  C   UNL A   1      30.010  29.930  22.753  1.00  0.00     0.023 A 
ATOM     93  C   UNL A   1      28.159  28.459  23.272  1.00  0.00     0.060 A 
ATOM     94  C   UNL A   1      28.664  29.752  23.077  1.00  0.00     0.059 A 
ATOM     95  Cl  UNL A   1      26.520  28.167  23.734  1.00  0.00    -0.083 Cl
ATOM     96  Cl  UNL A   1      27.681  31.164  23.227  1.00  0.00    -0.083 Cl
ENDBRANCH  87  89
ENDBRANCH  82  84
ENDBRANCH  76  80
ENDBRANCH  72  74
ENDBRANCH  71  72
ENDBRANCH   1  71
TORSDOF 14
ENDMDL
MODEL 3
REMARK VINA RESULT:     -12.1      2.475      3.531
REMARK SMILES O=C(OCCOC(=O)[C@@H]1CCCC[C@@H]1C(=O)Nc1nc(-c2ccc(Cl)c(Cl)c2)cs1)c1ccc(-c2c3nc(c(-c4c(F)c(F)c(F)c(F)c4F)c4ccc([nH]4)c(-c4c(F)c(F)c(F)c(F)c4F)c4nc(c(-c5c(F)c(F)c(F)c(F)c5F)c5ccc2[nH]5)C=C4)C=C3)cc1
REMARK SMILES IDX 5 1 4 2 3 3 2 4 1 5 31 6 32 7 93 8 33 9 92 10 34 11 35 12
REMARK SMILES IDX 36 13 86 14 37 15 91 16 85 17 87 18 38 19 90 20 84 21 83 22
REMARK SMILES IDX 39 24 71 25 51 26 70 27 52 28 55 29 69 30 88 31 53 32 54 33
REMARK SMILES IDX 68 35 89 36 56 37 40 38 41 39 49 40 42 41 43 42 47 43 50 44
REMARK SMILES IDX 44 45 45 46 48 47 46 48 72 49 73 50 81 51 74 52 75 53 79 54
REMARK SMILES IDX 82 55 76 56 77 57 80 58 78 59 57 60 58 61 66 62 59 63 60 64
REMARK SMILES IDX 64 65 67 66 61 67 62 68 65 69 63 70 6 71 7 72 8 73 9 74
REMARK SMILES IDX 10 75 14 76 11 77 13 78 12 79 15 80 16 81 17 82 18 84 19 85
REMARK SMILES IDX 30 86 20 87 29 88 21 89 22 90 28 91 23 92 26 93 24 94 27 95
REMARK SMILES IDX 25 96
REMARK H PARENT 87 23 55 34 17 83
REMARK Flexibility Score: inf
ROOT
ATOM      1  C   UNL A   1      33.575  29.016  25.836  1.00  0.00     0.274 C 
ENDROOT
BRANCH   1   2
ATOM      2  C   UNL A   1      32.743  30.280  26.056  1.00  0.00     0.275 C 
BRANCH   2   3
ATOM      3  O   UNL A   1      33.002  30.946  27.298  1.00  0.00    -0.458 OA
BRANCH   3   4
ATOM      4  C   UNL A   1      34.059  31.720  27.638  1.00  0.00     0.338 C 
ATOM      5  O   UNL A   1      33.994  32.930  27.426  1.00  0.00    -0.246 OA
BRANCH   4   6
ATOM      6  C   UNL A   1      35.368  31.164  28.120  1.00  0.00     0.060 A 
ATOM      7  C   UNL A   1      36.624  31.789  28.091  1.00  0.00     0.016 A 
ATOM      8  C   UNL A   1      35.292  29.894  28.709  1.00  0.00     0.016 A 
ATOM      9  C   UNL A   1      37.738  31.245  28.754  1.00  0.00     0.010 A 
ATOM     10  C   UNL A   1      36.387  29.360  29.390  1.00  0.00     0.010 A 
ATOM     11  C   UNL A   1      37.618  30.047  29.450  1.00  0.00    -0.014 A 
BRANCH  11  12
ATOM     12  C   UNL A   1      38.763  29.393  30.139  1.00  0.00     0.031 A 
ATOM     13  C   UNL A   1      39.116  29.956  31.481  1.00  0.00     0.074 A 
ATOM     14  C   UNL A   1      39.549  28.454  29.570  1.00  0.00     0.049 A 
ATOM     15  N   UNL A   1      40.196  29.806  32.198  1.00  0.00    -0.248 NA
ATOM     16  C   UNL A   1      38.130  30.892  32.053  1.00  0.00     0.031 C 
ATOM     17  C   UNL A   1      39.338  27.809  28.275  1.00  0.00     0.029 A 
ATOM     18  N   UNL A   1      40.746  27.922  29.998  1.00  0.00    -0.354 N 
ATOM     19  C   UNL A   1      40.020  30.656  33.277  1.00  0.00     0.074 A 
ATOM     20  C   UNL A   1      38.831  31.434  33.030  1.00  0.00     0.031 C 
ATOM     21  C   UNL A   1      40.407  27.049  27.970  1.00  0.00     0.029 A 
ATOM     22  C   UNL A   1      41.365  27.117  29.067  1.00  0.00     0.049 A 
ATOM     23  H   UNL A   1      41.125  28.102  30.889  1.00  0.00     0.167 HD
ATOM     24  C   UNL A   1      40.727  30.717  34.427  1.00  0.00     0.037 A 
ATOM     25  C   UNL A   1      42.568  26.507  29.105  1.00  0.00     0.037 A 
ATOM     26  C   UNL A   1      41.871  29.898  34.685  1.00  0.00     0.049 A 
ATOM     27  C   UNL A   1      43.386  26.605  30.369  1.00  0.00     0.074 A 
ATOM     28  C   UNL A   1      42.628  29.803  35.834  1.00  0.00     0.029 A 
ATOM     29  N   UNL A   1      42.420  29.022  33.757  1.00  0.00    -0.354 N 
ATOM     30  N   UNL A   1      43.154  27.313  31.449  1.00  0.00    -0.248 NA
ATOM     31  C   UNL A   1      44.606  25.786  30.446  1.00  0.00     0.031 C 
ATOM     32  C   UNL A   1      43.663  28.895  35.588  1.00  0.00     0.029 A 
ATOM     33  C   UNL A   1      43.517  28.387  34.304  1.00  0.00     0.049 A 
ATOM     34  H   UNL A   1      42.077  28.875  32.846  1.00  0.00     0.167 HD
ATOM     35  C   UNL A   1      44.149  26.974  32.354  1.00  0.00     0.074 A 
ATOM     36  C   UNL A   1      45.009  26.016  31.689  1.00  0.00     0.031 C 
ATOM     37  C   UNL A   1      44.323  27.400  33.629  1.00  0.00     0.037 A 
BRANCH  24  38
ATOM     38  C   UNL A   1      40.224  31.683  35.458  1.00  0.00     0.064 A 
ATOM     39  C   UNL A   1      39.139  31.357  36.293  1.00  0.00     0.173 A 
ATOM     40  C   UNL A   1      40.730  32.987  35.518  1.00  0.00     0.173 A 
ATOM     41  F   UNL A   1      38.603  30.126  36.255  1.00  0.00    -0.203 F 
ATOM     42  C   UNL A   1      38.519  32.327  37.071  1.00  0.00     0.198 A 
ATOM     43  C   UNL A   1      40.137  33.943  36.338  1.00  0.00     0.198 A 
ATOM     44  F   UNL A   1      41.768  33.347  34.750  1.00  0.00    -0.203 F 
ATOM     45  F   UNL A   1      37.403  32.025  37.751  1.00  0.00    -0.200 F 
ATOM     46  C   UNL A   1      39.016  33.621  37.092  1.00  0.00     0.200 A 
ATOM     47  F   UNL A   1      40.624  35.190  36.368  1.00  0.00    -0.200 F 
ATOM     48  F   UNL A   1      38.399  34.563  37.816  1.00  0.00    -0.200 F 
ENDBRANCH  24  38
BRANCH  25  49
ATOM     49  C   UNL A   1      43.043  25.687  27.955  1.00  0.00     0.064 A 
ATOM     50  C   UNL A   1      43.876  26.240  26.971  1.00  0.00     0.173 A 
ATOM     51  C   UNL A   1      42.656  24.348  27.794  1.00  0.00     0.173 A 
ATOM     52  F   UNL A   1      44.259  27.523  27.065  1.00  0.00    -0.203 F 
ATOM     53  C   UNL A   1      44.282  25.498  25.862  1.00  0.00     0.198 A 
ATOM     54  C   UNL A   1      43.077  23.600  26.693  1.00  0.00     0.198 A 
ATOM     55  F   UNL A   1      41.862  23.766  28.704  1.00  0.00    -0.203 F 
ATOM     56  F   UNL A   1      45.042  26.070  24.916  1.00  0.00    -0.200 F 
ATOM     57  C   UNL A   1      43.884  24.177  25.723  1.00  0.00     0.200 A 
ATOM     58  F   UNL A   1      42.693  22.322  26.564  1.00  0.00    -0.200 F 
ATOM     59  F   UNL A   1      44.268  23.467  24.654  1.00  0.00    -0.200 F 
ENDBRANCH  25  49
BRANCH  37  60
ATOM     60  C   UNL A   1      45.426  26.786  34.438  1.00  0.00     0.064 A 
ATOM     61  C   UNL A   1      46.679  27.397  34.562  1.00  0.00     0.173 A 
ATOM     62  C   UNL A   1      45.159  25.650  35.220  1.00  0.00     0.173 A 
ATOM     63  F   UNL A   1      46.981  28.475  33.824  1.00  0.00    -0.203 F 
ATOM     64  C   UNL A   1      47.625  26.901  35.455  1.00  0.00     0.198 A 
ATOM     65  C   UNL A   1      46.096  25.176  36.131  1.00  0.00     0.198 A 
ATOM     66  F   UNL A   1      43.970  25.035  35.138  1.00  0.00    -0.203 F 
ATOM     67  F   UNL A   1      48.821  27.495  35.558  1.00  0.00    -0.200 F 
ATOM     68  C   UNL A   1      47.326  25.804  36.251  1.00  0.00     0.200 A 
ATOM     69  F   UNL A   1      45.796  24.130  36.915  1.00  0.00    -0.200 F 
ATOM     70  F   UNL A   1      48.222  25.356  37.141  1.00  0.00    -0.200 F 
ENDBRANCH  37  60
ENDBRANCH  11  12
ENDBRANCH   4   6
ENDBRANCH   3   4
ENDBRANCH   2   3
ENDBRANCH   1   2
BRANCH   1  71
ATOM     71  O   UNL A   1      33.543  28.504  24.489  1.00  0.00    -0.462 OA
BRANCH  71  72
ATOM     72  C   UNL A   1      33.295  27.165  24.369  1.00  0.00     0.309 C 
ATOM     73  O   UNL A   1      34.125  26.296  24.617  1.00  0.00    -0.252 OA
BRANCH  72  74
ATOM     74  C   UNL A   1      31.934  26.873  23.726  1.00  0.00     0.111 C 
ATOM     75  C   UNL A   1      31.018  28.072  23.638  1.00  0.00     0.016 C 
ATOM     76  C   UNL A   1      31.229  25.721  24.445  1.00  0.00     0.093 C 
ATOM     77  C   UNL A   1      29.619  27.790  23.100  1.00  0.00     0.001 C 
ATOM     78  C   UNL A   1      29.818  25.441  23.893  1.00  0.00     0.014 C 
ATOM     79  C   UNL A   1      28.935  26.681  23.876  1.00  0.00     0.001 C 
BRANCH  76  80
ATOM     80  C   UNL A   1      31.137  25.908  25.981  1.00  0.00     0.230 C 
ATOM     81  O   UNL A   1      30.650  26.928  26.476  1.00  0.00    -0.274 OA
ATOM     82  N   UNL A   1      31.402  24.848  26.803  1.00  0.00    -0.302 N 
ATOM     83  H   UNL A   1      31.043  24.862  27.720  1.00  0.00     0.172 HD
BRANCH  82  84
ATOM     84  C   UNL A   1      32.140  23.778  26.409  1.00  0.00     0.189 A 
ATOM     85  N   UNL A   1      33.417  23.610  26.602  1.00  0.00    -0.220 NA
ATOM     86  S   UNL A   1      31.355  22.580  25.498  1.00  0.00    -0.105 S 
ATOM     87  C   UNL A   1      33.883  22.610  25.796  1.00  0.00     0.084 A 
ATOM     88  C   UNL A   1      32.909  21.937  25.086  1.00  0.00     0.097 A 
BRANCH  87  89
ATOM     89  C   UNL A   1      35.310  22.374  25.736  1.00  0.00     0.003 A 
ATOM     90  C   UNL A   1      35.776  21.101  25.379  1.00  0.00     0.012 A 
ATOM     91  C   UNL A   1      36.223  23.358  26.126  1.00  0.00     0.032 A 
ATOM     92  C   UNL A   1      37.145  20.834  25.346  1.00  0.00     0.023 A 
ATOM     93  C   UNL A   1      37.595  23.086  26.108  1.00  0.00     0.060 A 
ATOM     94  C   UNL A   1      38.059  21.829  25.699  1.00  0.00     0.059 A 
ATOM     95  Cl  UNL A   1      38.665  24.344  26.617  1.00  0.00    -0.083 Cl
ATOM     96  Cl  UNL A   1      39.740  21.442  25.615  1.00  0.00    -0.083 Cl
ENDBRANCH  87  89
ENDBRANCH  82  84
ENDBRANCH  76  80
ENDBRANCH  72  74
ENDBRANCH  71  72
ENDBRANCH   1  71
TORSDOF 14
ENDMDL
