MODEL 1
REMARK VINA RESULT:     -13.5      0.000      0.000
REMARK SMILES Cc1ccc(-c2cc(Cl)cc3c2O[C@H](C(F)(F)F)C(C(=O)OCCOC(=O)c2ccc(-c4c5nc(c(-c6c(F)c(F)c(F)c(F)c6F)c6ccc([nH]6)c(-c6c(F)c(F)c(F)c(F)c6F)c6nc(c(-c7c(F)c(F)c(F)c(F)c7F)c7ccc4[nH]7)C=C6)C=C5)cc2)=C3)cc1F
REMARK SMILES IDX 24 1 23 2 22 3 20 4 21 5 19 6 6 7 7 8 12 9 8 10 11 11 13 12
REMARK SMILES IDX 9 13 10 14 91 15 14 16 5 17 1 18 2 19 3 20 93 21 4 22 92 23
REMARK SMILES IDX 94 24 15 25 16 26 17 27 18 28 25 29 26 30 27 31 28 32 29 33
REMARK SMILES IDX 90 34 30 35 89 36 31 37 32 38 33 39 83 40 34 41 88 42 82 43
REMARK SMILES IDX 84 44 35 45 87 46 81 47 80 48 36 50 68 51 48 52 67 53 49 54
REMARK SMILES IDX 52 55 66 56 85 57 50 58 51 59 65 61 86 62 53 63 37 64 38 65
REMARK SMILES IDX 46 66 39 67 40 68 44 69 47 70 41 71 42 72 45 73 43 74 69 75
REMARK SMILES IDX 70 76 78 77 71 78 72 79 76 80 79 81 73 82 74 83 77 84 75 85
REMARK SMILES IDX 54 86 55 87 63 88 56 89 57 90 61 91 64 92 58 93 59 94 62 95
REMARK SMILES IDX 60 96
REMARK H PARENT 84 49 52 60
REMARK Flexibility Score: inf
ROOT
ATOM      1  C   UNL A   1      32.900  30.827  27.482  1.00  0.00     0.275 C 
ENDROOT
BRANCH   1   2
ATOM      2  C   UNL A   1      32.427  30.583  26.042  1.00  0.00     0.275 C 
BRANCH   2   3
ATOM      3  O   UNL A   1      31.405  29.560  25.957  1.00  0.00    -0.459 OA
BRANCH   3   4
ATOM      4  C   UNL A   1      31.382  28.800  24.833  1.00  0.00     0.338 C 
ATOM      5  O   UNL A   1      31.225  29.188  23.685  1.00  0.00    -0.246 OA
BRANCH   4   6
ATOM      6  C   UNL A   1      31.644  27.387  25.181  1.00  0.00     0.087 C 
ATOM      7  C   UNL A   1      32.240  23.291  25.933  1.00  0.00     0.026 A 
ATOM      8  C   UNL A   1      31.184  22.544  26.480  1.00  0.00     0.033 A 
ATOM      9  C   UNL A   1      32.041  24.669  25.687  1.00  0.00     0.135 A 
ATOM     10  C   UNL A   1      29.992  23.172  26.834  1.00  0.00     0.042 A 
ATOM     11  C   UNL A   1      30.860  25.299  26.084  1.00  0.00     0.019 A 
ATOM     12  O   UNL A   1      33.027  25.331  24.998  1.00  0.00    -0.475 OA
ATOM     13  Cl  UNL A   1      28.691  22.247  27.481  1.00  0.00    -0.084 Cl
ATOM     14  C   UNL A   1      29.839  24.547  26.672  1.00  0.00     0.032 A 
ATOM     15  C   UNL A   1      30.684  26.717  25.826  1.00  0.00     0.027 C 
ATOM     16  C   UNL A   1      32.984  26.776  24.893  1.00  0.00     0.316 C 
BRANCH   7  17
ATOM     17  C   UNL A   1      33.549  22.672  25.690  1.00  0.00    -0.012 A 
ATOM     18  C   UNL A   1      37.489  21.178  24.746  1.00  0.00     0.047 C 
ATOM     19  C   UNL A   1      36.114  21.646  25.107  1.00  0.00    -0.015 A 
ATOM     20  C   UNL A   1      34.967  20.993  24.642  1.00  0.00     0.007 A 
ATOM     21  C   UNL A   1      35.963  22.787  25.893  1.00  0.00     0.126 A 
ATOM     22  C   UNL A   1      33.695  21.499  24.935  1.00  0.00     0.009 A 
ATOM     23  C   UNL A   1      34.704  23.293  26.190  1.00  0.00     0.048 A 
ATOM     24  F   UNL A   1      37.044  23.430  26.358  1.00  0.00    -0.207 F 
ENDBRANCH   7  17
BRANCH  16  25
ATOM     25  C   UNL A   1      34.052  27.372  25.825  1.00  0.00     0.430 C 
ATOM     26  F   UNL A   1      34.547  28.532  25.335  1.00  0.00    -0.167 F 
ATOM     27  F   UNL A   1      33.536  27.646  27.047  1.00  0.00    -0.167 F 
ATOM     28  F   UNL A   1      35.096  26.529  26.004  1.00  0.00    -0.167 F 
ENDBRANCH  16  25
ENDBRANCH   4   6
ENDBRANCH   3   4
ENDBRANCH   2   3
ENDBRANCH   1   2
BRANCH   1  29
ATOM     29  O   UNL A   1      34.198  31.435  27.449  1.00  0.00    -0.458 OA
BRANCH  29  30
ATOM     30  C   UNL A   1      34.854  31.534  28.637  1.00  0.00     0.338 C 
ATOM     31  O   UNL A   1      34.579  32.226  29.584  1.00  0.00    -0.246 OA
BRANCH  30  32
ATOM     32  C   UNL A   1      35.726  30.340  28.679  1.00  0.00     0.060 A 
ATOM     33  C   UNL A   1      36.182  29.796  29.885  1.00  0.00     0.016 A 
ATOM     34  C   UNL A   1      36.310  29.985  27.467  1.00  0.00     0.016 A 
ATOM     35  C   UNL A   1      37.365  29.054  29.897  1.00  0.00     0.010 A 
ATOM     36  C   UNL A   1      37.469  29.227  27.487  1.00  0.00     0.010 A 
ATOM     37  C   UNL A   1      38.066  28.863  28.704  1.00  0.00    -0.014 A 
BRANCH  37  38
ATOM     38  C   UNL A   1      39.497  28.534  28.668  1.00  0.00     0.031 A 
ATOM     39  C   UNL A   1      39.999  27.208  28.233  1.00  0.00     0.074 A 
ATOM     40  C   UNL A   1      40.432  29.479  28.947  1.00  0.00     0.049 A 
ATOM     41  N   UNL A   1      41.098  26.687  28.681  1.00  0.00    -0.248 NA
ATOM     42  C   UNL A   1      39.318  26.363  27.261  1.00  0.00     0.031 C 
ATOM     43  C   UNL A   1      41.857  29.408  28.620  1.00  0.00     0.029 A 
ATOM     44  N   UNL A   1      40.314  30.660  29.686  1.00  0.00    -0.354 N 
ATOM     45  C   UNL A   1      41.397  25.601  27.896  1.00  0.00     0.074 A 
ATOM     46  C   UNL A   1      40.231  25.403  27.063  1.00  0.00     0.031 C 
ATOM     47  C   UNL A   1      42.524  30.329  29.327  1.00  0.00     0.029 A 
ATOM     48  C   UNL A   1      41.583  30.965  30.226  1.00  0.00     0.049 A 
ATOM     49  H   UNL A   1      39.491  31.187  29.807  1.00  0.00     0.167 HD
ATOM     50  C   UNL A   1      42.642  25.044  27.932  1.00  0.00     0.037 A 
ATOM     51  C   UNL A   1      41.782  31.160  31.561  1.00  0.00     0.037 A 
ATOM     52  C   UNL A   1      43.559  25.789  28.783  1.00  0.00     0.049 A 
ATOM     53  C   UNL A   1      42.706  30.160  32.210  1.00  0.00     0.074 A 
ATOM     54  C   UNL A   1      44.516  26.748  28.495  1.00  0.00     0.029 A 
ATOM     55  N   UNL A   1      43.387  25.804  30.161  1.00  0.00    -0.354 N 
ATOM     56  N   UNL A   1      43.181  29.114  31.596  1.00  0.00    -0.248 NA
ATOM     57  C   UNL A   1      43.093  30.198  33.620  1.00  0.00     0.031 C 
ATOM     58  C   UNL A   1      44.917  27.350  29.708  1.00  0.00     0.029 A 
ATOM     59  C   UNL A   1      44.197  26.766  30.736  1.00  0.00     0.049 A 
ATOM     60  H   UNL A   1      42.776  25.212  30.658  1.00  0.00     0.167 HD
ATOM     61  C   UNL A   1      43.778  28.286  32.508  1.00  0.00     0.074 A 
ATOM     62  C   UNL A   1      43.762  29.039  33.746  1.00  0.00     0.031 C 
ATOM     63  C   UNL A   1      44.168  27.023  32.166  1.00  0.00     0.037 A 
BRANCH  50  64
ATOM     64  C   UNL A   1      43.098  23.958  26.989  1.00  0.00     0.064 A 
ATOM     65  C   UNL A   1      42.752  22.604  27.194  1.00  0.00     0.173 A 
ATOM     66  C   UNL A   1      43.873  24.209  25.843  1.00  0.00     0.173 A 
ATOM     67  F   UNL A   1      41.959  22.226  28.204  1.00  0.00    -0.203 F 
ATOM     68  C   UNL A   1      43.217  21.579  26.367  1.00  0.00     0.198 A 
ATOM     69  C   UNL A   1      44.379  23.179  25.044  1.00  0.00     0.198 A 
ATOM     70  F   UNL A   1      44.132  25.465  25.449  1.00  0.00    -0.203 F 
ATOM     71  F   UNL A   1      42.851  20.312  26.609  1.00  0.00    -0.200 F 
ATOM     72  C   UNL A   1      44.055  21.864  25.309  1.00  0.00     0.200 A 
ATOM     73  F   UNL A   1      45.182  23.472  24.011  1.00  0.00    -0.200 F 
ATOM     74  F   UNL A   1      44.531  20.876  24.538  1.00  0.00    -0.200 F 
ENDBRANCH  50  64
BRANCH  51  75
ATOM     75  C   UNL A   1      40.609  31.783  32.217  1.00  0.00     0.064 A 
ATOM     76  C   UNL A   1      40.362  33.138  31.934  1.00  0.00     0.173 A 
ATOM     77  C   UNL A   1      39.539  30.992  32.652  1.00  0.00     0.173 A 
ATOM     78  F   UNL A   1      41.370  33.936  31.546  1.00  0.00    -0.203 F 
ATOM     79  C   UNL A   1      39.065  33.638  31.922  1.00  0.00     0.198 A 
ATOM     80  C   UNL A   1      38.242  31.498  32.639  1.00  0.00     0.198 A 
ATOM     81  F   UNL A   1      39.728  29.696  32.942  1.00  0.00    -0.203 F 
ATOM     82  F   UNL A   1      38.835  34.899  31.528  1.00  0.00    -0.200 F 
ATOM     83  C   UNL A   1      38.002  32.804  32.230  1.00  0.00     0.200 A 
ATOM     84  F   UNL A   1      37.209  30.695  32.931  1.00  0.00    -0.200 F 
ATOM     85  F   UNL A   1      36.744  33.247  32.096  1.00  0.00    -0.200 F 
ENDBRANCH  51  75
BRANCH  63  86
ATOM     86  C   UNL A   1      44.610  25.955  33.131  1.00  0.00     0.064 A 
ATOM     87  C   UNL A   1      45.908  25.416  33.157  1.00  0.00     0.173 A 
ATOM     88  C   UNL A   1      43.746  25.525  34.164  1.00  0.00     0.173 A 
ATOM     89  F   UNL A   1      46.856  25.842  32.312  1.00  0.00    -0.203 F 
ATOM     90  C   UNL A   1      46.288  24.455  34.098  1.00  0.00     0.198 A 
ATOM     91  C   UNL A   1      44.146  24.606  35.134  1.00  0.00     0.198 A 
ATOM     92  F   UNL A   1      42.498  26.002  34.272  1.00  0.00    -0.203 F 
ATOM     93  F   UNL A   1      47.522  23.936  34.052  1.00  0.00    -0.200 F 
ATOM     94  C   UNL A   1      45.411  24.056  35.088  1.00  0.00     0.200 A 
ATOM     95  F   UNL A   1      43.305  24.271  36.123  1.00  0.00    -0.200 F 
ATOM     96  F   UNL A   1      45.792  23.160  36.009  1.00  0.00    -0.200 F 
ENDBRANCH  63  86
ENDBRANCH  37  38
ENDBRANCH  30  32
ENDBRANCH  29  30
ENDBRANCH   1  29
TORSDOF 13
ENDMDL
MODEL 2
REMARK VINA RESULT:     -13.5      1.646      2.292
REMARK SMILES Cc1ccc(-c2cc(Cl)cc3c2O[C@H](C(F)(F)F)C(C(=O)OCCOC(=O)c2ccc(-c4c5nc(c(-c6c(F)c(F)c(F)c(F)c6F)c6ccc([nH]6)c(-c6c(F)c(F)c(F)c(F)c6F)c6nc(c(-c7c(F)c(F)c(F)c(F)c7F)c7ccc4[nH]7)C=C6)C=C5)cc2)=C3)cc1F
REMARK SMILES IDX 24 1 23 2 22 3 20 4 21 5 19 6 6 7 7 8 12 9 8 10 11 11 13 12
REMARK SMILES IDX 9 13 10 14 91 15 14 16 5 17 1 18 2 19 3 20 93 21 4 22 92 23
REMARK SMILES IDX 94 24 15 25 16 26 17 27 18 28 25 29 26 30 27 31 28 32 29 33
REMARK SMILES IDX 90 34 30 35 89 36 31 37 32 38 33 39 83 40 34 41 88 42 82 43
REMARK SMILES IDX 84 44 35 45 87 46 81 47 80 48 36 50 68 51 48 52 67 53 49 54
REMARK SMILES IDX 52 55 66 56 85 57 50 58 51 59 65 61 86 62 53 63 37 64 38 65
REMARK SMILES IDX 46 66 39 67 40 68 44 69 47 70 41 71 42 72 45 73 43 74 69 75
REMARK SMILES IDX 70 76 78 77 71 78 72 79 76 80 79 81 73 82 74 83 77 84 75 85
REMARK SMILES IDX 54 86 55 87 63 88 56 89 57 90 61 91 64 92 58 93 59 94 62 95
REMARK SMILES IDX 60 96
REMARK H PARENT 84 49 52 60
REMARK Flexibility Score: inf
ROOT
ATOM      1  C   UNL A   1      33.596  31.865  27.510  1.00  0.00     0.275 C 
ENDROOT
BRANCH   1   2
ATOM      2  C   UNL A   1      33.011  30.470  27.252  1.00  0.00     0.275 C 
BRANCH   2   3
ATOM      3  O   UNL A   1      33.212  30.024  25.889  1.00  0.00    -0.459 OA
BRANCH   3   4
ATOM      4  C   UNL A   1      32.119  29.594  25.211  1.00  0.00     0.338 C 
ATOM      5  O   UNL A   1      31.055  30.182  25.080  1.00  0.00    -0.246 OA
BRANCH   4   6
ATOM      6  C   UNL A   1      32.408  28.293  24.569  1.00  0.00     0.087 C 
ATOM      7  C   UNL A   1      33.462  24.718  22.620  1.00  0.00     0.026 A 
ATOM      8  C   UNL A   1      33.164  24.579  21.254  1.00  0.00     0.033 A 
ATOM      9  C   UNL A   1      33.101  25.917  23.276  1.00  0.00     0.135 A 
ATOM     10  C   UNL A   1      32.465  25.581  20.585  1.00  0.00     0.042 A 
ATOM     11  C   UNL A   1      32.364  26.898  22.610  1.00  0.00     0.019 A 
ATOM     12  O   UNL A   1      33.556  26.090  24.560  1.00  0.00    -0.475 OA
ATOM     13  Cl  UNL A   1      32.124  25.418  18.905  1.00  0.00    -0.084 Cl
ATOM     14  C   UNL A   1      32.034  26.719  21.263  1.00  0.00     0.032 A 
ATOM     15  C   UNL A   1      32.000  28.117  23.309  1.00  0.00     0.027 C 
ATOM     16  C   UNL A   1      33.055  27.192  25.357  1.00  0.00     0.316 C 
BRANCH   7  17
ATOM     17  C   UNL A   1      34.070  23.611  23.371  1.00  0.00    -0.012 A 
ATOM     18  C   UNL A   1      35.985  20.210  25.218  1.00  0.00     0.047 C 
ATOM     19  C   UNL A   1      35.304  21.408  24.633  1.00  0.00    -0.015 A 
ATOM     20  C   UNL A   1      33.912  21.549  24.656  1.00  0.00     0.007 A 
ATOM     21  C   UNL A   1      36.067  22.394  24.010  1.00  0.00     0.126 A 
ATOM     22  C   UNL A   1      33.300  22.645  24.033  1.00  0.00     0.009 A 
ATOM     23  C   UNL A   1      35.467  23.484  23.393  1.00  0.00     0.048 A 
ATOM     24  F   UNL A   1      37.403  22.288  23.978  1.00  0.00    -0.207 F 
ENDBRANCH   7  17
BRANCH  16  25
ATOM     25  C   UNL A   1      32.076  26.641  26.405  1.00  0.00     0.430 C 
ATOM     26  F   UNL A   1      32.137  27.343  27.560  1.00  0.00    -0.167 F 
ATOM     27  F   UNL A   1      30.797  26.714  25.964  1.00  0.00    -0.167 F 
ATOM     28  F   UNL A   1      32.330  25.345  26.704  1.00  0.00    -0.167 F 
ENDBRANCH  16  25
ENDBRANCH   4   6
ENDBRANCH   3   4
ENDBRANCH   2   3
ENDBRANCH   1   2
BRANCH   1  29
ATOM     29  O   UNL A   1      35.013  31.749  27.697  1.00  0.00    -0.458 OA
BRANCH  29  30
ATOM     30  C   UNL A   1      35.442  31.530  28.971  1.00  0.00     0.338 C 
ATOM     31  O   UNL A   1      35.012  32.002  29.992  1.00  0.00    -0.246 OA
BRANCH  30  32
ATOM     32  C   UNL A   1      36.266  30.306  28.878  1.00  0.00     0.060 A 
ATOM     33  C   UNL A   1      36.630  29.568  30.011  1.00  0.00     0.016 A 
ATOM     34  C   UNL A   1      36.909  30.110  27.659  1.00  0.00     0.016 A 
ATOM     35  C   UNL A   1      37.783  28.782  29.974  1.00  0.00     0.010 A 
ATOM     36  C   UNL A   1      38.037  29.307  27.626  1.00  0.00     0.010 A 
ATOM     37  C   UNL A   1      38.547  28.740  28.805  1.00  0.00    -0.014 A 
BRANCH  37  38
ATOM     38  C   UNL A   1      39.965  28.357  28.796  1.00  0.00     0.031 A 
ATOM     39  C   UNL A   1      40.432  27.039  28.301  1.00  0.00     0.074 A 
ATOM     40  C   UNL A   1      40.924  29.246  29.161  1.00  0.00     0.049 A 
ATOM     41  N   UNL A   1      41.493  26.450  28.752  1.00  0.00    -0.248 NA
ATOM     42  C   UNL A   1      39.754  26.279  27.258  1.00  0.00     0.031 C 
ATOM     43  C   UNL A   1      42.357  29.137  28.877  1.00  0.00     0.029 A 
ATOM     44  N   UNL A   1      40.826  30.386  29.963  1.00  0.00    -0.354 N 
ATOM     45  C   UNL A   1      41.779  25.400  27.915  1.00  0.00     0.074 A 
ATOM     46  C   UNL A   1      40.636  25.297  27.034  1.00  0.00     0.031 C 
ATOM     47  C   UNL A   1      43.032  29.990  29.658  1.00  0.00     0.029 A 
ATOM     48  C   UNL A   1      42.085  30.609  30.561  1.00  0.00     0.049 A 
ATOM     49  H   UNL A   1      40.020  30.938  30.089  1.00  0.00     0.167 HD
ATOM     50  C   UNL A   1      43.000  24.793  27.958  1.00  0.00     0.037 A 
ATOM     51  C   UNL A   1      42.245  30.719  31.912  1.00  0.00     0.037 A 
ATOM     52  C   UNL A   1      43.915  25.450  28.882  1.00  0.00     0.049 A 
ATOM     53  C   UNL A   1      43.107  29.647  32.530  1.00  0.00     0.074 A 
ATOM     54  C   UNL A   1      44.916  26.386  28.682  1.00  0.00     0.029 A 
ATOM     55  N   UNL A   1      43.695  25.393  30.252  1.00  0.00    -0.354 N 
ATOM     56  N   UNL A   1      43.564  28.620  31.872  1.00  0.00    -0.248 NA
ATOM     57  C   UNL A   1      43.446  29.588  33.952  1.00  0.00     0.031 C 
ATOM     58  C   UNL A   1      45.297  26.900  29.941  1.00  0.00     0.029 A 
ATOM     59  C   UNL A   1      44.520  26.287  30.908  1.00  0.00     0.049 A 
ATOM     60  H   UNL A   1      43.045  24.798  30.693  1.00  0.00     0.167 HD
ATOM     61  C   UNL A   1      44.097  27.718  32.752  1.00  0.00     0.074 A 
ATOM     62  C   UNL A   1      44.066  28.398  34.031  1.00  0.00     0.031 C 
ATOM     63  C   UNL A   1      44.450  26.463  32.350  1.00  0.00     0.037 A 
BRANCH  50  64
ATOM     64  C   UNL A   1      43.447  23.746  26.968  1.00  0.00     0.064 A 
ATOM     65  C   UNL A   1      44.274  24.068  25.871  1.00  0.00     0.173 A 
ATOM     66  C   UNL A   1      43.094  22.388  27.072  1.00  0.00     0.173 A 
ATOM     67  F   UNL A   1      44.747  25.307  25.685  1.00  0.00    -0.203 F 
ATOM     68  C   UNL A   1      44.646  23.124  24.911  1.00  0.00     0.198 A 
ATOM     69  C   UNL A   1      43.425  21.454  26.086  1.00  0.00     0.198 A 
ATOM     70  F   UNL A   1      42.447  21.926  28.153  1.00  0.00    -0.203 F 
ATOM     71  F   UNL A   1      45.438  23.487  23.892  1.00  0.00    -0.200 F 
ATOM     72  C   UNL A   1      44.196  21.823  25.002  1.00  0.00     0.200 A 
ATOM     73  F   UNL A   1      42.991  20.190  26.195  1.00  0.00    -0.200 F 
ATOM     74  F   UNL A   1      44.522  20.926  24.061  1.00  0.00    -0.200 F 
ENDBRANCH  50  64
BRANCH  51  75
ATOM     75  C   UNL A   1      41.074  31.349  32.564  1.00  0.00     0.064 A 
ATOM     76  C   UNL A   1      40.898  32.730  32.368  1.00  0.00     0.173 A 
ATOM     77  C   UNL A   1      39.954  30.580  32.903  1.00  0.00     0.173 A 
ATOM     78  F   UNL A   1      41.954  33.505  32.075  1.00  0.00    -0.203 F 
ATOM     79  C   UNL A   1      39.625  33.289  32.342  1.00  0.00     0.198 A 
ATOM     80  C   UNL A   1      38.682  31.145  32.876  1.00  0.00     0.198 A 
ATOM     81  F   UNL A   1      40.075  29.260  33.109  1.00  0.00    -0.203 F 
ATOM     82  F   UNL A   1      39.466  34.582  32.028  1.00  0.00    -0.200 F 
ATOM     83  C   UNL A   1      38.515  32.485  32.550  1.00  0.00     0.200 A 
ATOM     84  F   UNL A   1      37.604  30.372  33.072  1.00  0.00    -0.200 F 
ATOM     85  F   UNL A   1      37.284  32.994  32.399  1.00  0.00    -0.200 F 
ENDBRANCH  51  75
BRANCH  63  86
ATOM     86  C   UNL A   1      44.818  25.324  33.264  1.00  0.00     0.064 A 
ATOM     87  C   UNL A   1      46.124  24.821  33.397  1.00  0.00     0.173 A 
ATOM     88  C   UNL A   1      43.857  24.778  34.146  1.00  0.00     0.173 A 
ATOM     89  F   UNL A   1      47.146  25.348  32.710  1.00  0.00    -0.203 F 
ATOM     90  C   UNL A   1      46.429  23.790  34.289  1.00  0.00     0.198 A 
ATOM     91  C   UNL A   1      44.177  23.786  35.073  1.00  0.00     0.198 A 
ATOM     92  F   UNL A   1      42.587  25.209  34.145  1.00  0.00    -0.203 F 
ATOM     93  F   UNL A   1      47.679  23.311  34.345  1.00  0.00    -0.200 F 
ATOM     94  C   UNL A   1      45.459  23.278  35.130  1.00  0.00     0.200 A 
ATOM     95  F   UNL A   1      43.241  23.340  35.921  1.00  0.00    -0.200 F 
ATOM     96  F   UNL A   1      45.764  22.313  36.008  1.00  0.00    -0.200 F 
ENDBRANCH  63  86
ENDBRANCH  37  38
ENDBRANCH  30  32
ENDBRANCH  29  30
ENDBRANCH   1  29
TORSDOF 13
ENDMDL
MODEL 3
REMARK VINA RESULT:     -13.5      2.964      9.168
REMARK SMILES Cc1ccc(-c2cc(Cl)cc3c2O[C@H](C(F)(F)F)C(C(=O)OCCOC(=O)c2ccc(-c4c5nc(c(-c6c(F)c(F)c(F)c(F)c6F)c6ccc([nH]6)c(-c6c(F)c(F)c(F)c(F)c6F)c6nc(c(-c7c(F)c(F)c(F)c(F)c7F)c7ccc4[nH]7)C=C6)C=C5)cc2)=C3)cc1F
REMARK SMILES IDX 24 1 23 2 22 3 20 4 21 5 19 6 6 7 7 8 12 9 8 10 11 11 13 12
REMARK SMILES IDX 9 13 10 14 91 15 14 16 5 17 1 18 2 19 3 20 93 21 4 22 92 23
REMARK SMILES IDX 94 24 15 25 16 26 17 27 18 28 25 29 26 30 27 31 28 32 29 33
REMARK SMILES IDX 90 34 30 35 89 36 31 37 32 38 33 39 83 40 34 41 88 42 82 43
REMARK SMILES IDX 84 44 35 45 87 46 81 47 80 48 36 50 68 51 48 52 67 53 49 54
REMARK SMILES IDX 52 55 66 56 85 57 50 58 51 59 65 61 86 62 53 63 37 64 38 65
REMARK SMILES IDX 46 66 39 67 40 68 44 69 47 70 41 71 42 72 45 73 43 74 69 75
REMARK SMILES IDX 70 76 78 77 71 78 72 79 76 80 79 81 73 82 74 83 77 84 75 85
REMARK SMILES IDX 54 86 55 87 63 88 56 89 57 90 61 91 64 92 58 93 59 94 62 95
REMARK SMILES IDX 60 96
REMARK H PARENT 84 49 52 60
REMARK Flexibility Score: inf
ROOT
ATOM      1  C   UNL A   1      39.208  21.261  25.880  1.00  0.00     0.275 C 
ENDROOT
BRANCH   1   2
ATOM      2  C   UNL A   1      38.001  21.879  25.161  1.00  0.00     0.275 C 
BRANCH   2   3
ATOM      3  O   UNL A   1      36.776  21.762  25.925  1.00  0.00    -0.459 OA
BRANCH   3   4
ATOM      4  C   UNL A   1      35.694  21.253  25.284  1.00  0.00     0.338 C 
ATOM      5  O   UNL A   1      35.622  20.185  24.696  1.00  0.00    -0.246 OA
BRANCH   4   6
ATOM      6  C   UNL A   1      34.542  22.167  25.446  1.00  0.00     0.087 C 
ATOM      7  C   UNL A   1      31.319  24.764  26.191  1.00  0.00     0.026 A 
ATOM      8  C   UNL A   1      30.122  24.229  26.696  1.00  0.00     0.033 A 
ATOM      9  C   UNL A   1      32.399  23.889  25.935  1.00  0.00     0.135 A 
ATOM     10  C   UNL A   1      29.990  22.853  26.873  1.00  0.00     0.042 A 
ATOM     11  C   UNL A   1      32.245  22.509  26.072  1.00  0.00     0.019 A 
ATOM     12  O   UNL A   1      33.603  24.461  25.605  1.00  0.00    -0.475 OA
ATOM     13  Cl  UNL A   1      28.531  22.204  27.515  1.00  0.00    -0.084 Cl
ATOM     14  C   UNL A   1      31.029  21.991  26.530  1.00  0.00     0.032 A 
ATOM     15  C   UNL A   1      33.369  21.632  25.796  1.00  0.00     0.027 C 
ATOM     16  C   UNL A   1      34.689  23.626  25.131  1.00  0.00     0.316 C 
BRANCH   7  17
ATOM     17  C   UNL A   1      31.422  26.193  25.865  1.00  0.00    -0.012 A 
ATOM     18  C   UNL A   1      31.404  30.452  25.155  1.00  0.00     0.047 C 
ATOM     19  C   UNL A   1      31.458  28.971  25.364  1.00  0.00    -0.015 A 
ATOM     20  C   UNL A   1      31.155  28.069  24.338  1.00  0.00     0.007 A 
ATOM     21  C   UNL A   1      31.778  28.467  26.624  1.00  0.00     0.126 A 
ATOM     22  C   UNL A   1      31.142  26.690  24.585  1.00  0.00     0.009 A 
ATOM     23  C   UNL A   1      31.769  27.102  26.876  1.00  0.00     0.048 A 
ATOM     24  F   UNL A   1      32.078  29.308  27.625  1.00  0.00    -0.207 F 
ENDBRANCH   7  17
BRANCH  16  25
ATOM     25  C   UNL A   1      34.846  23.831  23.616  1.00  0.00     0.430 C 
ATOM     26  F   UNL A   1      36.138  23.718  23.231  1.00  0.00    -0.167 F 
ATOM     27  F   UNL A   1      34.144  22.904  22.923  1.00  0.00    -0.167 F 
ATOM     28  F   UNL A   1      34.411  25.051  23.221  1.00  0.00    -0.167 F 
ENDBRANCH  16  25
ENDBRANCH   4   6
ENDBRANCH   3   4
ENDBRANCH   2   3
ENDBRANCH   1   2
BRANCH   1  29
ATOM     29  O   UNL A   1      39.677  22.178  26.877  1.00  0.00    -0.458 OA
BRANCH  29  30
ATOM     30  C   UNL A   1      40.696  23.004  26.512  1.00  0.00     0.338 C 
ATOM     31  O   UNL A   1      41.697  22.726  25.901  1.00  0.00    -0.246 OA
BRANCH  30  32
ATOM     32  C   UNL A   1      40.141  24.366  26.664  1.00  0.00     0.060 A 
ATOM     33  C   UNL A   1      40.777  25.492  26.127  1.00  0.00     0.016 A 
ATOM     34  C   UNL A   1      39.138  24.498  27.620  1.00  0.00     0.016 A 
ATOM     35  C   UNL A   1      40.554  26.743  26.703  1.00  0.00     0.010 A 
ATOM     36  C   UNL A   1      38.906  25.749  28.168  1.00  0.00     0.010 A 
ATOM     37  C   UNL A   1      39.695  26.850  27.800  1.00  0.00    -0.014 A 
BRANCH  37  38
ATOM     38  C   UNL A   1      39.753  27.971  28.748  1.00  0.00     0.031 A 
ATOM     39  C   UNL A   1      38.782  29.090  28.718  1.00  0.00     0.074 A 
ATOM     40  C   UNL A   1      40.657  27.974  29.761  1.00  0.00     0.049 A 
ATOM     41  N   UNL A   1      39.077  30.292  29.102  1.00  0.00    -0.248 NA
ATOM     42  C   UNL A   1      37.403  28.955  28.264  1.00  0.00     0.031 C 
ATOM     43  C   UNL A   1      40.611  28.815  30.958  1.00  0.00     0.029 A 
ATOM     44  N   UNL A   1      41.874  27.295  29.874  1.00  0.00    -0.354 N 
ATOM     45  C   UNL A   1      37.905  31.003  29.192  1.00  0.00     0.074 A 
ATOM     46  C   UNL A   1      36.897  30.148  28.604  1.00  0.00     0.031 C 
ATOM     47  C   UNL A   1      41.807  28.802  31.560  1.00  0.00     0.029 A 
ATOM     48  C   UNL A   1      42.715  28.045  30.724  1.00  0.00     0.049 A 
ATOM     49  H   UNL A   1      42.104  26.442  29.438  1.00  0.00     0.167 HD
ATOM     50  C   UNL A   1      37.867  32.192  29.861  1.00  0.00     0.037 A 
ATOM     51  C   UNL A   1      43.960  28.456  30.346  1.00  0.00     0.037 A 
ATOM     52  C   UNL A   1      39.135  32.508  30.503  1.00  0.00     0.049 A 
ATOM     53  C   UNL A   1      44.134  29.952  30.283  1.00  0.00     0.074 A 
ATOM     54  C   UNL A   1      39.582  32.335  31.803  1.00  0.00     0.029 A 
ATOM     55  N   UNL A   1      40.251  32.827  29.741  1.00  0.00    -0.354 N 
ATOM     56  N   UNL A   1      43.159  30.799  30.445  1.00  0.00    -0.248 NA
ATOM     57  C   UNL A   1      45.392  30.616  29.940  1.00  0.00     0.031 C 
ATOM     58  C   UNL A   1      40.979  32.543  31.821  1.00  0.00     0.029 A 
ATOM     59  C   UNL A   1      41.387  32.833  30.531  1.00  0.00     0.049 A 
ATOM     60  H   UNL A   1      40.236  33.022  28.775  1.00  0.00     0.167 HD
ATOM     61  C   UNL A   1      43.583  32.052  30.092  1.00  0.00     0.074 A 
ATOM     62  C   UNL A   1      45.003  31.900  29.853  1.00  0.00     0.031 C 
ATOM     63  C   UNL A   1      42.701  33.086  29.964  1.00  0.00     0.037 A 
BRANCH  50  64
ATOM     64  C   UNL A   1      36.594  32.951  30.142  1.00  0.00     0.064 A 
ATOM     65  C   UNL A   1      35.892  33.627  29.121  1.00  0.00     0.173 A 
ATOM     66  C   UNL A   1      36.009  33.025  31.419  1.00  0.00     0.173 A 
ATOM     67  F   UNL A   1      36.293  33.584  27.844  1.00  0.00    -0.203 F 
ATOM     68  C   UNL A   1      34.748  34.386  29.374  1.00  0.00     0.198 A 
ATOM     69  C   UNL A   1      34.892  33.824  31.681  1.00  0.00     0.198 A 
ATOM     70  F   UNL A   1      36.487  32.297  32.438  1.00  0.00    -0.203 F 
ATOM     71  F   UNL A   1      34.121  35.004  28.363  1.00  0.00    -0.200 F 
ATOM     72  C   UNL A   1      34.264  34.509  30.660  1.00  0.00     0.200 A 
ATOM     73  F   UNL A   1      34.425  33.923  32.935  1.00  0.00    -0.200 F 
ATOM     74  F   UNL A   1      33.188  35.267  30.910  1.00  0.00    -0.200 F 
ENDBRANCH  50  64
BRANCH  51  75
ATOM     75  C   UNL A   1      44.618  27.485  29.441  1.00  0.00     0.064 A 
ATOM     76  C   UNL A   1      45.013  26.256  29.999  1.00  0.00     0.173 A 
ATOM     77  C   UNL A   1      44.400  27.545  28.059  1.00  0.00     0.173 A 
ATOM     78  F   UNL A   1      45.264  26.167  31.315  1.00  0.00    -0.203 F 
ATOM     79  C   UNL A   1      45.022  25.096  29.232  1.00  0.00     0.198 A 
ATOM     80  C   UNL A   1      44.411  26.380  27.296  1.00  0.00     0.198 A 
ATOM     81  F   UNL A   1      44.031  28.697  27.481  1.00  0.00    -0.203 F 
ATOM     82  F   UNL A   1      45.278  23.913  29.808  1.00  0.00    -0.200 F 
ATOM     83  C   UNL A   1      44.675  25.153  27.891  1.00  0.00     0.200 A 
ATOM     84  F   UNL A   1      44.072  26.428  26.000  1.00  0.00    -0.200 F 
ATOM     85  F   UNL A   1      44.559  24.022  27.182  1.00  0.00    -0.200 F 
ENDBRANCH  51  75
BRANCH  63  86
ATOM     86  C   UNL A   1      43.013  34.429  29.359  1.00  0.00     0.064 A 
ATOM     87  C   UNL A   1      43.073  35.623  30.098  1.00  0.00     0.173 A 
ATOM     88  C   UNL A   1      43.392  34.529  28.000  1.00  0.00     0.173 A 
ATOM     89  F   UNL A   1      42.863  35.633  31.422  1.00  0.00    -0.203 F 
ATOM     90  C   UNL A   1      43.407  36.842  29.504  1.00  0.00     0.198 A 
ATOM     91  C   UNL A   1      43.778  35.739  27.423  1.00  0.00     0.198 A 
ATOM     92  F   UNL A   1      43.419  33.451  27.204  1.00  0.00    -0.203 F 
ATOM     93  F   UNL A   1      43.403  37.961  30.241  1.00  0.00    -0.200 F 
ATOM     94  C   UNL A   1      43.765  36.899  28.170  1.00  0.00     0.200 A 
ATOM     95  F   UNL A   1      44.178  35.769  26.144  1.00  0.00    -0.200 F 
ATOM     96  F   UNL A   1      44.119  38.065  27.613  1.00  0.00    -0.200 F 
ENDBRANCH  63  86
ENDBRANCH  37  38
ENDBRANCH  30  32
ENDBRANCH  29  30
ENDBRANCH   1  29
TORSDOF 13
ENDMDL
