MODEL 1
REMARK VINA RESULT:     -12.3      0.000      0.000
REMARK SMILES O=C(OCCOC(=O)c1ccc(-c2c3nc(c(-c4c(F)c(F)c(F)c(F)c4F)c4ccc([nH]4)c(-c4c(F)c(F)c(F)c(F)c4F)c4nc(c(-c5c(F)c(F)c(F)c(F)c5F)c5ccc2[nH]5)C=C4)C=C3)cc1)c1ccc(NC(=O)[C@H]2CCS(=O)(=O)C2)cc1
REMARK SMILES IDX 4 1 3 2 2 3 1 4 72 5 73 6 87 7 74 8 86 9 75 10 76 11 77 12
REMARK SMILES IDX 78 14 79 15 80 16 85 17 81 18 82 19 83 20 84 21 5 22 6 23
REMARK SMILES IDX 7 24 8 25 9 26 10 27 71 28 11 29 70 30 12 31 13 32 14 33
REMARK SMILES IDX 64 34 15 35 69 36 63 37 65 38 16 39 68 40 62 41 61 42 17 44
REMARK SMILES IDX 49 45 29 46 48 47 30 48 33 49 47 50 66 51 31 52 32 53 46 55
REMARK SMILES IDX 67 56 34 57 18 58 19 59 27 60 20 61 21 62 25 63 28 64 22 65
REMARK SMILES IDX 23 66 26 67 24 68 50 69 51 70 59 71 52 72 53 73 57 74 60 75
REMARK SMILES IDX 54 76 55 77 58 78 56 79 35 80 36 81 44 82 37 83 38 84 42 85
REMARK SMILES IDX 45 86 39 87 40 88 43 89 41 90
REMARK H PARENT 76 13 65 43 33 54
REMARK Flexibility Score: inf
ROOT
ATOM      1  C   UNL A   1      42.643  20.640  26.253  1.00  0.00     0.275 C 
ENDROOT
BRANCH   1   2
ATOM      2  O   UNL A   1      41.235  20.806  25.972  1.00  0.00    -0.458 OA
BRANCH   2   3
ATOM      3  C   UNL A   1      40.256  21.432  26.676  1.00  0.00     0.338 C 
ATOM      4  O   UNL A   1      40.351  21.489  27.901  1.00  0.00    -0.246 OA
BRANCH   3   5
ATOM      5  C   UNL A   1      38.973  21.906  26.065  1.00  0.00     0.060 A 
ATOM      6  C   UNL A   1      38.489  23.194  26.161  1.00  0.00     0.018 A 
ATOM      7  C   UNL A   1      38.248  21.030  25.240  1.00  0.00     0.018 A 
ATOM      8  C   UNL A   1      37.500  23.668  25.303  1.00  0.00     0.027 A 
ATOM      9  C   UNL A   1      37.169  21.492  24.455  1.00  0.00     0.027 A 
ATOM     10  C   UNL A   1      36.835  22.847  24.409  1.00  0.00     0.041 A 
BRANCH  10  11
ATOM     11  N   UNL A   1      35.899  23.283  23.443  1.00  0.00    -0.326 N 
ATOM     12  C   UNL A   1      34.592  23.703  23.512  1.00  0.00     0.228 C 
ATOM     13  H   UNL A   1      36.260  23.284  22.527  1.00  0.00     0.169 HD
ATOM     14  O   UNL A   1      34.038  24.104  22.486  1.00  0.00    -0.274 OA
BRANCH  12  15
ATOM     15  C   UNL A   1      33.852  23.708  24.824  1.00  0.00     0.095 C 
ATOM     16  C   UNL A   1      33.092  25.028  25.039  1.00  0.00     0.030 C 
ATOM     17  C   UNL A   1      32.787  22.641  25.032  1.00  0.00     0.150 C 
ATOM     18  C   UNL A   1      32.395  24.911  26.390  1.00  0.00     0.138 C 
ATOM     19  S   UNL A   1      32.069  23.163  26.596  1.00  0.00     0.151 S 
ATOM     20  O   UNL A   1      32.927  22.693  27.670  1.00  0.00    -0.229 OA
ATOM     21  O   UNL A   1      30.644  22.937  26.584  1.00  0.00    -0.229 OA
ENDBRANCH  12  15
ENDBRANCH  10  11
ENDBRANCH   3   5
ENDBRANCH   2   3
ENDBRANCH   1   2
BRANCH   1  22
ATOM     22  C   UNL A   1      43.576  21.500  25.376  1.00  0.00     0.275 C 
BRANCH  22  23
ATOM     23  O   UNL A   1      42.973  22.722  24.908  1.00  0.00    -0.458 OA
BRANCH  23  24
ATOM     24  C   UNL A   1      43.759  23.828  24.990  1.00  0.00     0.338 C 
ATOM     25  O   UNL A   1      44.702  24.096  24.267  1.00  0.00    -0.246 OA
BRANCH  24  26
ATOM     26  C   UNL A   1      43.213  24.767  26.004  1.00  0.00     0.060 A 
ATOM     27  C   UNL A   1      43.782  26.041  26.110  1.00  0.00     0.016 A 
ATOM     28  C   UNL A   1      42.153  24.418  26.842  1.00  0.00     0.016 A 
ATOM     29  C   UNL A   1      43.298  26.963  27.052  1.00  0.00     0.010 A 
ATOM     30  C   UNL A   1      41.650  25.351  27.762  1.00  0.00     0.010 A 
ATOM     31  C   UNL A   1      42.230  26.631  27.896  1.00  0.00    -0.014 A 
BRANCH  31  32
ATOM     32  C   UNL A   1      41.782  27.539  28.998  1.00  0.00     0.031 A 
ATOM     33  C   UNL A   1      42.480  27.478  30.331  1.00  0.00     0.074 A 
ATOM     34  C   UNL A   1      40.750  28.395  28.866  1.00  0.00     0.049 A 
ATOM     35  N   UNL A   1      42.201  28.102  31.449  1.00  0.00    -0.248 NA
ATOM     36  C   UNL A   1      43.655  26.599  30.408  1.00  0.00     0.031 C 
ATOM     37  C   UNL A   1      40.016  28.647  27.635  1.00  0.00     0.029 A 
ATOM     38  N   UNL A   1      40.117  29.194  29.794  1.00  0.00    -0.354 N 
ATOM     39  C   UNL A   1      43.162  27.690  32.360  1.00  0.00     0.074 A 
ATOM     40  C   UNL A   1      43.995  26.718  31.681  1.00  0.00     0.031 C 
ATOM     41  C   UNL A   1      38.982  29.466  27.891  1.00  0.00     0.029 A 
ATOM     42  C   UNL A   1      38.991  29.819  29.310  1.00  0.00     0.049 A 
ATOM     43  H   UNL A   1      40.441  29.306  30.716  1.00  0.00     0.167 HD
ATOM     44  C   UNL A   1      43.357  28.099  33.637  1.00  0.00     0.037 A 
ATOM     45  C   UNL A   1      38.067  30.583  29.930  1.00  0.00     0.037 A 
ATOM     46  C   UNL A   1      42.545  29.067  34.326  1.00  0.00     0.049 A 
ATOM     47  C   UNL A   1      38.238  30.954  31.381  1.00  0.00     0.074 A 
ATOM     48  C   UNL A   1      42.710  29.574  35.605  1.00  0.00     0.029 A 
ATOM     49  N   UNL A   1      41.403  29.659  33.809  1.00  0.00    -0.354 N 
ATOM     50  N   UNL A   1      39.191  30.613  32.213  1.00  0.00    -0.248 NA
ATOM     51  C   UNL A   1      37.225  31.843  31.972  1.00  0.00     0.031 C 
ATOM     52  C   UNL A   1      41.629  30.413  35.889  1.00  0.00     0.029 A 
ATOM     53  C   UNL A   1      40.829  30.491  34.760  1.00  0.00     0.049 A 
ATOM     54  H   UNL A   1      41.051  29.512  32.902  1.00  0.00     0.167 HD
ATOM     55  C   UNL A   1      38.919  31.277  33.404  1.00  0.00     0.074 A 
ATOM     56  C   UNL A   1      37.707  32.038  33.192  1.00  0.00     0.031 C 
ATOM     57  C   UNL A   1      39.627  31.263  34.559  1.00  0.00     0.037 A 
BRANCH  44  58
ATOM     58  C   UNL A   1      44.490  27.460  34.388  1.00  0.00     0.064 A 
ATOM     59  C   UNL A   1      45.793  27.982  34.350  1.00  0.00     0.173 A 
ATOM     60  C   UNL A   1      44.269  26.302  35.147  1.00  0.00     0.173 A 
ATOM     61  F   UNL A   1      46.059  29.083  33.630  1.00  0.00    -0.203 F 
ATOM     62  C   UNL A   1      46.842  27.336  34.997  1.00  0.00     0.198 A 
ATOM     63  C   UNL A   1      45.313  25.682  35.826  1.00  0.00     0.198 A 
ATOM     64  F   UNL A   1      43.041  25.768  35.226  1.00  0.00    -0.203 F 
ATOM     65  F   UNL A   1      48.091  27.806  34.880  1.00  0.00    -0.200 F 
ATOM     66  C   UNL A   1      46.600  26.188  35.737  1.00  0.00     0.200 A 
ATOM     67  F   UNL A   1      45.074  24.581  36.554  1.00  0.00    -0.200 F 
ATOM     68  F   UNL A   1      47.612  25.562  36.353  1.00  0.00    -0.200 F 
ENDBRANCH  44  58
BRANCH  45  69
ATOM     69  C   UNL A   1      36.883  31.065  29.167  1.00  0.00     0.064 A 
ATOM     70  C   UNL A   1      35.821  30.208  28.848  1.00  0.00     0.173 A 
ATOM     71  C   UNL A   1      36.798  32.398  28.735  1.00  0.00     0.173 A 
ATOM     72  F   UNL A   1      35.867  28.920  29.217  1.00  0.00    -0.203 F 
ATOM     73  C   UNL A   1      34.726  30.661  28.114  1.00  0.00     0.198 A 
ATOM     74  C   UNL A   1      35.692  32.856  28.022  1.00  0.00     0.198 A 
ATOM     75  F   UNL A   1      37.786  33.259  29.018  1.00  0.00    -0.203 F 
ATOM     76  F   UNL A   1      33.742  29.812  27.790  1.00  0.00    -0.200 F 
ATOM     77  C   UNL A   1      34.658  31.985  27.708  1.00  0.00     0.200 A 
ATOM     78  F   UNL A   1      35.626  34.138  27.642  1.00  0.00    -0.200 F 
ATOM     79  F   UNL A   1      33.602  32.422  27.009  1.00  0.00    -0.200 F 
ENDBRANCH  45  69
BRANCH  57  80
ATOM     80  C   UNL A   1      39.159  32.131  35.695  1.00  0.00     0.064 A 
ATOM     81  C   UNL A   1      38.320  31.646  36.708  1.00  0.00     0.173 A 
ATOM     82  C   UNL A   1      39.627  33.451  35.812  1.00  0.00     0.173 A 
ATOM     83  F   UNL A   1      37.832  30.398  36.641  1.00  0.00    -0.203 F 
ATOM     84  C   UNL A   1      37.964  32.449  37.790  1.00  0.00     0.198 A 
ATOM     85  C   UNL A   1      39.294  34.240  36.910  1.00  0.00     0.198 A 
ATOM     86  F   UNL A   1      40.435  33.968  34.873  1.00  0.00    -0.203 F 
ATOM     87  F   UNL A   1      37.137  31.973  38.733  1.00  0.00    -0.200 F 
ATOM     88  C   UNL A   1      38.460  33.740  37.897  1.00  0.00     0.200 A 
ATOM     89  F   UNL A   1      39.790  35.481  37.018  1.00  0.00    -0.200 F 
ATOM     90  F   UNL A   1      38.134  34.501  38.950  1.00  0.00    -0.200 F 
ENDBRANCH  57  80
ENDBRANCH  31  32
ENDBRANCH  24  26
ENDBRANCH  23  24
ENDBRANCH  22  23
ENDBRANCH   1  22
TORSDOF 13
ENDMDL
MODEL 2
REMARK VINA RESULT:     -12.1      0.312      1.996
REMARK SMILES O=C(OCCOC(=O)c1ccc(-c2c3nc(c(-c4c(F)c(F)c(F)c(F)c4F)c4ccc([nH]4)c(-c4c(F)c(F)c(F)c(F)c4F)c4nc(c(-c5c(F)c(F)c(F)c(F)c5F)c5ccc2[nH]5)C=C4)C=C3)cc1)c1ccc(NC(=O)[C@H]2CCS(=O)(=O)C2)cc1
REMARK SMILES IDX 4 1 3 2 2 3 1 4 72 5 73 6 87 7 74 8 86 9 75 10 76 11 77 12
REMARK SMILES IDX 78 14 79 15 80 16 85 17 81 18 82 19 83 20 84 21 5 22 6 23
REMARK SMILES IDX 7 24 8 25 9 26 10 27 71 28 11 29 70 30 12 31 13 32 14 33
REMARK SMILES IDX 64 34 15 35 69 36 63 37 65 38 16 39 68 40 62 41 61 42 17 44
REMARK SMILES IDX 49 45 29 46 48 47 30 48 33 49 47 50 66 51 31 52 32 53 46 55
REMARK SMILES IDX 67 56 34 57 18 58 19 59 27 60 20 61 21 62 25 63 28 64 22 65
REMARK SMILES IDX 23 66 26 67 24 68 50 69 51 70 59 71 52 72 53 73 57 74 60 75
REMARK SMILES IDX 54 76 55 77 58 78 56 79 35 80 36 81 44 82 37 83 38 84 42 85
REMARK SMILES IDX 45 86 39 87 40 88 43 89 41 90
REMARK H PARENT 76 13 65 43 33 54
REMARK Flexibility Score: inf
ROOT
ATOM      1  C   UNL A   1      42.627  19.989  26.130  1.00  0.00     0.275 C 
ENDROOT
BRANCH   1   2
ATOM      2  O   UNL A   1      41.209  20.204  25.959  1.00  0.00    -0.458 OA
BRANCH   2   3
ATOM      3  C   UNL A   1      40.334  20.967  26.666  1.00  0.00     0.338 C 
ATOM      4  O   UNL A   1      40.485  21.068  27.883  1.00  0.00    -0.246 OA
BRANCH   3   5
ATOM      5  C   UNL A   1      39.086  21.552  26.079  1.00  0.00     0.060 A 
ATOM      6  C   UNL A   1      38.710  22.874  26.200  1.00  0.00     0.018 A 
ATOM      7  C   UNL A   1      38.283  20.751  25.250  1.00  0.00     0.018 A 
ATOM      8  C   UNL A   1      37.752  23.440  25.362  1.00  0.00     0.027 A 
ATOM      9  C   UNL A   1      37.236  21.312  24.486  1.00  0.00     0.027 A 
ATOM     10  C   UNL A   1      37.013  22.690  24.465  1.00  0.00     0.041 A 
BRANCH  10  11
ATOM     11  N   UNL A   1      36.105  23.215  23.517  1.00  0.00    -0.326 N 
ATOM     12  C   UNL A   1      34.815  23.686  23.600  1.00  0.00     0.228 C 
ATOM     13  H   UNL A   1      36.473  23.250  22.604  1.00  0.00     0.169 HD
ATOM     14  O   UNL A   1      34.288  24.164  22.594  1.00  0.00    -0.274 OA
BRANCH  12  15
ATOM     15  C   UNL A   1      34.065  23.653  24.906  1.00  0.00     0.095 C 
ATOM     16  C   UNL A   1      33.348  24.987  25.179  1.00  0.00     0.030 C 
ATOM     17  C   UNL A   1      32.964  22.614  25.055  1.00  0.00     0.150 C 
ATOM     18  C   UNL A   1      32.636  24.828  26.518  1.00  0.00     0.138 C 
ATOM     19  S   UNL A   1      32.251  23.084  26.637  1.00  0.00     0.151 S 
ATOM     20  O   UNL A   1      33.083  22.535  27.693  1.00  0.00    -0.229 OA
ATOM     21  O   UNL A   1      30.819  22.906  26.604  1.00  0.00    -0.229 OA
ENDBRANCH  12  15
ENDBRANCH  10  11
ENDBRANCH   3   5
ENDBRANCH   2   3
ENDBRANCH   1   2
BRANCH   1  22
ATOM     22  C   UNL A   1      43.518  21.115  25.566  1.00  0.00     0.275 C 
BRANCH  22  23
ATOM     23  O   UNL A   1      42.781  22.268  25.113  1.00  0.00    -0.458 OA
BRANCH  23  24
ATOM     24  C   UNL A   1      43.499  23.418  25.019  1.00  0.00     0.338 C 
ATOM     25  O   UNL A   1      44.330  23.682  24.168  1.00  0.00    -0.246 OA
BRANCH  24  26
ATOM     26  C   UNL A   1      43.021  24.401  26.026  1.00  0.00     0.060 A 
ATOM     27  C   UNL A   1      43.657  25.645  26.101  1.00  0.00     0.016 A 
ATOM     28  C   UNL A   1      41.961  24.120  26.890  1.00  0.00     0.016 A 
ATOM     29  C   UNL A   1      43.238  26.606  27.035  1.00  0.00     0.010 A 
ATOM     30  C   UNL A   1      41.523  25.093  27.803  1.00  0.00     0.010 A 
ATOM     31  C   UNL A   1      42.170  26.343  27.904  1.00  0.00    -0.014 A 
BRANCH  31  32
ATOM     32  C   UNL A   1      41.790  27.290  28.998  1.00  0.00     0.031 A 
ATOM     33  C   UNL A   1      42.516  27.221  30.315  1.00  0.00     0.074 A 
ATOM     34  C   UNL A   1      40.795  28.190  28.873  1.00  0.00     0.049 A 
ATOM     35  N   UNL A   1      42.291  27.878  31.427  1.00  0.00    -0.248 NA
ATOM     36  C   UNL A   1      43.651  26.292  30.383  1.00  0.00     0.031 C 
ATOM     37  C   UNL A   1      40.045  28.454  27.654  1.00  0.00     0.029 A 
ATOM     38  N   UNL A   1      40.221  29.035  29.799  1.00  0.00    -0.354 N 
ATOM     39  C   UNL A   1      43.253  27.439  32.324  1.00  0.00     0.074 A 
ATOM     40  C   UNL A   1      44.026  26.418  31.646  1.00  0.00     0.031 C 
ATOM     41  C   UNL A   1      39.055  29.323  27.917  1.00  0.00     0.029 A 
ATOM     42  C   UNL A   1      39.114  29.702  29.329  1.00  0.00     0.049 A 
ATOM     43  H   UNL A   1      40.571  29.149  30.712  1.00  0.00     0.167 HD
ATOM     44  C   UNL A   1      43.497  27.862  33.589  1.00  0.00     0.037 A 
ATOM     45  C   UNL A   1      38.241  30.519  29.954  1.00  0.00     0.037 A 
ATOM     46  C   UNL A   1      42.746  28.879  34.277  1.00  0.00     0.049 A 
ATOM     47  C   UNL A   1      38.462  30.908  31.394  1.00  0.00     0.074 A 
ATOM     48  C   UNL A   1      42.964  29.400  35.542  1.00  0.00     0.029 A 
ATOM     49  N   UNL A   1      41.621  29.513  33.775  1.00  0.00    -0.354 N 
ATOM     50  N   UNL A   1      39.417  30.538  32.210  1.00  0.00    -0.248 NA
ATOM     51  C   UNL A   1      37.505  31.853  31.990  1.00  0.00     0.031 C 
ATOM     52  C   UNL A   1      41.929  30.293  35.834  1.00  0.00     0.029 A 
ATOM     53  C   UNL A   1      41.108  30.388  34.722  1.00  0.00     0.049 A 
ATOM     54  H   UNL A   1      41.242  29.366  32.879  1.00  0.00     0.167 HD
ATOM     55  C   UNL A   1      39.204  31.236  33.394  1.00  0.00     0.074 A 
ATOM     56  C   UNL A   1      38.024  32.048  33.195  1.00  0.00     0.031 C 
ATOM     57  C   UNL A   1      39.938  31.211  34.533  1.00  0.00     0.037 A 
BRANCH  44  58
ATOM     58  C   UNL A   1      44.617  27.185  34.326  1.00  0.00     0.064 A 
ATOM     59  C   UNL A   1      44.406  26.031  35.097  1.00  0.00     0.173 A 
ATOM     60  C   UNL A   1      45.918  27.706  34.266  1.00  0.00     0.173 A 
ATOM     61  F   UNL A   1      43.178  25.499  35.194  1.00  0.00    -0.203 F 
ATOM     62  C   UNL A   1      45.444  25.459  35.827  1.00  0.00     0.198 A 
ATOM     63  C   UNL A   1      46.961  27.108  34.965  1.00  0.00     0.198 A 
ATOM     64  F   UNL A   1      46.176  28.800  33.535  1.00  0.00    -0.203 F 
ATOM     65  F   UNL A   1      45.202  24.408  36.621  1.00  0.00    -0.200 F 
ATOM     66  C   UNL A   1      46.721  25.996  35.758  1.00  0.00     0.200 A 
ATOM     67  F   UNL A   1      48.198  27.619  34.884  1.00  0.00    -0.200 F 
ATOM     68  F   UNL A   1      47.718  25.450  36.467  1.00  0.00    -0.200 F 
ENDBRANCH  44  58
BRANCH  45  69
ATOM     69  C   UNL A   1      37.062  31.041  29.209  1.00  0.00     0.064 A 
ATOM     70  C   UNL A   1      37.018  32.362  28.744  1.00  0.00     0.173 A 
ATOM     71  C   UNL A   1      35.950  30.223  28.956  1.00  0.00     0.173 A 
ATOM     72  F   UNL A   1      38.045  33.190  28.984  1.00  0.00    -0.203 F 
ATOM     73  C   UNL A   1      35.902  32.851  28.067  1.00  0.00     0.198 A 
ATOM     74  C   UNL A   1      34.845  30.705  28.258  1.00  0.00     0.198 A 
ATOM     75  F   UNL A   1      35.944  28.950  29.377  1.00  0.00    -0.203 F 
ATOM     76  F   UNL A   1      35.870  34.128  27.667  1.00  0.00    -0.200 F 
ATOM     77  C   UNL A   1      34.819  32.020  27.818  1.00  0.00     0.200 A 
ATOM     78  F   UNL A   1      33.806  29.896  28.010  1.00  0.00    -0.200 F 
ATOM     79  F   UNL A   1      33.750  32.488  27.160  1.00  0.00    -0.200 F 
ENDBRANCH  45  69
BRANCH  57  80
ATOM     80  C   UNL A   1      39.536  32.120  35.662  1.00  0.00     0.064 A 
ATOM     81  C   UNL A   1      40.028  33.428  35.778  1.00  0.00     0.173 A 
ATOM     82  C   UNL A   1      38.576  31.700  36.598  1.00  0.00     0.173 A 
ATOM     83  F   UNL A   1      40.958  33.878  34.921  1.00  0.00    -0.203 F 
ATOM     84  C   UNL A   1      39.580  34.276  36.789  1.00  0.00     0.198 A 
ATOM     85  C   UNL A   1      38.108  32.560  37.588  1.00  0.00     0.198 A 
ATOM     86  F   UNL A   1      38.067  30.460  36.534  1.00  0.00    -0.203 F 
ATOM     87  F   UNL A   1      40.087  35.513  36.898  1.00  0.00    -0.200 F 
ATOM     88  C   UNL A   1      38.612  33.847  37.685  1.00  0.00     0.200 A 
ATOM     89  F   UNL A   1      37.159  32.147  38.440  1.00  0.00    -0.200 F 
ATOM     90  F   UNL A   1      38.167  34.673  38.642  1.00  0.00    -0.200 F 
ENDBRANCH  57  80
ENDBRANCH  31  32
ENDBRANCH  24  26
ENDBRANCH  23  24
ENDBRANCH  22  23
ENDBRANCH   1  22
TORSDOF 13
ENDMDL
MODEL 3
REMARK VINA RESULT:     -11.8      3.452      9.057
REMARK SMILES O=C(OCCOC(=O)c1ccc(-c2c3nc(c(-c4c(F)c(F)c(F)c(F)c4F)c4ccc([nH]4)c(-c4c(F)c(F)c(F)c(F)c4F)c4nc(c(-c5c(F)c(F)c(F)c(F)c5F)c5ccc2[nH]5)C=C4)C=C3)cc1)c1ccc(NC(=O)[C@H]2CCS(=O)(=O)C2)cc1
REMARK SMILES IDX 4 1 3 2 2 3 1 4 72 5 73 6 87 7 74 8 86 9 75 10 76 11 77 12
REMARK SMILES IDX 78 14 79 15 80 16 85 17 81 18 82 19 83 20 84 21 5 22 6 23
REMARK SMILES IDX 7 24 8 25 9 26 10 27 71 28 11 29 70 30 12 31 13 32 14 33
REMARK SMILES IDX 64 34 15 35 69 36 63 37 65 38 16 39 68 40 62 41 61 42 17 44
REMARK SMILES IDX 49 45 29 46 48 47 30 48 33 49 47 50 66 51 31 52 32 53 46 55
REMARK SMILES IDX 67 56 34 57 18 58 19 59 27 60 20 61 21 62 25 63 28 64 22 65
REMARK SMILES IDX 23 66 26 67 24 68 50 69 51 70 59 71 52 72 53 73 57 74 60 75
REMARK SMILES IDX 54 76 55 77 58 78 56 79 35 80 36 81 44 82 37 83 38 84 42 85
REMARK SMILES IDX 45 86 39 87 40 88 43 89 41 90
REMARK H PARENT 76 13 65 43 33 54
REMARK Flexibility Score: inf
ROOT
ATOM      1  C   UNL A   1      31.522  32.550  26.662  1.00  0.00     0.275 C 
ENDROOT
BRANCH   1   2
ATOM      2  O   UNL A   1      31.711  31.138  26.906  1.00  0.00    -0.458 OA
BRANCH   2   3
ATOM      3  C   UNL A   1      32.708  30.297  26.525  1.00  0.00     0.338 C 
ATOM      4  O   UNL A   1      33.831  30.453  27.005  1.00  0.00    -0.246 OA
BRANCH   3   5
ATOM      5  C   UNL A   1      32.568  29.297  25.419  1.00  0.00     0.060 A 
ATOM      6  C   UNL A   1      31.495  29.234  24.553  1.00  0.00     0.018 A 
ATOM      7  C   UNL A   1      33.635  28.424  25.150  1.00  0.00     0.018 A 
ATOM      8  C   UNL A   1      31.569  28.536  23.350  1.00  0.00     0.027 A 
ATOM      9  C   UNL A   1      33.653  27.631  23.982  1.00  0.00     0.027 A 
ATOM     10  C   UNL A   1      32.653  27.745  23.014  1.00  0.00     0.041 A 
BRANCH  10  11
ATOM     11  N   UNL A   1      32.836  27.098  21.770  1.00  0.00    -0.326 N 
ATOM     12  C   UNL A   1      32.885  25.778  21.387  1.00  0.00     0.228 C 
ATOM     13  H   UNL A   1      32.956  27.725  21.021  1.00  0.00     0.169 HD
ATOM     14  O   UNL A   1      32.984  25.508  20.189  1.00  0.00    -0.274 OA
BRANCH  12  15
ATOM     15  C   UNL A   1      32.783  24.674  22.407  1.00  0.00     0.095 C 
ATOM     16  C   UNL A   1      31.333  24.477  22.883  1.00  0.00     0.030 C 
ATOM     17  C   UNL A   1      33.214  23.281  21.977  1.00  0.00     0.150 C 
ATOM     18  C   UNL A   1      31.363  23.346  23.905  1.00  0.00     0.138 C 
ATOM     19  S   UNL A   1      32.733  22.307  23.410  1.00  0.00     0.151 S 
ATOM     20  O   UNL A   1      33.765  22.448  24.423  1.00  0.00    -0.229 OA
ATOM     21  O   UNL A   1      32.232  21.022  22.986  1.00  0.00    -0.229 OA
ENDBRANCH  12  15
ENDBRANCH  10  11
ENDBRANCH   3   5
ENDBRANCH   2   3
ENDBRANCH   1   2
BRANCH   1  22
ATOM     22  C   UNL A   1      32.624  33.454  27.252  1.00  0.00     0.275 C 
BRANCH  22  23
ATOM     23  O   UNL A   1      32.155  34.349  28.280  1.00  0.00    -0.458 OA
BRANCH  23  24
ATOM     24  C   UNL A   1      33.067  35.252  28.727  1.00  0.00     0.338 C 
ATOM     25  O   UNL A   1      32.930  36.463  28.751  1.00  0.00    -0.246 OA
BRANCH  24  26
ATOM     26  C   UNL A   1      34.224  34.548  29.338  1.00  0.00     0.060 A 
ATOM     27  C   UNL A   1      34.023  33.840  30.528  1.00  0.00     0.016 A 
ATOM     28  C   UNL A   1      35.494  34.570  28.760  1.00  0.00     0.016 A 
ATOM     29  C   UNL A   1      35.085  33.157  31.141  1.00  0.00     0.010 A 
ATOM     30  C   UNL A   1      36.549  33.862  29.358  1.00  0.00     0.010 A 
ATOM     31  C   UNL A   1      36.365  33.163  30.570  1.00  0.00    -0.014 A 
BRANCH  31  32
ATOM     32  C   UNL A   1      37.545  32.562  31.268  1.00  0.00     0.031 A 
ATOM     33  C   UNL A   1      38.233  31.371  30.656  1.00  0.00     0.074 A 
ATOM     34  C   UNL A   1      38.005  33.019  32.449  1.00  0.00     0.049 A 
ATOM     35  N   UNL A   1      39.209  30.636  31.132  1.00  0.00    -0.248 NA
ATOM     36  C   UNL A   1      37.760  30.960  29.328  1.00  0.00     0.031 C 
ATOM     37  C   UNL A   1      37.521  34.203  33.142  1.00  0.00     0.029 A 
ATOM     38  N   UNL A   1      38.973  32.518  33.294  1.00  0.00    -0.354 N 
ATOM     39  C   UNL A   1      39.464  29.677  30.163  1.00  0.00     0.074 A 
ATOM     40  C   UNL A   1      38.500  29.887  29.101  1.00  0.00     0.031 C 
ATOM     41  C   UNL A   1      38.120  34.295  34.341  1.00  0.00     0.029 A 
ATOM     42  C   UNL A   1      39.056  33.183  34.495  1.00  0.00     0.049 A 
ATOM     43  H   UNL A   1      39.549  31.756  33.060  1.00  0.00     0.167 HD
ATOM     44  C   UNL A   1      40.427  28.724  30.138  1.00  0.00     0.037 A 
ATOM     45  C   UNL A   1      39.793  32.931  35.598  1.00  0.00     0.037 A 
ATOM     46  C   UNL A   1      41.396  28.505  31.180  1.00  0.00     0.049 A 
ATOM     47  C   UNL A   1      40.795  31.804  35.600  1.00  0.00     0.074 A 
ATOM     48  C   UNL A   1      42.438  27.592  31.206  1.00  0.00     0.029 A 
ATOM     49  N   UNL A   1      41.433  29.184  32.387  1.00  0.00    -0.354 N 
ATOM     50  N   UNL A   1      41.073  30.946  34.650  1.00  0.00    -0.248 NA
ATOM     51  C   UNL A   1      41.608  31.629  36.814  1.00  0.00     0.031 C 
ATOM     52  C   UNL A   1      43.057  27.667  32.457  1.00  0.00     0.029 A 
ATOM     53  C   UNL A   1      42.452  28.679  33.184  1.00  0.00     0.049 A 
ATOM     54  H   UNL A   1      40.827  29.916  32.643  1.00  0.00     0.167 HD
ATOM     55  C   UNL A   1      42.118  30.165  35.130  1.00  0.00     0.074 A 
ATOM     56  C   UNL A   1      42.422  30.643  36.461  1.00  0.00     0.031 C 
ATOM     57  C   UNL A   1      42.772  29.153  34.508  1.00  0.00     0.037 A 
BRANCH  44  58
ATOM     58  C   UNL A   1      40.450  27.814  28.943  1.00  0.00     0.064 A 
ATOM     59  C   UNL A   1      41.234  28.095  27.813  1.00  0.00     0.173 A 
ATOM     60  C   UNL A   1      39.668  26.650  28.927  1.00  0.00     0.173 A 
ATOM     61  F   UNL A   1      41.993  29.201  27.775  1.00  0.00    -0.203 F 
ATOM     62  C   UNL A   1      41.189  27.275  26.690  1.00  0.00     0.198 A 
ATOM     63  C   UNL A   1      39.657  25.812  27.818  1.00  0.00     0.198 A 
ATOM     64  F   UNL A   1      38.909  26.330  29.986  1.00  0.00    -0.203 F 
ATOM     65  F   UNL A   1      41.882  27.606  25.592  1.00  0.00    -0.200 F 
ATOM     66  C   UNL A   1      40.403  26.132  26.694  1.00  0.00     0.200 A 
ATOM     67  F   UNL A   1      38.908  24.699  27.831  1.00  0.00    -0.200 F 
ATOM     68  F   UNL A   1      40.353  25.347  25.610  1.00  0.00    -0.200 F 
ENDBRANCH  44  58
BRANCH  45  69
ATOM     69  C   UNL A   1      39.616  33.779  36.808  1.00  0.00     0.064 A 
ATOM     70  C   UNL A   1      38.774  33.389  37.857  1.00  0.00     0.173 A 
ATOM     71  C   UNL A   1      40.286  35.006  36.931  1.00  0.00     0.173 A 
ATOM     72  F   UNL A   1      38.093  32.237  37.775  1.00  0.00    -0.203 F 
ATOM     73  C   UNL A   1      38.596  34.199  38.978  1.00  0.00     0.198 A 
ATOM     74  C   UNL A   1      40.126  35.805  38.062  1.00  0.00     0.198 A 
ATOM     75  F   UNL A   1      41.107  35.424  35.956  1.00  0.00    -0.203 F 
ATOM     76  F   UNL A   1      37.756  33.820  39.949  1.00  0.00    -0.200 F 
ATOM     77  C   UNL A   1      39.277  35.403  39.083  1.00  0.00     0.200 A 
ATOM     78  F   UNL A   1      40.795  36.961  38.164  1.00  0.00    -0.200 F 
ATOM     79  F   UNL A   1      39.112  36.177  40.163  1.00  0.00    -0.200 F 
ENDBRANCH  45  69
BRANCH  57  80
ATOM     80  C   UNL A   1      43.927  28.504  35.220  1.00  0.00     0.064 A 
ATOM     81  C   UNL A   1      43.765  27.364  36.020  1.00  0.00     0.173 A 
ATOM     82  C   UNL A   1      45.233  28.986  35.030  1.00  0.00     0.173 A 
ATOM     83  F   UNL A   1      42.539  26.868  36.248  1.00  0.00    -0.203 F 
ATOM     84  C   UNL A   1      44.862  26.736  36.605  1.00  0.00     0.198 A 
ATOM     85  C   UNL A   1      46.330  28.339  35.592  1.00  0.00     0.198 A 
ATOM     86  F   UNL A   1      45.449  30.072  34.272  1.00  0.00    -0.203 F 
ATOM     87  F   UNL A   1      44.680  25.664  37.390  1.00  0.00    -0.200 F 
ATOM     88  C   UNL A   1      46.145  27.216  36.382  1.00  0.00     0.200 A 
ATOM     89  F   UNL A   1      47.569  28.795  35.358  1.00  0.00    -0.200 F 
ATOM     90  F   UNL A   1      47.200  26.596  36.928  1.00  0.00    -0.200 F 
ENDBRANCH  57  80
ENDBRANCH  31  32
ENDBRANCH  24  26
ENDBRANCH  23  24
ENDBRANCH  22  23
ENDBRANCH   1  22
TORSDOF 13
ENDMDL
