MODEL 1
REMARK VINA RESULT:     -11.8      0.000      0.000
REMARK SMILES CC[C@](C)(NC(=O)N1Cc2ccccc2C1)C(=O)OCCOC(=O)c1ccc(-c2c3nc(c(-c4c(F)c(F)c(F)c(F)c4F)c4ccc([nH]4)c(-c4c(F)c(F)c(F)c(F)c4F)c4nc(c(-c5c(F)c(F)c(F)c(F)c5F)c5ccc2[nH]5)C=C4)C=C3)cc1
REMARK SMILES IDX 21 1 20 2 19 3 17 4 18 5 3 6 4 7 2 8 1 9 5 10 6 11 7 13 8 14
REMARK SMILES IDX 9 15 16 16 10 17 15 18 11 19 14 20 12 21 13 22 22 23 23 24
REMARK SMILES IDX 24 25 25 26 26 27 87 28 27 29 86 30 28 31 29 32 30 33 80 34
REMARK SMILES IDX 31 35 85 36 79 37 81 38 32 39 84 40 78 41 77 42 33 44 65 45
REMARK SMILES IDX 45 46 64 47 46 48 49 49 63 50 82 51 47 52 48 53 62 55 83 56
REMARK SMILES IDX 50 57 34 58 35 59 43 60 36 61 37 62 41 63 44 64 38 65 39 66
REMARK SMILES IDX 42 67 40 68 66 69 67 70 75 71 68 72 69 73 73 74 76 75 70 76
REMARK SMILES IDX 71 77 74 78 72 79 51 80 52 81 60 82 53 83 54 84 58 85 61 86
REMARK SMILES IDX 55 87 56 88 59 89 57 90
REMARK H PARENT 5 12 81 43 49 54
REMARK Flexibility Score: inf
ROOT
ATOM      1  C   UNL A   1      31.783  30.863  25.978  1.00  0.00     0.275 C 
ENDROOT
BRANCH   1   2
ATOM      2  C   UNL A   1      31.413  29.485  25.438  1.00  0.00     0.274 C 
BRANCH   2   3
ATOM      3  O   UNL A   1      32.397  28.491  25.786  1.00  0.00    -0.460 OA
BRANCH   3   4
ATOM      4  C   UNL A   1      31.954  27.393  26.461  1.00  0.00     0.331 C 
ATOM      5  O   UNL A   1      31.420  27.447  27.566  1.00  0.00    -0.249 OA
BRANCH   4   6
ATOM      6  C   UNL A   1      32.318  26.053  25.745  1.00  0.00     0.136 C 
ATOM      7  C   UNL A   1      32.201  24.883  26.738  1.00  0.00     0.047 C 
BRANCH   6   8
ATOM      8  C   UNL A   1      33.789  26.174  25.254  1.00  0.00     0.037 C 
ATOM      9  C   UNL A   1      34.575  24.870  25.137  1.00  0.00     0.007 C 
ENDBRANCH   6   8
BRANCH   6  10
ATOM     10  N   UNL A   1      31.465  25.865  24.541  1.00  0.00    -0.322 N 
ATOM     11  C   UNL A   1      30.102  25.993  24.544  1.00  0.00     0.318 C 
ATOM     12  H   UNL A   1      31.908  25.633  23.692  1.00  0.00     0.166 HD
ATOM     13  O   UNL A   1      29.404  25.565  25.457  1.00  0.00    -0.249 OA
ATOM     14  N   UNL A   1      29.582  26.711  23.493  1.00  0.00    -0.316 N 
ATOM     15  C   UNL A   1      28.205  27.202  23.599  1.00  0.00     0.157 C 
ATOM     16  C   UNL A   1      30.323  27.493  22.497  1.00  0.00     0.157 C 
ATOM     17  C   UNL A   1      28.331  28.615  23.107  1.00  0.00    -0.023 A 
ATOM     18  C   UNL A   1      29.567  28.785  22.468  1.00  0.00    -0.023 A 
ATOM     19  C   UNL A   1      27.465  29.679  23.289  1.00  0.00     0.006 A 
ATOM     20  C   UNL A   1      29.959  30.022  21.984  1.00  0.00     0.006 A 
ATOM     21  C   UNL A   1      27.862  30.936  22.825  1.00  0.00     0.000 A 
ATOM     22  C   UNL A   1      29.097  31.105  22.175  1.00  0.00     0.000 A 
ENDBRANCH   6  10
ENDBRANCH   4   6
ENDBRANCH   3   4
ENDBRANCH   2   3
ENDBRANCH   1   2
BRANCH   1  23
ATOM     23  O   UNL A   1      33.155  30.873  26.395  1.00  0.00    -0.458 OA
BRANCH  23  24
ATOM     24  C   UNL A   1      33.492  31.855  27.253  1.00  0.00     0.338 C 
ATOM     25  O   UNL A   1      32.974  32.954  27.392  1.00  0.00    -0.246 OA
BRANCH  24  26
ATOM     26  C   UNL A   1      34.669  31.445  28.011  1.00  0.00     0.060 A 
ATOM     27  C   UNL A   1      35.670  32.373  28.290  1.00  0.00     0.016 A 
ATOM     28  C   UNL A   1      34.806  30.107  28.376  1.00  0.00     0.016 A 
ATOM     29  C   UNL A   1      36.840  31.958  28.903  1.00  0.00     0.010 A 
ATOM     30  C   UNL A   1      35.946  29.705  29.064  1.00  0.00     0.010 A 
ATOM     31  C   UNL A   1      36.972  30.629  29.322  1.00  0.00    -0.014 A 
BRANCH  31  32
ATOM     32  C   UNL A   1      38.179  30.227  30.071  1.00  0.00     0.031 A 
ATOM     33  C   UNL A   1      39.204  29.346  29.431  1.00  0.00     0.074 A 
ATOM     34  C   UNL A   1      38.329  30.682  31.329  1.00  0.00     0.049 A 
ATOM     35  N   UNL A   1      40.280  28.818  29.954  1.00  0.00    -0.248 NA
ATOM     36  C   UNL A   1      38.988  29.000  28.016  1.00  0.00     0.031 C 
ATOM     37  C   UNL A   1      37.384  31.563  32.020  1.00  0.00     0.029 A 
ATOM     38  N   UNL A   1      39.331  30.489  32.239  1.00  0.00    -0.354 N 
ATOM     39  C   UNL A   1      40.841  28.039  28.952  1.00  0.00     0.074 A 
ATOM     40  C   UNL A   1      39.992  28.166  27.787  1.00  0.00     0.031 C 
ATOM     41  C   UNL A   1      37.877  31.874  33.227  1.00  0.00     0.029 A 
ATOM     42  C   UNL A   1      39.134  31.164  33.418  1.00  0.00     0.049 A 
ATOM     43  H   UNL A   1      40.118  29.923  32.066  1.00  0.00     0.167 HD
ATOM     44  C   UNL A   1      41.962  27.282  29.016  1.00  0.00     0.037 A 
ATOM     45  C   UNL A   1      39.883  31.188  34.534  1.00  0.00     0.037 A 
ATOM     46  C   UNL A   1      42.805  27.204  30.182  1.00  0.00     0.049 A 
ATOM     47  C   UNL A   1      41.139  30.367  34.563  1.00  0.00     0.074 A 
ATOM     48  C   UNL A   1      43.960  26.467  30.371  1.00  0.00     0.029 A 
ATOM     49  N   UNL A   1      42.582  27.907  31.360  1.00  0.00    -0.354 N 
ATOM     50  N   UNL A   1      41.645  29.602  33.626  1.00  0.00    -0.248 NA
ATOM     51  C   UNL A   1      41.922  30.402  35.803  1.00  0.00     0.031 C 
ATOM     52  C   UNL A   1      44.422  26.705  31.671  1.00  0.00     0.029 A 
ATOM     53  C   UNL A   1      43.577  27.620  32.280  1.00  0.00     0.049 A 
ATOM     54  H   UNL A   1      41.828  28.520  31.517  1.00  0.00     0.167 HD
ATOM     55  C   UNL A   1      42.808  29.069  34.156  1.00  0.00     0.074 A 
ATOM     56  C   UNL A   1      42.946  29.622  35.490  1.00  0.00     0.031 C 
ATOM     57  C   UNL A   1      43.680  28.194  33.598  1.00  0.00     0.037 A 
BRANCH  44  58
ATOM     58  C   UNL A   1      42.304  26.450  27.816  1.00  0.00     0.064 A 
ATOM     59  C   UNL A   1      41.717  25.196  27.588  1.00  0.00     0.173 A 
ATOM     60  C   UNL A   1      43.236  26.917  26.876  1.00  0.00     0.173 A 
ATOM     61  F   UNL A   1      40.833  24.695  28.464  1.00  0.00    -0.203 F 
ATOM     62  C   UNL A   1      42.071  24.431  26.478  1.00  0.00     0.198 A 
ATOM     63  C   UNL A   1      43.569  26.160  25.756  1.00  0.00     0.198 A 
ATOM     64  F   UNL A   1      43.827  28.110  27.045  1.00  0.00    -0.203 F 
ATOM     65  F   UNL A   1      41.534  23.215  26.306  1.00  0.00    -0.200 F 
ATOM     66  C   UNL A   1      42.993  24.914  25.562  1.00  0.00     0.200 A 
ATOM     67  F   UNL A   1      44.453  26.634  24.867  1.00  0.00    -0.200 F 
ATOM     68  F   UNL A   1      43.332  24.176  24.496  1.00  0.00    -0.200 F 
ENDBRANCH  44  58
BRANCH  45  69
ATOM     69  C   UNL A   1      39.462  32.023  35.688  1.00  0.00     0.064 A 
ATOM     70  C   UNL A   1      39.959  33.323  35.854  1.00  0.00     0.173 A 
ATOM     71  C   UNL A   1      38.525  31.559  36.624  1.00  0.00     0.173 A 
ATOM     72  F   UNL A   1      40.870  33.806  34.996  1.00  0.00    -0.203 F 
ATOM     73  C   UNL A   1      39.540  34.123  36.914  1.00  0.00     0.198 A 
ATOM     74  C   UNL A   1      38.086  32.371  37.667  1.00  0.00     0.198 A 
ATOM     75  F   UNL A   1      38.013  30.325  36.506  1.00  0.00    -0.203 F 
ATOM     76  F   UNL A   1      40.055  35.351  37.067  1.00  0.00    -0.200 F 
ATOM     77  C   UNL A   1      38.597  33.651  37.814  1.00  0.00     0.200 A 
ATOM     78  F   UNL A   1      37.160  31.916  38.523  1.00  0.00    -0.200 F 
ATOM     79  F   UNL A   1      38.183  34.427  38.825  1.00  0.00    -0.200 F 
ENDBRANCH  45  69
BRANCH  57  80
ATOM     80  C   UNL A   1      44.863  27.810  34.431  1.00  0.00     0.064 A 
ATOM     81  C   UNL A   1      46.056  28.546  34.392  1.00  0.00     0.173 A 
ATOM     82  C   UNL A   1      44.797  26.699  35.285  1.00  0.00     0.173 A 
ATOM     83  F   UNL A   1      46.168  29.605  33.576  1.00  0.00    -0.203 F 
ATOM     84  C   UNL A   1      47.153  28.165  35.157  1.00  0.00     0.198 A 
ATOM     85  C   UNL A   1      45.889  26.336  36.066  1.00  0.00     0.198 A 
ATOM     86  F   UNL A   1      43.676  25.967  35.357  1.00  0.00    -0.203 F 
ATOM     87  F   UNL A   1      48.300  28.852  35.068  1.00  0.00    -0.200 F 
ATOM     88  C   UNL A   1      47.067  27.064  35.996  1.00  0.00     0.200 A 
ATOM     89  F   UNL A   1      45.804  25.276  36.882  1.00  0.00    -0.200 F 
ATOM     90  F   UNL A   1      48.127  26.697  36.730  1.00  0.00    -0.200 F 
ENDBRANCH  57  80
ENDBRANCH  31  32
ENDBRANCH  24  26
ENDBRANCH  23  24
ENDBRANCH   1  23
TORSDOF 13
ENDMDL
MODEL 2
REMARK VINA RESULT:     -11.8      0.321      7.456
REMARK SMILES CC[C@](C)(NC(=O)N1Cc2ccccc2C1)C(=O)OCCOC(=O)c1ccc(-c2c3nc(c(-c4c(F)c(F)c(F)c(F)c4F)c4ccc([nH]4)c(-c4c(F)c(F)c(F)c(F)c4F)c4nc(c(-c5c(F)c(F)c(F)c(F)c5F)c5ccc2[nH]5)C=C4)C=C3)cc1
REMARK SMILES IDX 21 1 20 2 19 3 17 4 18 5 3 6 4 7 2 8 1 9 5 10 6 11 7 13 8 14
REMARK SMILES IDX 9 15 16 16 10 17 15 18 11 19 14 20 12 21 13 22 22 23 23 24
REMARK SMILES IDX 24 25 25 26 26 27 87 28 27 29 86 30 28 31 29 32 30 33 80 34
REMARK SMILES IDX 31 35 85 36 79 37 81 38 32 39 84 40 78 41 77 42 33 44 65 45
REMARK SMILES IDX 45 46 64 47 46 48 49 49 63 50 82 51 47 52 48 53 62 55 83 56
REMARK SMILES IDX 50 57 34 58 35 59 43 60 36 61 37 62 41 63 44 64 38 65 39 66
REMARK SMILES IDX 42 67 40 68 66 69 67 70 75 71 68 72 69 73 73 74 76 75 70 76
REMARK SMILES IDX 71 77 74 78 72 79 51 80 52 81 60 82 53 83 54 84 58 85 61 86
REMARK SMILES IDX 55 87 56 88 59 89 57 90
REMARK H PARENT 5 12 81 43 49 54
REMARK Flexibility Score: inf
ROOT
ATOM      1  C   UNL A   1      31.717  30.895  26.202  1.00  0.00     0.275 C 
ENDROOT
BRANCH   1   2
ATOM      2  C   UNL A   1      31.396  29.598  25.467  1.00  0.00     0.274 C 
BRANCH   2   3
ATOM      3  O   UNL A   1      32.371  28.572  25.738  1.00  0.00    -0.460 OA
BRANCH   3   4
ATOM      4  C   UNL A   1      31.949  27.492  26.456  1.00  0.00     0.331 C 
ATOM      5  O   UNL A   1      31.438  27.578  27.569  1.00  0.00    -0.249 OA
BRANCH   4   6
ATOM      6  C   UNL A   1      32.306  26.133  25.775  1.00  0.00     0.136 C 
ATOM      7  C   UNL A   1      32.154  24.986  26.789  1.00  0.00     0.047 C 
BRANCH   6   8
ATOM      8  C   UNL A   1      33.788  26.223  25.309  1.00  0.00     0.037 C 
ATOM      9  C   UNL A   1      34.406  24.938  24.760  1.00  0.00     0.007 C 
ENDBRANCH   6   8
BRANCH   6  10
ATOM     10  N   UNL A   1      31.473  25.931  24.560  1.00  0.00    -0.322 N 
ATOM     11  C   UNL A   1      30.108  26.027  24.546  1.00  0.00     0.318 C 
ATOM     12  H   UNL A   1      31.931  25.715  23.715  1.00  0.00     0.166 HD
ATOM     13  O   UNL A   1      29.409  25.577  25.449  1.00  0.00    -0.249 OA
ATOM     14  N   UNL A   1      29.584  26.738  23.493  1.00  0.00    -0.316 N 
ATOM     15  C   UNL A   1      28.194  27.197  23.584  1.00  0.00     0.157 C 
ATOM     16  C   UNL A   1      30.318  27.543  22.511  1.00  0.00     0.157 C 
ATOM     17  C   UNL A   1      28.293  28.615  23.102  1.00  0.00    -0.023 A 
ATOM     18  C   UNL A   1      29.532  28.817  22.479  1.00  0.00    -0.023 A 
ATOM     19  C   UNL A   1      27.400  29.658  23.278  1.00  0.00     0.006 A 
ATOM     20  C   UNL A   1      29.900  30.066  22.006  1.00  0.00     0.006 A 
ATOM     21  C   UNL A   1      27.772  30.926  22.826  1.00  0.00     0.000 A 
ATOM     22  C   UNL A   1      29.011  31.127  22.193  1.00  0.00     0.000 A 
ENDBRANCH   6  10
ENDBRANCH   4   6
ENDBRANCH   3   4
ENDBRANCH   2   3
ENDBRANCH   1   2
BRANCH   1  23
ATOM     23  O   UNL A   1      33.133  31.004  26.403  1.00  0.00    -0.458 OA
BRANCH  23  24
ATOM     24  C   UNL A   1      33.519  31.935  27.297  1.00  0.00     0.338 C 
ATOM     25  O   UNL A   1      33.037  33.039  27.503  1.00  0.00    -0.246 OA
BRANCH  24  26
ATOM     26  C   UNL A   1      34.704  31.458  28.002  1.00  0.00     0.060 A 
ATOM     27  C   UNL A   1      34.789  30.123  28.390  1.00  0.00     0.016 A 
ATOM     28  C   UNL A   1      35.701  32.371  28.344  1.00  0.00     0.016 A 
ATOM     29  C   UNL A   1      35.855  29.697  29.163  1.00  0.00     0.010 A 
ATOM     30  C   UNL A   1      36.813  31.927  29.052  1.00  0.00     0.010 A 
ATOM     31  C   UNL A   1      36.889  30.589  29.471  1.00  0.00    -0.014 A 
BRANCH  31  32
ATOM     32  C   UNL A   1      38.073  30.094  30.202  1.00  0.00     0.031 A 
ATOM     33  C   UNL A   1      38.295  30.485  31.629  1.00  0.00     0.074 A 
ATOM     34  C   UNL A   1      38.927  29.280  29.554  1.00  0.00     0.049 A 
ATOM     35  N   UNL A   1      39.313  30.223  32.405  1.00  0.00    -0.248 NA
ATOM     36  C   UNL A   1      37.239  31.288  32.266  1.00  0.00     0.031 C 
ATOM     37  C   UNL A   1      38.772  28.833  28.167  1.00  0.00     0.029 A 
ATOM     38  N   UNL A   1      40.077  28.669  29.974  1.00  0.00    -0.354 N 
ATOM     39  C   UNL A   1      39.047  30.870  33.604  1.00  0.00     0.074 A 
ATOM     40  C   UNL A   1      37.769  31.532  33.456  1.00  0.00     0.031 C 
ATOM     41  C   UNL A   1      39.760  27.980  27.867  1.00  0.00     0.029 A 
ATOM     42  C   UNL A   1      40.652  27.874  29.014  1.00  0.00     0.049 A 
ATOM     43  H   UNL A   1      40.455  28.787  30.875  1.00  0.00     0.167 HD
ATOM     44  C   UNL A   1      39.815  30.907  34.718  1.00  0.00     0.037 A 
ATOM     45  C   UNL A   1      41.786  27.152  29.057  1.00  0.00     0.037 A 
ATOM     46  C   UNL A   1      41.069  30.207  34.846  1.00  0.00     0.049 A 
ATOM     47  C   UNL A   1      42.599  27.184  30.318  1.00  0.00     0.074 A 
ATOM     48  C   UNL A   1      41.940  30.175  35.920  1.00  0.00     0.029 A 
ATOM     49  N   UNL A   1      41.622  29.402  33.857  1.00  0.00    -0.354 N 
ATOM     50  N   UNL A   1      42.361  27.829  31.436  1.00  0.00    -0.248 NA
ATOM     51  C   UNL A   1      43.839  26.401  30.325  1.00  0.00     0.031 C 
ATOM     52  C   UNL A   1      43.031  29.370  35.572  1.00  0.00     0.029 A 
ATOM     53  C   UNL A   1      42.822  28.869  34.296  1.00  0.00     0.049 A 
ATOM     54  H   UNL A   1      41.218  29.234  32.975  1.00  0.00     0.167 HD
ATOM     55  C   UNL A   1      43.415  27.525  32.282  1.00  0.00     0.074 A 
ATOM     56  C   UNL A   1      44.281  26.616  31.555  1.00  0.00     0.031 C 
ATOM     57  C   UNL A   1      43.654  27.964  33.542  1.00  0.00     0.037 A 
BRANCH  44  58
ATOM     58  C   UNL A   1      39.344  31.764  35.856  1.00  0.00     0.064 A 
ATOM     59  C   UNL A   1      38.401  31.309  36.790  1.00  0.00     0.173 A 
ATOM     60  C   UNL A   1      39.847  33.065  36.013  1.00  0.00     0.173 A 
ATOM     61  F   UNL A   1      37.876  30.080  36.675  1.00  0.00    -0.203 F 
ATOM     62  C   UNL A   1      37.961  32.135  37.823  1.00  0.00     0.198 A 
ATOM     63  C   UNL A   1      39.423  33.878  37.061  1.00  0.00     0.198 A 
ATOM     64  F   UNL A   1      40.751  33.550  35.149  1.00  0.00    -0.203 F 
ATOM     65  F   UNL A   1      37.023  31.697  38.676  1.00  0.00    -0.200 F 
ATOM     66  C   UNL A   1      38.474  33.416  37.960  1.00  0.00     0.200 A 
ATOM     67  F   UNL A   1      39.927  35.112  37.196  1.00  0.00    -0.200 F 
ATOM     68  F   UNL A   1      38.048  34.208  38.954  1.00  0.00    -0.200 F 
ENDBRANCH  44  58
BRANCH  45  69
ATOM     69  C   UNL A   1      42.194  26.346  27.879  1.00  0.00     0.064 A 
ATOM     70  C   UNL A   1      43.128  26.840  26.959  1.00  0.00     0.173 A 
ATOM     71  C   UNL A   1      41.696  25.051  27.671  1.00  0.00     0.173 A 
ATOM     72  F   UNL A   1      43.621  28.079  27.105  1.00  0.00    -0.203 F 
ATOM     73  C   UNL A   1      43.543  26.073  25.872  1.00  0.00     0.198 A 
ATOM     74  C   UNL A   1      42.133  24.274  26.600  1.00  0.00     0.198 A 
ATOM     75  F   UNL A   1      40.805  24.528  28.527  1.00  0.00    -0.203 F 
ATOM     76  F   UNL A   1      44.413  26.582  24.990  1.00  0.00    -0.200 F 
ATOM     77  C   UNL A   1      43.052  24.788  25.698  1.00  0.00     0.200 A 
ATOM     78  F   UNL A   1      41.669  23.026  26.447  1.00  0.00    -0.200 F 
ATOM     79  F   UNL A   1      43.462  24.045  24.661  1.00  0.00    -0.200 F 
ENDBRANCH  45  69
BRANCH  57  80
ATOM     80  C   UNL A   1      44.890  27.442  34.206  1.00  0.00     0.064 A 
ATOM     81  C   UNL A   1      44.866  26.273  34.981  1.00  0.00     0.173 A 
ATOM     82  C   UNL A   1      46.112  28.113  34.057  1.00  0.00     0.173 A 
ATOM     83  F   UNL A   1      43.714  25.610  35.165  1.00  0.00    -0.203 F 
ATOM     84  C   UNL A   1      46.018  25.811  35.608  1.00  0.00     0.198 A 
ATOM     85  C   UNL A   1      47.266  27.634  34.666  1.00  0.00     0.198 A 
ATOM     86  F   UNL A   1      46.183  29.234  33.323  1.00  0.00    -0.203 F 
ATOM     87  F   UNL A   1      45.963  24.721  36.385  1.00  0.00    -0.200 F 
ATOM     88  C   UNL A   1      47.217  26.489  35.446  1.00  0.00     0.200 A 
ATOM     89  F   UNL A   1      48.427  28.285  34.504  1.00  0.00    -0.200 F 
ATOM     90  F   UNL A   1      48.325  26.043  36.054  1.00  0.00    -0.200 F 
ENDBRANCH  57  80
ENDBRANCH  31  32
ENDBRANCH  24  26
ENDBRANCH  23  24
ENDBRANCH   1  23
TORSDOF 13
ENDMDL
MODEL 3
REMARK VINA RESULT:     -11.6      5.112     10.304
REMARK SMILES CC[C@](C)(NC(=O)N1Cc2ccccc2C1)C(=O)OCCOC(=O)c1ccc(-c2c3nc(c(-c4c(F)c(F)c(F)c(F)c4F)c4ccc([nH]4)c(-c4c(F)c(F)c(F)c(F)c4F)c4nc(c(-c5c(F)c(F)c(F)c(F)c5F)c5ccc2[nH]5)C=C4)C=C3)cc1
REMARK SMILES IDX 21 1 20 2 19 3 17 4 18 5 3 6 4 7 2 8 1 9 5 10 6 11 7 13 8 14
REMARK SMILES IDX 9 15 16 16 10 17 15 18 11 19 14 20 12 21 13 22 22 23 23 24
REMARK SMILES IDX 24 25 25 26 26 27 87 28 27 29 86 30 28 31 29 32 30 33 80 34
REMARK SMILES IDX 31 35 85 36 79 37 81 38 32 39 84 40 78 41 77 42 33 44 65 45
REMARK SMILES IDX 45 46 64 47 46 48 49 49 63 50 82 51 47 52 48 53 62 55 83 56
REMARK SMILES IDX 50 57 34 58 35 59 43 60 36 61 37 62 41 63 44 64 38 65 39 66
REMARK SMILES IDX 42 67 40 68 66 69 67 70 75 71 68 72 69 73 73 74 76 75 70 76
REMARK SMILES IDX 71 77 74 78 72 79 51 80 52 81 60 82 53 83 54 84 58 85 61 86
REMARK SMILES IDX 55 87 56 88 59 89 57 90
REMARK H PARENT 5 12 81 43 49 54
REMARK Flexibility Score: inf
ROOT
ATOM      1  C   UNL A   1      37.420  20.410  25.036  1.00  0.00     0.275 C 
ENDROOT
BRANCH   1   2
ATOM      2  C   UNL A   1      35.948  20.731  24.799  1.00  0.00     0.274 C 
BRANCH   2   3
ATOM      3  O   UNL A   1      35.654  22.118  25.059  1.00  0.00    -0.460 OA
BRANCH   3   4
ATOM      4  C   UNL A   1      35.339  22.895  23.984  1.00  0.00     0.331 C 
ATOM      5  O   UNL A   1      36.052  22.993  22.989  1.00  0.00    -0.249 OA
BRANCH   4   6
ATOM      6  C   UNL A   1      34.050  23.748  24.208  1.00  0.00     0.136 C 
ATOM      7  C   UNL A   1      33.995  24.888  23.177  1.00  0.00     0.047 C 
BRANCH   6   8
ATOM      8  C   UNL A   1      34.134  24.346  25.642  1.00  0.00     0.037 C 
ATOM      9  C   UNL A   1      34.031  25.867  25.750  1.00  0.00     0.007 C 
ENDBRANCH   6   8
BRANCH   6  10
ATOM     10  N   UNL A   1      32.844  22.880  24.162  1.00  0.00    -0.322 N 
ATOM     11  C   UNL A   1      32.552  22.034  23.126  1.00  0.00     0.318 C 
ATOM     12  H   UNL A   1      32.217  22.917  24.921  1.00  0.00     0.166 HD
ATOM     13  O   UNL A   1      32.722  22.349  21.952  1.00  0.00    -0.249 OA
ATOM     14  N   UNL A   1      32.139  20.777  23.499  1.00  0.00    -0.316 N 
ATOM     15  C   UNL A   1      32.153  19.711  22.493  1.00  0.00     0.157 C 
ATOM     16  C   UNL A   1      32.154  20.199  24.847  1.00  0.00     0.157 C 
ATOM     17  C   UNL A   1      32.766  18.567  23.248  1.00  0.00    -0.023 A 
ATOM     18  C   UNL A   1      32.769  18.854  24.619  1.00  0.00    -0.023 A 
ATOM     19  C   UNL A   1      33.350  17.414  22.754  1.00  0.00     0.006 A 
ATOM     20  C   UNL A   1      33.346  17.985  25.531  1.00  0.00     0.006 A 
ATOM     21  C   UNL A   1      33.956  16.543  23.663  1.00  0.00     0.000 A 
ATOM     22  C   UNL A   1      33.951  16.825  25.040  1.00  0.00     0.000 A 
ENDBRANCH   6  10
ENDBRANCH   4   6
ENDBRANCH   3   4
ENDBRANCH   2   3
ENDBRANCH   1   2
BRANCH   1  23
ATOM     23  O   UNL A   1      38.035  21.463  25.791  1.00  0.00    -0.458 OA
BRANCH  23  24
ATOM     24  C   UNL A   1      39.302  21.227  26.186  1.00  0.00     0.338 C 
ATOM     25  O   UNL A   1      39.860  20.152  26.348  1.00  0.00    -0.246 OA
BRANCH  24  26
ATOM     26  C   UNL A   1      39.957  22.498  26.473  1.00  0.00     0.060 A 
ATOM     27  C   UNL A   1      41.175  22.513  27.150  1.00  0.00     0.016 A 
ATOM     28  C   UNL A   1      39.310  23.685  26.131  1.00  0.00     0.016 A 
ATOM     29  C   UNL A   1      41.737  23.720  27.529  1.00  0.00     0.010 A 
ATOM     30  C   UNL A   1      39.914  24.900  26.440  1.00  0.00     0.010 A 
ATOM     31  C   UNL A   1      41.126  24.920  27.148  1.00  0.00    -0.014 A 
BRANCH  31  32
ATOM     32  C   UNL A   1      41.794  26.199  27.464  1.00  0.00     0.031 A 
ATOM     33  C   UNL A   1      41.114  27.209  28.333  1.00  0.00     0.074 A 
ATOM     34  C   UNL A   1      43.022  26.417  26.960  1.00  0.00     0.049 A 
ATOM     35  N   UNL A   1      41.500  28.417  28.649  1.00  0.00    -0.248 NA
ATOM     36  C   UNL A   1      39.822  26.815  28.917  1.00  0.00     0.031 C 
ATOM     37  C   UNL A   1      43.764  25.474  26.119  1.00  0.00     0.029 A 
ATOM     38  N   UNL A   1      43.870  27.482  27.093  1.00  0.00    -0.354 N 
ATOM     39  C   UNL A   1      40.479  28.947  29.425  1.00  0.00     0.074 A 
ATOM     40  C   UNL A   1      39.457  27.929  29.537  1.00  0.00     0.031 C 
ATOM     41  C   UNL A   1      44.976  25.981  25.854  1.00  0.00     0.029 A 
ATOM     42  C   UNL A   1      45.069  27.308  26.447  1.00  0.00     0.049 A 
ATOM     43  H   UNL A   1      43.644  28.294  27.602  1.00  0.00     0.167 HD
ATOM     44  C   UNL A   1      40.409  30.180  29.979  1.00  0.00     0.037 A 
ATOM     45  C   UNL A   1      46.119  28.141  26.336  1.00  0.00     0.037 A 
ATOM     46  C   UNL A   1      41.460  31.161  29.877  1.00  0.00     0.049 A 
ATOM     47  C   UNL A   1      46.027  29.488  26.992  1.00  0.00     0.074 A 
ATOM     48  C   UNL A   1      41.502  32.445  30.387  1.00  0.00     0.029 A 
ATOM     49  N   UNL A   1      42.668  30.951  29.222  1.00  0.00    -0.354 N 
ATOM     50  N   UNL A   1      45.042  29.998  27.692  1.00  0.00    -0.248 NA
ATOM     51  C   UNL A   1      47.182  30.378  26.835  1.00  0.00     0.031 C 
ATOM     52  C   UNL A   1      42.725  33.021  30.020  1.00  0.00     0.029 A 
ATOM     53  C   UNL A   1      43.461  32.082  29.314  1.00  0.00     0.049 A 
ATOM     54  H   UNL A   1      42.922  30.119  28.760  1.00  0.00     0.167 HD
ATOM     55  C   UNL A   1      45.458  31.266  28.067  1.00  0.00     0.074 A 
ATOM     56  C   UNL A   1      46.798  31.434  27.538  1.00  0.00     0.031 C 
ATOM     57  C   UNL A   1      44.792  32.209  28.775  1.00  0.00     0.037 A 
BRANCH  44  58
ATOM     58  C   UNL A   1      39.143  30.546  30.696  1.00  0.00     0.064 A 
ATOM     59  C   UNL A   1      38.042  31.101  30.025  1.00  0.00     0.173 A 
ATOM     60  C   UNL A   1      39.029  30.336  32.079  1.00  0.00     0.173 A 
ATOM     61  F   UNL A   1      38.105  31.338  28.707  1.00  0.00    -0.203 F 
ATOM     62  C   UNL A   1      36.887  31.456  30.719  1.00  0.00     0.198 A 
ATOM     63  C   UNL A   1      37.864  30.669  32.763  1.00  0.00     0.198 A 
ATOM     64  F   UNL A   1      40.052  29.807  32.768  1.00  0.00    -0.203 F 
ATOM     65  F   UNL A   1      35.865  32.029  30.066  1.00  0.00    -0.200 F 
ATOM     66  C   UNL A   1      36.796  31.236  32.085  1.00  0.00     0.200 A 
ATOM     67  F   UNL A   1      37.776  30.447  34.082  1.00  0.00    -0.200 F 
ATOM     68  F   UNL A   1      35.684  31.580  32.749  1.00  0.00    -0.200 F 
ENDBRANCH  44  58
BRANCH  45  69
ATOM     69  C   UNL A   1      47.328  27.710  25.591  1.00  0.00     0.064 A 
ATOM     70  C   UNL A   1      47.388  27.818  24.195  1.00  0.00     0.173 A 
ATOM     71  C   UNL A   1      48.464  27.225  26.256  1.00  0.00     0.173 A 
ATOM     72  F   UNL A   1      46.322  28.260  23.511  1.00  0.00    -0.203 F 
ATOM     73  C   UNL A   1      48.534  27.450  23.493  1.00  0.00     0.198 A 
ATOM     74  C   UNL A   1      49.619  26.884  25.556  1.00  0.00     0.198 A 
ATOM     75  F   UNL A   1      48.462  27.109  27.593  1.00  0.00    -0.203 F 
ATOM     76  F   UNL A   1      48.553  27.533  22.155  1.00  0.00    -0.200 F 
ATOM     77  C   UNL A   1      49.652  26.992  24.174  1.00  0.00     0.200 A 
ATOM     78  F   UNL A   1      50.703  26.461  26.221  1.00  0.00    -0.200 F 
ATOM     79  F   UNL A   1      50.759  26.653  23.499  1.00  0.00    -0.200 F 
ENDBRANCH  45  69
BRANCH  57  80
ATOM     80  C   UNL A   1      45.523  33.491  29.029  1.00  0.00     0.064 A 
ATOM     81  C   UNL A   1      46.336  33.659  30.159  1.00  0.00     0.173 A 
ATOM     82  C   UNL A   1      45.416  34.559  28.125  1.00  0.00     0.173 A 
ATOM     83  F   UNL A   1      46.453  32.670  31.058  1.00  0.00    -0.203 F 
ATOM     84  C   UNL A   1      46.994  34.862  30.390  1.00  0.00     0.198 A 
ATOM     85  C   UNL A   1      46.094  35.752  28.348  1.00  0.00     0.198 A 
ATOM     86  F   UNL A   1      44.651  34.442  27.029  1.00  0.00    -0.203 F 
ATOM     87  F   UNL A   1      47.725  35.020  31.501  1.00  0.00    -0.200 F 
ATOM     88  C   UNL A   1      46.876  35.905  29.484  1.00  0.00     0.200 A 
ATOM     89  F   UNL A   1      45.985  36.757  27.469  1.00  0.00    -0.200 F 
ATOM     90  F   UNL A   1      47.508  37.065  29.711  1.00  0.00    -0.200 F 
ENDBRANCH  57  80
ENDBRANCH  31  32
ENDBRANCH  24  26
ENDBRANCH  23  24
ENDBRANCH   1  23
TORSDOF 13
ENDMDL
