MODEL 1
REMARK VINA RESULT:     -13.7      0.000      0.000
REMARK SMILES CN1N[C@H](C(=O)N[C@@H](CC2=c3ccccc3=NC2)C(=O)OCCOC(=O)c2ccc(-c3c4nc(c(-c5c(F)c(F)c(F)c(F)c5F)c5ccc([nH]5)c(-c5c(F)c(F)c(F)c(F)c5F)c5nc(c(-c6c(F)c(F)c(F)c(F)c6F)c6ccc3[nH]6)C=C5)C=C4)cc2)c2ccccc2C1=O
REMARK SMILES IDX 22 1 21 2 19 3 20 4 8 5 7 6 5 7 6 8 4 10 1 11 2 12 3 13
REMARK SMILES IDX 96 14 95 16 97 17 90 18 94 19 91 20 93 21 92 22 9 23 10 24
REMARK SMILES IDX 11 25 18 26 12 27 16 28 17 29 13 30 15 31 14 32 23 33 24 34
REMARK SMILES IDX 25 35 26 36 27 37 28 38 89 39 29 40 88 41 30 42 31 43 32 44
REMARK SMILES IDX 82 45 33 46 87 47 81 48 83 49 34 50 86 51 80 52 79 53 35 55
REMARK SMILES IDX 67 56 47 57 66 58 48 59 51 60 65 61 84 62 49 63 50 64 64 66
REMARK SMILES IDX 85 67 52 68 36 69 37 70 45 71 38 72 39 73 43 74 46 75 40 76
REMARK SMILES IDX 41 77 44 78 42 79 68 80 69 81 77 82 70 83 71 84 75 85 78 86
REMARK SMILES IDX 72 87 73 88 76 89 74 90 53 91 54 92 62 93 55 94 56 95 60 96
REMARK SMILES IDX 63 97 57 98 58 99 61 100 59 101
REMARK H PARENT 7 9 3 15 83 54 51 65
REMARK Flexibility Score: inf
ROOT
ATOM      1  C   UNL A   1      31.767  29.236  25.418  1.00  0.00     0.274 C 
ENDROOT
BRANCH   1   2
ATOM      2  O   UNL A   1      32.503  28.205  26.107  1.00  0.00    -0.461 OA
BRANCH   2   3
ATOM      3  C   UNL A   1      31.743  27.356  26.848  1.00  0.00     0.329 C 
ATOM      4  O   UNL A   1      31.241  27.646  27.931  1.00  0.00    -0.250 OA
BRANCH   3   5
ATOM      5  C   UNL A   1      31.607  25.951  26.244  1.00  0.00     0.196 C 
BRANCH   5   6
ATOM      6  N   UNL A   1      31.665  24.808  27.167  1.00  0.00    -0.341 N 
ATOM      7  C   UNL A   1      32.221  23.569  27.051  1.00  0.00     0.244 C 
ATOM      8  O   UNL A   1      31.803  22.692  27.816  1.00  0.00    -0.273 OA
ATOM      9  H   UNL A   1      31.217  24.967  28.029  1.00  0.00     0.164 HD
BRANCH   7  10
ATOM     10  C   UNL A   1      33.430  23.281  26.136  1.00  0.00     0.195 C 
ATOM     11  C   UNL A   1      37.042  23.946  26.128  1.00  0.00     0.169 C 
ATOM     12  N   UNL A   1      35.834  23.139  26.105  1.00  0.00    -0.276 N 
ATOM     13  N   UNL A   1      34.695  23.584  26.840  1.00  0.00    -0.215 NA
ATOM     14  C   UNL A   1      35.881  21.845  25.579  1.00  0.00     0.268 C 
ATOM     15  H   UNL A   1      34.764  24.593  26.974  1.00  0.00     0.149 HD
ATOM     16  C   UNL A   1      34.571  21.191  25.326  1.00  0.00     0.046 A 
ATOM     17  O   UNL A   1      36.924  21.267  25.286  1.00  0.00    -0.268 OA
ATOM     18  C   UNL A   1      33.380  21.876  25.581  1.00  0.00    -0.007 A 
ATOM     19  C   UNL A   1      34.542  19.913  24.757  1.00  0.00     0.014 A 
ATOM     20  C   UNL A   1      32.163  21.270  25.219  1.00  0.00     0.007 A 
ATOM     21  C   UNL A   1      33.326  19.304  24.452  1.00  0.00     0.001 A 
ATOM     22  C   UNL A   1      32.137  19.986  24.675  1.00  0.00     0.000 A 
ENDBRANCH   7  10
ENDBRANCH   5   6
BRANCH   5  23
ATOM     23  C   UNL A   1      30.306  25.968  25.382  1.00  0.00     0.070 C 
BRANCH  23  24
ATOM     24  C   UNL A   1      30.406  25.974  23.877  1.00  0.00    -0.037 C 
ATOM     25  C   UNL A   1      31.032  25.171  23.015  1.00  0.00     0.001 A 
ATOM     26  C   UNL A   1      29.916  27.190  23.136  1.00  0.00     0.174 C 
ATOM     27  C   UNL A   1      31.590  23.856  23.007  1.00  0.00     0.010 A 
ATOM     28  C   UNL A   1      31.429  26.163  21.991  1.00  0.00     0.065 A 
ATOM     29  N   UNL A   1      30.806  27.302  21.966  1.00  0.00    -0.280 NA
ATOM     30  C   UNL A   1      32.622  23.588  22.192  1.00  0.00     0.001 A 
ATOM     31  C   UNL A   1      32.631  25.828  21.195  1.00  0.00     0.028 A 
ATOM     32  C   UNL A   1      33.203  24.623  21.357  1.00  0.00     0.002 A 
ENDBRANCH  23  24
ENDBRANCH   5  23
ENDBRANCH   3   5
ENDBRANCH   2   3
ENDBRANCH   1   2
BRANCH   1  33
ATOM     33  C   UNL A   1      31.985  30.623  26.024  1.00  0.00     0.275 C 
BRANCH  33  34
ATOM     34  O   UNL A   1      32.683  30.563  27.283  1.00  0.00    -0.458 OA
BRANCH  34  35
ATOM     35  C   UNL A   1      33.498  31.608  27.516  1.00  0.00     0.338 C 
ATOM     36  O   UNL A   1      33.178  32.801  27.513  1.00  0.00    -0.246 OA
BRANCH  35  37
ATOM     37  C   UNL A   1      34.853  31.168  27.856  1.00  0.00     0.060 A 
ATOM     38  C   UNL A   1      35.857  32.103  28.116  1.00  0.00     0.016 A 
ATOM     39  C   UNL A   1      35.066  29.816  28.123  1.00  0.00     0.016 A 
ATOM     40  C   UNL A   1      37.069  31.677  28.678  1.00  0.00     0.010 A 
ATOM     41  C   UNL A   1      36.253  29.403  28.725  1.00  0.00     0.010 A 
ATOM     42  C   UNL A   1      37.263  30.328  29.028  1.00  0.00    -0.014 A 
BRANCH  42  43
ATOM     43  C   UNL A   1      38.460  29.884  29.798  1.00  0.00     0.031 A 
ATOM     44  C   UNL A   1      38.775  30.466  31.149  1.00  0.00     0.074 A 
ATOM     45  C   UNL A   1      39.350  29.043  29.232  1.00  0.00     0.049 A 
ATOM     46  N   UNL A   1      39.739  30.148  31.977  1.00  0.00    -0.248 NA
ATOM     47  C   UNL A   1      37.909  31.554  31.630  1.00  0.00     0.031 C 
ATOM     48  C   UNL A   1      39.248  28.481  27.885  1.00  0.00     0.029 A 
ATOM     49  N   UNL A   1      40.543  28.547  29.701  1.00  0.00    -0.354 N 
ATOM     50  C   UNL A   1      39.572  30.966  33.085  1.00  0.00     0.074 A 
ATOM     51  C   UNL A   1      38.486  31.873  32.780  1.00  0.00     0.031 C 
ATOM     52  C   UNL A   1      40.352  27.769  27.614  1.00  0.00     0.029 A 
ATOM     53  C   UNL A   1      41.219  27.777  28.787  1.00  0.00     0.049 A 
ATOM     54  H   UNL A   1      40.881  28.728  30.607  1.00  0.00     0.167 HD
ATOM     55  C   UNL A   1      40.214  30.918  34.276  1.00  0.00     0.037 A 
ATOM     56  C   UNL A   1      42.389  27.118  28.888  1.00  0.00     0.037 A 
ATOM     57  C   UNL A   1      41.289  30.015  34.583  1.00  0.00     0.049 A 
ATOM     58  C   UNL A   1      43.096  27.069  30.212  1.00  0.00     0.074 A 
ATOM     59  C   UNL A   1      41.922  29.800  35.794  1.00  0.00     0.029 A 
ATOM     60  N   UNL A   1      41.901  29.186  33.655  1.00  0.00    -0.354 N 
ATOM     61  N   UNL A   1      42.795  27.682  31.329  1.00  0.00    -0.248 NA
ATOM     62  C   UNL A   1      44.263  26.181  30.310  1.00  0.00     0.031 C 
ATOM     63  C   UNL A   1      42.935  28.853  35.595  1.00  0.00     0.029 A 
ATOM     64  C   UNL A   1      42.912  28.462  34.265  1.00  0.00     0.049 A 
ATOM     65  H   UNL A   1      41.654  29.120  32.705  1.00  0.00     0.167 HD
ATOM     66  C   UNL A   1      43.689  27.207  32.277  1.00  0.00     0.074 A 
ATOM     67  C   UNL A   1      44.562  26.271  31.600  1.00  0.00     0.031 C 
ATOM     68  C   UNL A   1      43.754  27.506  33.596  1.00  0.00     0.037 A 
BRANCH  55  69
ATOM     69  C   UNL A   1      39.702  31.816  35.361  1.00  0.00     0.064 A 
ATOM     70  C   UNL A   1      40.225  33.111  35.521  1.00  0.00     0.173 A 
ATOM     71  C   UNL A   1      38.676  31.412  36.225  1.00  0.00     0.173 A 
ATOM     72  F   UNL A   1      41.209  33.545  34.719  1.00  0.00    -0.203 F 
ATOM     73  C   UNL A   1      39.767  33.952  36.529  1.00  0.00     0.198 A 
ATOM     74  C   UNL A   1      38.201  32.267  37.217  1.00  0.00     0.198 A 
ATOM     75  F   UNL A   1      38.131  30.192  36.107  1.00  0.00    -0.203 F 
ATOM     76  F   UNL A   1      40.318  35.162  36.693  1.00  0.00    -0.200 F 
ATOM     77  C   UNL A   1      38.752  33.530  37.375  1.00  0.00     0.200 A 
ATOM     78  F   UNL A   1      37.211  31.867  38.027  1.00  0.00    -0.200 F 
ATOM     79  F   UNL A   1      38.311  34.341  38.347  1.00  0.00    -0.200 F 
ENDBRANCH  55  69
BRANCH  56  80
ATOM     80  C   UNL A   1      42.886  26.334  27.731  1.00  0.00     0.064 A 
ATOM     81  C   UNL A   1      42.448  25.020  27.522  1.00  0.00     0.173 A 
ATOM     82  C   UNL A   1      43.779  26.886  26.802  1.00  0.00     0.173 A 
ATOM     83  F   UNL A   1      41.603  24.451  28.394  1.00  0.00    -0.203 F 
ATOM     84  C   UNL A   1      42.896  24.278  26.432  1.00  0.00     0.198 A 
ATOM     85  C   UNL A   1      44.215  26.147  25.704  1.00  0.00     0.198 A 
ATOM     86  F   UNL A   1      44.220  28.142  26.959  1.00  0.00    -0.203 F 
ATOM     87  F   UNL A   1      42.480  23.015  26.268  1.00  0.00    -0.200 F 
ATOM     88  C   UNL A   1      43.776  24.843  25.522  1.00  0.00     0.200 A 
ATOM     89  F   UNL A   1      45.063  26.695  24.822  1.00  0.00    -0.200 F 
ATOM     90  F   UNL A   1      44.205  24.129  24.472  1.00  0.00    -0.200 F 
ENDBRANCH  56  80
BRANCH  68  91
ATOM     91  C   UNL A   1      44.757  26.770  34.430  1.00  0.00     0.064 A 
ATOM     92  C   UNL A   1      46.030  27.296  34.686  1.00  0.00     0.173 A 
ATOM     93  C   UNL A   1      44.403  25.561  35.051  1.00  0.00     0.173 A 
ATOM     94  F   UNL A   1      46.418  28.439  34.101  1.00  0.00    -0.203 F 
ATOM     95  C   UNL A   1      46.915  26.638  35.536  1.00  0.00     0.198 A 
ATOM     96  C   UNL A   1      45.282  24.918  35.915  1.00  0.00     0.198 A 
ATOM     97  F   UNL A   1      43.194  25.020  34.836  1.00  0.00    -0.203 F 
ATOM     98  F   UNL A   1      48.135  27.148  35.754  1.00  0.00    -0.200 F 
ATOM     99  C   UNL A   1      46.536  25.457  36.158  1.00  0.00     0.200 A 
ATOM    100  F   UNL A   1      44.911  23.782  36.523  1.00  0.00    -0.200 F 
ATOM    101  F   UNL A   1      47.383  24.836  36.992  1.00  0.00    -0.200 F 
ENDBRANCH  68  91
ENDBRANCH  42  43
ENDBRANCH  35  37
ENDBRANCH  34  35
ENDBRANCH  33  34
ENDBRANCH   1  33
TORSDOF 15
ENDMDL
MODEL 2
REMARK VINA RESULT:     -13.6      0.230      1.103
REMARK SMILES CN1N[C@H](C(=O)N[C@@H](CC2=c3ccccc3=NC2)C(=O)OCCOC(=O)c2ccc(-c3c4nc(c(-c5c(F)c(F)c(F)c(F)c5F)c5ccc([nH]5)c(-c5c(F)c(F)c(F)c(F)c5F)c5nc(c(-c6c(F)c(F)c(F)c(F)c6F)c6ccc3[nH]6)C=C5)C=C4)cc2)c2ccccc2C1=O
REMARK SMILES IDX 22 1 21 2 19 3 20 4 8 5 7 6 5 7 6 8 4 10 1 11 2 12 3 13
REMARK SMILES IDX 96 14 95 16 97 17 90 18 94 19 91 20 93 21 92 22 9 23 10 24
REMARK SMILES IDX 11 25 18 26 12 27 16 28 17 29 13 30 15 31 14 32 23 33 24 34
REMARK SMILES IDX 25 35 26 36 27 37 28 38 89 39 29 40 88 41 30 42 31 43 32 44
REMARK SMILES IDX 82 45 33 46 87 47 81 48 83 49 34 50 86 51 80 52 79 53 35 55
REMARK SMILES IDX 67 56 47 57 66 58 48 59 51 60 65 61 84 62 49 63 50 64 64 66
REMARK SMILES IDX 85 67 52 68 36 69 37 70 45 71 38 72 39 73 43 74 46 75 40 76
REMARK SMILES IDX 41 77 44 78 42 79 68 80 69 81 77 82 70 83 71 84 75 85 78 86
REMARK SMILES IDX 72 87 73 88 76 89 74 90 53 91 54 92 62 93 55 94 56 95 60 96
REMARK SMILES IDX 63 97 57 98 58 99 61 100 59 101
REMARK H PARENT 7 9 3 15 83 54 51 65
REMARK Flexibility Score: inf
ROOT
ATOM      1  C   UNL A   1      31.708  29.224  25.638  1.00  0.00     0.274 C 
ENDROOT
BRANCH   1   2
ATOM      2  O   UNL A   1      32.474  28.059  26.009  1.00  0.00    -0.461 OA
BRANCH   2   3
ATOM      3  C   UNL A   1      31.833  27.192  26.837  1.00  0.00     0.329 C 
ATOM      4  O   UNL A   1      31.404  27.490  27.949  1.00  0.00    -0.250 OA
BRANCH   3   5
ATOM      5  C   UNL A   1      31.739  25.761  26.290  1.00  0.00     0.196 C 
BRANCH   5   6
ATOM      6  N   UNL A   1      31.870  24.657  27.252  1.00  0.00    -0.341 N 
ATOM      7  C   UNL A   1      32.453  23.429  27.158  1.00  0.00     0.244 C 
ATOM      8  O   UNL A   1      32.095  22.573  27.976  1.00  0.00    -0.273 OA
ATOM      9  H   UNL A   1      31.459  24.839  28.128  1.00  0.00     0.164 HD
BRANCH   7  10
ATOM     10  C   UNL A   1      33.626  23.134  26.199  1.00  0.00     0.195 C 
ATOM     11  C   UNL A   1      37.261  23.644  26.126  1.00  0.00     0.169 C 
ATOM     12  N   UNL A   1      36.020  22.892  26.096  1.00  0.00    -0.276 N 
ATOM     13  N   UNL A   1      34.919  23.348  26.882  1.00  0.00    -0.215 NA
ATOM     14  C   UNL A   1      35.997  21.625  25.507  1.00  0.00     0.268 C 
ATOM     15  H   UNL A   1      35.036  24.346  27.062  1.00  0.00     0.149 HD
ATOM     16  C   UNL A   1      34.654  21.040  25.258  1.00  0.00     0.046 A 
ATOM     17  O   UNL A   1      37.006  21.018  25.159  1.00  0.00    -0.268 OA
ATOM     18  C   UNL A   1      33.500  21.762  25.578  1.00  0.00    -0.007 A 
ATOM     19  C   UNL A   1      34.555  19.794  24.630  1.00  0.00     0.014 A 
ATOM     20  C   UNL A   1      32.249  21.227  25.220  1.00  0.00     0.007 A 
ATOM     21  C   UNL A   1      33.305  19.253  24.329  1.00  0.00     0.001 A 
ATOM     22  C   UNL A   1      32.154  19.974  24.616  1.00  0.00     0.000 A 
ENDBRANCH   7  10
ENDBRANCH   5   6
BRANCH   5  23
ATOM     23  C   UNL A   1      30.414  25.692  25.468  1.00  0.00     0.070 C 
BRANCH  23  24
ATOM     24  C   UNL A   1      30.463  25.775  23.962  1.00  0.00    -0.037 C 
ATOM     25  C   UNL A   1      31.123  25.067  23.045  1.00  0.00     0.001 A 
ATOM     26  C   UNL A   1      29.852  26.979  23.296  1.00  0.00     0.174 C 
ATOM     27  C   UNL A   1      31.784  23.804  22.956  1.00  0.00     0.010 A 
ATOM     28  C   UNL A   1      31.404  26.134  22.058  1.00  0.00     0.065 A 
ATOM     29  N   UNL A   1      30.691  27.217  22.107  1.00  0.00    -0.280 NA
ATOM     30  C   UNL A   1      32.808  23.659  22.099  1.00  0.00     0.001 A 
ATOM     31  C   UNL A   1      32.602  25.936  21.212  1.00  0.00     0.028 A 
ATOM     32  C   UNL A   1      33.275  24.776  21.299  1.00  0.00     0.002 A 
ENDBRANCH  23  24
ENDBRANCH   5  23
ENDBRANCH   3   5
ENDBRANCH   2   3
ENDBRANCH   1   2
BRANCH   1  33
ATOM     33  C   UNL A   1      32.459  30.531  25.894  1.00  0.00     0.275 C 
BRANCH  33  34
ATOM     34  O   UNL A   1      32.659  30.777  27.300  1.00  0.00    -0.458 OA
BRANCH  34  35
ATOM     35  C   UNL A   1      33.511  31.782  27.572  1.00  0.00     0.338 C 
ATOM     36  O   UNL A   1      33.238  32.986  27.599  1.00  0.00    -0.246 OA
BRANCH  35  37
ATOM     37  C   UNL A   1      34.844  31.279  27.913  1.00  0.00     0.060 A 
ATOM     38  C   UNL A   1      35.903  32.166  28.119  1.00  0.00     0.016 A 
ATOM     39  C   UNL A   1      34.983  29.930  28.235  1.00  0.00     0.016 A 
ATOM     40  C   UNL A   1      37.098  31.695  28.682  1.00  0.00     0.010 A 
ATOM     41  C   UNL A   1      36.155  29.476  28.839  1.00  0.00     0.010 A 
ATOM     42  C   UNL A   1      37.221  30.353  29.089  1.00  0.00    -0.014 A 
BRANCH  42  43
ATOM     43  C   UNL A   1      38.402  29.875  29.862  1.00  0.00     0.031 A 
ATOM     44  C   UNL A   1      38.718  30.432  31.222  1.00  0.00     0.074 A 
ATOM     45  C   UNL A   1      39.279  29.023  29.290  1.00  0.00     0.049 A 
ATOM     46  N   UNL A   1      39.669  30.083  32.054  1.00  0.00    -0.248 NA
ATOM     47  C   UNL A   1      37.871  31.531  31.712  1.00  0.00     0.031 C 
ATOM     48  C   UNL A   1      39.176  28.482  27.936  1.00  0.00     0.029 A 
ATOM     49  N   UNL A   1      40.458  28.496  29.761  1.00  0.00    -0.354 N 
ATOM     50  C   UNL A   1      39.510  30.889  33.171  1.00  0.00     0.074 A 
ATOM     51  C   UNL A   1      38.446  31.822  32.870  1.00  0.00     0.031 C 
ATOM     52  C   UNL A   1      40.267  27.751  27.663  1.00  0.00     0.029 A 
ATOM     53  C   UNL A   1      41.125  27.725  28.843  1.00  0.00     0.049 A 
ATOM     54  H   UNL A   1      40.792  28.658  30.673  1.00  0.00     0.167 HD
ATOM     55  C   UNL A   1      40.142  30.812  34.366  1.00  0.00     0.037 A 
ATOM     56  C   UNL A   1      42.280  27.041  28.943  1.00  0.00     0.037 A 
ATOM     57  C   UNL A   1      41.195  29.883  34.669  1.00  0.00     0.049 A 
ATOM     58  C   UNL A   1      42.976  26.959  30.272  1.00  0.00     0.074 A 
ATOM     59  C   UNL A   1      41.815  29.638  35.881  1.00  0.00     0.029 A 
ATOM     60  N   UNL A   1      41.798  29.054  33.735  1.00  0.00    -0.354 N 
ATOM     61  N   UNL A   1      42.679  27.564  31.394  1.00  0.00    -0.248 NA
ATOM     62  C   UNL A   1      44.124  26.046  30.366  1.00  0.00     0.031 C 
ATOM     63  C   UNL A   1      42.809  28.674  35.677  1.00  0.00     0.029 A 
ATOM     64  C   UNL A   1      42.789  28.301  34.342  1.00  0.00     0.049 A 
ATOM     65  H   UNL A   1      41.557  29.006  32.781  1.00  0.00     0.167 HD
ATOM     66  C   UNL A   1      43.556  27.057  32.342  1.00  0.00     0.074 A 
ATOM     67  C   UNL A   1      44.415  26.113  31.659  1.00  0.00     0.031 C 
ATOM     68  C   UNL A   1      43.617  27.337  33.666  1.00  0.00     0.037 A 
BRANCH  55  69
ATOM     69  C   UNL A   1      39.639  31.706  35.460  1.00  0.00     0.064 A 
ATOM     70  C   UNL A   1      40.164  32.999  35.620  1.00  0.00     0.173 A 
ATOM     71  C   UNL A   1      38.621  31.298  36.331  1.00  0.00     0.173 A 
ATOM     72  F   UNL A   1      41.142  33.436  34.812  1.00  0.00    -0.203 F 
ATOM     73  C   UNL A   1      39.716  33.836  36.636  1.00  0.00     0.198 A 
ATOM     74  C   UNL A   1      38.155  32.149  37.331  1.00  0.00     0.198 A 
ATOM     75  F   UNL A   1      38.075  30.079  36.212  1.00  0.00    -0.203 F 
ATOM     76  F   UNL A   1      40.269  35.046  36.800  1.00  0.00    -0.200 F 
ATOM     77  C   UNL A   1      38.708  33.411  37.489  1.00  0.00     0.200 A 
ATOM     78  F   UNL A   1      37.172  31.746  38.148  1.00  0.00    -0.200 F 
ATOM     79  F   UNL A   1      38.276  34.218  38.468  1.00  0.00    -0.200 F 
ENDBRANCH  55  69
BRANCH  56  80
ATOM     80  C   UNL A   1      42.771  26.263  27.779  1.00  0.00     0.064 A 
ATOM     81  C   UNL A   1      42.281  24.975  27.529  1.00  0.00     0.173 A 
ATOM     82  C   UNL A   1      43.709  26.795  26.885  1.00  0.00     0.173 A 
ATOM     83  F   UNL A   1      41.390  24.423  28.367  1.00  0.00    -0.203 F 
ATOM     84  C   UNL A   1      42.721  24.239  26.431  1.00  0.00     0.198 A 
ATOM     85  C   UNL A   1      44.139  26.063  25.780  1.00  0.00     0.198 A 
ATOM     86  F   UNL A   1      44.201  28.027  27.082  1.00  0.00    -0.203 F 
ATOM     87  F   UNL A   1      42.254  23.000  26.227  1.00  0.00    -0.200 F 
ATOM     88  C   UNL A   1      43.647  24.785  25.556  1.00  0.00     0.200 A 
ATOM     89  F   UNL A   1      45.031  26.594  24.932  1.00  0.00    -0.200 F 
ATOM     90  F   UNL A   1      44.069  24.078  24.499  1.00  0.00    -0.200 F 
ENDBRANCH  56  80
BRANCH  68  91
ATOM     91  C   UNL A   1      44.598  26.569  34.497  1.00  0.00     0.064 A 
ATOM     92  C   UNL A   1      44.268  25.334  35.072  1.00  0.00     0.173 A 
ATOM     93  C   UNL A   1      45.912  27.039  34.646  1.00  0.00     0.173 A 
ATOM     94  F   UNL A   1      43.020  24.854  34.970  1.00  0.00    -0.203 F 
ATOM     95  C   UNL A   1      45.222  24.596  35.767  1.00  0.00     0.198 A 
ATOM     96  C   UNL A   1      46.867  26.288  35.323  1.00  0.00     0.198 A 
ATOM     97  F   UNL A   1      46.273  28.215  34.112  1.00  0.00    -0.203 F 
ATOM     98  F   UNL A   1      44.883  23.425  36.325  1.00  0.00    -0.200 F 
ATOM     99  C   UNL A   1      46.521  25.067  35.882  1.00  0.00     0.200 A 
ATOM    100  F   UNL A   1      48.125  26.740  35.425  1.00  0.00    -0.200 F 
ATOM    101  F   UNL A   1      47.442  24.343  36.534  1.00  0.00    -0.200 F 
ENDBRANCH  68  91
ENDBRANCH  42  43
ENDBRANCH  35  37
ENDBRANCH  34  35
ENDBRANCH  33  34
ENDBRANCH   1  33
TORSDOF 15
ENDMDL
MODEL 3
REMARK VINA RESULT:     -13.6      1.524      3.148
REMARK SMILES CN1N[C@H](C(=O)N[C@@H](CC2=c3ccccc3=NC2)C(=O)OCCOC(=O)c2ccc(-c3c4nc(c(-c5c(F)c(F)c(F)c(F)c5F)c5ccc([nH]5)c(-c5c(F)c(F)c(F)c(F)c5F)c5nc(c(-c6c(F)c(F)c(F)c(F)c6F)c6ccc3[nH]6)C=C5)C=C4)cc2)c2ccccc2C1=O
REMARK SMILES IDX 22 1 21 2 19 3 20 4 8 5 7 6 5 7 6 8 4 10 1 11 2 12 3 13
REMARK SMILES IDX 96 14 95 16 97 17 90 18 94 19 91 20 93 21 92 22 9 23 10 24
REMARK SMILES IDX 11 25 18 26 12 27 16 28 17 29 13 30 15 31 14 32 23 33 24 34
REMARK SMILES IDX 25 35 26 36 27 37 28 38 89 39 29 40 88 41 30 42 31 43 32 44
REMARK SMILES IDX 82 45 33 46 87 47 81 48 83 49 34 50 86 51 80 52 79 53 35 55
REMARK SMILES IDX 67 56 47 57 66 58 48 59 51 60 65 61 84 62 49 63 50 64 64 66
REMARK SMILES IDX 85 67 52 68 36 69 37 70 45 71 38 72 39 73 43 74 46 75 40 76
REMARK SMILES IDX 41 77 44 78 42 79 68 80 69 81 77 82 70 83 71 84 75 85 78 86
REMARK SMILES IDX 72 87 73 88 76 89 74 90 53 91 54 92 62 93 55 94 56 95 60 96
REMARK SMILES IDX 63 97 57 98 58 99 61 100 59 101
REMARK H PARENT 7 9 3 15 83 54 51 65
REMARK Flexibility Score: inf
ROOT
ATOM      1  C   UNL A   1      32.724  29.386  24.885  1.00  0.00     0.274 C 
ENDROOT
BRANCH   1   2
ATOM      2  O   UNL A   1      31.993  28.176  24.599  1.00  0.00    -0.461 OA
BRANCH   2   3
ATOM      3  C   UNL A   1      32.307  27.582  23.417  1.00  0.00     0.329 C 
ATOM      4  O   UNL A   1      33.415  27.637  22.891  1.00  0.00    -0.250 OA
BRANCH   3   5
ATOM      5  C   UNL A   1      31.124  26.873  22.741  1.00  0.00     0.196 C 
BRANCH   5   6
ATOM      6  N   UNL A   1      31.301  25.460  22.375  1.00  0.00    -0.341 N 
ATOM      7  C   UNL A   1      31.834  24.402  23.050  1.00  0.00     0.244 C 
ATOM      8  O   UNL A   1      32.194  23.430  22.377  1.00  0.00    -0.273 OA
ATOM      9  H   UNL A   1      30.976  25.237  21.473  1.00  0.00     0.164 HD
BRANCH   7  10
ATOM     10  C   UNL A   1      31.848  24.319  24.592  1.00  0.00     0.195 C 
ATOM     11  C   UNL A   1      29.716  22.954  27.252  1.00  0.00     0.169 C 
ATOM     12  N   UNL A   1      30.926  23.122  26.467  1.00  0.00    -0.276 N 
ATOM     13  N   UNL A   1      30.810  23.381  25.069  1.00  0.00    -0.215 NA
ATOM     14  C   UNL A   1      32.163  22.790  27.029  1.00  0.00     0.268 C 
ATOM     15  H   UNL A   1      29.891  23.784  24.884  1.00  0.00     0.149 HD
ATOM     16  C   UNL A   1      33.366  23.249  26.288  1.00  0.00     0.046 A 
ATOM     17  O   UNL A   1      32.287  22.196  28.096  1.00  0.00    -0.268 OA
ATOM     18  C   UNL A   1      33.229  23.997  25.114  1.00  0.00    -0.007 A 
ATOM     19  C   UNL A   1      34.636  22.992  26.816  1.00  0.00     0.014 A 
ATOM     20  C   UNL A   1      34.387  24.513  24.505  1.00  0.00     0.007 A 
ATOM     21  C   UNL A   1      35.777  23.466  26.171  1.00  0.00     0.001 A 
ATOM     22  C   UNL A   1      35.652  24.234  25.021  1.00  0.00     0.000 A 
ENDBRANCH   7  10
ENDBRANCH   5   6
BRANCH   5  23
ATOM     23  C   UNL A   1      29.887  27.109  23.663  1.00  0.00     0.070 C 
BRANCH  23  24
ATOM     24  C   UNL A   1      28.740  27.957  23.173  1.00  0.00    -0.037 C 
ATOM     25  C   UNL A   1      28.690  29.177  22.637  1.00  0.00     0.001 A 
ATOM     26  C   UNL A   1      27.338  27.515  23.500  1.00  0.00     0.174 C 
ATOM     27  C   UNL A   1      29.585  30.092  22.002  1.00  0.00     0.010 A 
ATOM     28  C   UNL A   1      27.412  29.652  23.212  1.00  0.00     0.065 A 
ATOM     29  N   UNL A   1      26.579  28.768  23.669  1.00  0.00    -0.280 NA
ATOM     30  C   UNL A   1      29.356  31.411  22.108  1.00  0.00     0.001 A 
ATOM     31  C   UNL A   1      27.278  31.117  23.374  1.00  0.00     0.028 A 
ATOM     32  C   UNL A   1      28.245  31.916  22.891  1.00  0.00     0.002 A 
ENDBRANCH  23  24
ENDBRANCH   5  23
ENDBRANCH   3   5
ENDBRANCH   2   3
ENDBRANCH   1   2
BRANCH   1  33
ATOM     33  C   UNL A   1      31.935  30.359  25.761  1.00  0.00     0.275 C 
BRANCH  33  34
ATOM     34  O   UNL A   1      32.461  30.435  27.100  1.00  0.00    -0.458 OA
BRANCH  34  35
ATOM     35  C   UNL A   1      33.257  31.497  27.325  1.00  0.00     0.338 C 
ATOM     36  O   UNL A   1      32.920  32.684  27.291  1.00  0.00    -0.246 OA
BRANCH  35  37
ATOM     37  C   UNL A   1      34.613  31.084  27.695  1.00  0.00     0.060 A 
ATOM     38  C   UNL A   1      35.586  32.039  27.997  1.00  0.00     0.016 A 
ATOM     39  C   UNL A   1      34.852  29.733  27.945  1.00  0.00     0.016 A 
ATOM     40  C   UNL A   1      36.792  31.633  28.585  1.00  0.00     0.010 A 
ATOM     41  C   UNL A   1      36.032  29.340  28.572  1.00  0.00     0.010 A 
ATOM     42  C   UNL A   1      37.011  30.283  28.919  1.00  0.00    -0.014 A 
BRANCH  42  43
ATOM     43  C   UNL A   1      38.197  29.856  29.714  1.00  0.00     0.031 A 
ATOM     44  C   UNL A   1      38.483  30.454  31.064  1.00  0.00     0.074 A 
ATOM     45  C   UNL A   1      39.102  29.015  29.172  1.00  0.00     0.049 A 
ATOM     46  N   UNL A   1      39.435  30.151  31.912  1.00  0.00    -0.248 NA
ATOM     47  C   UNL A   1      37.602  31.541  31.519  1.00  0.00     0.031 C 
ATOM     48  C   UNL A   1      39.027  28.439  27.830  1.00  0.00     0.029 A 
ATOM     49  N   UNL A   1      40.290  28.532  29.667  1.00  0.00    -0.354 N 
ATOM     50  C   UNL A   1      39.243  30.979  33.008  1.00  0.00     0.074 A 
ATOM     51  C   UNL A   1      38.157  31.875  32.675  1.00  0.00     0.031 C 
ATOM     52  C   UNL A   1      40.141  27.732  27.585  1.00  0.00     0.029 A 
ATOM     53  C   UNL A   1      40.987  27.757  28.773  1.00  0.00     0.049 A 
ATOM     54  H   UNL A   1      40.611  28.725  30.577  1.00  0.00     0.167 HD
ATOM     55  C   UNL A   1      39.865  30.949  34.210  1.00  0.00     0.037 A 
ATOM     56  C   UNL A   1      42.160  27.108  28.901  1.00  0.00     0.037 A 
ATOM     57  C   UNL A   1      40.940  30.056  34.545  1.00  0.00     0.049 A 
ATOM     58  C   UNL A   1      42.844  27.078  30.238  1.00  0.00     0.074 A 
ATOM     59  C   UNL A   1      41.554  29.858  35.769  1.00  0.00     0.029 A 
ATOM     60  N   UNL A   1      41.575  29.222  33.638  1.00  0.00    -0.354 N 
ATOM     61  N   UNL A   1      42.519  27.700  31.343  1.00  0.00    -0.248 NA
ATOM     62  C   UNL A   1      44.015  26.199  30.365  1.00  0.00     0.031 C 
ATOM     63  C   UNL A   1      42.576  28.916  35.598  1.00  0.00     0.029 A 
ATOM     64  C   UNL A   1      42.579  28.511  34.273  1.00  0.00     0.049 A 
ATOM     65  H   UNL A   1      41.344  29.144  32.684  1.00  0.00     0.167 HD
ATOM     66  C   UNL A   1      43.400  27.241  32.311  1.00  0.00     0.074 A 
ATOM     67  C   UNL A   1      44.291  26.305  31.659  1.00  0.00     0.031 C 
ATOM     68  C   UNL A   1      43.440  27.554  33.628  1.00  0.00     0.037 A 
BRANCH  55  69
ATOM     69  C   UNL A   1      39.327  31.854  35.277  1.00  0.00     0.064 A 
ATOM     70  C   UNL A   1      38.444  31.360  36.252  1.00  0.00     0.173 A 
ATOM     71  C   UNL A   1      39.706  33.200  35.356  1.00  0.00     0.173 A 
ATOM     72  F   UNL A   1      38.051  30.078  36.220  1.00  0.00    -0.203 F 
ATOM     73  C   UNL A   1      37.930  32.190  37.242  1.00  0.00     0.198 A 
ATOM     74  C   UNL A   1      39.209  34.023  36.366  1.00  0.00     0.198 A 
ATOM     75  F   UNL A   1      40.557  33.719  34.460  1.00  0.00    -0.203 F 
ATOM     76  F   UNL A   1      37.049  31.706  38.129  1.00  0.00    -0.200 F 
ATOM     77  C   UNL A   1      38.315  33.521  37.301  1.00  0.00     0.200 A 
ATOM     78  F   UNL A   1      39.591  35.305  36.432  1.00  0.00    -0.200 F 
ATOM     79  F   UNL A   1      37.819  34.319  38.255  1.00  0.00    -0.200 F 
ENDBRANCH  55  69
BRANCH  56  80
ATOM     80  C   UNL A   1      42.683  26.316  27.761  1.00  0.00     0.064 A 
ATOM     81  C   UNL A   1      43.631  26.867  26.889  1.00  0.00     0.173 A 
ATOM     82  C   UNL A   1      42.273  24.995  27.538  1.00  0.00     0.173 A 
ATOM     83  F   UNL A   1      44.041  28.133  27.061  1.00  0.00    -0.203 F 
ATOM     84  C   UNL A   1      44.142  26.130  25.824  1.00  0.00     0.198 A 
ATOM     85  C   UNL A   1      42.795  24.254  26.479  1.00  0.00     0.198 A 
ATOM     86  F   UNL A   1      41.372  24.425  28.350  1.00  0.00    -0.203 F 
ATOM     87  F   UNL A   1      45.030  26.688  24.991  1.00  0.00    -0.200 F 
ATOM     88  C   UNL A   1      43.726  24.823  25.622  1.00  0.00     0.200 A 
ATOM     89  F   UNL A   1      42.396  22.989  26.287  1.00  0.00    -0.200 F 
ATOM     90  F   UNL A   1      44.219  24.113  24.598  1.00  0.00    -0.200 F 
ENDBRANCH  56  80
BRANCH  68  91
ATOM     91  C   UNL A   1      44.433  26.834  34.487  1.00  0.00     0.064 A 
ATOM     92  C   UNL A   1      45.697  27.372  34.760  1.00  0.00     0.173 A 
ATOM     93  C   UNL A   1      44.076  25.629  35.113  1.00  0.00     0.173 A 
ATOM     94  F   UNL A   1      46.087  28.512  34.171  1.00  0.00    -0.203 F 
ATOM     95  C   UNL A   1      46.571  26.729  35.632  1.00  0.00     0.198 A 
ATOM     96  C   UNL A   1      44.944  25.000  36.000  1.00  0.00     0.198 A 
ATOM     97  F   UNL A   1      42.876  25.077  34.883  1.00  0.00    -0.203 F 
ATOM     98  F   UNL A   1      47.784  27.250  35.867  1.00  0.00    -0.200 F 
ATOM     99  C   UNL A   1      46.190  25.551  36.259  1.00  0.00     0.200 A 
ATOM    100  F   UNL A   1      44.571  23.868  36.613  1.00  0.00    -0.200 F 
ATOM    101  F   UNL A   1      47.027  24.945  37.114  1.00  0.00    -0.200 F 
ENDBRANCH  68  91
ENDBRANCH  42  43
ENDBRANCH  35  37
ENDBRANCH  34  35
ENDBRANCH  33  34
ENDBRANCH   1  33
TORSDOF 15
ENDMDL
