MODEL 1
REMARK VINA RESULT:     -12.0      0.000      0.000
REMARK SMILES COC(=O)Cc1nc(NC(=O)[C@H]2CC[C@@H]2C(=O)OCCOC(=O)c2ccc(-c3c4nc(c(-c5c(F)c(F)c(F)c(F)c5F)c5ccc([nH]5)c(-c5c(F)c(F)c(F)c(F)c5F)c5nc(c(-c6c(F)c(F)c(F)c(F)c6F)c6ccc3[nH]6)C=C5)C=C4)cc2)sc1C
REMARK SMILES IDX 18 1 16 2 17 3 15 4 12 5 13 6 14 7 10 8 9 9 11 11 8 12 6 13
REMARK SMILES IDX 7 14 88 15 87 16 89 17 5 18 3 19 4 20 2 21 1 22 19 23 20 24
REMARK SMILES IDX 21 25 22 26 23 27 24 28 25 29 86 30 26 31 85 32 27 33 28 34
REMARK SMILES IDX 29 35 79 36 30 37 84 38 78 39 80 40 31 41 83 42 77 43 76 44
REMARK SMILES IDX 32 46 64 47 44 48 63 49 45 50 48 51 62 52 81 53 46 54 47 55
REMARK SMILES IDX 61 57 82 58 49 59 33 60 34 61 42 62 35 63 36 64 40 65 43 66
REMARK SMILES IDX 37 67 38 68 41 69 39 70 65 71 66 72 74 73 67 74 68 75 72 76
REMARK SMILES IDX 75 77 69 78 70 79 73 80 71 81 50 82 51 83 59 84 52 85 53 86
REMARK SMILES IDX 57 87 60 88 54 89 55 90 58 91 56 92
REMARK H PARENT 9 10 80 45 48 56
REMARK Flexibility Score: inf
ROOT
ATOM      1  O   UNL A   1      32.469  28.527  24.418  1.00  0.00    -0.462 OA
ENDROOT
BRANCH   1   2
ATOM      2  C   UNL A   1      32.323  27.236  23.999  1.00  0.00     0.309 C 
ATOM      3  O   UNL A   1      33.098  26.691  23.211  1.00  0.00    -0.252 OA
BRANCH   2   4
ATOM      4  C   UNL A   1      31.073  26.541  24.624  1.00  0.00     0.111 C 
ATOM      5  C   UNL A   1      31.239  25.015  24.953  1.00  0.00     0.093 C 
ATOM      6  C   UNL A   1      30.626  24.743  23.546  1.00  0.00     0.015 C 
ATOM      7  C   UNL A   1      29.973  26.128  23.615  1.00  0.00     0.017 C 
BRANCH   5   8
ATOM      8  C   UNL A   1      30.507  24.415  26.182  1.00  0.00     0.230 C 
ATOM      9  N   UNL A   1      30.773  23.123  26.591  1.00  0.00    -0.302 N 
ATOM     10  H   UNL A   1      30.171  22.763  27.281  1.00  0.00     0.172 HD
ATOM     11  O   UNL A   1      29.609  25.024  26.780  1.00  0.00    -0.274 OA
BRANCH   9  12
ATOM     12  C   UNL A   1      31.759  22.272  26.168  1.00  0.00     0.189 A 
ATOM     13  C   UNL A   1      32.773  20.738  24.921  1.00  0.00     0.068 A 
ATOM     14  N   UNL A   1      31.552  21.296  25.321  1.00  0.00    -0.224 NA
ATOM     15  C   UNL A   1      33.873  21.260  25.592  1.00  0.00     0.027 A 
ATOM     16  S   UNL A   1      33.330  22.339  26.799  1.00  0.00    -0.102 S 
ATOM     17  C   UNL A   1      35.339  21.058  25.424  1.00  0.00     0.058 C 
BRANCH  13  18
ATOM     18  C   UNL A   1      32.699  19.707  23.838  1.00  0.00     0.180 C 
BRANCH  18  19
ATOM     19  C   UNL A   1      32.463  18.303  24.318  1.00  0.00     0.311 C 
ATOM     20  O   UNL A   1      32.141  18.011  25.463  1.00  0.00    -0.252 OA
BRANCH  19  21
ATOM     21  O   UNL A   1      32.699  17.399  23.325  1.00  0.00    -0.469 OA
ATOM     22  C   UNL A   1      34.028  16.874  23.317  1.00  0.00     0.282 C 
ENDBRANCH  19  21
ENDBRANCH  18  19
ENDBRANCH  13  18
ENDBRANCH   9  12
ENDBRANCH   5   8
ENDBRANCH   2   4
ENDBRANCH   1   2
BRANCH   1  23
ATOM     23  C   UNL A   1      31.254  29.297  24.539  1.00  0.00     0.274 C 
BRANCH  23  24
ATOM     24  C   UNL A   1      31.420  30.406  25.572  1.00  0.00     0.275 C 
BRANCH  24  25
ATOM     25  O   UNL A   1      32.643  30.206  26.302  1.00  0.00    -0.458 OA
BRANCH  25  26
ATOM     26  C   UNL A   1      33.105  31.279  26.984  1.00  0.00     0.338 C 
ATOM     27  O   UNL A   1      32.546  32.347  27.160  1.00  0.00    -0.246 OA
BRANCH  26  28
ATOM     28  C   UNL A   1      34.448  30.985  27.517  1.00  0.00     0.060 A 
ATOM     29  C   UNL A   1      34.829  29.668  27.757  1.00  0.00     0.016 A 
ATOM     30  C   UNL A   1      35.285  32.034  27.900  1.00  0.00     0.016 A 
ATOM     31  C   UNL A   1      36.001  29.403  28.464  1.00  0.00     0.010 A 
ATOM     32  C   UNL A   1      36.505  31.758  28.529  1.00  0.00     0.010 A 
ATOM     33  C   UNL A   1      36.860  30.439  28.862  1.00  0.00    -0.014 A 
BRANCH  33  34
ATOM     34  C   UNL A   1      38.069  30.147  29.690  1.00  0.00     0.031 A 
ATOM     35  C   UNL A   1      39.203  29.338  29.111  1.00  0.00     0.074 A 
ATOM     36  C   UNL A   1      38.199  30.638  30.940  1.00  0.00     0.049 A 
ATOM     37  N   UNL A   1      40.239  28.808  29.713  1.00  0.00    -0.248 NA
ATOM     38  C   UNL A   1      39.161  29.085  27.662  1.00  0.00     0.031 C 
ATOM     39  C   UNL A   1      37.233  31.500  31.621  1.00  0.00     0.029 A 
ATOM     40  N   UNL A   1      39.214  30.496  31.857  1.00  0.00    -0.354 N 
ATOM     41  C   UNL A   1      40.928  28.102  28.734  1.00  0.00     0.074 A 
ATOM     42  C   UNL A   1      40.202  28.282  27.494  1.00  0.00     0.031 C 
ATOM     43  C   UNL A   1      37.726  31.858  32.816  1.00  0.00     0.029 A 
ATOM     44  C   UNL A   1      38.996  31.171  33.033  1.00  0.00     0.049 A 
ATOM     45  H   UNL A   1      40.022  29.960  31.685  1.00  0.00     0.167 HD
ATOM     46  C   UNL A   1      42.059  27.367  28.857  1.00  0.00     0.037 A 
ATOM     47  C   UNL A   1      39.709  31.201  34.175  1.00  0.00     0.037 A 
ATOM     48  C   UNL A   1      42.829  27.248  30.068  1.00  0.00     0.049 A 
ATOM     49  C   UNL A   1      40.948  30.359  34.299  1.00  0.00     0.074 A 
ATOM     50  C   UNL A   1      43.980  26.511  30.292  1.00  0.00     0.029 A 
ATOM     51  N   UNL A   1      42.543  27.911  31.250  1.00  0.00    -0.354 N 
ATOM     52  N   UNL A   1      41.523  29.596  33.403  1.00  0.00    -0.248 NA
ATOM     53  C   UNL A   1      41.618  30.356  35.609  1.00  0.00     0.031 C 
ATOM     54  C   UNL A   1      44.381  26.714  31.618  1.00  0.00     0.029 A 
ATOM     55  C   UNL A   1      43.494  27.600  32.209  1.00  0.00     0.049 A 
ATOM     56  H   UNL A   1      41.776  28.513  31.389  1.00  0.00     0.167 HD
ATOM     57  C   UNL A   1      42.616  29.022  34.037  1.00  0.00     0.074 A 
ATOM     58  C   UNL A   1      42.642  29.545  35.386  1.00  0.00     0.031 C 
ATOM     59  C   UNL A   1      43.509  28.127  33.547  1.00  0.00     0.037 A 
BRANCH  46  60
ATOM     60  C   UNL A   1      42.516  26.593  27.657  1.00  0.00     0.064 A 
ATOM     61  C   UNL A   1      43.485  27.091  26.776  1.00  0.00     0.173 A 
ATOM     62  C   UNL A   1      41.996  25.312  27.411  1.00  0.00     0.173 A 
ATOM     63  F   UNL A   1      44.000  28.316  26.961  1.00  0.00    -0.203 F 
ATOM     64  C   UNL A   1      43.904  26.341  25.678  1.00  0.00     0.198 A 
ATOM     65  C   UNL A   1      42.434  24.557  26.327  1.00  0.00     0.198 A 
ATOM     66  F   UNL A   1      41.070  24.790  28.229  1.00  0.00    -0.203 F 
ATOM     67  F   UNL A   1      44.805  26.850  24.826  1.00  0.00    -0.200 F 
ATOM     68  C   UNL A   1      43.383  25.074  25.458  1.00  0.00     0.200 A 
ATOM     69  F   UNL A   1      41.937  23.329  26.122  1.00  0.00    -0.200 F 
ATOM     70  F   UNL A   1      43.793  24.353  24.406  1.00  0.00    -0.200 F 
ENDBRANCH  46  60
BRANCH  47  71
ATOM     71  C   UNL A   1      39.239  32.024  35.320  1.00  0.00     0.064 A 
ATOM     72  C   UNL A   1      39.573  33.382  35.415  1.00  0.00     0.173 A 
ATOM     73  C   UNL A   1      38.449  31.473  36.340  1.00  0.00     0.173 A 
ATOM     74  F   UNL A   1      40.354  33.945  34.482  1.00  0.00    -0.203 F 
ATOM     75  C   UNL A   1      39.136  34.156  36.489  1.00  0.00     0.198 A 
ATOM     76  C   UNL A   1      37.987  32.254  37.395  1.00  0.00     0.198 A 
ATOM     77  F   UNL A   1      38.107  30.176  36.298  1.00  0.00    -0.203 F 
ATOM     78  F   UNL A   1      39.499  35.443  36.577  1.00  0.00    -0.200 F 
ATOM     79  C   UNL A   1      38.336  33.594  37.472  1.00  0.00     0.200 A 
ATOM     80  F   UNL A   1      37.205  31.710  38.336  1.00  0.00    -0.200 F 
ATOM     81  F   UNL A   1      37.905  34.342  38.497  1.00  0.00    -0.200 F 
ENDBRANCH  47  71
BRANCH  59  82
ATOM     82  C   UNL A   1      44.595  27.671  34.472  1.00  0.00     0.064 A 
ATOM     83  C   UNL A   1      44.445  26.521  35.261  1.00  0.00     0.173 A 
ATOM     84  C   UNL A   1      45.807  28.371  34.550  1.00  0.00     0.173 A 
ATOM     85  F   UNL A   1      43.296  25.828  35.231  1.00  0.00    -0.203 F 
ATOM     86  C   UNL A   1      45.463  26.099  36.111  1.00  0.00     0.198 A 
ATOM     87  C   UNL A   1      46.831  27.936  35.387  1.00  0.00     0.198 A 
ATOM     88  F   UNL A   1      45.998  29.475  33.812  1.00  0.00    -0.203 F 
ATOM     89  F   UNL A   1      45.285  25.020  36.884  1.00  0.00    -0.200 F 
ATOM     90  C   UNL A   1      46.657  26.804  36.169  1.00  0.00     0.200 A 
ATOM     91  F   UNL A   1      47.986  28.614  35.439  1.00  0.00    -0.200 F 
ATOM     92  F   UNL A   1      47.637  26.397  36.988  1.00  0.00    -0.200 F 
ENDBRANCH  59  82
ENDBRANCH  33  34
ENDBRANCH  26  28
ENDBRANCH  25  26
ENDBRANCH  24  25
ENDBRANCH  23  24
ENDBRANCH   1  23
TORSDOF 16
ENDMDL
MODEL 2
REMARK VINA RESULT:     -12.0      2.353      4.503
REMARK SMILES COC(=O)Cc1nc(NC(=O)[C@H]2CC[C@@H]2C(=O)OCCOC(=O)c2ccc(-c3c4nc(c(-c5c(F)c(F)c(F)c(F)c5F)c5ccc([nH]5)c(-c5c(F)c(F)c(F)c(F)c5F)c5nc(c(-c6c(F)c(F)c(F)c(F)c6F)c6ccc3[nH]6)C=C5)C=C4)cc2)sc1C
REMARK SMILES IDX 18 1 16 2 17 3 15 4 12 5 13 6 14 7 10 8 9 9 11 11 8 12 6 13
REMARK SMILES IDX 7 14 88 15 87 16 89 17 5 18 3 19 4 20 2 21 1 22 19 23 20 24
REMARK SMILES IDX 21 25 22 26 23 27 24 28 25 29 86 30 26 31 85 32 27 33 28 34
REMARK SMILES IDX 29 35 79 36 30 37 84 38 78 39 80 40 31 41 83 42 77 43 76 44
REMARK SMILES IDX 32 46 64 47 44 48 63 49 45 50 48 51 62 52 81 53 46 54 47 55
REMARK SMILES IDX 61 57 82 58 49 59 33 60 34 61 42 62 35 63 36 64 40 65 43 66
REMARK SMILES IDX 37 67 38 68 41 69 39 70 65 71 66 72 74 73 67 74 68 75 72 76
REMARK SMILES IDX 75 77 69 78 70 79 73 80 71 81 50 82 51 83 59 84 52 85 53 86
REMARK SMILES IDX 57 87 60 88 54 89 55 90 58 91 56 92
REMARK H PARENT 9 10 80 45 48 56
REMARK Flexibility Score: inf
ROOT
ATOM      1  O   UNL A   1      31.644  27.546  26.899  1.00  0.00    -0.462 OA
ENDROOT
BRANCH   1   2
ATOM      2  C   UNL A   1      31.988  26.325  26.395  1.00  0.00     0.309 C 
ATOM      3  O   UNL A   1      31.590  25.262  26.872  1.00  0.00    -0.252 OA
BRANCH   2   4
ATOM      4  C   UNL A   1      32.937  26.434  25.160  1.00  0.00     0.111 C 
ATOM      5  C   UNL A   1      32.434  25.722  23.855  1.00  0.00     0.093 C 
ATOM      6  C   UNL A   1      33.264  24.488  24.322  1.00  0.00     0.015 C 
ATOM      7  C   UNL A   1      34.128  25.444  25.153  1.00  0.00     0.017 C 
BRANCH   5   8
ATOM      8  C   UNL A   1      32.777  26.333  22.471  1.00  0.00     0.230 C 
ATOM      9  N   UNL A   1      31.873  27.156  21.828  1.00  0.00    -0.302 N 
ATOM     10  H   UNL A   1      32.096  27.387  20.897  1.00  0.00     0.172 HD
ATOM     11  O   UNL A   1      33.814  26.043  21.858  1.00  0.00    -0.274 OA
BRANCH   9  12
ATOM     12  C   UNL A   1      30.709  27.696  22.305  1.00  0.00     0.189 A 
ATOM     13  C   UNL A   1      29.038  29.143  22.526  1.00  0.00     0.068 A 
ATOM     14  N   UNL A   1      30.359  28.941  22.105  1.00  0.00    -0.224 NA
ATOM     15  C   UNL A   1      28.473  28.036  23.147  1.00  0.00     0.027 A 
ATOM     16  S   UNL A   1      29.659  26.818  23.305  1.00  0.00    -0.102 S 
ATOM     17  C   UNL A   1      27.096  27.756  23.641  1.00  0.00     0.058 C 
BRANCH  13  18
ATOM     18  C   UNL A   1      28.452  30.487  22.221  1.00  0.00     0.180 C 
BRANCH  18  19
ATOM     19  C   UNL A   1      28.029  31.278  23.426  1.00  0.00     0.311 C 
ATOM     20  O   UNL A   1      26.935  31.179  23.968  1.00  0.00    -0.252 OA
BRANCH  19  21
ATOM     21  O   UNL A   1      29.005  32.153  23.805  1.00  0.00    -0.469 OA
ATOM     22  C   UNL A   1      29.059  33.345  23.020  1.00  0.00     0.282 C 
ENDBRANCH  19  21
ENDBRANCH  18  19
ENDBRANCH  13  18
ENDBRANCH   9  12
ENDBRANCH   5   8
ENDBRANCH   2   4
ENDBRANCH   1   2
BRANCH   1  23
ATOM     23  C   UNL A   1      31.605  28.636  25.954  1.00  0.00     0.274 C 
BRANCH  23  24
ATOM     24  C   UNL A   1      31.758  29.975  26.669  1.00  0.00     0.275 C 
BRANCH  24  25
ATOM     25  O   UNL A   1      33.036  30.550  26.346  1.00  0.00    -0.458 OA
BRANCH  25  26
ATOM     26  C   UNL A   1      33.475  31.519  27.181  1.00  0.00     0.338 C 
ATOM     27  O   UNL A   1      32.908  32.554  27.483  1.00  0.00    -0.246 OA
BRANCH  26  28
ATOM     28  C   UNL A   1      34.801  31.153  27.710  1.00  0.00     0.060 A 
ATOM     29  C   UNL A   1      35.080  29.829  28.035  1.00  0.00     0.016 A 
ATOM     30  C   UNL A   1      35.728  32.153  28.005  1.00  0.00     0.016 A 
ATOM     31  C   UNL A   1      36.243  29.517  28.738  1.00  0.00     0.010 A 
ATOM     32  C   UNL A   1      36.936  31.822  28.631  1.00  0.00     0.010 A 
ATOM     33  C   UNL A   1      37.191  30.504  29.048  1.00  0.00    -0.014 A 
BRANCH  33  34
ATOM     34  C   UNL A   1      38.391  30.171  29.875  1.00  0.00     0.031 A 
ATOM     35  C   UNL A   1      39.505  29.340  29.287  1.00  0.00     0.074 A 
ATOM     36  C   UNL A   1      38.532  30.643  31.130  1.00  0.00     0.049 A 
ATOM     37  N   UNL A   1      40.526  28.777  29.883  1.00  0.00    -0.248 NA
ATOM     38  C   UNL A   1      39.458  29.106  27.835  1.00  0.00     0.031 C 
ATOM     39  C   UNL A   1      37.587  31.521  31.821  1.00  0.00     0.029 A 
ATOM     40  N   UNL A   1      39.541  30.463  32.047  1.00  0.00    -0.354 N 
ATOM     41  C   UNL A   1      41.198  28.066  28.896  1.00  0.00     0.074 A 
ATOM     42  C   UNL A   1      40.479  28.279  27.658  1.00  0.00     0.031 C 
ATOM     43  C   UNL A   1      38.087  31.850  33.022  1.00  0.00     0.029 A 
ATOM     44  C   UNL A   1      39.339  31.129  33.231  1.00  0.00     0.049 A 
ATOM     45  H   UNL A   1      40.336  29.908  31.870  1.00  0.00     0.167 HD
ATOM     46  C   UNL A   1      42.310  27.300  29.012  1.00  0.00     0.037 A 
ATOM     47  C   UNL A   1      40.050  31.126  34.375  1.00  0.00     0.037 A 
ATOM     48  C   UNL A   1      43.075  27.146  30.221  1.00  0.00     0.049 A 
ATOM     49  C   UNL A   1      41.268  30.252  34.489  1.00  0.00     0.074 A 
ATOM     50  C   UNL A   1      44.206  26.377  30.438  1.00  0.00     0.029 A 
ATOM     51  N   UNL A   1      42.804  27.801  31.412  1.00  0.00    -0.354 N 
ATOM     52  N   UNL A   1      41.824  29.485  33.585  1.00  0.00    -0.248 NA
ATOM     53  C   UNL A   1      41.936  30.215  35.800  1.00  0.00     0.031 C 
ATOM     54  C   UNL A   1      44.610  26.554  31.767  1.00  0.00     0.029 A 
ATOM     55  C   UNL A   1      43.745  27.455  32.367  1.00  0.00     0.049 A 
ATOM     56  H   UNL A   1      42.052  28.421  31.558  1.00  0.00     0.167 HD
ATOM     57  C   UNL A   1      42.901  28.875  34.212  1.00  0.00     0.074 A 
ATOM     58  C   UNL A   1      42.939  29.380  35.568  1.00  0.00     0.031 C 
ATOM     59  C   UNL A   1      43.772  27.964  33.712  1.00  0.00     0.037 A 
BRANCH  46  60
ATOM     60  C   UNL A   1      42.749  26.530  27.803  1.00  0.00     0.064 A 
ATOM     61  C   UNL A   1      43.681  27.043  26.891  1.00  0.00     0.173 A 
ATOM     62  C   UNL A   1      42.249  25.237  27.577  1.00  0.00     0.173 A 
ATOM     63  F   UNL A   1      44.176  28.280  27.057  1.00  0.00    -0.203 F 
ATOM     64  C   UNL A   1      44.085  26.297  25.786  1.00  0.00     0.198 A 
ATOM     65  C   UNL A   1      42.672  24.486  26.484  1.00  0.00     0.198 A 
ATOM     66  F   UNL A   1      41.358  24.699  28.424  1.00  0.00    -0.203 F 
ATOM     67  F   UNL A   1      44.950  26.821  24.906  1.00  0.00    -0.200 F 
ATOM     68  C   UNL A   1      43.585  25.018  25.587  1.00  0.00     0.200 A 
ATOM     69  F   UNL A   1      42.196  23.247  26.300  1.00  0.00    -0.200 F 
ATOM     70  F   UNL A   1      43.979  24.301  24.526  1.00  0.00    -0.200 F 
ENDBRANCH  46  60
BRANCH  47  71
ATOM     71  C   UNL A   1      39.600  31.947  35.529  1.00  0.00     0.064 A 
ATOM     72  C   UNL A   1      40.133  33.223  35.756  1.00  0.00     0.173 A 
ATOM     73  C   UNL A   1      38.631  31.474  36.427  1.00  0.00     0.173 A 
ATOM     74  F   UNL A   1      41.086  33.704  34.945  1.00  0.00    -0.203 F 
ATOM     75  C   UNL A   1      39.714  33.994  36.839  1.00  0.00     0.198 A 
ATOM     76  C   UNL A   1      38.192  32.257  37.490  1.00  0.00     0.198 A 
ATOM     77  F   UNL A   1      38.095  30.256  36.256  1.00  0.00    -0.203 F 
ATOM     78  F   UNL A   1      40.265  35.196  37.057  1.00  0.00    -0.200 F 
ATOM     79  C   UNL A   1      38.737  33.515  37.699  1.00  0.00     0.200 A 
ATOM     80  F   UNL A   1      37.240  31.795  38.311  1.00  0.00    -0.200 F 
ATOM     81  F   UNL A   1      38.326  34.261  38.732  1.00  0.00    -0.200 F 
ENDBRANCH  47  71
BRANCH  59  82
ATOM     82  C   UNL A   1      44.844  27.469  34.633  1.00  0.00     0.064 A 
ATOM     83  C   UNL A   1      46.055  28.160  34.781  1.00  0.00     0.173 A 
ATOM     84  C   UNL A   1      44.648  26.309  35.398  1.00  0.00     0.173 A 
ATOM     85  F   UNL A   1      46.293  29.265  34.058  1.00  0.00    -0.203 F 
ATOM     86  C   UNL A   1      47.041  27.697  35.646  1.00  0.00     0.198 A 
ATOM     87  C   UNL A   1      45.629  25.859  36.277  1.00  0.00     0.198 A 
ATOM     88  F   UNL A   1      43.505  25.616  35.293  1.00  0.00    -0.203 F 
ATOM     89  F   UNL A   1      48.207  28.350  35.744  1.00  0.00    -0.200 F 
ATOM     90  C   UNL A   1      46.826  26.550  36.397  1.00  0.00     0.200 A 
ATOM     91  F   UNL A   1      45.418  24.754  37.006  1.00  0.00    -0.200 F 
ATOM     92  F   UNL A   1      47.777  26.104  37.230  1.00  0.00    -0.200 F 
ENDBRANCH  59  82
ENDBRANCH  33  34
ENDBRANCH  26  28
ENDBRANCH  25  26
ENDBRANCH  24  25
ENDBRANCH  23  24
ENDBRANCH   1  23
TORSDOF 16
ENDMDL
MODEL 3
REMARK VINA RESULT:     -12.0      0.316      1.974
REMARK SMILES COC(=O)Cc1nc(NC(=O)[C@H]2CC[C@@H]2C(=O)OCCOC(=O)c2ccc(-c3c4nc(c(-c5c(F)c(F)c(F)c(F)c5F)c5ccc([nH]5)c(-c5c(F)c(F)c(F)c(F)c5F)c5nc(c(-c6c(F)c(F)c(F)c(F)c6F)c6ccc3[nH]6)C=C5)C=C4)cc2)sc1C
REMARK SMILES IDX 18 1 16 2 17 3 15 4 12 5 13 6 14 7 10 8 9 9 11 11 8 12 6 13
REMARK SMILES IDX 7 14 88 15 87 16 89 17 5 18 3 19 4 20 2 21 1 22 19 23 20 24
REMARK SMILES IDX 21 25 22 26 23 27 24 28 25 29 86 30 26 31 85 32 27 33 28 34
REMARK SMILES IDX 29 35 79 36 30 37 84 38 78 39 80 40 31 41 83 42 77 43 76 44
REMARK SMILES IDX 32 46 64 47 44 48 63 49 45 50 48 51 62 52 81 53 46 54 47 55
REMARK SMILES IDX 61 57 82 58 49 59 33 60 34 61 42 62 35 63 36 64 40 65 43 66
REMARK SMILES IDX 37 67 38 68 41 69 39 70 65 71 66 72 74 73 67 74 68 75 72 76
REMARK SMILES IDX 75 77 69 78 70 79 73 80 71 81 50 82 51 83 59 84 52 85 53 86
REMARK SMILES IDX 57 87 60 88 54 89 55 90 58 91 56 92
REMARK H PARENT 9 10 80 45 48 56
REMARK Flexibility Score: inf
ROOT
ATOM      1  O   UNL A   1      32.211  28.675  24.716  1.00  0.00    -0.462 OA
ENDROOT
BRANCH   1   2
ATOM      2  C   UNL A   1      31.916  27.523  24.045  1.00  0.00     0.309 C 
ATOM      3  O   UNL A   1      32.523  27.154  23.039  1.00  0.00    -0.252 OA
BRANCH   2   4
ATOM      4  C   UNL A   1      30.733  26.739  24.694  1.00  0.00     0.111 C 
ATOM      5  C   UNL A   1      31.000  25.217  24.974  1.00  0.00     0.093 C 
ATOM      6  C   UNL A   1      30.352  24.946  23.582  1.00  0.00     0.015 C 
ATOM      7  C   UNL A   1      29.622  26.287  23.714  1.00  0.00     0.017 C 
BRANCH   5   8
ATOM      8  C   UNL A   1      30.350  24.542  26.211  1.00  0.00     0.230 C 
ATOM      9  N   UNL A   1      30.679  23.245  26.551  1.00  0.00    -0.302 N 
ATOM     10  H   UNL A   1      30.124  22.837  27.254  1.00  0.00     0.172 HD
ATOM     11  O   UNL A   1      29.463  25.095  26.876  1.00  0.00    -0.274 OA
BRANCH   9  12
ATOM     12  C   UNL A   1      31.670  22.447  26.046  1.00  0.00     0.189 A 
ATOM     13  C   UNL A   1      32.648  20.941  24.738  1.00  0.00     0.068 A 
ATOM     14  N   UNL A   1      31.441  21.430  25.254  1.00  0.00    -0.224 NA
ATOM     15  C   UNL A   1      33.774  21.558  25.268  1.00  0.00     0.027 A 
ATOM     16  S   UNL A   1      33.292  22.641  26.497  1.00  0.00    -0.102 S 
ATOM     17  C   UNL A   1      35.224  21.448  24.945  1.00  0.00     0.058 C 
BRANCH  13  18
ATOM     18  C   UNL A   1      32.529  19.870  23.698  1.00  0.00     0.180 C 
BRANCH  18  19
ATOM     19  C   UNL A   1      32.493  18.468  24.238  1.00  0.00     0.311 C 
ATOM     20  O   UNL A   1      32.281  18.185  25.411  1.00  0.00    -0.252 OA
BRANCH  19  21
ATOM     21  O   UNL A   1      32.773  17.559  23.260  1.00  0.00    -0.469 OA
ATOM     22  C   UNL A   1      34.013  16.871  23.440  1.00  0.00     0.282 C 
ENDBRANCH  19  21
ENDBRANCH  18  19
ENDBRANCH  13  18
ENDBRANCH   9  12
ENDBRANCH   5   8
ENDBRANCH   2   4
ENDBRANCH   1   2
BRANCH   1  23
ATOM     23  C   UNL A   1      31.138  29.632  24.835  1.00  0.00     0.274 C 
BRANCH  23  24
ATOM     24  C   UNL A   1      31.403  30.600  25.983  1.00  0.00     0.275 C 
BRANCH  24  25
ATOM     25  O   UNL A   1      32.766  30.463  26.423  1.00  0.00    -0.458 OA
BRANCH  25  26
ATOM     26  C   UNL A   1      33.265  31.501  27.131  1.00  0.00     0.338 C 
ATOM     27  O   UNL A   1      32.749  32.589  27.321  1.00  0.00    -0.246 OA
BRANCH  26  28
ATOM     28  C   UNL A   1      34.587  31.141  27.674  1.00  0.00     0.060 A 
ATOM     29  C   UNL A   1      34.874  29.814  27.984  1.00  0.00     0.016 A 
ATOM     30  C   UNL A   1      35.501  32.145  27.994  1.00  0.00     0.016 A 
ATOM     31  C   UNL A   1      36.030  29.504  28.699  1.00  0.00     0.010 A 
ATOM     32  C   UNL A   1      36.703  31.816  28.632  1.00  0.00     0.010 A 
ATOM     33  C   UNL A   1      36.964  30.495  29.035  1.00  0.00    -0.014 A 
BRANCH  33  34
ATOM     34  C   UNL A   1      38.156  30.162  29.874  1.00  0.00     0.031 A 
ATOM     35  C   UNL A   1      39.261  29.304  29.308  1.00  0.00     0.074 A 
ATOM     36  C   UNL A   1      38.299  30.657  31.120  1.00  0.00     0.049 A 
ATOM     37  N   UNL A   1      40.271  28.738  29.919  1.00  0.00    -0.248 NA
ATOM     38  C   UNL A   1      39.216  29.041  27.860  1.00  0.00     0.031 C 
ATOM     39  C   UNL A   1      37.364  31.562  31.788  1.00  0.00     0.029 A 
ATOM     40  N   UNL A   1      39.302  30.482  32.044  1.00  0.00    -0.354 N 
ATOM     41  C   UNL A   1      40.937  27.998  28.950  1.00  0.00     0.074 A 
ATOM     42  C   UNL A   1      40.226  28.196  27.705  1.00  0.00     0.031 C 
ATOM     43  C   UNL A   1      37.864  31.909  32.984  1.00  0.00     0.029 A 
ATOM     44  C   UNL A   1      39.104  31.174  33.214  1.00  0.00     0.049 A 
ATOM     45  H   UNL A   1      40.089  29.912  31.882  1.00  0.00     0.167 HD
ATOM     46  C   UNL A   1      42.038  27.219  29.086  1.00  0.00     0.037 A 
ATOM     47  C   UNL A   1      39.811  31.185  34.360  1.00  0.00     0.037 A 
ATOM     48  C   UNL A   1      42.795  27.078  30.302  1.00  0.00     0.049 A 
ATOM     49  C   UNL A   1      41.015  30.296  34.498  1.00  0.00     0.074 A 
ATOM     50  C   UNL A   1      43.914  26.298  30.539  1.00  0.00     0.029 A 
ATOM     51  N   UNL A   1      42.529  27.761  31.478  1.00  0.00    -0.354 N 
ATOM     52  N   UNL A   1      41.564  29.502  33.611  1.00  0.00    -0.248 NA
ATOM     53  C   UNL A   1      41.677  30.276  35.812  1.00  0.00     0.031 C 
ATOM     54  C   UNL A   1      44.315  26.496  31.866  1.00  0.00     0.029 A 
ATOM     55  C   UNL A   1      43.461  27.421  32.444  1.00  0.00     0.049 A 
ATOM     56  H   UNL A   1      41.785  28.394  31.608  1.00  0.00     0.167 HD
ATOM     57  C   UNL A   1      42.630  28.890  34.256  1.00  0.00     0.074 A 
ATOM     58  C   UNL A   1      42.669  29.423  35.602  1.00  0.00     0.031 C 
ATOM     59  C   UNL A   1      43.489  27.957  33.779  1.00  0.00     0.037 A 
BRANCH  46  60
ATOM     60  C   UNL A   1      42.470  26.418  27.895  1.00  0.00     0.064 A 
ATOM     61  C   UNL A   1      41.945  25.148  27.622  1.00  0.00     0.173 A 
ATOM     62  C   UNL A   1      43.401  26.954  26.991  1.00  0.00     0.173 A 
ATOM     63  F   UNL A   1      41.063  24.587  28.463  1.00  0.00    -0.203 F 
ATOM     64  C   UNL A   1      42.351  24.434  26.496  1.00  0.00     0.198 A 
ATOM     65  C   UNL A   1      43.788  26.248  25.856  1.00  0.00     0.198 A 
ATOM     66  F   UNL A   1      43.929  28.169  27.206  1.00  0.00    -0.203 F 
ATOM     67  F   UNL A   1      41.865  23.205  26.272  1.00  0.00    -0.200 F 
ATOM     68  C   UNL A   1      43.267  24.987  25.612  1.00  0.00     0.200 A 
ATOM     69  F   UNL A   1      44.664  26.788  24.998  1.00  0.00    -0.200 F 
ATOM     70  F   UNL A   1      43.651  24.300  24.527  1.00  0.00    -0.200 F 
ENDBRANCH  46  60
BRANCH  47  71
ATOM     71  C   UNL A   1      39.368  32.035  35.496  1.00  0.00     0.064 A 
ATOM     72  C   UNL A   1      38.473  31.543  36.457  1.00  0.00     0.173 A 
ATOM     73  C   UNL A   1      39.825  33.353  35.643  1.00  0.00     0.173 A 
ATOM     74  F   UNL A   1      37.983  30.301  36.340  1.00  0.00    -0.203 F 
ATOM     75  C   UNL A   1      38.054  32.339  37.521  1.00  0.00     0.198 A 
ATOM     76  C   UNL A   1      39.429  34.136  36.723  1.00  0.00     0.198 A 
ATOM     77  F   UNL A   1      40.676  33.872  34.745  1.00  0.00    -0.203 F 
ATOM     78  F   UNL A   1      37.171  31.859  38.407  1.00  0.00    -0.200 F 
ATOM     79  C   UNL A   1      38.539  33.631  37.659  1.00  0.00     0.200 A 
ATOM     80  F   UNL A   1      39.910  35.379  36.858  1.00  0.00    -0.200 F 
ATOM     81  F   UNL A   1      38.146  34.391  38.689  1.00  0.00    -0.200 F 
ENDBRANCH  47  71
BRANCH  59  82
ATOM     82  C   UNL A   1      44.551  27.465  34.714  1.00  0.00     0.064 A 
ATOM     83  C   UNL A   1      45.781  28.126  34.832  1.00  0.00     0.173 A 
ATOM     84  C   UNL A   1      44.324  26.341  35.522  1.00  0.00     0.173 A 
ATOM     85  F   UNL A   1      46.048  29.196  34.068  1.00  0.00    -0.203 F 
ATOM     86  C   UNL A   1      46.758  27.667  35.711  1.00  0.00     0.198 A 
ATOM     87  C   UNL A   1      45.295  25.895  36.414  1.00  0.00     0.198 A 
ATOM     88  F   UNL A   1      43.161  25.678  35.447  1.00  0.00    -0.203 F 
ATOM     89  F   UNL A   1      47.942  28.290  35.780  1.00  0.00    -0.200 F 
ATOM     90  C   UNL A   1      46.512  26.555  36.504  1.00  0.00     0.200 A 
ATOM     91  F   UNL A   1      45.056  24.825  37.184  1.00  0.00    -0.200 F 
ATOM     92  F   UNL A   1      47.453  26.114  37.351  1.00  0.00    -0.200 F 
ENDBRANCH  59  82
ENDBRANCH  33  34
ENDBRANCH  26  28
ENDBRANCH  25  26
ENDBRANCH  24  25
ENDBRANCH  23  24
ENDBRANCH   1  23
TORSDOF 16
ENDMDL
