MODEL 1
REMARK VINA RESULT:     -12.3      0.000      0.000
REMARK SMILES O=C(CC[C@]12CCCC[C@]1(O)OC(=O)CC2)OCCOC(=O)c1ccc(-c2c3nc(c(-c4c(F)c(F)c(F)c(F)c4F)c4ccc([nH]4)c(-c4c(F)c(F)c(F)c(F)c4F)c4nc(c(-c5c(F)c(F)c(F)c(F)c5F)c5ccc2[nH]5)C=C4)C=C3)cc1
REMARK SMILES IDX 18 1 17 2 2 3 1 4 3 5 4 6 5 7 6 8 10 9 16 10 7 11 9 12 12 13
REMARK SMILES IDX 15 14 8 15 13 16 14 17 11 18 19 20 20 21 21 22 22 23 23 24
REMARK SMILES IDX 24 25 85 26 25 27 84 28 26 29 27 30 28 31 78 32 29 33 83 34
REMARK SMILES IDX 77 35 79 36 30 37 82 38 76 39 75 40 31 42 63 43 43 44 62 45
REMARK SMILES IDX 44 46 47 47 61 48 80 49 45 50 46 51 60 53 81 54 48 55 32 56
REMARK SMILES IDX 33 57 41 58 34 59 35 60 39 61 42 62 36 63 37 64 40 65 38 66
REMARK SMILES IDX 64 67 65 68 73 69 66 70 67 71 71 72 74 73 68 74 69 75 72 76
REMARK SMILES IDX 70 77 49 78 50 79 58 80 51 81 52 82 56 83 59 84 53 85 54 86
REMARK SMILES IDX 57 87 55 88
REMARK H PARENT 11 19 79 41 47 52
REMARK Flexibility Score: inf
ROOT
ATOM      1  C   UNL A   1      31.486  29.949  25.689  1.00  0.00     0.274 C 
ENDROOT
BRANCH   1   2
ATOM      2  O   UNL A   1      32.157  28.800  26.210  1.00  0.00    -0.462 OA
BRANCH   2   3
ATOM      3  C   UNL A   1      31.477  27.894  26.947  1.00  0.00     0.305 C 
ATOM      4  O   UNL A   1      31.040  28.179  28.059  1.00  0.00    -0.252 OA
BRANCH   3   5
ATOM      5  C   UNL A   1      31.380  26.488  26.405  1.00  0.00     0.123 C 
BRANCH   5   6
ATOM      6  C   UNL A   1      31.923  26.224  25.006  1.00  0.00     0.025 C 
BRANCH   6   7
ATOM      7  C   UNL A   1      31.175  26.321  23.600  1.00  0.00     0.037 C 
ATOM      8  C   UNL A   1      31.155  24.823  23.119  1.00  0.00     0.014 C 
ATOM      9  C   UNL A   1      31.804  27.087  22.406  1.00  0.00     0.216 C 
ATOM     10  C   UNL A   1      29.721  26.817  23.808  1.00  0.00     0.025 C 
ATOM     11  C   UNL A   1      32.556  24.290  22.745  1.00  0.00     0.001 C 
ATOM     12  C   UNL A   1      33.282  26.741  22.276  1.00  0.00     0.080 C 
ATOM     13  O   UNL A   1      31.627  28.483  22.505  1.00  0.00    -0.433 OA
ATOM     14  C   UNL A   1      29.292  28.095  23.077  1.00  0.00     0.123 C 
ATOM     15  C   UNL A   1      33.464  25.253  21.962  1.00  0.00     0.007 C 
ATOM     16  C   UNL A   1      30.343  28.894  22.342  1.00  0.00     0.308 C 
ATOM     17  O   UNL A   1      30.087  29.957  21.785  1.00  0.00    -0.252 OA
BRANCH   9  18
ATOM     18  O   UNL A   1      31.157  26.701  21.184  1.00  0.00    -0.356 OA
ATOM     19  H   UNL A   1      30.423  27.307  21.001  1.00  0.00     0.215 HD
ENDBRANCH   9  18
ENDBRANCH   6   7
ENDBRANCH   5   6
ENDBRANCH   3   5
ENDBRANCH   2   3
ENDBRANCH   1   2
BRANCH   1  20
ATOM     20  C   UNL A   1      31.747  31.234  26.464  1.00  0.00     0.275 C 
BRANCH  20  21
ATOM     21  O   UNL A   1      32.814  30.994  27.383  1.00  0.00    -0.458 OA
BRANCH  21  22
ATOM     22  C   UNL A   1      33.547  32.102  27.634  1.00  0.00     0.338 C 
ATOM     23  O   UNL A   1      33.123  33.227  27.839  1.00  0.00    -0.246 OA
BRANCH  22  24
ATOM     24  C   UNL A   1      34.945  31.676  27.856  1.00  0.00     0.060 A 
ATOM     25  C   UNL A   1      35.216  30.304  27.926  1.00  0.00     0.016 A 
ATOM     26  C   UNL A   1      35.975  32.615  28.000  1.00  0.00     0.016 A 
ATOM     27  C   UNL A   1      36.482  29.871  28.306  1.00  0.00     0.010 A 
ATOM     28  C   UNL A   1      37.244  32.185  28.359  1.00  0.00     0.010 A 
ATOM     29  C   UNL A   1      37.462  30.823  28.610  1.00  0.00    -0.014 A 
BRANCH  29  30
ATOM     30  C   UNL A   1      38.575  30.468  29.509  1.00  0.00     0.031 A 
ATOM     31  C   UNL A   1      39.578  29.472  28.995  1.00  0.00     0.074 A 
ATOM     32  C   UNL A   1      38.650  30.971  30.749  1.00  0.00     0.049 A 
ATOM     33  N   UNL A   1      40.558  28.874  29.616  1.00  0.00    -0.248 NA
ATOM     34  C   UNL A   1      39.429  29.070  27.585  1.00  0.00     0.031 C 
ATOM     35  C   UNL A   1      37.731  31.951  31.317  1.00  0.00     0.029 A 
ATOM     36  N   UNL A   1      39.529  30.693  31.760  1.00  0.00    -0.354 N 
ATOM     37  C   UNL A   1      41.123  28.013  28.681  1.00  0.00     0.074 A 
ATOM     38  C   UNL A   1      40.349  28.127  27.469  1.00  0.00     0.031 C 
ATOM     39  C   UNL A   1      38.079  32.177  32.595  1.00  0.00     0.029 A 
ATOM     40  C   UNL A   1      39.221  31.329  32.935  1.00  0.00     0.049 A 
ATOM     41  H   UNL A   1      40.305  30.097  31.654  1.00  0.00     0.167 HD
ATOM     42  C   UNL A   1      42.200  27.207  28.826  1.00  0.00     0.037 A 
ATOM     43  C   UNL A   1      39.788  31.205  34.149  1.00  0.00     0.037 A 
ATOM     44  C   UNL A   1      42.947  27.113  30.050  1.00  0.00     0.049 A 
ATOM     45  C   UNL A   1      40.963  30.277  34.305  1.00  0.00     0.074 A 
ATOM     46  C   UNL A   1      44.074  26.364  30.321  1.00  0.00     0.029 A 
ATOM     47  N   UNL A   1      42.620  27.794  31.218  1.00  0.00    -0.354 N 
ATOM     48  N   UNL A   1      41.522  29.492  33.413  1.00  0.00    -0.248 NA
ATOM     49  C   UNL A   1      41.592  30.222  35.630  1.00  0.00     0.031 C 
ATOM     50  C   UNL A   1      44.391  26.538  31.673  1.00  0.00     0.029 A 
ATOM     51  C   UNL A   1      43.509  27.457  32.223  1.00  0.00     0.049 A 
ATOM     52  H   UNL A   1      41.869  28.422  31.315  1.00  0.00     0.167 HD
ATOM     53  C   UNL A   1      42.589  28.879  34.054  1.00  0.00     0.074 A 
ATOM     54  C   UNL A   1      42.596  29.383  35.414  1.00  0.00     0.031 C 
ATOM     55  C   UNL A   1      43.490  27.989  33.565  1.00  0.00     0.037 A 
BRANCH  42  56
ATOM     56  C   UNL A   1      42.585  26.347  27.654  1.00  0.00     0.064 A 
ATOM     57  C   UNL A   1      42.020  25.079  27.439  1.00  0.00     0.173 A 
ATOM     58  C   UNL A   1      43.557  26.788  26.742  1.00  0.00     0.173 A 
ATOM     59  F   UNL A   1      41.098  24.599  28.287  1.00  0.00    -0.203 F 
ATOM     60  C   UNL A   1      42.449  24.267  26.391  1.00  0.00     0.198 A 
ATOM     61  C   UNL A   1      43.954  25.991  25.671  1.00  0.00     0.198 A 
ATOM     62  F   UNL A   1      44.131  27.991  26.892  1.00  0.00    -0.203 F 
ATOM     63  F   UNL A   1      41.951  23.030  26.257  1.00  0.00    -0.200 F 
ATOM     64  C   UNL A   1      43.411  24.725  25.505  1.00  0.00     0.200 A 
ATOM     65  F   UNL A   1      44.874  26.441  24.807  1.00  0.00    -0.200 F 
ATOM     66  F   UNL A   1      43.828  23.942  24.499  1.00  0.00    -0.200 F 
ENDBRANCH  42  56
BRANCH  43  67
ATOM     67  C   UNL A   1      39.248  31.995  35.285  1.00  0.00     0.064 A 
ATOM     68  C   UNL A   1      38.410  31.405  36.241  1.00  0.00     0.173 A 
ATOM     69  C   UNL A   1      39.607  33.339  35.472  1.00  0.00     0.173 A 
ATOM     70  F   UNL A   1      38.028  30.128  36.098  1.00  0.00    -0.203 F 
ATOM     71  C   UNL A   1      37.949  32.131  37.337  1.00  0.00     0.198 A 
ATOM     72  C   UNL A   1      39.169  34.054  36.584  1.00  0.00     0.198 A 
ATOM     73  F   UNL A   1      40.417  33.947  34.592  1.00  0.00    -0.203 F 
ATOM     74  F   UNL A   1      37.130  31.550  38.225  1.00  0.00    -0.200 F 
ATOM     75  C   UNL A   1      38.336  33.450  37.514  1.00  0.00     0.200 A 
ATOM     76  F   UNL A   1      39.563  35.323  36.761  1.00  0.00    -0.200 F 
ATOM     77  F   UNL A   1      37.910  34.139  38.581  1.00  0.00    -0.200 F 
ENDBRANCH  43  67
BRANCH  55  78
ATOM     78  C   UNL A   1      44.592  27.543  34.482  1.00  0.00     0.064 A 
ATOM     79  C   UNL A   1      44.493  26.372  35.246  1.00  0.00     0.173 A 
ATOM     80  C   UNL A   1      45.797  28.261  34.528  1.00  0.00     0.173 A 
ATOM     81  F   UNL A   1      43.358  25.658  35.244  1.00  0.00    -0.203 F 
ATOM     82  C   UNL A   1      45.557  25.946  36.038  1.00  0.00     0.198 A 
ATOM     83  C   UNL A   1      46.869  27.813  35.292  1.00  0.00     0.198 A 
ATOM     84  F   UNL A   1      45.945  29.383  33.805  1.00  0.00    -0.203 F 
ATOM     85  F   UNL A   1      45.428  24.846  36.791  1.00  0.00    -0.200 F 
ATOM     86  C   UNL A   1      46.746  26.660  36.050  1.00  0.00     0.200 A 
ATOM     87  F   UNL A   1      48.025  28.492  35.286  1.00  0.00    -0.200 F 
ATOM     88  F   UNL A   1      47.775  26.236  36.796  1.00  0.00    -0.200 F 
ENDBRANCH  55  78
ENDBRANCH  29  30
ENDBRANCH  22  24
ENDBRANCH  21  22
ENDBRANCH  20  21
ENDBRANCH   1  20
TORSDOF 14
ENDMDL
MODEL 2
REMARK VINA RESULT:     -12.3      0.238      2.009
REMARK SMILES O=C(CC[C@]12CCCC[C@]1(O)OC(=O)CC2)OCCOC(=O)c1ccc(-c2c3nc(c(-c4c(F)c(F)c(F)c(F)c4F)c4ccc([nH]4)c(-c4c(F)c(F)c(F)c(F)c4F)c4nc(c(-c5c(F)c(F)c(F)c(F)c5F)c5ccc2[nH]5)C=C4)C=C3)cc1
REMARK SMILES IDX 18 1 17 2 2 3 1 4 3 5 4 6 5 7 6 8 10 9 16 10 7 11 9 12 12 13
REMARK SMILES IDX 15 14 8 15 13 16 14 17 11 18 19 20 20 21 21 22 22 23 23 24
REMARK SMILES IDX 24 25 85 26 25 27 84 28 26 29 27 30 28 31 78 32 29 33 83 34
REMARK SMILES IDX 77 35 79 36 30 37 82 38 76 39 75 40 31 42 63 43 43 44 62 45
REMARK SMILES IDX 44 46 47 47 61 48 80 49 45 50 46 51 60 53 81 54 48 55 32 56
REMARK SMILES IDX 33 57 41 58 34 59 35 60 39 61 42 62 36 63 37 64 40 65 38 66
REMARK SMILES IDX 64 67 65 68 73 69 66 70 67 71 71 72 74 73 68 74 69 75 72 76
REMARK SMILES IDX 70 77 49 78 50 79 58 80 51 81 52 82 56 83 59 84 53 85 54 86
REMARK SMILES IDX 57 87 55 88
REMARK H PARENT 11 19 79 41 47 52
REMARK Flexibility Score: inf
ROOT
ATOM      1  C   UNL A   1      31.860  29.839  25.678  1.00  0.00     0.274 C 
ENDROOT
BRANCH   1   2
ATOM      2  O   UNL A   1      32.399  28.694  26.341  1.00  0.00    -0.462 OA
BRANCH   2   3
ATOM      3  C   UNL A   1      31.577  27.829  26.977  1.00  0.00     0.305 C 
ATOM      4  O   UNL A   1      31.028  28.135  28.032  1.00  0.00    -0.252 OA
BRANCH   3   5
ATOM      5  C   UNL A   1      31.455  26.437  26.407  1.00  0.00     0.123 C 
BRANCH   5   6
ATOM      6  C   UNL A   1      31.942  26.206  24.980  1.00  0.00     0.025 C 
BRANCH   6   7
ATOM      7  C   UNL A   1      31.137  26.331  23.609  1.00  0.00     0.037 C 
ATOM      8  C   UNL A   1      31.031  24.833  23.137  1.00  0.00     0.014 C 
ATOM      9  C   UNL A   1      31.744  27.064  22.384  1.00  0.00     0.216 C 
ATOM     10  C   UNL A   1      29.716  26.890  23.879  1.00  0.00     0.025 C 
ATOM     11  C   UNL A   1      32.389  24.239  22.704  1.00  0.00     0.001 C 
ATOM     12  C   UNL A   1      33.199  26.654  22.190  1.00  0.00     0.080 C 
ATOM     13  O   UNL A   1      31.633  28.467  22.484  1.00  0.00    -0.433 OA
ATOM     14  C   UNL A   1      29.311  28.183  23.161  1.00  0.00     0.123 C 
ATOM     15  C   UNL A   1      33.302  25.159  21.877  1.00  0.00     0.007 C 
ATOM     16  C   UNL A   1      30.362  28.933  22.375  1.00  0.00     0.308 C 
ATOM     17  O   UNL A   1      30.128  30.004  21.825  1.00  0.00    -0.252 OA
BRANCH   9  18
ATOM     18  O   UNL A   1      31.028  26.703  21.194  1.00  0.00    -0.356 OA
ATOM     19  H   UNL A   1      30.077  26.685  21.382  1.00  0.00     0.215 HD
ENDBRANCH   9  18
ENDBRANCH   6   7
ENDBRANCH   5   6
ENDBRANCH   3   5
ENDBRANCH   2   3
ENDBRANCH   1   2
BRANCH   1  20
ATOM     20  C   UNL A   1      31.901  31.120  26.502  1.00  0.00     0.275 C 
BRANCH  20  21
ATOM     21  O   UNL A   1      32.876  30.957  27.534  1.00  0.00    -0.458 OA
BRANCH  21  22
ATOM     22  C   UNL A   1      33.655  32.050  27.694  1.00  0.00     0.338 C 
ATOM     23  O   UNL A   1      33.277  33.201  27.834  1.00  0.00    -0.246 OA
BRANCH  22  24
ATOM     24  C   UNL A   1      35.041  31.587  27.913  1.00  0.00     0.060 A 
ATOM     25  C   UNL A   1      35.269  30.209  28.020  1.00  0.00     0.016 A 
ATOM     26  C   UNL A   1      36.101  32.497  28.019  1.00  0.00     0.016 A 
ATOM     27  C   UNL A   1      36.526  29.747  28.397  1.00  0.00     0.010 A 
ATOM     28  C   UNL A   1      37.361  32.037  28.376  1.00  0.00     0.010 A 
ATOM     29  C   UNL A   1      37.539  30.676  28.663  1.00  0.00    -0.014 A 
BRANCH  29  30
ATOM     30  C   UNL A   1      38.651  30.312  29.560  1.00  0.00     0.031 A 
ATOM     31  C   UNL A   1      39.630  29.289  29.053  1.00  0.00     0.074 A 
ATOM     32  C   UNL A   1      38.745  30.831  30.791  1.00  0.00     0.049 A 
ATOM     33  N   UNL A   1      40.603  28.680  29.676  1.00  0.00    -0.248 NA
ATOM     34  C   UNL A   1      39.463  28.869  27.650  1.00  0.00     0.031 C 
ATOM     35  C   UNL A   1      37.850  31.838  31.352  1.00  0.00     0.029 A 
ATOM     36  N   UNL A   1      39.625  30.550  31.801  1.00  0.00    -0.354 N 
ATOM     37  C   UNL A   1      41.143  27.795  28.750  1.00  0.00     0.074 A 
ATOM     38  C   UNL A   1      40.363  27.906  27.542  1.00  0.00     0.031 C 
ATOM     39  C   UNL A   1      38.212  32.075  32.623  1.00  0.00     0.029 A 
ATOM     40  C   UNL A   1      39.339  31.209  32.968  1.00  0.00     0.049 A 
ATOM     41  H   UNL A   1      40.389  29.937  31.698  1.00  0.00     0.167 HD
ATOM     42  C   UNL A   1      42.204  26.969  28.899  1.00  0.00     0.037 A 
ATOM     43  C   UNL A   1      39.912  31.092  34.180  1.00  0.00     0.037 A 
ATOM     44  C   UNL A   1      42.958  26.878  30.119  1.00  0.00     0.049 A 
ATOM     45  C   UNL A   1      41.069  30.143  34.341  1.00  0.00     0.074 A 
ATOM     46  C   UNL A   1      44.073  26.110  30.393  1.00  0.00     0.029 A 
ATOM     47  N   UNL A   1      42.654  27.582  31.279  1.00  0.00    -0.354 N 
ATOM     48  N   UNL A   1      41.606  29.333  33.457  1.00  0.00    -0.248 NA
ATOM     49  C   UNL A   1      41.706  30.094  35.663  1.00  0.00     0.031 C 
ATOM     50  C   UNL A   1      44.402  26.297  31.740  1.00  0.00     0.029 A 
ATOM     51  C   UNL A   1      43.543  27.242  32.283  1.00  0.00     0.049 A 
ATOM     52  H   UNL A   1      41.917  28.226  31.372  1.00  0.00     0.167 HD
ATOM     53  C   UNL A   1      42.665  28.708  34.099  1.00  0.00     0.074 A 
ATOM     54  C   UNL A   1      42.692  29.231  35.452  1.00  0.00     0.031 C 
ATOM     55  C   UNL A   1      43.545  27.794  33.617  1.00  0.00     0.037 A 
BRANCH  42  56
ATOM     56  C   UNL A   1      42.564  26.085  27.737  1.00  0.00     0.064 A 
ATOM     57  C   UNL A   1      43.545  26.446  26.798  1.00  0.00     0.173 A 
ATOM     58  C   UNL A   1      41.899  24.864  27.544  1.00  0.00     0.173 A 
ATOM     59  F   UNL A   1      44.203  27.608  26.923  1.00  0.00    -0.203 F 
ATOM     60  C   UNL A   1      43.807  25.648  25.686  1.00  0.00     0.198 A 
ATOM     61  C   UNL A   1      42.192  24.048  26.454  1.00  0.00     0.198 A 
ATOM     62  F   UNL A   1      40.954  24.463  28.408  1.00  0.00    -0.203 F 
ATOM     63  F   UNL A   1      44.689  26.055  24.764  1.00  0.00    -0.200 F 
ATOM     64  C   UNL A   1      43.134  24.447  25.517  1.00  0.00     0.200 A 
ATOM     65  F   UNL A   1      41.551  22.882  26.299  1.00  0.00    -0.200 F 
ATOM     66  F   UNL A   1      43.382  23.682  24.445  1.00  0.00    -0.200 F 
ENDBRANCH  42  56
BRANCH  43  67
ATOM     67  C   UNL A   1      39.396  31.909  35.308  1.00  0.00     0.064 A 
ATOM     68  C   UNL A   1      39.733  33.263  35.432  1.00  0.00     0.173 A 
ATOM     69  C   UNL A   1      38.510  31.367  36.252  1.00  0.00     0.173 A 
ATOM     70  F   UNL A   1      40.587  33.822  34.563  1.00  0.00    -0.203 F 
ATOM     71  C   UNL A   1      39.205  34.044  36.458  1.00  0.00     0.198 A 
ATOM     72  C   UNL A   1      37.961  32.155  37.260  1.00  0.00     0.198 A 
ATOM     73  F   UNL A   1      38.147  30.078  36.171  1.00  0.00    -0.203 F 
ATOM     74  F   UNL A   1      39.561  35.331  36.568  1.00  0.00    -0.200 F 
ATOM     75  C   UNL A   1      38.312  33.493  37.365  1.00  0.00     0.200 A 
ATOM     76  F   UNL A   1      37.082  31.624  38.121  1.00  0.00    -0.200 F 
ATOM     77  F   UNL A   1      37.788  34.251  38.338  1.00  0.00    -0.200 F 
ENDBRANCH  43  67
BRANCH  55  78
ATOM     78  C   UNL A   1      44.644  27.339  34.532  1.00  0.00     0.064 A 
ATOM     79  C   UNL A   1      45.853  28.039  34.647  1.00  0.00     0.173 A 
ATOM     80  C   UNL A   1      44.443  26.228  35.367  1.00  0.00     0.173 A 
ATOM     81  F   UNL A   1      46.096  29.100  33.863  1.00  0.00    -0.203 F 
ATOM     82  C   UNL A   1      46.828  27.633  35.554  1.00  0.00     0.198 A 
ATOM     83  C   UNL A   1      45.405  25.848  36.296  1.00  0.00     0.198 A 
ATOM     84  F   UNL A   1      43.298  25.531  35.303  1.00  0.00    -0.203 F 
ATOM     85  F   UNL A   1      47.993  28.292  35.620  1.00  0.00    -0.200 F 
ATOM     86  C   UNL A   1      46.599  26.546  36.384  1.00  0.00     0.200 A 
ATOM     87  F   UNL A   1      45.173  24.810  37.113  1.00  0.00    -0.200 F 
ATOM     88  F   UNL A   1      47.531  26.170  37.271  1.00  0.00    -0.200 F 
ENDBRANCH  55  78
ENDBRANCH  29  30
ENDBRANCH  22  24
ENDBRANCH  21  22
ENDBRANCH  20  21
ENDBRANCH   1  20
TORSDOF 14
ENDMDL
MODEL 3
REMARK VINA RESULT:     -12.3      1.159      2.308
REMARK SMILES O=C(CC[C@]12CCCC[C@]1(O)OC(=O)CC2)OCCOC(=O)c1ccc(-c2c3nc(c(-c4c(F)c(F)c(F)c(F)c4F)c4ccc([nH]4)c(-c4c(F)c(F)c(F)c(F)c4F)c4nc(c(-c5c(F)c(F)c(F)c(F)c5F)c5ccc2[nH]5)C=C4)C=C3)cc1
REMARK SMILES IDX 18 1 17 2 2 3 1 4 3 5 4 6 5 7 6 8 10 9 16 10 7 11 9 12 12 13
REMARK SMILES IDX 15 14 8 15 13 16 14 17 11 18 19 20 20 21 21 22 22 23 23 24
REMARK SMILES IDX 24 25 85 26 25 27 84 28 26 29 27 30 28 31 78 32 29 33 83 34
REMARK SMILES IDX 77 35 79 36 30 37 82 38 76 39 75 40 31 42 63 43 43 44 62 45
REMARK SMILES IDX 44 46 47 47 61 48 80 49 45 50 46 51 60 53 81 54 48 55 32 56
REMARK SMILES IDX 33 57 41 58 34 59 35 60 39 61 42 62 36 63 37 64 40 65 38 66
REMARK SMILES IDX 64 67 65 68 73 69 66 70 67 71 71 72 74 73 68 74 69 75 72 76
REMARK SMILES IDX 70 77 49 78 50 79 58 80 51 81 52 82 56 83 59 84 53 85 54 86
REMARK SMILES IDX 57 87 55 88
REMARK H PARENT 11 19 79 41 47 52
REMARK Flexibility Score: inf
ROOT
ATOM      1  C   UNL A   1      31.771  29.837  25.520  1.00  0.00     0.274 C 
ENDROOT
BRANCH   1   2
ATOM      2  O   UNL A   1      32.988  29.702  24.784  1.00  0.00    -0.462 OA
BRANCH   2   3
ATOM      3  C   UNL A   1      33.563  28.487  24.642  1.00  0.00     0.305 C 
ATOM      4  O   UNL A   1      34.189  28.196  23.626  1.00  0.00    -0.252 OA
BRANCH   3   5
ATOM      5  C   UNL A   1      33.308  27.465  25.723  1.00  0.00     0.123 C 
BRANCH   5   6
ATOM      6  C   UNL A   1      33.678  26.014  25.434  1.00  0.00     0.025 C 
BRANCH   6   7
ATOM      7  C   UNL A   1      33.009  24.989  24.413  1.00  0.00     0.037 C 
ATOM      8  C   UNL A   1      32.625  23.779  25.344  1.00  0.00     0.014 C 
ATOM      9  C   UNL A   1      33.835  24.334  23.274  1.00  0.00     0.216 C 
ATOM     10  C   UNL A   1      31.721  25.606  23.810  1.00  0.00     0.025 C 
ATOM     11  C   UNL A   1      33.855  23.010  25.872  1.00  0.00     0.001 C 
ATOM     12  C   UNL A   1      35.182  23.858  23.805  1.00  0.00     0.080 C 
ATOM     13  O   UNL A   1      34.011  25.193  22.170  1.00  0.00    -0.433 OA
ATOM     14  C   UNL A   1      31.641  25.742  22.285  1.00  0.00     0.123 C 
ATOM     15  C   UNL A   1      34.992  22.770  24.865  1.00  0.00     0.007 C 
ATOM     16  C   UNL A   1      32.875  25.435  21.467  1.00  0.00     0.308 C 
ATOM     17  O   UNL A   1      32.905  25.579  20.249  1.00  0.00    -0.252 OA
BRANCH   9  18
ATOM     18  O   UNL A   1      33.139  23.186  22.764  1.00  0.00    -0.356 OA
ATOM     19  H   UNL A   1      33.309  23.101  21.814  1.00  0.00     0.215 HD
ENDBRANCH   9  18
ENDBRANCH   6   7
ENDBRANCH   5   6
ENDBRANCH   3   5
ENDBRANCH   2   3
ENDBRANCH   1   2
BRANCH   1  20
ATOM     20  C   UNL A   1      31.768  30.979  26.527  1.00  0.00     0.275 C 
BRANCH  20  21
ATOM     21  O   UNL A   1      32.853  30.779  27.434  1.00  0.00    -0.458 OA
BRANCH  21  22
ATOM     22  C   UNL A   1      33.584  31.898  27.631  1.00  0.00     0.338 C 
ATOM     23  O   UNL A   1      33.157  33.030  27.790  1.00  0.00    -0.246 OA
BRANCH  22  24
ATOM     24  C   UNL A   1      34.984  31.488  27.863  1.00  0.00     0.060 A 
ATOM     25  C   UNL A   1      35.271  30.118  27.922  1.00  0.00     0.016 A 
ATOM     26  C   UNL A   1      36.002  32.438  28.025  1.00  0.00     0.016 A 
ATOM     27  C   UNL A   1      36.539  29.696  28.309  1.00  0.00     0.010 A 
ATOM     28  C   UNL A   1      37.273  32.019  28.392  1.00  0.00     0.010 A 
ATOM     29  C   UNL A   1      37.504  30.657  28.631  1.00  0.00    -0.014 A 
BRANCH  29  30
ATOM     30  C   UNL A   1      38.613  30.307  29.538  1.00  0.00     0.031 A 
ATOM     31  C   UNL A   1      39.608  29.294  29.041  1.00  0.00     0.074 A 
ATOM     32  C   UNL A   1      38.692  30.829  30.769  1.00  0.00     0.049 A 
ATOM     33  N   UNL A   1      40.582  28.698  29.673  1.00  0.00    -0.248 NA
ATOM     34  C   UNL A   1      39.457  28.870  27.637  1.00  0.00     0.031 C 
ATOM     35  C   UNL A   1      37.780  31.826  31.321  1.00  0.00     0.029 A 
ATOM     36  N   UNL A   1      39.567  30.560  31.786  1.00  0.00    -0.354 N 
ATOM     37  C   UNL A   1      41.140  27.817  28.752  1.00  0.00     0.074 A 
ATOM     38  C   UNL A   1      40.368  27.918  27.538  1.00  0.00     0.031 C 
ATOM     39  C   UNL A   1      38.130  32.070  32.595  1.00  0.00     0.029 A 
ATOM     40  C   UNL A   1      39.263  31.217  32.950  1.00  0.00     0.049 A 
ATOM     41  H   UNL A   1      40.338  29.955  31.691  1.00  0.00     0.167 HD
ATOM     42  C   UNL A   1      42.210  27.004  28.912  1.00  0.00     0.037 A 
ATOM     43  C   UNL A   1      39.828  31.108  34.166  1.00  0.00     0.037 A 
ATOM     44  C   UNL A   1      42.955  26.922  30.137  1.00  0.00     0.049 A 
ATOM     45  C   UNL A   1      40.994  30.172  34.339  1.00  0.00     0.074 A 
ATOM     46  C   UNL A   1      44.075  26.168  30.422  1.00  0.00     0.029 A 
ATOM     47  N   UNL A   1      42.633  27.625  31.294  1.00  0.00    -0.354 N 
ATOM     48  N   UNL A   1      41.548  29.368  33.461  1.00  0.00    -0.248 NA
ATOM     49  C   UNL A   1      41.621  30.132  35.666  1.00  0.00     0.031 C 
ATOM     50  C   UNL A   1      44.392  26.360  31.771  1.00  0.00     0.029 A 
ATOM     51  C   UNL A   1      43.517  27.296  32.306  1.00  0.00     0.049 A 
ATOM     52  H   UNL A   1      41.888  28.261  31.380  1.00  0.00     0.167 HD
ATOM     53  C   UNL A   1      42.609  28.755  34.112  1.00  0.00     0.074 A 
ATOM     54  C   UNL A   1      42.619  29.281  35.464  1.00  0.00     0.031 C 
ATOM     55  C   UNL A   1      43.502  27.850  33.638  1.00  0.00     0.037 A 
BRANCH  42  56
ATOM     56  C   UNL A   1      42.589  26.121  27.754  1.00  0.00     0.064 A 
ATOM     57  C   UNL A   1      43.582  26.487  26.828  1.00  0.00     0.173 A 
ATOM     58  C   UNL A   1      41.931  24.899  27.550  1.00  0.00     0.173 A 
ATOM     59  F   UNL A   1      44.233  27.652  26.963  1.00  0.00    -0.203 F 
ATOM     60  C   UNL A   1      43.861  25.691  25.720  1.00  0.00     0.198 A 
ATOM     61  C   UNL A   1      42.242  24.085  26.463  1.00  0.00     0.198 A 
ATOM     62  F   UNL A   1      40.976  24.493  28.400  1.00  0.00    -0.203 F 
ATOM     63  F   UNL A   1      44.755  26.103  24.810  1.00  0.00    -0.200 F 
ATOM     64  C   UNL A   1      43.196  24.488  25.541  1.00  0.00     0.200 A 
ATOM     65  F   UNL A   1      41.607  22.917  26.299  1.00  0.00    -0.200 F 
ATOM     66  F   UNL A   1      43.461  23.725  24.472  1.00  0.00    -0.200 F 
ENDBRANCH  42  56
BRANCH  43  67
ATOM     67  C   UNL A   1      39.294  31.921  35.289  1.00  0.00     0.064 A 
ATOM     68  C   UNL A   1      38.452  31.353  36.255  1.00  0.00     0.173 A 
ATOM     69  C   UNL A   1      39.662  33.265  35.453  1.00  0.00     0.173 A 
ATOM     70  F   UNL A   1      38.061  30.077  36.134  1.00  0.00    -0.203 F 
ATOM     71  C   UNL A   1      37.997  32.100  37.339  1.00  0.00     0.198 A 
ATOM     72  C   UNL A   1      39.229  34.002  36.553  1.00  0.00     0.198 A 
ATOM     73  F   UNL A   1      40.476  33.853  34.563  1.00  0.00    -0.203 F 
ATOM     74  F   UNL A   1      37.174  31.540  38.237  1.00  0.00    -0.200 F 
ATOM     75  C   UNL A   1      38.393  33.420  37.493  1.00  0.00     0.200 A 
ATOM     76  F   UNL A   1      39.632  35.271  36.708  1.00  0.00    -0.200 F 
ATOM     77  F   UNL A   1      37.972  34.130  38.549  1.00  0.00    -0.200 F 
ENDBRANCH  43  67
BRANCH  55  78
ATOM     78  C   UNL A   1      44.599  27.409  34.564  1.00  0.00     0.064 A 
ATOM     79  C   UNL A   1      45.799  28.123  34.686  1.00  0.00     0.173 A 
ATOM     80  C   UNL A   1      44.403  26.299  35.399  1.00  0.00     0.173 A 
ATOM     81  F   UNL A   1      46.037  29.185  33.902  1.00  0.00    -0.203 F 
ATOM     82  C   UNL A   1      46.772  27.729  35.601  1.00  0.00     0.198 A 
ATOM     83  C   UNL A   1      45.363  25.930  36.337  1.00  0.00     0.198 A 
ATOM     84  F   UNL A   1      43.267  25.589  35.328  1.00  0.00    -0.203 F 
ATOM     85  F   UNL A   1      47.929  28.402  35.675  1.00  0.00    -0.200 F 
ATOM     86  C   UNL A   1      46.548  26.642  36.433  1.00  0.00     0.200 A 
ATOM     87  F   UNL A   1      45.135  24.892  37.154  1.00  0.00    -0.200 F 
ATOM     88  F   UNL A   1      47.477  26.278  37.327  1.00  0.00    -0.200 F 
ENDBRANCH  55  78
ENDBRANCH  29  30
ENDBRANCH  22  24
ENDBRANCH  21  22
ENDBRANCH  20  21
ENDBRANCH   1  20
TORSDOF 14
ENDMDL
