MODEL 1
REMARK VINA RESULT:     -12.5      0.000      0.000
REMARK SMILES O=C(OCCOC(=O)c1ccc2[nH]c3c(c2c1)CN(C(=O)C1CC1)CC3)c1ccc(-c2c3nc(c(-c4c(F)c(F)c(F)c(F)c4F)c4ccc([nH]4)c(-c4c(F)c(F)c(F)c(F)c4F)c4nc(c(-c5c(F)c(F)c(F)c(F)c5F)c5ccc2[nH]5)C=C4)C=C3)cc1
REMARK SMILES IDX 4 1 3 2 2 3 1 4 27 5 28 6 89 7 29 8 88 9 30 10 31 11 32 12
REMARK SMILES IDX 82 13 33 14 87 15 81 16 83 17 34 18 86 19 80 20 79 21 35 23
REMARK SMILES IDX 67 24 47 25 66 26 48 27 51 28 65 29 84 30 49 31 50 32 64 34
REMARK SMILES IDX 85 35 52 36 36 37 37 38 45 39 38 40 39 41 43 42 46 43 40 44
REMARK SMILES IDX 41 45 44 46 42 47 68 48 69 49 77 50 70 51 71 52 75 53 78 54
REMARK SMILES IDX 72 55 73 56 76 57 74 58 53 59 54 60 62 61 55 62 56 63 60 64
REMARK SMILES IDX 63 65 57 66 58 67 61 68 59 69 5 70 6 71 7 72 8 73 9 74 10 75
REMARK SMILES IDX 17 76 11 77 16 78 12 79 15 80 13 81 14 82 18 83 26 85 19 86
REMARK SMILES IDX 25 87 20 88 21 89 22 90 23 91 24 92
REMARK H PARENT 83 22 51 33 13 84
REMARK Flexibility Score: inf
ROOT
ATOM      1  C   UNL A   1      46.261  19.321  25.244  1.00  0.00     0.275 C 
ENDROOT
BRANCH   1   2
ATOM      2  O   UNL A   1      46.080  20.766  25.268  1.00  0.00    -0.458 OA
BRANCH   2   3
ATOM      3  C   UNL A   1      45.241  21.508  24.491  1.00  0.00     0.338 C 
ATOM      4  O   UNL A   1      44.653  21.031  23.528  1.00  0.00    -0.246 OA
BRANCH   3   5
ATOM      5  C   UNL A   1      45.180  22.959  24.754  1.00  0.00     0.060 A 
ATOM      6  C   UNL A   1      46.111  23.465  25.655  1.00  0.00     0.016 A 
ATOM      7  C   UNL A   1      44.084  23.726  24.355  1.00  0.00     0.016 A 
ATOM      8  C   UNL A   1      45.744  24.560  26.413  1.00  0.00     0.010 A 
ATOM      9  C   UNL A   1      43.728  24.837  25.108  1.00  0.00     0.010 A 
ATOM     10  C   UNL A   1      44.492  25.172  26.224  1.00  0.00    -0.014 A 
BRANCH  10  11
ATOM     11  C   UNL A   1      44.150  26.293  27.111  1.00  0.00     0.031 A 
ATOM     12  C   UNL A   1      45.089  27.431  26.919  1.00  0.00     0.074 A 
ATOM     13  C   UNL A   1      43.083  26.351  27.942  1.00  0.00     0.049 A 
ATOM     14  N   UNL A   1      45.863  27.985  27.795  1.00  0.00    -0.248 NA
ATOM     15  C   UNL A   1      45.351  27.846  25.526  1.00  0.00     0.031 C 
ATOM     16  C   UNL A   1      42.010  25.366  28.092  1.00  0.00     0.029 A 
ATOM     17  N   UNL A   1      42.669  27.356  28.777  1.00  0.00    -0.354 N 
ATOM     18  C   UNL A   1      46.568  28.951  27.086  1.00  0.00     0.074 A 
ATOM     19  C   UNL A   1      46.374  28.683  25.686  1.00  0.00     0.031 C 
ATOM     20  C   UNL A   1      40.967  25.924  28.746  1.00  0.00     0.029 A 
ATOM     21  C   UNL A   1      41.327  27.268  29.153  1.00  0.00     0.049 A 
ATOM     22  H   UNL A   1      43.265  28.077  29.084  1.00  0.00     0.167 HD
ATOM     23  C   UNL A   1      46.988  30.094  27.683  1.00  0.00     0.037 A 
ATOM     24  C   UNL A   1      40.549  28.254  29.675  1.00  0.00     0.037 A 
ATOM     25  C   UNL A   1      47.114  29.953  29.104  1.00  0.00     0.049 A 
ATOM     26  C   UNL A   1      41.456  29.290  30.218  1.00  0.00     0.074 A 
ATOM     27  C   UNL A   1      47.897  29.190  29.943  1.00  0.00     0.029 A 
ATOM     28  N   UNL A   1      46.082  30.429  29.868  1.00  0.00    -0.354 N 
ATOM     29  N   UNL A   1      42.197  29.129  31.276  1.00  0.00    -0.248 NA
ATOM     30  C   UNL A   1      41.843  30.379  29.336  1.00  0.00     0.031 C 
ATOM     31  C   UNL A   1      47.080  28.909  31.075  1.00  0.00     0.029 A 
ATOM     32  C   UNL A   1      45.856  29.555  30.896  1.00  0.00     0.049 A 
ATOM     33  H   UNL A   1      45.584  31.263  29.704  1.00  0.00     0.167 HD
ATOM     34  C   UNL A   1      43.379  29.783  30.967  1.00  0.00     0.074 A 
ATOM     35  C   UNL A   1      43.063  30.624  29.818  1.00  0.00     0.031 C 
ATOM     36  C   UNL A   1      44.559  29.352  31.496  1.00  0.00     0.037 A 
BRANCH  23  37
ATOM     37  C   UNL A   1      46.830  31.420  26.991  1.00  0.00     0.064 A 
ATOM     38  C   UNL A   1      47.910  32.309  26.909  1.00  0.00     0.173 A 
ATOM     39  C   UNL A   1      45.566  31.949  26.637  1.00  0.00     0.173 A 
ATOM     40  F   UNL A   1      49.134  31.927  27.302  1.00  0.00    -0.203 F 
ATOM     41  C   UNL A   1      47.734  33.633  26.496  1.00  0.00     0.198 A 
ATOM     42  C   UNL A   1      45.404  33.245  26.160  1.00  0.00     0.198 A 
ATOM     43  F   UNL A   1      44.429  31.275  26.851  1.00  0.00    -0.203 F 
ATOM     44  F   UNL A   1      48.769  34.482  26.527  1.00  0.00    -0.200 F 
ATOM     45  C   UNL A   1      46.486  34.095  26.109  1.00  0.00     0.200 A 
ATOM     46  F   UNL A   1      44.179  33.676  25.828  1.00  0.00    -0.200 F 
ATOM     47  F   UNL A   1      46.313  35.371  25.744  1.00  0.00    -0.200 F 
ENDBRANCH  23  37
BRANCH  24  48
ATOM     48  C   UNL A   1      39.108  28.552  29.430  1.00  0.00     0.064 A 
ATOM     49  C   UNL A   1      38.210  28.707  30.506  1.00  0.00     0.173 A 
ATOM     50  C   UNL A   1      38.647  29.001  28.177  1.00  0.00     0.173 A 
ATOM     51  F   UNL A   1      38.570  28.343  31.745  1.00  0.00    -0.203 F 
ATOM     52  C   UNL A   1      36.959  29.317  30.345  1.00  0.00     0.198 A 
ATOM     53  C   UNL A   1      37.396  29.602  28.017  1.00  0.00     0.198 A 
ATOM     54  F   UNL A   1      39.439  28.962  27.097  1.00  0.00    -0.203 F 
ATOM     55  F   UNL A   1      36.169  29.518  31.410  1.00  0.00    -0.200 F 
ATOM     56  C   UNL A   1      36.560  29.779  29.103  1.00  0.00     0.200 A 
ATOM     57  F   UNL A   1      37.037  30.072  26.814  1.00  0.00    -0.200 F 
ATOM     58  F   UNL A   1      35.397  30.429  28.960  1.00  0.00    -0.200 F 
ENDBRANCH  24  48
BRANCH  36  59
ATOM     59  C   UNL A   1      44.493  28.420  32.673  1.00  0.00     0.064 A 
ATOM     60  C   UNL A   1      44.342  27.025  32.579  1.00  0.00     0.173 A 
ATOM     61  C   UNL A   1      44.726  28.960  33.946  1.00  0.00     0.173 A 
ATOM     62  F   UNL A   1      44.199  26.425  31.389  1.00  0.00    -0.203 F 
ATOM     63  C   UNL A   1      44.394  26.218  33.715  1.00  0.00     0.198 A 
ATOM     64  C   UNL A   1      44.817  28.148  35.071  1.00  0.00     0.198 A 
ATOM     65  F   UNL A   1      44.920  30.281  34.087  1.00  0.00    -0.203 F 
ATOM     66  F   UNL A   1      44.236  24.890  33.605  1.00  0.00    -0.200 F 
ATOM     67  C   UNL A   1      44.643  26.779  34.958  1.00  0.00     0.200 A 
ATOM     68  F   UNL A   1      45.105  28.692  36.262  1.00  0.00    -0.200 F 
ATOM     69  F   UNL A   1      44.742  25.999  36.043  1.00  0.00    -0.200 F 
ENDBRANCH  36  59
ENDBRANCH  10  11
ENDBRANCH   3   5
ENDBRANCH   2   3
ENDBRANCH   1   2
BRANCH   1  70
ATOM     70  C   UNL A   1      44.994  18.464  25.396  1.00  0.00     0.275 C 
BRANCH  70  71
ATOM     71  O   UNL A   1      43.998  19.145  26.158  1.00  0.00    -0.458 OA
BRANCH  71  72
ATOM     72  C   UNL A   1      42.714  18.764  26.037  1.00  0.00     0.338 C 
ATOM     73  O   UNL A   1      42.284  17.647  25.814  1.00  0.00    -0.246 OA
BRANCH  72  74
ATOM     74  C   UNL A   1      41.901  19.989  26.161  1.00  0.00     0.060 A 
ATOM     75  C   UNL A   1      42.518  21.165  26.593  1.00  0.00     0.018 A 
ATOM     76  C   UNL A   1      40.520  19.933  25.910  1.00  0.00     0.026 A 
ATOM     77  C   UNL A   1      41.765  22.323  26.808  1.00  0.00     0.027 A 
ATOM     78  C   UNL A   1      39.756  21.111  26.055  1.00  0.00     0.006 A 
ATOM     79  C   UNL A   1      40.397  22.271  26.510  1.00  0.00     0.046 A 
ATOM     80  C   UNL A   1      38.400  21.465  25.774  1.00  0.00     0.000 A 
ATOM     81  N   UNL A   1      39.455  23.278  26.551  1.00  0.00    -0.358 N 
ATOM     82  C   UNL A   1      38.306  22.829  25.978  1.00  0.00     0.023 A 
ATOM     83  C   UNL A   1      37.284  20.655  25.165  1.00  0.00     0.157 C 
ATOM     84  H   UNL A   1      39.591  24.176  26.932  1.00  0.00     0.166 HD
ATOM     85  C   UNL A   1      37.182  23.660  25.471  1.00  0.00     0.075 C 
ATOM     86  N   UNL A   1      36.203  21.544  24.651  1.00  0.00    -0.338 N 
ATOM     87  C   UNL A   1      36.628  22.894  24.250  1.00  0.00     0.126 C 
BRANCH  86  88
ATOM     88  C   UNL A   1      34.931  20.987  24.562  1.00  0.00     0.225 C 
ATOM     89  O   UNL A   1      34.761  19.788  24.788  1.00  0.00    -0.275 OA
BRANCH  88  90
ATOM     90  C   UNL A   1      33.688  21.738  24.190  1.00  0.00     0.079 C 
ATOM     91  C   UNL A   1      32.237  21.521  24.511  1.00  0.00     0.014 C 
ATOM     92  C   UNL A   1      32.998  22.614  25.210  1.00  0.00     0.014 C 
ENDBRANCH  88  90
ENDBRANCH  86  88
ENDBRANCH  72  74
ENDBRANCH  71  72
ENDBRANCH  70  71
ENDBRANCH   1  70
TORSDOF 13
ENDMDL
MODEL 2
REMARK VINA RESULT:     -12.2      4.044      9.349
REMARK SMILES O=C(OCCOC(=O)c1ccc2[nH]c3c(c2c1)CN(C(=O)C1CC1)CC3)c1ccc(-c2c3nc(c(-c4c(F)c(F)c(F)c(F)c4F)c4ccc([nH]4)c(-c4c(F)c(F)c(F)c(F)c4F)c4nc(c(-c5c(F)c(F)c(F)c(F)c5F)c5ccc2[nH]5)C=C4)C=C3)cc1
REMARK SMILES IDX 4 1 3 2 2 3 1 4 27 5 28 6 89 7 29 8 88 9 30 10 31 11 32 12
REMARK SMILES IDX 82 13 33 14 87 15 81 16 83 17 34 18 86 19 80 20 79 21 35 23
REMARK SMILES IDX 67 24 47 25 66 26 48 27 51 28 65 29 84 30 49 31 50 32 64 34
REMARK SMILES IDX 85 35 52 36 36 37 37 38 45 39 38 40 39 41 43 42 46 43 40 44
REMARK SMILES IDX 41 45 44 46 42 47 68 48 69 49 77 50 70 51 71 52 75 53 78 54
REMARK SMILES IDX 72 55 73 56 76 57 74 58 53 59 54 60 62 61 55 62 56 63 60 64
REMARK SMILES IDX 63 65 57 66 58 67 61 68 59 69 5 70 6 71 7 72 8 73 9 74 10 75
REMARK SMILES IDX 17 76 11 77 16 78 12 79 15 80 13 81 14 82 18 83 26 85 19 86
REMARK SMILES IDX 25 87 20 88 21 89 22 90 23 91 24 92
REMARK H PARENT 83 22 51 33 13 84
REMARK Flexibility Score: inf
ROOT
ATOM      1  C   UNL A   1      35.036  30.141  27.297  1.00  0.00     0.275 C 
ENDROOT
BRANCH   1   2
ATOM      2  O   UNL A   1      36.126  31.042  27.643  1.00  0.00    -0.458 OA
BRANCH   2   3
ATOM      3  C   UNL A   1      37.245  30.747  28.364  1.00  0.00     0.338 C 
ATOM      4  O   UNL A   1      37.627  31.451  29.291  1.00  0.00    -0.246 OA
BRANCH   3   5
ATOM      5  C   UNL A   1      38.081  29.627  27.890  1.00  0.00     0.060 A 
ATOM      6  C   UNL A   1      38.022  28.452  28.631  1.00  0.00     0.016 A 
ATOM      7  C   UNL A   1      39.083  29.819  26.937  1.00  0.00     0.016 A 
ATOM      8  C   UNL A   1      39.153  27.660  28.676  1.00  0.00     0.010 A 
ATOM      9  C   UNL A   1      40.212  29.010  26.973  1.00  0.00     0.010 A 
ATOM     10  C   UNL A   1      40.299  28.011  27.939  1.00  0.00    -0.014 A 
BRANCH  10  11
ATOM     11  C   UNL A   1      41.483  27.153  28.088  1.00  0.00     0.031 A 
ATOM     12  C   UNL A   1      42.179  27.421  29.375  1.00  0.00     0.074 A 
ATOM     13  C   UNL A   1      41.871  26.180  27.231  1.00  0.00     0.049 A 
ATOM     14  N   UNL A   1      43.397  27.815  29.558  1.00  0.00    -0.248 NA
ATOM     15  C   UNL A   1      41.335  27.470  30.587  1.00  0.00     0.031 C 
ATOM     16  C   UNL A   1      41.179  25.719  26.025  1.00  0.00     0.029 A 
ATOM     17  N   UNL A   1      42.933  25.315  27.300  1.00  0.00    -0.354 N 
ATOM     18  C   UNL A   1      43.518  27.972  30.934  1.00  0.00     0.074 A 
ATOM     19  C   UNL A   1      42.188  27.954  31.486  1.00  0.00     0.031 C 
ATOM     20  C   UNL A   1      41.683  24.527  25.637  1.00  0.00     0.029 A 
ATOM     21  C   UNL A   1      42.797  24.180  26.498  1.00  0.00     0.049 A 
ATOM     22  H   UNL A   1      43.722  25.481  27.866  1.00  0.00     0.167 HD
ATOM     23  C   UNL A   1      44.702  27.772  31.564  1.00  0.00     0.037 A 
ATOM     24  C   UNL A   1      43.488  23.013  26.596  1.00  0.00     0.037 A 
ATOM     25  C   UNL A   1      45.821  27.929  30.682  1.00  0.00     0.049 A 
ATOM     26  C   UNL A   1      44.719  23.293  27.368  1.00  0.00     0.074 A 
ATOM     27  C   UNL A   1      46.349  28.971  29.951  1.00  0.00     0.029 A 
ATOM     28  N   UNL A   1      46.376  26.783  30.176  1.00  0.00    -0.354 N 
ATOM     29  N   UNL A   1      45.716  24.002  26.923  1.00  0.00    -0.248 NA
ATOM     30  C   UNL A   1      44.667  23.114  28.810  1.00  0.00     0.031 C 
ATOM     31  C   UNL A   1      46.885  28.376  28.773  1.00  0.00     0.029 A 
ATOM     32  C   UNL A   1      46.703  26.996  28.865  1.00  0.00     0.049 A 
ATOM     33  H   UNL A   1      46.517  25.946  30.674  1.00  0.00     0.167 HD
ATOM     34  C   UNL A   1      46.144  24.721  28.026  1.00  0.00     0.074 A 
ATOM     35  C   UNL A   1      45.542  24.053  29.176  1.00  0.00     0.031 C 
ATOM     36  C   UNL A   1      46.705  25.953  27.867  1.00  0.00     0.037 A 
BRANCH  23  37
ATOM     37  C   UNL A   1      44.762  26.999  32.853  1.00  0.00     0.064 A 
ATOM     38  C   UNL A   1      44.332  25.666  32.900  1.00  0.00     0.173 A 
ATOM     39  C   UNL A   1      44.987  27.620  34.105  1.00  0.00     0.173 A 
ATOM     40  F   UNL A   1      44.013  25.017  31.770  1.00  0.00    -0.203 F 
ATOM     41  C   UNL A   1      44.146  25.004  34.116  1.00  0.00     0.198 A 
ATOM     42  C   UNL A   1      44.869  26.938  35.310  1.00  0.00     0.198 A 
ATOM     43  F   UNL A   1      45.213  28.936  34.214  1.00  0.00    -0.203 F 
ATOM     44  F   UNL A   1      43.637  23.765  34.127  1.00  0.00    -0.200 F 
ATOM     45  C   UNL A   1      44.428  25.635  35.318  1.00  0.00     0.200 A 
ATOM     46  F   UNL A   1      45.112  27.585  36.459  1.00  0.00    -0.200 F 
ATOM     47  F   UNL A   1      44.220  25.010  36.483  1.00  0.00    -0.200 F 
ENDBRANCH  23  37
BRANCH  24  48
ATOM     48  C   UNL A   1      43.014  21.613  26.393  1.00  0.00     0.064 A 
ATOM     49  C   UNL A   1      43.670  20.753  25.490  1.00  0.00     0.173 A 
ATOM     50  C   UNL A   1      42.126  20.995  27.294  1.00  0.00     0.173 A 
ATOM     51  F   UNL A   1      44.562  21.241  24.615  1.00  0.00    -0.203 F 
ATOM     52  C   UNL A   1      43.487  19.364  25.523  1.00  0.00     0.198 A 
ATOM     53  C   UNL A   1      41.939  19.611  27.321  1.00  0.00     0.198 A 
ATOM     54  F   UNL A   1      41.497  21.706  28.239  1.00  0.00    -0.203 F 
ATOM     55  F   UNL A   1      44.192  18.574  24.699  1.00  0.00    -0.200 F 
ATOM     56  C   UNL A   1      42.633  18.793  26.450  1.00  0.00     0.200 A 
ATOM     57  F   UNL A   1      41.133  19.070  28.246  1.00  0.00    -0.200 F 
ATOM     58  F   UNL A   1      42.513  17.461  26.535  1.00  0.00    -0.200 F 
ENDBRANCH  24  48
BRANCH  36  59
ATOM     59  C   UNL A   1      47.170  26.330  26.489  1.00  0.00     0.064 A 
ATOM     60  C   UNL A   1      46.431  27.111  25.583  1.00  0.00     0.173 A 
ATOM     61  C   UNL A   1      48.482  25.990  26.128  1.00  0.00     0.173 A 
ATOM     62  F   UNL A   1      45.201  27.546  25.890  1.00  0.00    -0.203 F 
ATOM     63  C   UNL A   1      46.977  27.505  24.361  1.00  0.00     0.198 A 
ATOM     64  C   UNL A   1      49.037  26.418  24.928  1.00  0.00     0.198 A 
ATOM     65  F   UNL A   1      49.247  25.282  26.975  1.00  0.00    -0.203 F 
ATOM     66  F   UNL A   1      46.251  28.240  23.505  1.00  0.00    -0.200 F 
ATOM     67  C   UNL A   1      48.283  27.168  24.041  1.00  0.00     0.200 A 
ATOM     68  F   UNL A   1      50.315  26.129  24.645  1.00  0.00    -0.200 F 
ATOM     69  F   UNL A   1      48.825  27.588  22.889  1.00  0.00    -0.200 F 
ENDBRANCH  36  59
ENDBRANCH  10  11
ENDBRANCH   3   5
ENDBRANCH   2   3
ENDBRANCH   1   2
BRANCH   1  70
ATOM     70  C   UNL A   1      33.609  30.679  27.487  1.00  0.00     0.275 C 
BRANCH  70  71
ATOM     71  O   UNL A   1      32.645  29.805  26.901  1.00  0.00    -0.458 OA
BRANCH  71  72
ATOM     72  C   UNL A   1      32.942  29.196  25.740  1.00  0.00     0.338 C 
ATOM     73  O   UNL A   1      33.426  29.693  24.738  1.00  0.00    -0.246 OA
BRANCH  72  74
ATOM     74  C   UNL A   1      32.506  27.794  25.878  1.00  0.00     0.060 A 
ATOM     75  C   UNL A   1      31.163  27.531  26.153  1.00  0.00     0.018 A 
ATOM     76  C   UNL A   1      33.456  26.761  25.797  1.00  0.00     0.026 A 
ATOM     77  C   UNL A   1      30.728  26.221  26.379  1.00  0.00     0.027 A 
ATOM     78  C   UNL A   1      33.022  25.427  25.953  1.00  0.00     0.006 A 
ATOM     79  C   UNL A   1      31.671  25.194  26.250  1.00  0.00     0.046 A 
ATOM     80  C   UNL A   1      33.646  24.149  25.813  1.00  0.00     0.000 A 
ATOM     81  N   UNL A   1      31.494  23.828  26.336  1.00  0.00    -0.358 N 
ATOM     82  C   UNL A   1      32.638  23.211  25.935  1.00  0.00     0.023 A 
ATOM     83  C   UNL A   1      35.049  23.786  25.398  1.00  0.00     0.157 C 
ATOM     84  H   UNL A   1      30.674  23.375  26.637  1.00  0.00     0.166 HD
ATOM     85  C   UNL A   1      32.780  21.792  25.512  1.00  0.00     0.075 C 
ATOM     86  N   UNL A   1      35.121  22.363  24.959  1.00  0.00    -0.338 N 
ATOM     87  C   UNL A   1      33.872  21.801  24.420  1.00  0.00     0.126 C 
BRANCH  86  88
ATOM     88  C   UNL A   1      36.363  21.744  25.060  1.00  0.00     0.225 C 
ATOM     89  O   UNL A   1      36.444  20.515  25.078  1.00  0.00    -0.275 OA
BRANCH  88  90
ATOM     90  C   UNL A   1      37.674  22.462  25.166  1.00  0.00     0.079 C 
ATOM     91  C   UNL A   1      38.327  23.224  26.284  1.00  0.00     0.014 C 
ATOM     92  C   UNL A   1      38.817  21.844  25.939  1.00  0.00     0.014 C 
ENDBRANCH  88  90
ENDBRANCH  86  88
ENDBRANCH  72  74
ENDBRANCH  71  72
ENDBRANCH  70  71
ENDBRANCH   1  70
TORSDOF 13
ENDMDL
MODEL 3
REMARK VINA RESULT:     -12.1      4.047      9.274
REMARK SMILES O=C(OCCOC(=O)c1ccc2[nH]c3c(c2c1)CN(C(=O)C1CC1)CC3)c1ccc(-c2c3nc(c(-c4c(F)c(F)c(F)c(F)c4F)c4ccc([nH]4)c(-c4c(F)c(F)c(F)c(F)c4F)c4nc(c(-c5c(F)c(F)c(F)c(F)c5F)c5ccc2[nH]5)C=C4)C=C3)cc1
REMARK SMILES IDX 4 1 3 2 2 3 1 4 27 5 28 6 89 7 29 8 88 9 30 10 31 11 32 12
REMARK SMILES IDX 82 13 33 14 87 15 81 16 83 17 34 18 86 19 80 20 79 21 35 23
REMARK SMILES IDX 67 24 47 25 66 26 48 27 51 28 65 29 84 30 49 31 50 32 64 34
REMARK SMILES IDX 85 35 52 36 36 37 37 38 45 39 38 40 39 41 43 42 46 43 40 44
REMARK SMILES IDX 41 45 44 46 42 47 68 48 69 49 77 50 70 51 71 52 75 53 78 54
REMARK SMILES IDX 72 55 73 56 76 57 74 58 53 59 54 60 62 61 55 62 56 63 60 64
REMARK SMILES IDX 63 65 57 66 58 67 61 68 59 69 5 70 6 71 7 72 8 73 9 74 10 75
REMARK SMILES IDX 17 76 11 77 16 78 12 79 15 80 13 81 14 82 18 83 26 85 19 86
REMARK SMILES IDX 25 87 20 88 21 89 22 90 23 91 24 92
REMARK H PARENT 83 22 51 33 13 84
REMARK Flexibility Score: inf
ROOT
ATOM      1  C   UNL A   1      35.650  31.845  27.720  1.00  0.00     0.275 C 
ENDROOT
BRANCH   1   2
ATOM      2  O   UNL A   1      36.397  31.650  28.954  1.00  0.00    -0.458 OA
BRANCH   2   3
ATOM      3  C   UNL A   1      36.868  30.474  29.458  1.00  0.00     0.338 C 
ATOM      4  O   UNL A   1      36.405  29.968  30.473  1.00  0.00    -0.246 OA
BRANCH   3   5
ATOM      5  C   UNL A   1      38.072  29.900  28.825  1.00  0.00     0.060 A 
ATOM      6  C   UNL A   1      37.973  28.584  28.386  1.00  0.00     0.016 A 
ATOM      7  C   UNL A   1      39.314  30.528  28.920  1.00  0.00     0.016 A 
ATOM      8  C   UNL A   1      39.118  27.811  28.403  1.00  0.00     0.010 A 
ATOM      9  C   UNL A   1      40.466  29.751  28.919  1.00  0.00     0.010 A 
ATOM     10  C   UNL A   1      40.349  28.369  28.793  1.00  0.00    -0.014 A 
BRANCH  10  11
ATOM     11  C   UNL A   1      41.510  27.468  28.845  1.00  0.00     0.031 A 
ATOM     12  C   UNL A   1      42.223  27.591  30.145  1.00  0.00     0.074 A 
ATOM     13  C   UNL A   1      41.863  26.573  27.894  1.00  0.00     0.049 A 
ATOM     14  N   UNL A   1      43.453  27.930  30.353  1.00  0.00    -0.248 NA
ATOM     15  C   UNL A   1      41.389  27.544  31.365  1.00  0.00     0.031 C 
ATOM     16  C   UNL A   1      41.150  26.252  26.655  1.00  0.00     0.029 A 
ATOM     17  N   UNL A   1      42.901  25.677  27.867  1.00  0.00    -0.354 N 
ATOM     18  C   UNL A   1      43.588  27.949  31.736  1.00  0.00     0.074 A 
ATOM     19  C   UNL A   1      42.264  27.914  32.298  1.00  0.00     0.031 C 
ATOM     20  C   UNL A   1      41.617  25.090  26.148  1.00  0.00     0.029 A 
ATOM     21  C   UNL A   1      42.727  24.630  26.960  1.00  0.00     0.049 A 
ATOM     22  H   UNL A   1      43.699  25.765  28.438  1.00  0.00     0.167 HD
ATOM     23  C   UNL A   1      44.771  27.656  32.332  1.00  0.00     0.037 A 
ATOM     24  C   UNL A   1      43.385  23.440  26.936  1.00  0.00     0.037 A 
ATOM     25  C   UNL A   1      45.888  27.867  31.458  1.00  0.00     0.049 A 
ATOM     26  C   UNL A   1      44.629  23.609  27.719  1.00  0.00     0.074 A 
ATOM     27  C   UNL A   1      46.440  28.961  30.825  1.00  0.00     0.029 A 
ATOM     28  N   UNL A   1      46.406  26.762  30.836  1.00  0.00    -0.354 N 
ATOM     29  N   UNL A   1      45.642  24.331  27.335  1.00  0.00    -0.248 NA
ATOM     30  C   UNL A   1      44.583  23.292  29.137  1.00  0.00     0.031 C 
ATOM     31  C   UNL A   1      46.949  28.469  29.590  1.00  0.00     0.029 A 
ATOM     32  C   UNL A   1      46.729  27.092  29.548  1.00  0.00     0.049 A 
ATOM     33  H   UNL A   1      46.527  25.876  31.249  1.00  0.00     0.167 HD
ATOM     34  C   UNL A   1      46.099  24.926  28.498  1.00  0.00     0.074 A 
ATOM     35  C   UNL A   1      45.487  24.167  29.583  1.00  0.00     0.031 C 
ATOM     36  C   UNL A   1      46.693  26.152  28.454  1.00  0.00     0.037 A 
BRANCH  23  37
ATOM     37  C   UNL A   1      44.820  26.760  33.538  1.00  0.00     0.064 A 
ATOM     38  C   UNL A   1      44.414  25.422  33.443  1.00  0.00     0.173 A 
ATOM     39  C   UNL A   1      45.006  27.257  34.850  1.00  0.00     0.173 A 
ATOM     40  F   UNL A   1      44.131  24.883  32.247  1.00  0.00    -0.203 F 
ATOM     41  C   UNL A   1      44.215  24.638  34.583  1.00  0.00     0.198 A 
ATOM     42  C   UNL A   1      44.876  26.456  35.979  1.00  0.00     0.198 A 
ATOM     43  F   UNL A   1      45.204  28.558  35.095  1.00  0.00    -0.203 F 
ATOM     44  F   UNL A   1      43.730  23.396  34.459  1.00  0.00    -0.200 F 
ATOM     45  C   UNL A   1      44.460  25.151  35.847  1.00  0.00     0.200 A 
ATOM     46  F   UNL A   1      45.082  26.989  37.191  1.00  0.00    -0.200 F 
ATOM     47  F   UNL A   1      44.239  24.409  36.939  1.00  0.00    -0.200 F 
ENDBRANCH  23  37
BRANCH  24  48
ATOM     48  C   UNL A   1      42.870  22.080  26.603  1.00  0.00     0.064 A 
ATOM     49  C   UNL A   1      43.515  21.280  25.639  1.00  0.00     0.173 A 
ATOM     50  C   UNL A   1      41.944  21.417  27.431  1.00  0.00     0.173 A 
ATOM     51  F   UNL A   1      44.440  21.813  24.826  1.00  0.00    -0.203 F 
ATOM     52  C   UNL A   1      43.287  19.901  25.547  1.00  0.00     0.198 A 
ATOM     53  C   UNL A   1      41.712  20.043  27.332  1.00  0.00     0.198 A 
ATOM     54  F   UNL A   1      41.319  22.063  28.423  1.00  0.00    -0.203 F 
ATOM     55  F   UNL A   1      43.982  19.163  24.668  1.00  0.00    -0.200 F 
ATOM     56  C   UNL A   1      42.396  19.281  26.405  1.00  0.00     0.200 A 
ATOM     57  F   UNL A   1      40.869  19.451  28.192  1.00  0.00    -0.200 F 
ATOM     58  F   UNL A   1      42.231  17.951  26.370  1.00  0.00    -0.200 F 
ENDBRANCH  24  48
BRANCH  36  59
ATOM     59  C   UNL A   1      47.159  26.649  27.114  1.00  0.00     0.064 A 
ATOM     60  C   UNL A   1      48.436  26.413  26.575  1.00  0.00     0.173 A 
ATOM     61  C   UNL A   1      46.216  27.280  26.290  1.00  0.00     0.173 A 
ATOM     62  F   UNL A   1      49.365  25.742  27.270  1.00  0.00    -0.203 F 
ATOM     63  C   UNL A   1      48.756  26.820  25.280  1.00  0.00     0.198 A 
ATOM     64  C   UNL A   1      46.526  27.649  24.986  1.00  0.00     0.198 A 
ATOM     65  F   UNL A   1      44.968  27.491  26.740  1.00  0.00    -0.203 F 
ATOM     66  F   UNL A   1      49.983  26.596  24.788  1.00  0.00    -0.200 F 
ATOM     67  C   UNL A   1      47.797  27.426  24.483  1.00  0.00     0.200 A 
ATOM     68  F   UNL A   1      45.581  28.191  24.206  1.00  0.00    -0.200 F 
ATOM     69  F   UNL A   1      48.088  27.772  23.222  1.00  0.00    -0.200 F 
ENDBRANCH  36  59
ENDBRANCH  10  11
ENDBRANCH   3   5
ENDBRANCH   2   3
ENDBRANCH   1   2
BRANCH   1  70
ATOM     70  C   UNL A   1      34.227  31.266  27.675  1.00  0.00     0.275 C 
BRANCH  70  71
ATOM     71  O   UNL A   1      34.225  29.940  27.146  1.00  0.00    -0.458 OA
BRANCH  71  72
ATOM     72  C   UNL A   1      33.048  29.344  26.892  1.00  0.00     0.338 C 
ATOM     73  O   UNL A   1      31.994  29.485  27.487  1.00  0.00    -0.246 OA
BRANCH  72  74
ATOM     74  C   UNL A   1      33.283  28.414  25.772  1.00  0.00     0.060 A 
ATOM     75  C   UNL A   1      33.456  28.936  24.488  1.00  0.00     0.018 A 
ATOM     76  C   UNL A   1      33.262  27.028  26.005  1.00  0.00     0.026 A 
ATOM     77  C   UNL A   1      33.592  28.083  23.388  1.00  0.00     0.027 A 
ATOM     78  C   UNL A   1      33.469  26.154  24.916  1.00  0.00     0.006 A 
ATOM     79  C   UNL A   1      33.618  26.705  23.635  1.00  0.00     0.046 A 
ATOM     80  C   UNL A   1      33.640  24.741  24.786  1.00  0.00     0.000 A 
ATOM     81  N   UNL A   1      33.822  25.663  22.755  1.00  0.00    -0.358 N 
ATOM     82  C   UNL A   1      33.976  24.512  23.464  1.00  0.00     0.023 A 
ATOM     83  C   UNL A   1      33.689  23.661  25.836  1.00  0.00     0.157 C 
ATOM     84  H   UNL A   1      33.852  25.739  21.774  1.00  0.00     0.166 HD
ATOM     85  C   UNL A   1      34.577  23.242  22.977  1.00  0.00     0.075 C 
ATOM     86  N   UNL A   1      34.326  22.425  25.297  1.00  0.00    -0.338 N 
ATOM     87  C   UNL A   1      35.289  22.633  24.204  1.00  0.00     0.126 C 
BRANCH  86  88
ATOM     88  C   UNL A   1      33.978  21.228  25.914  1.00  0.00     0.225 C 
ATOM     89  O   UNL A   1      33.856  21.173  27.138  1.00  0.00    -0.275 OA
BRANCH  88  90
ATOM     90  C   UNL A   1      33.738  19.931  25.200  1.00  0.00     0.079 C 
ATOM     91  C   UNL A   1      32.759  18.815  25.426  1.00  0.00     0.014 C 
ATOM     92  C   UNL A   1      32.541  19.778  24.290  1.00  0.00     0.014 C 
ENDBRANCH  88  90
ENDBRANCH  86  88
ENDBRANCH  72  74
ENDBRANCH  71  72
ENDBRANCH  70  71
ENDBRANCH   1  70
TORSDOF 13
ENDMDL
