MODEL 1
REMARK VINA RESULT:     -11.4      0.000      0.000
REMARK SMILES C[NH2+]C[C@H](C)C(=O)N[C@H](Cc1ccccc1)C(=O)OCCOC(=O)c1ccc(-c2c3nc(c(-c4c(F)c(F)c(F)c(F)c4F)c4ccc([nH]4)c(-c4c(F)c(F)c(F)c(F)c4F)c4nc(c(-c5c(F)c(F)c(F)c(F)c5F)c5ccc2[nH]5)C=C4)C=C3)cc1
REMARK SMILES IDX 20 1 19 2 17 3 18 4 9 5 8 6 6 7 7 8 4 10 5 11 3 12 2 13 1 14
REMARK SMILES IDX 10 17 11 18 12 19 16 20 13 21 15 22 14 23 21 24 22 25 23 26
REMARK SMILES IDX 24 27 25 28 26 29 87 30 27 31 86 32 28 33 29 34 30 35 80 36
REMARK SMILES IDX 31 37 85 38 79 39 81 40 32 41 84 42 78 43 77 44 33 46 65 47
REMARK SMILES IDX 45 48 64 49 46 50 49 51 63 52 82 53 47 54 48 55 62 57 83 58
REMARK SMILES IDX 50 59 34 60 35 61 43 62 36 63 37 64 41 65 44 66 38 67 39 68
REMARK SMILES IDX 42 69 40 70 66 71 67 72 75 73 68 74 69 75 73 76 76 77 70 78
REMARK SMILES IDX 71 79 74 80 72 81 51 82 52 83 60 84 53 85 54 86 58 87 61 88
REMARK SMILES IDX 55 89 56 90 59 91 57 92
REMARK H PARENT 8 9 2 15 2 16 81 45 49 56
REMARK Flexibility Score: inf
ROOT
ATOM      1  C   UNL A   1      36.011  20.388  25.102  1.00  0.00     0.274 C 
ENDROOT
BRANCH   1   2
ATOM      2  O   UNL A   1      35.098  21.509  25.159  1.00  0.00    -0.461 OA
BRANCH   2   3
ATOM      3  C   UNL A   1      34.175  21.540  26.151  1.00  0.00     0.329 C 
ATOM      4  O   UNL A   1      34.449  21.509  27.346  1.00  0.00    -0.250 OA
BRANCH   3   5
ATOM      5  C   UNL A   1      32.729  21.429  25.633  1.00  0.00     0.196 C 
BRANCH   5   6
ATOM      6  N   UNL A   1      31.788  22.142  26.517  1.00  0.00    -0.342 N 
ATOM      7  C   UNL A   1      31.095  23.294  26.547  1.00  0.00     0.229 C 
ATOM      8  O   UNL A   1      30.167  23.295  27.370  1.00  0.00    -0.275 OA
ATOM      9  H   UNL A   1      31.615  21.616  27.331  1.00  0.00     0.164 HD
BRANCH   7  10
ATOM     10  C   UNL A   1      31.400  24.579  25.803  1.00  0.00     0.130 C 
ATOM     11  C   UNL A   1      32.804  25.046  26.171  1.00  0.00     0.024 C 
BRANCH  10  12
ATOM     12  C   UNL A   1      31.116  24.593  24.306  1.00  0.00     0.273 C 
BRANCH  12  13
ATOM     13  N   UNL A   1      29.760  25.084  24.016  1.00  0.00    -0.348 N 
ATOM     14  C   UNL A   1      29.708  26.540  24.074  1.00  0.00     0.330 C 
ATOM     15  H   UNL A   1      29.487  24.778  23.082  1.00  0.00     0.346 HD
ATOM     16  H   UNL A   1      29.121  24.707  24.716  1.00  0.00     0.346 HD
ENDBRANCH  12  13
ENDBRANCH  10  12
ENDBRANCH   7  10
ENDBRANCH   5   6
BRANCH   5  17
ATOM     17  C   UNL A   1      32.198  20.293  24.718  1.00  0.00     0.072 C 
BRANCH  17  18
ATOM     18  C   UNL A   1      32.734  18.882  24.642  1.00  0.00    -0.045 A 
ATOM     19  C   UNL A   1      33.107  18.319  23.419  1.00  0.00     0.004 A 
ATOM     20  C   UNL A   1      32.673  18.015  25.737  1.00  0.00     0.004 A 
ATOM     21  C   UNL A   1      33.524  16.986  23.312  1.00  0.00     0.000 A 
ATOM     22  C   UNL A   1      33.085  16.679  25.645  1.00  0.00     0.000 A 
ATOM     23  C   UNL A   1      33.534  16.169  24.434  1.00  0.00     0.000 A 
ENDBRANCH  17  18
ENDBRANCH   5  17
ENDBRANCH   3   5
ENDBRANCH   2   3
ENDBRANCH   1   2
BRANCH   1  24
ATOM     24  C   UNL A   1      37.427  20.843  24.764  1.00  0.00     0.275 C 
BRANCH  24  25
ATOM     25  O   UNL A   1      37.889  21.710  25.808  1.00  0.00    -0.458 OA
BRANCH  25  26
ATOM     26  C   UNL A   1      39.127  21.444  26.278  1.00  0.00     0.338 C 
ATOM     27  O   UNL A   1      39.672  20.363  26.391  1.00  0.00    -0.246 OA
BRANCH  26  28
ATOM     28  C   UNL A   1      39.782  22.721  26.582  1.00  0.00     0.060 A 
ATOM     29  C   UNL A   1      40.904  22.711  27.406  1.00  0.00     0.016 A 
ATOM     30  C   UNL A   1      39.226  23.925  26.163  1.00  0.00     0.016 A 
ATOM     31  C   UNL A   1      41.432  23.893  27.891  1.00  0.00     0.010 A 
ATOM     32  C   UNL A   1      39.831  25.123  26.553  1.00  0.00     0.010 A 
ATOM     33  C   UNL A   1      40.933  25.110  27.425  1.00  0.00    -0.014 A 
BRANCH  33  34
ATOM     34  C   UNL A   1      41.646  26.351  27.791  1.00  0.00     0.031 A 
ATOM     35  C   UNL A   1      40.995  27.379  28.660  1.00  0.00     0.074 A 
ATOM     36  C   UNL A   1      42.904  26.511  27.342  1.00  0.00     0.049 A 
ATOM     37  N   UNL A   1      41.410  28.582  28.958  1.00  0.00    -0.248 NA
ATOM     38  C   UNL A   1      39.711  27.011  29.276  1.00  0.00     0.031 C 
ATOM     39  C   UNL A   1      43.648  25.525  26.550  1.00  0.00     0.029 A 
ATOM     40  N   UNL A   1      43.787  27.545  27.494  1.00  0.00    -0.354 N 
ATOM     41  C   UNL A   1      40.418  29.136  29.754  1.00  0.00     0.074 A 
ATOM     42  C   UNL A   1      39.386  28.132  29.909  1.00  0.00     0.031 C 
ATOM     43  C   UNL A   1      44.885  25.983  26.325  1.00  0.00     0.029 A 
ATOM     44  C   UNL A   1      44.985  27.332  26.860  1.00  0.00     0.049 A 
ATOM     45  H   UNL A   1      43.583  28.360  28.007  1.00  0.00     0.167 HD
ATOM     46  C   UNL A   1      40.380  30.380  30.286  1.00  0.00     0.037 A 
ATOM     47  C   UNL A   1      46.031  28.157  26.681  1.00  0.00     0.037 A 
ATOM     48  C   UNL A   1      41.438  31.347  30.133  1.00  0.00     0.049 A 
ATOM     49  C   UNL A   1      45.933  29.550  27.223  1.00  0.00     0.074 A 
ATOM     50  C   UNL A   1      41.515  32.635  30.634  1.00  0.00     0.029 A 
ATOM     51  N   UNL A   1      42.611  31.123  29.424  1.00  0.00    -0.354 N 
ATOM     52  N   UNL A   1      44.965  30.094  27.922  1.00  0.00    -0.248 NA
ATOM     53  C   UNL A   1      47.050  30.450  26.926  1.00  0.00     0.031 C 
ATOM     54  C   UNL A   1      42.716  33.203  30.192  1.00  0.00     0.029 A 
ATOM     55  C   UNL A   1      43.408  32.257  29.451  1.00  0.00     0.049 A 
ATOM     56  H   UNL A   1      42.844  30.282  28.969  1.00  0.00     0.167 HD
ATOM     57  C   UNL A   1      45.355  31.401  28.155  1.00  0.00     0.074 A 
ATOM     58  C   UNL A   1      46.659  31.561  27.536  1.00  0.00     0.031 C 
ATOM     59  C   UNL A   1      44.695  32.384  28.814  1.00  0.00     0.037 A 
BRANCH  46  60
ATOM     60  C   UNL A   1      39.135  30.785  31.020  1.00  0.00     0.064 A 
ATOM     61  C   UNL A   1      39.003  30.632  32.407  1.00  0.00     0.173 A 
ATOM     62  C   UNL A   1      38.060  31.351  30.316  1.00  0.00     0.173 A 
ATOM     63  F   UNL A   1      39.992  30.081  33.124  1.00  0.00    -0.203 F 
ATOM     64  C   UNL A   1      37.831  31.013  33.060  1.00  0.00     0.198 A 
ATOM     65  C   UNL A   1      36.901  31.750  30.975  1.00  0.00     0.198 A 
ATOM     66  F   UNL A   1      38.135  31.517  28.987  1.00  0.00    -0.203 F 
ATOM     67  F   UNL A   1      37.708  30.820  34.381  1.00  0.00    -0.200 F 
ATOM     68  C   UNL A   1      36.784  31.576  32.345  1.00  0.00     0.200 A 
ATOM     69  F   UNL A   1      35.894  32.300  30.281  1.00  0.00    -0.200 F 
ATOM     70  F   UNL A   1      35.659  31.941  32.975  1.00  0.00    -0.200 F 
ENDBRANCH  46  60
BRANCH  47  71
ATOM     71  C   UNL A   1      47.215  27.682  25.924  1.00  0.00     0.064 A 
ATOM     72  C   UNL A   1      47.241  27.739  24.525  1.00  0.00     0.173 A 
ATOM     73  C   UNL A   1      48.369  27.228  26.583  1.00  0.00     0.173 A 
ATOM     74  F   UNL A   1      46.156  28.149  23.852  1.00  0.00    -0.203 F 
ATOM     75  C   UNL A   1      48.380  27.370  23.813  1.00  0.00     0.198 A 
ATOM     76  C   UNL A   1      49.515  26.886  25.872  1.00  0.00     0.198 A 
ATOM     77  F   UNL A   1      48.395  27.161  27.922  1.00  0.00    -0.203 F 
ATOM     78  F   UNL A   1      48.376  27.420  22.474  1.00  0.00    -0.200 F 
ATOM     79  C   UNL A   1      49.520  26.955  24.488  1.00  0.00     0.200 A 
ATOM     80  F   UNL A   1      50.620  26.508  26.529  1.00  0.00    -0.200 F 
ATOM     81  F   UNL A   1      50.624  26.625  23.802  1.00  0.00    -0.200 F 
ENDBRANCH  47  71
BRANCH  59  82
ATOM     82  C   UNL A   1      45.393  33.705  28.908  1.00  0.00     0.064 A 
ATOM     83  C   UNL A   1      45.189  34.705  27.947  1.00  0.00     0.173 A 
ATOM     84  C   UNL A   1      46.267  33.971  29.969  1.00  0.00     0.173 A 
ATOM     85  F   UNL A   1      44.377  34.484  26.903  1.00  0.00    -0.203 F 
ATOM     86  C   UNL A   1      45.860  35.921  28.035  1.00  0.00     0.198 A 
ATOM     87  C   UNL A   1      46.918  35.197  30.067  1.00  0.00     0.198 A 
ATOM     88  F   UNL A   1      46.491  33.041  30.911  1.00  0.00    -0.203 F 
ATOM     89  F   UNL A   1      45.691  36.848  27.081  1.00  0.00    -0.200 F 
ATOM     90  C   UNL A   1      46.720  36.168  29.096  1.00  0.00     0.200 A 
ATOM     91  F   UNL A   1      47.744  35.435  31.094  1.00  0.00    -0.200 F 
ATOM     92  F   UNL A   1      47.367  37.338  29.176  1.00  0.00    -0.200 F 
ENDBRANCH  59  82
ENDBRANCH  33  34
ENDBRANCH  26  28
ENDBRANCH  25  26
ENDBRANCH  24  25
ENDBRANCH   1  24
TORSDOF 17
ENDMDL
MODEL 2
REMARK VINA RESULT:     -11.4      4.440      9.767
REMARK SMILES C[NH2+]C[C@H](C)C(=O)N[C@H](Cc1ccccc1)C(=O)OCCOC(=O)c1ccc(-c2c3nc(c(-c4c(F)c(F)c(F)c(F)c4F)c4ccc([nH]4)c(-c4c(F)c(F)c(F)c(F)c4F)c4nc(c(-c5c(F)c(F)c(F)c(F)c5F)c5ccc2[nH]5)C=C4)C=C3)cc1
REMARK SMILES IDX 20 1 19 2 17 3 18 4 9 5 8 6 6 7 7 8 4 10 5 11 3 12 2 13 1 14
REMARK SMILES IDX 10 17 11 18 12 19 16 20 13 21 15 22 14 23 21 24 22 25 23 26
REMARK SMILES IDX 24 27 25 28 26 29 87 30 27 31 86 32 28 33 29 34 30 35 80 36
REMARK SMILES IDX 31 37 85 38 79 39 81 40 32 41 84 42 78 43 77 44 33 46 65 47
REMARK SMILES IDX 45 48 64 49 46 50 49 51 63 52 82 53 47 54 48 55 62 57 83 58
REMARK SMILES IDX 50 59 34 60 35 61 43 62 36 63 37 64 41 65 44 66 38 67 39 68
REMARK SMILES IDX 42 69 40 70 66 71 67 72 75 73 68 74 69 75 73 76 76 77 70 78
REMARK SMILES IDX 71 79 74 80 72 81 51 82 52 83 60 84 53 85 54 86 58 87 61 88
REMARK SMILES IDX 55 89 56 90 59 91 57 92
REMARK H PARENT 8 9 2 15 2 16 81 45 49 56
REMARK Flexibility Score: inf
ROOT
ATOM      1  C   UNL A   1      31.402  29.184  25.029  1.00  0.00     0.274 C 
ENDROOT
BRANCH   1   2
ATOM      2  O   UNL A   1      32.314  28.160  25.491  1.00  0.00    -0.461 OA
BRANCH   2   3
ATOM      3  C   UNL A   1      31.850  27.224  26.355  1.00  0.00     0.329 C 
ATOM      4  O   UNL A   1      31.132  27.473  27.317  1.00  0.00    -0.250 OA
BRANCH   3   5
ATOM      5  C   UNL A   1      32.467  25.833  26.124  1.00  0.00     0.196 C 
BRANCH   5   6
ATOM      6  N   UNL A   1      31.544  24.761  26.543  1.00  0.00    -0.342 N 
ATOM      7  C   UNL A   1      31.590  23.480  26.949  1.00  0.00     0.229 C 
ATOM      8  O   UNL A   1      30.552  23.100  27.513  1.00  0.00    -0.275 OA
ATOM      9  H   UNL A   1      30.613  25.080  26.517  1.00  0.00     0.164 HD
BRANCH   7  10
ATOM     10  C   UNL A   1      32.681  22.462  26.686  1.00  0.00     0.130 C 
ATOM     11  C   UNL A   1      33.489  22.258  27.964  1.00  0.00     0.024 C 
BRANCH  10  12
ATOM     12  C   UNL A   1      32.265  21.165  26.004  1.00  0.00     0.273 C 
BRANCH  12  13
ATOM     13  N   UNL A   1      33.333  20.156  26.061  1.00  0.00    -0.348 N 
ATOM     14  C   UNL A   1      34.082  20.117  24.810  1.00  0.00     0.330 C 
ATOM     15  H   UNL A   1      33.971  20.388  26.823  1.00  0.00     0.346 HD
ATOM     16  H   UNL A   1      32.909  19.242  26.215  1.00  0.00     0.346 HD
ENDBRANCH  12  13
ENDBRANCH  10  12
ENDBRANCH   7  10
ENDBRANCH   5   6
BRANCH   5  17
ATOM     17  C   UNL A   1      33.989  25.536  26.050  1.00  0.00     0.072 C 
BRANCH  17  18
ATOM     18  C   UNL A   1      34.683  24.673  25.021  1.00  0.00    -0.045 A 
ATOM     19  C   UNL A   1      34.017  24.255  23.866  1.00  0.00     0.004 A 
ATOM     20  C   UNL A   1      35.922  24.079  25.278  1.00  0.00     0.004 A 
ATOM     21  C   UNL A   1      34.609  23.385  22.941  1.00  0.00     0.000 A 
ATOM     22  C   UNL A   1      36.527  23.205  24.364  1.00  0.00     0.000 A 
ATOM     23  C   UNL A   1      35.878  22.875  23.180  1.00  0.00     0.000 A 
ENDBRANCH  17  18
ENDBRANCH   5  17
ENDBRANCH   3   5
ENDBRANCH   2   3
ENDBRANCH   1   2
BRANCH   1  24
ATOM     24  C   UNL A   1      31.657  30.512  25.734  1.00  0.00     0.275 C 
BRANCH  24  25
ATOM     25  O   UNL A   1      33.007  30.521  26.218  1.00  0.00    -0.458 OA
BRANCH  25  26
ATOM     26  C   UNL A   1      33.314  31.528  27.064  1.00  0.00     0.338 C 
ATOM     27  O   UNL A   1      32.708  32.566  27.248  1.00  0.00    -0.246 OA
BRANCH  26  28
ATOM     28  C   UNL A   1      34.507  31.136  27.822  1.00  0.00     0.060 A 
ATOM     29  C   UNL A   1      35.414  32.126  28.189  1.00  0.00     0.016 A 
ATOM     30  C   UNL A   1      34.792  29.795  28.061  1.00  0.00     0.016 A 
ATOM     31  C   UNL A   1      36.647  31.791  28.717  1.00  0.00     0.010 A 
ATOM     32  C   UNL A   1      35.986  29.461  28.706  1.00  0.00     0.010 A 
ATOM     33  C   UNL A   1      36.921  30.459  29.030  1.00  0.00    -0.014 A 
BRANCH  33  34
ATOM     34  C   UNL A   1      38.153  30.151  29.783  1.00  0.00     0.031 A 
ATOM     35  C   UNL A   1      39.226  29.301  29.182  1.00  0.00     0.074 A 
ATOM     36  C   UNL A   1      38.289  30.680  31.013  1.00  0.00     0.049 A 
ATOM     37  N   UNL A   1      40.297  28.810  29.747  1.00  0.00    -0.248 NA
ATOM     38  C   UNL A   1      39.079  28.956  27.760  1.00  0.00     0.031 C 
ATOM     39  C   UNL A   1      37.327  31.584  31.652  1.00  0.00     0.029 A 
ATOM     40  N   UNL A   1      39.288  30.555  31.939  1.00  0.00    -0.354 N 
ATOM     41  C   UNL A   1      40.928  28.056  28.768  1.00  0.00     0.074 A 
ATOM     42  C   UNL A   1      40.130  28.168  27.565  1.00  0.00     0.031 C 
ATOM     43  C   UNL A   1      37.802  31.964  32.844  1.00  0.00     0.029 A 
ATOM     44  C   UNL A   1      39.044  31.249  33.097  1.00  0.00     0.049 A 
ATOM     45  H   UNL A   1      40.101  30.020  31.790  1.00  0.00     0.167 HD
ATOM     46  C   UNL A   1      42.063  27.328  28.885  1.00  0.00     0.037 A 
ATOM     47  C   UNL A   1      39.721  31.266  34.258  1.00  0.00     0.037 A 
ATOM     48  C   UNL A   1      42.847  27.260  30.092  1.00  0.00     0.049 A 
ATOM     49  C   UNL A   1      40.935  30.399  34.380  1.00  0.00     0.074 A 
ATOM     50  C   UNL A   1      44.020  26.563  30.326  1.00  0.00     0.029 A 
ATOM     51  N   UNL A   1      42.534  27.923  31.272  1.00  0.00    -0.354 N 
ATOM     52  N   UNL A   1      41.495  29.636  33.473  1.00  0.00    -0.248 NA
ATOM     53  C   UNL A   1      41.591  30.368  35.690  1.00  0.00     0.031 C 
ATOM     54  C   UNL A   1      44.392  26.771  31.659  1.00  0.00     0.029 A 
ATOM     55  C   UNL A   1      43.477  27.631  32.246  1.00  0.00     0.049 A 
ATOM     56  H   UNL A   1      41.757  28.513  31.398  1.00  0.00     0.167 HD
ATOM     57  C   UNL A   1      42.574  29.034  34.097  1.00  0.00     0.074 A 
ATOM     58  C   UNL A   1      42.599  29.538  35.458  1.00  0.00     0.031 C 
ATOM     59  C   UNL A   1      43.462  28.142  33.594  1.00  0.00     0.037 A 
BRANCH  46  60
ATOM     60  C   UNL A   1      42.483  26.501  27.705  1.00  0.00     0.064 A 
ATOM     61  C   UNL A   1      43.436  26.949  26.780  1.00  0.00     0.173 A 
ATOM     62  C   UNL A   1      41.927  25.227  27.509  1.00  0.00     0.173 A 
ATOM     63  F   UNL A   1      43.985  28.165  26.910  1.00  0.00    -0.203 F 
ATOM     64  C   UNL A   1      43.802  26.159  25.691  1.00  0.00     0.198 A 
ATOM     65  C   UNL A   1      42.311  24.432  26.433  1.00  0.00     0.198 A 
ATOM     66  F   UNL A   1      41.009  24.752  28.365  1.00  0.00    -0.203 F 
ATOM     67  F   UNL A   1      44.685  26.623  24.795  1.00  0.00    -0.200 F 
ATOM     68  C   UNL A   1      43.244  24.901  25.521  1.00  0.00     0.200 A 
ATOM     69  F   UNL A   1      41.774  23.214  26.277  1.00  0.00    -0.200 F 
ATOM     70  F   UNL A   1      43.597  24.143  24.473  1.00  0.00    -0.200 F 
ENDBRANCH  46  60
BRANCH  47  71
ATOM     71  C   UNL A   1      39.222  32.097  35.382  1.00  0.00     0.064 A 
ATOM     72  C   UNL A   1      38.424  31.538  36.387  1.00  0.00     0.173 A 
ATOM     73  C   UNL A   1      39.592  33.445  35.512  1.00  0.00     0.173 A 
ATOM     74  F   UNL A   1      38.032  30.259  36.296  1.00  0.00    -0.203 F 
ATOM     75  C   UNL A   1      38.020  32.294  37.486  1.00  0.00     0.198 A 
ATOM     76  C   UNL A   1      39.212  34.191  36.624  1.00  0.00     0.198 A 
ATOM     77  F   UNL A   1      40.361  34.024  34.578  1.00  0.00    -0.203 F 
ATOM     78  F   UNL A   1      37.244  31.741  38.428  1.00  0.00    -0.200 F 
ATOM     79  C   UNL A   1      38.425  33.616  37.609  1.00  0.00     0.200 A 
ATOM     80  F   UNL A   1      39.623  35.460  36.749  1.00  0.00    -0.200 F 
ATOM     81  F   UNL A   1      38.057  34.334  38.680  1.00  0.00    -0.200 F 
ENDBRANCH  47  71
BRANCH  59  82
ATOM     82  C   UNL A   1      44.537  27.678  34.527  1.00  0.00     0.064 A 
ATOM     83  C   UNL A   1      45.743  28.379  34.655  1.00  0.00     0.173 A 
ATOM     84  C   UNL A   1      44.354  26.524  35.300  1.00  0.00     0.173 A 
ATOM     85  F   UNL A   1      45.968  29.477  33.916  1.00  0.00    -0.203 F 
ATOM     86  C   UNL A   1      46.743  27.925  35.510  1.00  0.00     0.198 A 
ATOM     87  C   UNL A   1      45.346  26.086  36.173  1.00  0.00     0.198 A 
ATOM     88  F   UNL A   1      43.215  25.822  35.209  1.00  0.00    -0.203 F 
ATOM     89  F   UNL A   1      47.909  28.582  35.583  1.00  0.00    -0.200 F 
ATOM     90  C   UNL A   1      46.542  26.783  36.271  1.00  0.00     0.200 A 
ATOM     91  F   UNL A   1      45.148  24.985  36.911  1.00  0.00    -0.200 F 
ATOM     92  F   UNL A   1      47.506  26.346  37.091  1.00  0.00    -0.200 F 
ENDBRANCH  59  82
ENDBRANCH  33  34
ENDBRANCH  26  28
ENDBRANCH  25  26
ENDBRANCH  24  25
ENDBRANCH   1  24
TORSDOF 17
ENDMDL
MODEL 3
REMARK VINA RESULT:     -11.4      4.747      9.817
REMARK SMILES C[NH2+]C[C@H](C)C(=O)N[C@H](Cc1ccccc1)C(=O)OCCOC(=O)c1ccc(-c2c3nc(c(-c4c(F)c(F)c(F)c(F)c4F)c4ccc([nH]4)c(-c4c(F)c(F)c(F)c(F)c4F)c4nc(c(-c5c(F)c(F)c(F)c(F)c5F)c5ccc2[nH]5)C=C4)C=C3)cc1
REMARK SMILES IDX 20 1 19 2 17 3 18 4 9 5 8 6 6 7 7 8 4 10 5 11 3 12 2 13 1 14
REMARK SMILES IDX 10 17 11 18 12 19 16 20 13 21 15 22 14 23 21 24 22 25 23 26
REMARK SMILES IDX 24 27 25 28 26 29 87 30 27 31 86 32 28 33 29 34 30 35 80 36
REMARK SMILES IDX 31 37 85 38 79 39 81 40 32 41 84 42 78 43 77 44 33 46 65 47
REMARK SMILES IDX 45 48 64 49 46 50 49 51 63 52 82 53 47 54 48 55 62 57 83 58
REMARK SMILES IDX 50 59 34 60 35 61 43 62 36 63 37 64 41 65 44 66 38 67 39 68
REMARK SMILES IDX 42 69 40 70 66 71 67 72 75 73 68 74 69 75 73 76 76 77 70 78
REMARK SMILES IDX 71 79 74 80 72 81 51 82 52 83 60 84 53 85 54 86 58 87 61 88
REMARK SMILES IDX 55 89 56 90 59 91 57 92
REMARK H PARENT 8 9 2 15 2 16 81 45 49 56
REMARK Flexibility Score: inf
ROOT
ATOM      1  C   UNL A   1      32.177  28.297  26.012  1.00  0.00     0.274 C 
ENDROOT
BRANCH   1   2
ATOM      2  O   UNL A   1      33.547  27.993  25.656  1.00  0.00    -0.461 OA
BRANCH   2   3
ATOM      3  C   UNL A   1      33.815  27.613  24.383  1.00  0.00     0.329 C 
ATOM      4  O   UNL A   1      33.750  28.362  23.415  1.00  0.00    -0.250 OA
BRANCH   3   5
ATOM      5  C   UNL A   1      34.027  26.095  24.239  1.00  0.00     0.196 C 
BRANCH   5   6
ATOM      6  N   UNL A   1      33.753  25.644  22.861  1.00  0.00    -0.342 N 
ATOM      7  C   UNL A   1      32.723  25.572  22.001  1.00  0.00     0.229 C 
ATOM      8  O   UNL A   1      33.071  25.415  20.820  1.00  0.00    -0.275 OA
ATOM      9  H   UNL A   1      34.572  25.289  22.446  1.00  0.00     0.164 HD
BRANCH   7  10
ATOM     10  C   UNL A   1      31.243  25.535  22.327  1.00  0.00     0.130 C 
ATOM     11  C   UNL A   1      30.972  24.373  23.277  1.00  0.00     0.024 C 
BRANCH  10  12
ATOM     12  C   UNL A   1      30.598  26.847  22.755  1.00  0.00     0.273 C 
BRANCH  12  13
ATOM     13  N   UNL A   1      31.137  27.988  22.001  1.00  0.00    -0.348 N 
ATOM     14  C   UNL A   1      30.449  29.222  22.358  1.00  0.00     0.330 C 
ATOM     15  H   UNL A   1      32.131  28.088  22.212  1.00  0.00     0.346 HD
ATOM     16  H   UNL A   1      31.000  27.814  21.006  1.00  0.00     0.346 HD
ENDBRANCH  12  13
ENDBRANCH  10  12
ENDBRANCH   7  10
ENDBRANCH   5   6
BRANCH   5  17
ATOM     17  C   UNL A   1      33.941  25.070  25.402  1.00  0.00     0.072 C 
BRANCH  17  18
ATOM     18  C   UNL A   1      34.824  23.859  25.593  1.00  0.00    -0.045 A 
ATOM     19  C   UNL A   1      36.205  23.937  25.398  1.00  0.00     0.004 A 
ATOM     20  C   UNL A   1      34.286  22.578  25.753  1.00  0.00     0.004 A 
ATOM     21  C   UNL A   1      37.032  22.810  25.484  1.00  0.00     0.000 A 
ATOM     22  C   UNL A   1      35.100  21.440  25.839  1.00  0.00     0.000 A 
ATOM     23  C   UNL A   1      36.480  21.560  25.727  1.00  0.00     0.000 A 
ENDBRANCH  17  18
ENDBRANCH   5  17
ENDBRANCH   3   5
ENDBRANCH   2   3
ENDBRANCH   1   2
BRANCH   1  24
ATOM     24  C   UNL A   1      31.947  29.802  26.091  1.00  0.00     0.275 C 
BRANCH  24  25
ATOM     25  O   UNL A   1      33.221  30.461  26.074  1.00  0.00    -0.458 OA
BRANCH  25  26
ATOM     26  C   UNL A   1      33.390  31.424  27.005  1.00  0.00     0.338 C 
ATOM     27  O   UNL A   1      32.638  32.339  27.285  1.00  0.00    -0.246 OA
BRANCH  26  28
ATOM     28  C   UNL A   1      34.642  31.153  27.719  1.00  0.00     0.060 A 
ATOM     29  C   UNL A   1      34.843  29.880  28.245  1.00  0.00     0.016 A 
ATOM     30  C   UNL A   1      35.553  32.173  27.973  1.00  0.00     0.016 A 
ATOM     31  C   UNL A   1      35.901  29.630  29.098  1.00  0.00     0.010 A 
ATOM     32  C   UNL A   1      36.689  31.891  28.737  1.00  0.00     0.010 A 
ATOM     33  C   UNL A   1      36.863  30.619  29.307  1.00  0.00    -0.014 A 
BRANCH  33  34
ATOM     34  C   UNL A   1      38.089  30.264  30.050  1.00  0.00     0.031 A 
ATOM     35  C   UNL A   1      39.137  29.399  29.428  1.00  0.00     0.074 A 
ATOM     36  C   UNL A   1      38.244  30.766  31.289  1.00  0.00     0.049 A 
ATOM     37  N   UNL A   1      40.197  28.869  29.979  1.00  0.00    -0.248 NA
ATOM     38  C   UNL A   1      38.977  29.085  28.000  1.00  0.00     0.031 C 
ATOM     39  C   UNL A   1      37.308  31.682  31.949  1.00  0.00     0.029 A 
ATOM     40  N   UNL A   1      39.242  30.597  32.208  1.00  0.00    -0.354 N 
ATOM     41  C   UNL A   1      40.805  28.118  28.983  1.00  0.00     0.074 A 
ATOM     42  C   UNL A   1      40.006  28.274  27.785  1.00  0.00     0.031 C 
ATOM     43  C   UNL A   1      37.797  32.027  33.146  1.00  0.00     0.029 A 
ATOM     44  C   UNL A   1      39.020  31.274  33.381  1.00  0.00     0.049 A 
ATOM     45  H   UNL A   1      40.040  30.043  32.046  1.00  0.00     0.167 HD
ATOM     46  C   UNL A   1      41.921  27.358  29.082  1.00  0.00     0.037 A 
ATOM     47  C   UNL A   1      39.701  31.250  34.539  1.00  0.00     0.037 A 
ATOM     48  C   UNL A   1      42.707  27.246  30.284  1.00  0.00     0.049 A 
ATOM     49  C   UNL A   1      40.893  30.350  34.640  1.00  0.00     0.074 A 
ATOM     50  C   UNL A   1      43.862  26.514  30.500  1.00  0.00     0.029 A 
ATOM     51  N   UNL A   1      42.415  27.894  31.478  1.00  0.00    -0.354 N 
ATOM     52  N   UNL A   1      41.430  29.590  33.716  1.00  0.00    -0.248 NA
ATOM     53  C   UNL A   1      41.551  30.276  35.947  1.00  0.00     0.031 C 
ATOM     54  C   UNL A   1      44.244  26.687  31.836  1.00  0.00     0.029 A 
ATOM     55  C   UNL A   1      43.353  27.559  32.443  1.00  0.00     0.049 A 
ATOM     56  H   UNL A   1      41.655  28.502  31.618  1.00  0.00     0.167 HD
ATOM     57  C   UNL A   1      42.494  28.948  34.323  1.00  0.00     0.074 A 
ATOM     58  C   UNL A   1      42.536  29.424  35.694  1.00  0.00     0.031 C 
ATOM     59  C   UNL A   1      43.356  28.043  33.800  1.00  0.00     0.037 A 
BRANCH  46  60
ATOM     60  C   UNL A   1      42.315  26.544  27.884  1.00  0.00     0.064 A 
ATOM     61  C   UNL A   1      43.277  26.984  26.965  1.00  0.00     0.173 A 
ATOM     62  C   UNL A   1      41.724  25.289  27.666  1.00  0.00     0.173 A 
ATOM     63  F   UNL A   1      43.859  28.182  27.117  1.00  0.00    -0.203 F 
ATOM     64  C   UNL A   1      43.619  26.207  25.859  1.00  0.00     0.198 A 
ATOM     65  C   UNL A   1      42.084  24.506  26.573  1.00  0.00     0.198 A 
ATOM     66  F   UNL A   1      40.796  24.822  28.514  1.00  0.00    -0.203 F 
ATOM     67  F   UNL A   1      44.511  26.664  24.969  1.00  0.00    -0.200 F 
ATOM     68  C   UNL A   1      43.027  24.967  25.667  1.00  0.00     0.200 A 
ATOM     69  F   UNL A   1      41.514  23.306  26.394  1.00  0.00    -0.200 F 
ATOM     70  F   UNL A   1      43.356  24.221  24.603  1.00  0.00    -0.200 F 
ENDBRANCH  46  60
BRANCH  47  71
ATOM     71  C   UNL A   1      39.228  32.072  35.681  1.00  0.00     0.064 A 
ATOM     72  C   UNL A   1      38.358  31.537  36.638  1.00  0.00     0.173 A 
ATOM     73  C   UNL A   1      39.692  33.383  35.878  1.00  0.00     0.173 A 
ATOM     74  F   UNL A   1      37.876  30.295  36.483  1.00  0.00    -0.203 F 
ATOM     75  C   UNL A   1      37.976  32.277  37.754  1.00  0.00     0.198 A 
ATOM     76  C   UNL A   1      39.331  34.112  37.007  1.00  0.00     0.198 A 
ATOM     77  F   UNL A   1      40.532  33.939  34.991  1.00  0.00    -0.203 F 
ATOM     78  F   UNL A   1      37.130  31.747  38.649  1.00  0.00    -0.200 F 
ATOM     79  C   UNL A   1      38.472  33.559  37.944  1.00  0.00     0.200 A 
ATOM     80  F   UNL A   1      39.830  35.341  37.197  1.00  0.00    -0.200 F 
ATOM     81  F   UNL A   1      38.123  34.260  39.032  1.00  0.00    -0.200 F 
ENDBRANCH  47  71
BRANCH  59  82
ATOM     82  C   UNL A   1      44.422  27.533  34.720  1.00  0.00     0.064 A 
ATOM     83  C   UNL A   1      44.234  26.368  35.477  1.00  0.00     0.173 A 
ATOM     84  C   UNL A   1      45.640  28.214  34.840  1.00  0.00     0.173 A 
ATOM     85  F   UNL A   1      43.074  25.697  35.408  1.00  0.00    -0.203 F 
ATOM     86  C   UNL A   1      45.225  25.916  36.344  1.00  0.00     0.198 A 
ATOM     87  C   UNL A   1      46.638  27.746  35.690  1.00  0.00     0.198 A 
ATOM     88  F   UNL A   1      45.862  29.334  34.134  1.00  0.00    -0.203 F 
ATOM     89  F   UNL A   1      45.009  24.828  37.096  1.00  0.00    -0.200 F 
ATOM     90  C   UNL A   1      46.426  26.603  36.446  1.00  0.00     0.200 A 
ATOM     91  F   UNL A   1      47.800  28.407  35.784  1.00  0.00    -0.200 F 
ATOM     92  F   UNL A   1      47.377  26.168  37.283  1.00  0.00    -0.200 F 
ENDBRANCH  59  82
ENDBRANCH  33  34
ENDBRANCH  26  28
ENDBRANCH  25  26
ENDBRANCH  24  25
ENDBRANCH   1  24
TORSDOF 17
ENDMDL
