MODEL 1
REMARK VINA RESULT:     -14.0      0.000      0.000
REMARK SMILES Cc1cccc(-c2cc(C(=O)OCCOC(=O)c3ccc(-c4c5nc(c(-c6c(F)c(F)c(F)c(F)c6F)c6ccc([nH]6)c(-c6c(F)c(F)c(F)c(F)c6F)c6nc(c(-c7c(F)c(F)c(F)c(F)c7F)c7ccc4[nH]7)C=C6)C=C5)cc3)ccn2)c1
REMARK SMILES IDX 14 1 13 2 12 3 10 4 11 5 9 6 7 7 8 8 83 9 82 10 81 11 6 12
REMARK SMILES IDX 1 13 2 14 3 15 84 16 4 17 5 18 15 19 16 20 17 21 18 22 19 23
REMARK SMILES IDX 80 24 20 25 79 26 21 27 22 28 23 29 73 30 24 31 78 32 72 33
REMARK SMILES IDX 74 34 25 35 77 36 71 37 70 38 26 40 58 41 38 42 57 43 39 44
REMARK SMILES IDX 42 45 56 46 75 47 40 48 41 49 55 51 76 52 43 53 27 54 28 55
REMARK SMILES IDX 36 56 29 57 30 58 34 59 37 60 31 61 32 62 35 63 33 64 59 65
REMARK SMILES IDX 60 66 68 67 61 68 62 69 66 70 69 71 63 72 64 73 67 74 65 75
REMARK SMILES IDX 44 76 45 77 53 78 46 79 47 80 51 81 54 82 48 83 49 84 52 85
REMARK SMILES IDX 50 86
REMARK H PARENT 74 39 42 50
REMARK Flexibility Score: inf
ROOT
ATOM      1  C   UNL A   1      34.436  29.037  27.250  1.00  0.00     0.275 C 
ENDROOT
BRANCH   1   2
ATOM      2  C   UNL A   1      33.053  28.340  27.230  1.00  0.00     0.275 C 
BRANCH   2   3
ATOM      3  O   UNL A   1      32.833  27.230  26.341  1.00  0.00    -0.458 OA
BRANCH   3   4
ATOM      4  C   UNL A   1      31.563  26.920  26.011  1.00  0.00     0.338 C 
ATOM      5  O   UNL A   1      30.730  26.381  26.712  1.00  0.00    -0.246 OA
BRANCH   4   6
ATOM      6  C   UNL A   1      31.322  27.318  24.617  1.00  0.00     0.063 A 
ATOM      7  C   UNL A   1      30.462  28.892  23.058  1.00  0.00     0.071 A 
ATOM      8  C   UNL A   1      30.896  28.613  24.347  1.00  0.00     0.044 A 
ATOM      9  N   UNL A   1      30.555  27.995  22.044  1.00  0.00    -0.256 NA
ATOM     10  C   UNL A   1      31.028  26.764  22.333  1.00  0.00     0.112 A 
ATOM     11  C   UNL A   1      31.374  26.362  23.607  1.00  0.00     0.036 A 
BRANCH   7  12
ATOM     12  C   UNL A   1      29.611  30.059  22.822  1.00  0.00     0.000 A 
ATOM     13  C   UNL A   1      27.982  32.007  19.969  1.00  0.00     0.044 C 
ATOM     14  C   UNL A   1      28.471  31.619  21.333  1.00  0.00    -0.050 A 
ATOM     15  C   UNL A   1      28.322  32.517  22.400  1.00  0.00     0.003 A 
ATOM     16  C   UNL A   1      29.117  30.392  21.552  1.00  0.00     0.013 A 
ATOM     17  C   UNL A   1      28.777  32.185  23.673  1.00  0.00     0.001 A 
ATOM     18  C   UNL A   1      29.406  30.961  23.881  1.00  0.00     0.010 A 
ENDBRANCH   7  12
ENDBRANCH   4   6
ENDBRANCH   3   4
ENDBRANCH   2   3
ENDBRANCH   1   2
BRANCH   1  19
ATOM     19  O   UNL A   1      34.823  30.012  28.258  1.00  0.00    -0.458 OA
BRANCH  19  20
ATOM     20  C   UNL A   1      35.958  30.751  28.172  1.00  0.00     0.338 C 
ATOM     21  O   UNL A   1      36.029  31.895  27.783  1.00  0.00    -0.246 OA
BRANCH  20  22
ATOM     22  C   UNL A   1      37.145  29.933  28.470  1.00  0.00     0.060 A 
ATOM     23  C   UNL A   1      37.183  29.151  29.635  1.00  0.00     0.016 A 
ATOM     24  C   UNL A   1      38.134  29.836  27.494  1.00  0.00     0.016 A 
ATOM     25  C   UNL A   1      38.155  28.166  29.764  1.00  0.00     0.010 A 
ATOM     26  C   UNL A   1      39.012  28.792  27.556  1.00  0.00     0.010 A 
ATOM     27  C   UNL A   1      39.049  27.992  28.708  1.00  0.00    -0.014 A 
BRANCH  27  28
ATOM     28  C   UNL A   1      40.310  27.291  28.836  1.00  0.00     0.031 A 
ATOM     29  C   UNL A   1      40.498  25.893  28.437  1.00  0.00     0.074 A 
ATOM     30  C   UNL A   1      41.308  28.153  29.124  1.00  0.00     0.049 A 
ATOM     31  N   UNL A   1      41.493  25.180  28.831  1.00  0.00    -0.248 NA
ATOM     32  C   UNL A   1      39.578  25.164  27.570  1.00  0.00     0.031 C 
ATOM     33  C   UNL A   1      42.743  28.025  28.982  1.00  0.00     0.029 A 
ATOM     34  N   UNL A   1      41.131  29.408  29.737  1.00  0.00    -0.354 N 
ATOM     35  C   UNL A   1      41.521  24.037  28.063  1.00  0.00     0.074 A 
ATOM     36  C   UNL A   1      40.255  24.024  27.365  1.00  0.00     0.031 C 
ATOM     37  C   UNL A   1      43.325  28.978  29.739  1.00  0.00     0.029 A 
ATOM     38  C   UNL A   1      42.270  29.628  30.511  1.00  0.00     0.049 A 
ATOM     39  H   UNL A   1      40.358  30.010  29.639  1.00  0.00     0.167 HD
ATOM     40  C   UNL A   1      42.690  23.333  27.986  1.00  0.00     0.037 A 
ATOM     41  C   UNL A   1      42.130  29.583  31.870  1.00  0.00     0.037 A 
ATOM     42  C   UNL A   1      43.718  23.989  28.792  1.00  0.00     0.049 A 
ATOM     43  C   UNL A   1      42.892  28.416  32.447  1.00  0.00     0.074 A 
ATOM     44  C   UNL A   1      44.668  24.938  28.450  1.00  0.00     0.029 A 
ATOM     45  N   UNL A   1      43.598  24.028  30.176  1.00  0.00    -0.354 N 
ATOM     46  N   UNL A   1      43.109  27.299  31.808  1.00  0.00    -0.248 NA
ATOM     47  C   UNL A   1      43.501  28.445  33.770  1.00  0.00     0.031 C 
ATOM     48  C   UNL A   1      45.052  25.617  29.632  1.00  0.00     0.029 A 
ATOM     49  C   UNL A   1      44.357  25.063  30.694  1.00  0.00     0.049 A 
ATOM     50  H   UNL A   1      43.053  23.408  30.713  1.00  0.00     0.167 HD
ATOM     51  C   UNL A   1      43.928  26.507  32.564  1.00  0.00     0.074 A 
ATOM     52  C   UNL A   1      44.126  27.257  33.793  1.00  0.00     0.031 C 
ATOM     53  C   UNL A   1      44.411  25.310  32.123  1.00  0.00     0.037 A 
BRANCH  40  54
ATOM     54  C   UNL A   1      43.000  22.282  26.943  1.00  0.00     0.064 A 
ATOM     55  C   UNL A   1      42.385  21.009  26.996  1.00  0.00     0.173 A 
ATOM     56  C   UNL A   1      43.908  22.455  25.884  1.00  0.00     0.173 A 
ATOM     57  F   UNL A   1      41.439  20.723  27.899  1.00  0.00    -0.203 F 
ATOM     58  C   UNL A   1      42.722  19.970  26.126  1.00  0.00     0.198 A 
ATOM     59  C   UNL A   1      44.272  21.402  25.031  1.00  0.00     0.198 A 
ATOM     60  F   UNL A   1      44.442  23.654  25.618  1.00  0.00    -0.203 F 
ATOM     61  F   UNL A   1      42.113  18.781  26.242  1.00  0.00    -0.200 F 
ATOM     62  C   UNL A   1      43.687  20.156  25.160  1.00  0.00     0.200 A 
ATOM     63  F   UNL A   1      45.198  21.603  24.082  1.00  0.00    -0.200 F 
ATOM     64  F   UNL A   1      44.036  19.151  24.347  1.00  0.00    -0.200 F 
ENDBRANCH  40  54
BRANCH  41  65
ATOM     65  C   UNL A   1      40.804  30.077  32.369  1.00  0.00     0.064 A 
ATOM     66  C   UNL A   1      40.478  31.443  32.200  1.00  0.00     0.173 A 
ATOM     67  C   UNL A   1      39.754  29.223  32.731  1.00  0.00     0.173 A 
ATOM     68  F   UNL A   1      41.434  32.320  31.850  1.00  0.00    -0.203 F 
ATOM     69  C   UNL A   1      39.166  31.908  32.292  1.00  0.00     0.198 A 
ATOM     70  C   UNL A   1      38.439  29.696  32.840  1.00  0.00     0.198 A 
ATOM     71  F   UNL A   1      39.973  27.913  32.909  1.00  0.00    -0.203 F 
ATOM     72  F   UNL A   1      38.890  33.193  32.025  1.00  0.00    -0.200 F 
ATOM     73  C   UNL A   1      38.144  31.030  32.597  1.00  0.00     0.200 A 
ATOM     74  F   UNL A   1      37.442  28.842  33.114  1.00  0.00    -0.200 F 
ATOM     75  F   UNL A   1      36.872  31.455  32.622  1.00  0.00    -0.200 F 
ENDBRANCH  41  65
BRANCH  53  76
ATOM     76  C   UNL A   1      45.090  24.294  32.993  1.00  0.00     0.064 A 
ATOM     77  C   UNL A   1      46.397  24.458  33.477  1.00  0.00     0.173 A 
ATOM     78  C   UNL A   1      44.365  23.199  33.517  1.00  0.00     0.173 A 
ATOM     79  F   UNL A   1      47.136  25.523  33.134  1.00  0.00    -0.203 F 
ATOM     80  C   UNL A   1      46.959  23.558  34.379  1.00  0.00     0.198 A 
ATOM     81  C   UNL A   1      44.908  22.340  34.466  1.00  0.00     0.198 A 
ATOM     82  F   UNL A   1      43.100  22.953  33.146  1.00  0.00    -0.203 F 
ATOM     83  F   UNL A   1      48.226  23.730  34.781  1.00  0.00    -0.200 F 
ATOM     84  C   UNL A   1      46.211  22.510  34.885  1.00  0.00     0.200 A 
ATOM     85  F   UNL A   1      44.153  21.364  34.989  1.00  0.00    -0.200 F 
ATOM     86  F   UNL A   1      46.740  21.679  35.792  1.00  0.00    -0.200 F 
ENDBRANCH  53  76
ENDBRANCH  27  28
ENDBRANCH  20  22
ENDBRANCH  19  20
ENDBRANCH   1  19
TORSDOF 12
ENDMDL
MODEL 2
REMARK VINA RESULT:     -13.9      2.294      3.907
REMARK SMILES Cc1cccc(-c2cc(C(=O)OCCOC(=O)c3ccc(-c4c5nc(c(-c6c(F)c(F)c(F)c(F)c6F)c6ccc([nH]6)c(-c6c(F)c(F)c(F)c(F)c6F)c6nc(c(-c7c(F)c(F)c(F)c(F)c7F)c7ccc4[nH]7)C=C6)C=C5)cc3)ccn2)c1
REMARK SMILES IDX 14 1 13 2 12 3 10 4 11 5 9 6 7 7 8 8 83 9 82 10 81 11 6 12
REMARK SMILES IDX 1 13 2 14 3 15 84 16 4 17 5 18 15 19 16 20 17 21 18 22 19 23
REMARK SMILES IDX 80 24 20 25 79 26 21 27 22 28 23 29 73 30 24 31 78 32 72 33
REMARK SMILES IDX 74 34 25 35 77 36 71 37 70 38 26 40 58 41 38 42 57 43 39 44
REMARK SMILES IDX 42 45 56 46 75 47 40 48 41 49 55 51 76 52 43 53 27 54 28 55
REMARK SMILES IDX 36 56 29 57 30 58 34 59 37 60 31 61 32 62 35 63 33 64 59 65
REMARK SMILES IDX 60 66 68 67 61 68 62 69 66 70 69 71 63 72 64 73 67 74 65 75
REMARK SMILES IDX 44 76 45 77 53 78 46 79 47 80 51 81 54 82 48 83 49 84 52 85
REMARK SMILES IDX 50 86
REMARK H PARENT 74 39 42 50
REMARK Flexibility Score: inf
ROOT
ATOM      1  C   UNL A   1      34.525  29.231  26.731  1.00  0.00     0.275 C 
ENDROOT
BRANCH   1   2
ATOM      2  C   UNL A   1      33.188  28.483  26.504  1.00  0.00     0.275 C 
BRANCH   2   3
ATOM      3  O   UNL A   1      33.171  27.044  26.516  1.00  0.00    -0.458 OA
BRANCH   3   4
ATOM      4  C   UNL A   1      31.976  26.420  26.540  1.00  0.00     0.338 C 
ATOM      5  O   UNL A   1      30.911  26.882  26.896  1.00  0.00    -0.246 OA
BRANCH   4   6
ATOM      6  C   UNL A   1      32.151  25.036  26.077  1.00  0.00     0.063 A 
ATOM      7  C   UNL A   1      33.593  23.226  25.538  1.00  0.00     0.071 A 
ATOM      8  C   UNL A   1      33.402  24.441  26.183  1.00  0.00     0.044 A 
ATOM      9  N   UNL A   1      32.585  22.557  24.925  1.00  0.00    -0.256 NA
ATOM     10  C   UNL A   1      31.369  23.141  24.891  1.00  0.00     0.112 A 
ATOM     11  C   UNL A   1      31.114  24.397  25.405  1.00  0.00     0.036 A 
BRANCH   7  12
ATOM     12  C   UNL A   1      34.954  22.777  25.238  1.00  0.00     0.000 A 
ATOM     13  C   UNL A   1      37.006  19.574  24.898  1.00  0.00     0.044 C 
ATOM     14  C   UNL A   1      36.633  21.023  25.002  1.00  0.00    -0.050 A 
ATOM     15  C   UNL A   1      37.643  21.994  25.057  1.00  0.00     0.003 A 
ATOM     16  C   UNL A   1      35.290  21.422  25.094  1.00  0.00     0.013 A 
ATOM     17  C   UNL A   1      37.323  23.344  25.166  1.00  0.00     0.001 A 
ATOM     18  C   UNL A   1      35.988  23.730  25.245  1.00  0.00     0.010 A 
ENDBRANCH   7  12
ENDBRANCH   4   6
ENDBRANCH   3   4
ENDBRANCH   2   3
ENDBRANCH   1   2
BRANCH   1  19
ATOM     19  O   UNL A   1      34.877  29.870  27.990  1.00  0.00    -0.458 OA
BRANCH  19  20
ATOM     20  C   UNL A   1      35.968  30.663  28.134  1.00  0.00     0.338 C 
ATOM     21  O   UNL A   1      36.009  31.854  27.926  1.00  0.00    -0.246 OA
BRANCH  20  22
ATOM     22  C   UNL A   1      37.167  29.863  28.436  1.00  0.00     0.060 A 
ATOM     23  C   UNL A   1      37.206  29.066  29.590  1.00  0.00     0.016 A 
ATOM     24  C   UNL A   1      38.168  29.797  27.470  1.00  0.00     0.016 A 
ATOM     25  C   UNL A   1      38.194  28.097  29.718  1.00  0.00     0.010 A 
ATOM     26  C   UNL A   1      39.065  28.769  27.529  1.00  0.00     0.010 A 
ATOM     27  C   UNL A   1      39.103  27.954  28.671  1.00  0.00    -0.014 A 
BRANCH  27  28
ATOM     28  C   UNL A   1      40.375  27.274  28.804  1.00  0.00     0.031 A 
ATOM     29  C   UNL A   1      40.594  25.886  28.389  1.00  0.00     0.074 A 
ATOM     30  C   UNL A   1      41.354  28.151  29.115  1.00  0.00     0.049 A 
ATOM     31  N   UNL A   1      41.597  25.186  28.786  1.00  0.00    -0.248 NA
ATOM     32  C   UNL A   1      39.698  25.151  27.502  1.00  0.00     0.031 C 
ATOM     33  C   UNL A   1      42.793  28.051  28.989  1.00  0.00     0.029 A 
ATOM     34  N   UNL A   1      41.146  29.394  29.743  1.00  0.00    -0.354 N 
ATOM     35  C   UNL A   1      41.655  24.054  28.002  1.00  0.00     0.074 A 
ATOM     36  C   UNL A   1      40.398  24.027  27.289  1.00  0.00     0.031 C 
ATOM     37  C   UNL A   1      43.349  29.004  29.766  1.00  0.00     0.029 A 
ATOM     38  C   UNL A   1      42.272  29.624  30.534  1.00  0.00     0.049 A 
ATOM     39  H   UNL A   1      40.364  29.983  29.644  1.00  0.00     0.167 HD
ATOM     40  C   UNL A   1      42.838  23.373  27.930  1.00  0.00     0.037 A 
ATOM     41  C   UNL A   1      42.117  29.558  31.889  1.00  0.00     0.037 A 
ATOM     42  C   UNL A   1      43.844  24.037  28.757  1.00  0.00     0.049 A 
ATOM     43  C   UNL A   1      42.894  28.398  32.461  1.00  0.00     0.074 A 
ATOM     44  C   UNL A   1      44.780  25.008  28.439  1.00  0.00     0.029 A 
ATOM     45  N   UNL A   1      43.707  24.054  30.140  1.00  0.00    -0.354 N 
ATOM     46  N   UNL A   1      43.139  27.294  31.810  1.00  0.00    -0.248 NA
ATOM     47  C   UNL A   1      43.487  28.421  33.791  1.00  0.00     0.031 C 
ATOM     48  C   UNL A   1      45.138  25.677  29.634  1.00  0.00     0.029 A 
ATOM     49  C   UNL A   1      44.441  25.096  30.680  1.00  0.00     0.049 A 
ATOM     50  H   UNL A   1      43.167  23.417  30.662  1.00  0.00     0.167 HD
ATOM     51  C   UNL A   1      43.963  26.507  32.565  1.00  0.00     0.074 A 
ATOM     52  C   UNL A   1      44.134  27.243  33.805  1.00  0.00     0.031 C 
ATOM     53  C   UNL A   1      44.474  25.325  32.114  1.00  0.00     0.037 A 
BRANCH  40  54
ATOM     54  C   UNL A   1      43.179  22.342  26.877  1.00  0.00     0.064 A 
ATOM     55  C   UNL A   1      42.572  21.064  26.895  1.00  0.00     0.173 A 
ATOM     56  C   UNL A   1      44.110  22.539  25.842  1.00  0.00     0.173 A 
ATOM     57  F   UNL A   1      41.607  20.757  27.770  1.00  0.00    -0.203 F 
ATOM     58  C   UNL A   1      42.937  20.042  26.015  1.00  0.00     0.198 A 
ATOM     59  C   UNL A   1      44.502  21.503  24.981  1.00  0.00     0.198 A 
ATOM     60  F   UNL A   1      44.642  23.746  25.609  1.00  0.00    -0.203 F 
ATOM     61  F   UNL A   1      42.334  18.847  26.096  1.00  0.00    -0.200 F 
ATOM     62  C   UNL A   1      43.922  20.251  25.075  1.00  0.00     0.200 A 
ATOM     63  F   UNL A   1      45.448  21.726  24.058  1.00  0.00    -0.200 F 
ATOM     64  F   UNL A   1      44.297  19.262  24.253  1.00  0.00    -0.200 F 
ENDBRANCH  40  54
BRANCH  41  65
ATOM     65  C   UNL A   1      40.776  30.021  32.380  1.00  0.00     0.064 A 
ATOM     66  C   UNL A   1      40.418  31.379  32.204  1.00  0.00     0.173 A 
ATOM     67  C   UNL A   1      39.746  29.143  32.739  1.00  0.00     0.173 A 
ATOM     68  F   UNL A   1      41.354  32.278  31.856  1.00  0.00    -0.203 F 
ATOM     69  C   UNL A   1      39.094  31.812  32.287  1.00  0.00     0.198 A 
ATOM     70  C   UNL A   1      38.419  29.584  32.839  1.00  0.00     0.198 A 
ATOM     71  F   UNL A   1      39.996  27.840  32.923  1.00  0.00    -0.203 F 
ATOM     72  F   UNL A   1      38.789  33.088  32.014  1.00  0.00    -0.200 F 
ATOM     73  C   UNL A   1      38.092  30.909  32.589  1.00  0.00     0.200 A 
ATOM     74  F   UNL A   1      37.441  28.707  33.109  1.00  0.00    -0.200 F 
ATOM     75  F   UNL A   1      36.811  31.303  32.606  1.00  0.00    -0.200 F 
ENDBRANCH  41  65
BRANCH  53  76
ATOM     76  C   UNL A   1      45.161  24.310  32.978  1.00  0.00     0.064 A 
ATOM     77  C   UNL A   1      46.426  24.526  33.546  1.00  0.00     0.173 A 
ATOM     78  C   UNL A   1      44.474  23.152  33.409  1.00  0.00     0.173 A 
ATOM     79  F   UNL A   1      47.118  25.646  33.295  1.00  0.00    -0.203 F 
ATOM     80  C   UNL A   1      46.988  23.618  34.441  1.00  0.00     0.198 A 
ATOM     81  C   UNL A   1      45.012  22.282  34.351  1.00  0.00     0.198 A 
ATOM     82  F   UNL A   1      43.250  22.851  32.952  1.00  0.00    -0.203 F 
ATOM     83  F   UNL A   1      48.217  23.843  34.926  1.00  0.00    -0.200 F 
ATOM     84  C   UNL A   1      46.276  22.506  34.854  1.00  0.00     0.200 A 
ATOM     85  F   UNL A   1      44.288  21.241  34.785  1.00  0.00    -0.200 F 
ATOM     86  F   UNL A   1      46.801  21.666  35.755  1.00  0.00    -0.200 F 
ENDBRANCH  53  76
ENDBRANCH  27  28
ENDBRANCH  20  22
ENDBRANCH  19  20
ENDBRANCH   1  19
TORSDOF 12
ENDMDL
MODEL 3
REMARK VINA RESULT:     -13.8      4.955     11.057
REMARK SMILES Cc1cccc(-c2cc(C(=O)OCCOC(=O)c3ccc(-c4c5nc(c(-c6c(F)c(F)c(F)c(F)c6F)c6ccc([nH]6)c(-c6c(F)c(F)c(F)c(F)c6F)c6nc(c(-c7c(F)c(F)c(F)c(F)c7F)c7ccc4[nH]7)C=C6)C=C5)cc3)ccn2)c1
REMARK SMILES IDX 14 1 13 2 12 3 10 4 11 5 9 6 7 7 8 8 83 9 82 10 81 11 6 12
REMARK SMILES IDX 1 13 2 14 3 15 84 16 4 17 5 18 15 19 16 20 17 21 18 22 19 23
REMARK SMILES IDX 80 24 20 25 79 26 21 27 22 28 23 29 73 30 24 31 78 32 72 33
REMARK SMILES IDX 74 34 25 35 77 36 71 37 70 38 26 40 58 41 38 42 57 43 39 44
REMARK SMILES IDX 42 45 56 46 75 47 40 48 41 49 55 51 76 52 43 53 27 54 28 55
REMARK SMILES IDX 36 56 29 57 30 58 34 59 37 60 31 61 32 62 35 63 33 64 59 65
REMARK SMILES IDX 60 66 68 67 61 68 62 69 66 70 69 71 63 72 64 73 67 74 65 75
REMARK SMILES IDX 44 76 45 77 53 78 46 79 47 80 51 81 54 82 48 83 49 84 52 85
REMARK SMILES IDX 50 86
REMARK H PARENT 74 39 42 50
REMARK Flexibility Score: inf
ROOT
ATOM      1  C   UNL A   1      37.751  23.728  25.751  1.00  0.00     0.275 C 
ENDROOT
BRANCH   1   2
ATOM      2  C   UNL A   1      36.210  23.642  25.879  1.00  0.00     0.275 C 
BRANCH   2   3
ATOM      3  O   UNL A   1      35.384  24.463  25.035  1.00  0.00    -0.458 OA
BRANCH   3   4
ATOM      4  C   UNL A   1      34.728  23.873  24.015  1.00  0.00     0.338 C 
ATOM      5  O   UNL A   1      34.869  24.087  22.827  1.00  0.00    -0.246 OA
BRANCH   4   6
ATOM      6  C   UNL A   1      33.762  22.910  24.562  1.00  0.00     0.063 A 
ATOM      7  C   UNL A   1      33.035  20.663  24.822  1.00  0.00     0.071 A 
ATOM      8  C   UNL A   1      34.054  21.553  24.508  1.00  0.00     0.044 A 
ATOM      9  N   UNL A   1      31.828  21.067  25.290  1.00  0.00    -0.256 NA
ATOM     10  C   UNL A   1      31.600  22.395  25.383  1.00  0.00     0.112 A 
ATOM     11  C   UNL A   1      32.512  23.352  24.985  1.00  0.00     0.036 A 
BRANCH   7  12
ATOM     12  C   UNL A   1      33.129  19.274  24.370  1.00  0.00     0.000 A 
ATOM     13  C   UNL A   1      35.012  16.038  25.124  1.00  0.00     0.044 C 
ATOM     14  C   UNL A   1      34.134  17.052  24.454  1.00  0.00    -0.050 A 
ATOM     15  C   UNL A   1      33.558  16.753  23.211  1.00  0.00     0.003 A 
ATOM     16  C   UNL A   1      33.916  18.315  25.028  1.00  0.00     0.013 A 
ATOM     17  C   UNL A   1      32.749  17.683  22.564  1.00  0.00     0.001 A 
ATOM     18  C   UNL A   1      32.529  18.927  23.146  1.00  0.00     0.010 A 
ENDBRANCH   7  12
ENDBRANCH   4   6
ENDBRANCH   3   4
ENDBRANCH   2   3
ENDBRANCH   1   2
BRANCH   1  19
ATOM     19  O   UNL A   1      38.657  23.522  26.871  1.00  0.00    -0.458 OA
BRANCH  19  20
ATOM     20  C   UNL A   1      39.938  23.967  26.875  1.00  0.00     0.338 C 
ATOM     21  O   UNL A   1      40.919  23.302  26.628  1.00  0.00    -0.246 OA
BRANCH  20  22
ATOM     22  C   UNL A   1      40.016  25.351  27.373  1.00  0.00     0.060 A 
ATOM     23  C   UNL A   1      40.429  26.382  26.516  1.00  0.00     0.016 A 
ATOM     24  C   UNL A   1      39.515  25.616  28.645  1.00  0.00     0.016 A 
ATOM     25  C   UNL A   1      40.217  27.704  26.889  1.00  0.00     0.010 A 
ATOM     26  C   UNL A   1      39.192  26.903  28.964  1.00  0.00     0.010 A 
ATOM     27  C   UNL A   1      39.584  27.943  28.107  1.00  0.00    -0.014 A 
BRANCH  27  28
ATOM     28  C   UNL A   1      39.625  29.218  28.793  1.00  0.00     0.031 A 
ATOM     29  C   UNL A   1      38.555  30.215  28.705  1.00  0.00     0.074 A 
ATOM     30  C   UNL A   1      40.633  29.244  29.691  1.00  0.00     0.049 A 
ATOM     31  N   UNL A   1      38.715  31.448  29.036  1.00  0.00    -0.248 NA
ATOM     32  C   UNL A   1      37.208  29.922  28.223  1.00  0.00     0.031 C 
ATOM     33  C   UNL A   1      40.857  30.093  30.843  1.00  0.00     0.029 A 
ATOM     34  N   UNL A   1      41.786  28.438  29.626  1.00  0.00    -0.354 N 
ATOM     35  C   UNL A   1      37.469  32.030  29.105  1.00  0.00     0.074 A 
ATOM     36  C   UNL A   1      36.574  31.074  28.493  1.00  0.00     0.031 C 
ATOM     37  C   UNL A   1      42.155  29.991  31.193  1.00  0.00     0.029 A 
ATOM     38  C   UNL A   1      42.824  29.198  30.164  1.00  0.00     0.049 A 
ATOM     39  H   UNL A   1      41.847  27.521  29.272  1.00  0.00     0.167 HD
ATOM     40  C   UNL A   1      37.328  33.180  29.829  1.00  0.00     0.037 A 
ATOM     41  C   UNL A   1      43.787  29.651  29.307  1.00  0.00     0.037 A 
ATOM     42  C   UNL A   1      38.615  33.566  30.404  1.00  0.00     0.049 A 
ATOM     43  C   UNL A   1      43.755  31.155  29.212  1.00  0.00     0.074 A 
ATOM     44  C   UNL A   1      39.183  33.270  31.633  1.00  0.00     0.029 A 
ATOM     45  N   UNL A   1      39.653  33.977  29.575  1.00  0.00    -0.354 N 
ATOM     46  N   UNL A   1      42.674  31.872  29.366  1.00  0.00    -0.248 NA
ATOM     47  C   UNL A   1      44.946  31.960  28.980  1.00  0.00     0.031 C 
ATOM     48  C   UNL A   1      40.587  33.415  31.511  1.00  0.00     0.029 A 
ATOM     49  C   UNL A   1      40.869  33.825  30.219  1.00  0.00     0.049 A 
ATOM     50  H   UNL A   1      39.540  34.327  28.662  1.00  0.00     0.167 HD
ATOM     51  C   UNL A   1      43.014  33.196  29.340  1.00  0.00     0.074 A 
ATOM     52  C   UNL A   1      44.441  33.201  29.072  1.00  0.00     0.031 C 
ATOM     53  C   UNL A   1      42.113  34.195  29.568  1.00  0.00     0.037 A 
BRANCH  40  54
ATOM     54  C   UNL A   1      36.008  33.753  30.295  1.00  0.00     0.064 A 
ATOM     55  C   UNL A   1      35.098  34.316  29.369  1.00  0.00     0.173 A 
ATOM     56  C   UNL A   1      35.589  33.799  31.636  1.00  0.00     0.173 A 
ATOM     57  F   UNL A   1      35.321  34.272  28.050  1.00  0.00    -0.203 F 
ATOM     58  C   UNL A   1      33.920  34.957  29.761  1.00  0.00     0.198 A 
ATOM     59  C   UNL A   1      34.424  34.473  32.034  1.00  0.00     0.198 A 
ATOM     60  F   UNL A   1      36.273  33.165  32.598  1.00  0.00    -0.203 F 
ATOM     61  F   UNL A   1      33.110  35.486  28.833  1.00  0.00    -0.200 F 
ATOM     62  C   UNL A   1      33.596  35.061  31.096  1.00  0.00     0.200 A 
ATOM     63  F   UNL A   1      34.110  34.549  33.335  1.00  0.00    -0.200 F 
ATOM     64  F   UNL A   1      32.484  35.706  31.476  1.00  0.00    -0.200 F 
ENDBRANCH  40  54
BRANCH  41  65
ATOM     65  C   UNL A   1      44.081  28.722  28.165  1.00  0.00     0.064 A 
ATOM     66  C   UNL A   1      44.727  27.492  28.435  1.00  0.00     0.173 A 
ATOM     67  C   UNL A   1      43.505  28.861  26.896  1.00  0.00     0.173 A 
ATOM     68  F   UNL A   1      45.298  27.286  29.634  1.00  0.00    -0.203 F 
ATOM     69  C   UNL A   1      44.711  26.433  27.527  1.00  0.00     0.198 A 
ATOM     70  C   UNL A   1      43.507  27.801  25.978  1.00  0.00     0.198 A 
ATOM     71  F   UNL A   1      42.871  29.992  26.557  1.00  0.00    -0.203 F 
ATOM     72  F   UNL A   1      45.249  25.253  27.866  1.00  0.00    -0.200 F 
ATOM     73  C   UNL A   1      44.086  26.583  26.304  1.00  0.00     0.200 A 
ATOM     74  F   UNL A   1      42.882  27.936  24.799  1.00  0.00    -0.200 F 
ATOM     75  F   UNL A   1      44.010  25.550  25.453  1.00  0.00    -0.200 F 
ENDBRANCH  41  65
BRANCH  53  76
ATOM     76  C   UNL A   1      42.366  35.649  29.299  1.00  0.00     0.064 A 
ATOM     77  C   UNL A   1      43.213  36.433  30.097  1.00  0.00     0.173 A 
ATOM     78  C   UNL A   1      41.900  36.249  28.108  1.00  0.00     0.173 A 
ATOM     79  F   UNL A   1      43.802  35.929  31.190  1.00  0.00    -0.203 F 
ATOM     80  C   UNL A   1      43.524  37.748  29.756  1.00  0.00     0.198 A 
ATOM     81  C   UNL A   1      42.265  37.539  27.739  1.00  0.00     0.198 A 
ATOM     82  F   UNL A   1      41.101  35.590  27.255  1.00  0.00    -0.203 F 
ATOM     83  F   UNL A   1      44.302  38.475  30.570  1.00  0.00    -0.200 F 
ATOM     84  C   UNL A   1      43.065  38.294  28.572  1.00  0.00     0.200 A 
ATOM     85  F   UNL A   1      41.859  38.035  26.562  1.00  0.00    -0.200 F 
ATOM     86  F   UNL A   1      43.411  39.540  28.224  1.00  0.00    -0.200 F 
ENDBRANCH  53  76
ENDBRANCH  27  28
ENDBRANCH  20  22
ENDBRANCH  19  20
ENDBRANCH   1  19
TORSDOF 12
ENDMDL
