MODEL 1
REMARK VINA RESULT:     -11.0      0.000      0.000
REMARK SMILES C[C@@H]1[C@@H](C(=O)OCCOC(=O)c2ccc(-c3c4nc(c(-c5c(F)c(F)c(F)c(F)c5F)c5ccc([nH]5)c(-c5c(F)c(F)c(F)c(F)c5F)c5nc(c(-c6c(F)c(F)c(F)c(F)c6F)c6ccc3[nH]6)C=C5)C=C4)cc2)CC[N@@H+]1CC(=O)N(C)C1CC1
REMARK SMILES IDX 7 1 6 2 4 3 5 4 3 5 1 6 2 7 77 8 75 9 76 10 78 12 79 13
REMARK SMILES IDX 80 14 81 15 82 16 83 17 84 18 85 19 8 20 9 21 10 22 11 23
REMARK SMILES IDX 12 24 13 25 74 26 14 27 73 28 15 29 16 30 17 31 67 32 18 33
REMARK SMILES IDX 72 34 66 35 68 36 19 37 71 38 65 39 64 40 20 42 52 43 32 44
REMARK SMILES IDX 51 45 33 46 36 47 50 48 69 49 34 50 35 51 49 53 70 54 37 55
REMARK SMILES IDX 21 56 22 57 30 58 23 59 24 60 28 61 31 62 25 63 26 64 29 65
REMARK SMILES IDX 27 66 53 67 54 68 62 69 55 70 56 71 60 72 63 73 57 74 58 75
REMARK SMILES IDX 61 76 59 77 38 78 39 79 47 80 40 81 41 82 45 83 48 84 42 85
REMARK SMILES IDX 43 86 46 87 44 88
REMARK H PARENT 77 11 68 41 36 52
REMARK Flexibility Score: inf
ROOT
ATOM      1  C   UNL A   1      31.245  29.666  24.564  1.00  0.00     0.274 C 
ENDROOT
BRANCH   1   2
ATOM      2  O   UNL A   1      31.157  28.315  25.058  1.00  0.00    -0.462 OA
BRANCH   2   3
ATOM      3  C   UNL A   1      30.648  27.385  24.202  1.00  0.00     0.315 C 
ATOM      4  O   UNL A   1      29.670  27.552  23.487  1.00  0.00    -0.252 OA
BRANCH   3   5
ATOM      5  C   UNL A   1      31.502  26.131  24.236  1.00  0.00     0.162 C 
ATOM      6  C   UNL A   1      30.760  23.865  23.447  1.00  0.00     0.076 C 
ATOM      7  C   UNL A   1      30.658  24.893  24.570  1.00  0.00     0.195 C 
ATOM      8  N   UNL A   1      31.087  24.469  25.890  1.00  0.00    -0.324 N 
ATOM      9  C   UNL A   1      32.580  26.189  25.306  1.00  0.00     0.083 C 
ATOM     10  C   UNL A   1      32.016  25.409  26.483  1.00  0.00     0.264 C 
ATOM     11  H   UNL A   1      30.211  24.504  26.412  1.00  0.00     0.348 HD
BRANCH   8  12
ATOM     12  C   UNL A   1      31.092  23.076  26.318  1.00  0.00     0.364 C 
BRANCH  12  13
ATOM     13  C   UNL A   1      32.451  22.634  26.886  1.00  0.00     0.277 C 
ATOM     14  O   UNL A   1      32.612  22.569  28.111  1.00  0.00    -0.268 OA
BRANCH  13  15
ATOM     15  N   UNL A   1      33.503  22.357  26.012  1.00  0.00    -0.338 N 
ATOM     16  C   UNL A   1      33.420  21.581  24.778  1.00  0.00     0.147 C 
BRANCH  15  17
ATOM     17  C   UNL A   1      34.828  22.797  26.392  1.00  0.00     0.085 C 
ATOM     18  C   UNL A   1      36.049  22.544  25.542  1.00  0.00     0.027 C 
ATOM     19  C   UNL A   1      35.496  23.931  25.653  1.00  0.00     0.027 C 
ENDBRANCH  15  17
ENDBRANCH  13  15
ENDBRANCH  12  13
ENDBRANCH   8  12
ENDBRANCH   3   5
ENDBRANCH   2   3
ENDBRANCH   1   2
BRANCH   1  20
ATOM     20  C   UNL A   1      31.403  30.630  25.738  1.00  0.00     0.275 C 
BRANCH  20  21
ATOM     21  O   UNL A   1      32.695  30.445  26.353  1.00  0.00    -0.458 OA
BRANCH  21  22
ATOM     22  C   UNL A   1      33.163  31.487  27.070  1.00  0.00     0.338 C 
ATOM     23  O   UNL A   1      32.590  32.536  27.332  1.00  0.00    -0.246 OA
BRANCH  22  24
ATOM     24  C   UNL A   1      34.509  31.184  27.575  1.00  0.00     0.060 A 
ATOM     25  C   UNL A   1      34.821  29.867  27.893  1.00  0.00     0.016 A 
ATOM     26  C   UNL A   1      35.401  32.206  27.891  1.00  0.00     0.016 A 
ATOM     27  C   UNL A   1      35.968  29.572  28.628  1.00  0.00     0.010 A 
ATOM     28  C   UNL A   1      36.608  31.894  28.533  1.00  0.00     0.010 A 
ATOM     29  C   UNL A   1      36.890  30.579  28.951  1.00  0.00    -0.014 A 
BRANCH  29  30
ATOM     30  C   UNL A   1      38.114  30.274  29.754  1.00  0.00     0.031 A 
ATOM     31  C   UNL A   1      39.213  29.416  29.175  1.00  0.00     0.074 A 
ATOM     32  C   UNL A   1      38.273  30.770  31.000  1.00  0.00     0.049 A 
ATOM     33  N   UNL A   1      40.243  28.865  29.771  1.00  0.00    -0.248 NA
ATOM     34  C   UNL A   1      39.141  29.136  27.732  1.00  0.00     0.031 C 
ATOM     35  C   UNL A   1      37.341  31.667  31.684  1.00  0.00     0.029 A 
ATOM     36  N   UNL A   1      39.286  30.590  31.913  1.00  0.00    -0.354 N 
ATOM     37  C   UNL A   1      40.901  28.127  28.796  1.00  0.00     0.074 A 
ATOM     38  C   UNL A   1      40.161  28.304  27.565  1.00  0.00     0.031 C 
ATOM     39  C   UNL A   1      37.842  31.993  32.884  1.00  0.00     0.029 A 
ATOM     40  C   UNL A   1      39.080  31.253  33.100  1.00  0.00     0.049 A 
ATOM     41  H   UNL A   1      40.082  30.041  31.734  1.00  0.00     0.167 HD
ATOM     42  C   UNL A   1      42.018  27.369  28.915  1.00  0.00     0.037 A 
ATOM     43  C   UNL A   1      39.776  31.231  34.253  1.00  0.00     0.037 A 
ATOM     44  C   UNL A   1      42.796  27.237  30.120  1.00  0.00     0.049 A 
ATOM     45  C   UNL A   1      40.983  30.345  34.377  1.00  0.00     0.074 A 
ATOM     46  C   UNL A   1      43.938  26.483  30.334  1.00  0.00     0.029 A 
ATOM     47  N   UNL A   1      42.523  27.892  31.311  1.00  0.00    -0.354 N 
ATOM     48  N   UNL A   1      41.544  29.580  33.474  1.00  0.00    -0.248 NA
ATOM     49  C   UNL A   1      41.638  30.298  35.694  1.00  0.00     0.031 C 
ATOM     50  C   UNL A   1      44.344  26.665  31.662  1.00  0.00     0.029 A 
ATOM     51  C   UNL A   1      43.473  27.558  32.262  1.00  0.00     0.049 A 
ATOM     52  H   UNL A   1      41.767  28.505  31.458  1.00  0.00     0.167 HD
ATOM     53  C   UNL A   1      42.619  28.970  34.107  1.00  0.00     0.074 A 
ATOM     54  C   UNL A   1      42.646  29.469  35.466  1.00  0.00     0.031 C 
ATOM     55  C   UNL A   1      43.498  28.068  33.608  1.00  0.00     0.037 A 
BRANCH  42  56
ATOM     56  C   UNL A   1      42.462  26.589  27.712  1.00  0.00     0.064 A 
ATOM     57  C   UNL A   1      43.410  27.092  26.811  1.00  0.00     0.173 A 
ATOM     58  C   UNL A   1      41.964  25.295  27.490  1.00  0.00     0.173 A 
ATOM     59  F   UNL A   1      43.907  28.327  26.975  1.00  0.00    -0.203 F 
ATOM     60  C   UNL A   1      43.832  26.335  25.721  1.00  0.00     0.198 A 
ATOM     61  C   UNL A   1      42.405  24.532  26.413  1.00  0.00     0.198 A 
ATOM     62  F   UNL A   1      41.060  24.766  28.328  1.00  0.00    -0.203 F 
ATOM     63  F   UNL A   1      44.713  26.848  24.852  1.00  0.00    -0.200 F 
ATOM     64  C   UNL A   1      43.335  25.054  25.526  1.00  0.00     0.200 A 
ATOM     65  F   UNL A   1      41.932  23.291  26.234  1.00  0.00    -0.200 F 
ATOM     66  F   UNL A   1      43.748  24.325  24.481  1.00  0.00    -0.200 F 
ENDBRANCH  42  56
BRANCH  43  67
ATOM     67  C   UNL A   1      39.315  32.040  35.413  1.00  0.00     0.064 A 
ATOM     68  C   UNL A   1      38.495  31.479  36.400  1.00  0.00     0.173 A 
ATOM     69  C   UNL A   1      39.672  33.390  35.550  1.00  0.00     0.173 A 
ATOM     70  F   UNL A   1      38.100  30.201  36.296  1.00  0.00    -0.203 F 
ATOM     71  C   UNL A   1      38.042  32.239  37.476  1.00  0.00     0.198 A 
ATOM     72  C   UNL A   1      39.244  34.140  36.641  1.00  0.00     0.198 A 
ATOM     73  F   UNL A   1      40.450  33.975  34.628  1.00  0.00    -0.203 F 
ATOM     74  F   UNL A   1      37.222  31.691  38.383  1.00  0.00    -0.200 F 
ATOM     75  C   UNL A   1      38.423  33.567  37.600  1.00  0.00     0.200 A 
ATOM     76  F   UNL A   1      39.625  35.419  36.762  1.00  0.00    -0.200 F 
ATOM     77  F   UNL A   1      37.991  34.297  38.638  1.00  0.00    -0.200 F 
ENDBRANCH  43  67
BRANCH  55  78
ATOM     78  C   UNL A   1      44.584  27.589  34.523  1.00  0.00     0.064 A 
ATOM     79  C   UNL A   1      44.431  26.428  35.295  1.00  0.00     0.173 A 
ATOM     80  C   UNL A   1      45.799  28.284  34.610  1.00  0.00     0.173 A 
ATOM     81  F   UNL A   1      43.280  25.741  35.261  1.00  0.00    -0.203 F 
ATOM     82  C   UNL A   1      45.451  25.991  36.136  1.00  0.00     0.198 A 
ATOM     83  C   UNL A   1      46.825  27.830  35.434  1.00  0.00     0.198 A 
ATOM     84  F   UNL A   1      45.994  29.398  33.889  1.00  0.00    -0.203 F 
ATOM     85  F   UNL A   1      45.270  24.901  36.896  1.00  0.00    -0.200 F 
ATOM     86  C   UNL A   1      46.649  26.688  36.200  1.00  0.00     0.200 A 
ATOM     87  F   UNL A   1      47.984  28.501  35.490  1.00  0.00    -0.200 F 
ATOM     88  F   UNL A   1      47.629  26.264  37.009  1.00  0.00    -0.200 F 
ENDBRANCH  55  78
ENDBRANCH  29  30
ENDBRANCH  22  24
ENDBRANCH  21  22
ENDBRANCH  20  21
ENDBRANCH   1  20
TORSDOF 15
ENDMDL
MODEL 2
REMARK VINA RESULT:     -11.0      1.096      2.395
REMARK SMILES C[C@@H]1[C@@H](C(=O)OCCOC(=O)c2ccc(-c3c4nc(c(-c5c(F)c(F)c(F)c(F)c5F)c5ccc([nH]5)c(-c5c(F)c(F)c(F)c(F)c5F)c5nc(c(-c6c(F)c(F)c(F)c(F)c6F)c6ccc3[nH]6)C=C5)C=C4)cc2)CC[N@@H+]1CC(=O)N(C)C1CC1
REMARK SMILES IDX 7 1 6 2 4 3 5 4 3 5 1 6 2 7 77 8 75 9 76 10 78 12 79 13
REMARK SMILES IDX 80 14 81 15 82 16 83 17 84 18 85 19 8 20 9 21 10 22 11 23
REMARK SMILES IDX 12 24 13 25 74 26 14 27 73 28 15 29 16 30 17 31 67 32 18 33
REMARK SMILES IDX 72 34 66 35 68 36 19 37 71 38 65 39 64 40 20 42 52 43 32 44
REMARK SMILES IDX 51 45 33 46 36 47 50 48 69 49 34 50 35 51 49 53 70 54 37 55
REMARK SMILES IDX 21 56 22 57 30 58 23 59 24 60 28 61 31 62 25 63 26 64 29 65
REMARK SMILES IDX 27 66 53 67 54 68 62 69 55 70 56 71 60 72 63 73 57 74 58 75
REMARK SMILES IDX 61 76 59 77 38 78 39 79 47 80 40 81 41 82 45 83 48 84 42 85
REMARK SMILES IDX 43 86 46 87 44 88
REMARK H PARENT 77 11 68 41 36 52
REMARK Flexibility Score: inf
ROOT
ATOM      1  C   UNL A   1      31.501  29.210  24.246  1.00  0.00     0.274 C 
ENDROOT
BRANCH   1   2
ATOM      2  O   UNL A   1      31.221  27.797  24.273  1.00  0.00    -0.462 OA
BRANCH   2   3
ATOM      3  C   UNL A   1      30.286  27.343  23.392  1.00  0.00     0.315 C 
ATOM      4  O   UNL A   1      29.230  27.907  23.140  1.00  0.00    -0.252 OA
BRANCH   3   5
ATOM      5  C   UNL A   1      30.770  26.063  22.739  1.00  0.00     0.162 C 
ATOM      6  C   UNL A   1      30.816  23.810  23.849  1.00  0.00     0.076 C 
ATOM      7  C   UNL A   1      31.504  25.168  23.746  1.00  0.00     0.195 C 
ATOM      8  N   UNL A   1      32.897  25.169  23.334  1.00  0.00    -0.324 N 
ATOM      9  C   UNL A   1      31.769  26.320  21.621  1.00  0.00     0.083 C 
ATOM     10  C   UNL A   1      33.136  26.099  22.249  1.00  0.00     0.264 C 
ATOM     11  H   UNL A   1      33.359  25.522  24.173  1.00  0.00     0.348 HD
BRANCH   8  12
ATOM     12  C   UNL A   1      33.785  24.031  23.524  1.00  0.00     0.364 C 
BRANCH  12  13
ATOM     13  C   UNL A   1      34.866  24.292  24.587  1.00  0.00     0.277 C 
ATOM     14  O   UNL A   1      34.686  25.167  25.444  1.00  0.00    -0.268 OA
BRANCH  13  15
ATOM     15  N   UNL A   1      36.060  23.572  24.543  1.00  0.00    -0.338 N 
ATOM     16  C   UNL A   1      36.653  22.953  23.362  1.00  0.00     0.147 C 
BRANCH  15  17
ATOM     17  C   UNL A   1      36.746  23.327  25.794  1.00  0.00     0.085 C 
ATOM     18  C   UNL A   1      38.062  22.594  25.875  1.00  0.00     0.027 C 
ATOM     19  C   UNL A   1      38.019  24.070  26.123  1.00  0.00     0.027 C 
ENDBRANCH  15  17
ENDBRANCH  13  15
ENDBRANCH  12  13
ENDBRANCH   8  12
ENDBRANCH   3   5
ENDBRANCH   2   3
ENDBRANCH   1   2
BRANCH   1  20
ATOM     20  C   UNL A   1      31.720  29.714  25.671  1.00  0.00     0.275 C 
BRANCH  20  21
ATOM     21  O   UNL A   1      33.099  30.100  25.848  1.00  0.00    -0.458 OA
BRANCH  21  22
ATOM     22  C   UNL A   1      33.347  30.964  26.853  1.00  0.00     0.338 C 
ATOM     23  O   UNL A   1      32.594  31.809  27.321  1.00  0.00    -0.246 OA
BRANCH  22  24
ATOM     24  C   UNL A   1      34.693  30.731  27.394  1.00  0.00     0.060 A 
ATOM     25  C   UNL A   1      35.123  29.421  27.570  1.00  0.00     0.016 A 
ATOM     26  C   UNL A   1      35.460  31.787  27.880  1.00  0.00     0.016 A 
ATOM     27  C   UNL A   1      36.261  29.148  28.328  1.00  0.00     0.010 A 
ATOM     28  C   UNL A   1      36.663  31.515  28.547  1.00  0.00     0.010 A 
ATOM     29  C   UNL A   1      37.060  30.192  28.820  1.00  0.00    -0.014 A 
BRANCH  29  30
ATOM     30  C   UNL A   1      38.271  29.908  29.650  1.00  0.00     0.031 A 
ATOM     31  C   UNL A   1      39.372  29.024  29.115  1.00  0.00     0.074 A 
ATOM     32  C   UNL A   1      38.417  30.446  30.879  1.00  0.00     0.049 A 
ATOM     33  N   UNL A   1      40.391  28.489  29.743  1.00  0.00    -0.248 NA
ATOM     34  C   UNL A   1      39.317  28.694  27.682  1.00  0.00     0.031 C 
ATOM     35  C   UNL A   1      37.482  31.372  31.519  1.00  0.00     0.029 A 
ATOM     36  N   UNL A   1      39.418  30.293  31.811  1.00  0.00    -0.354 N 
ATOM     37  C   UNL A   1      41.057  27.714  28.802  1.00  0.00     0.074 A 
ATOM     38  C   UNL A   1      40.333  27.851  27.556  1.00  0.00     0.031 C 
ATOM     39  C   UNL A   1      37.971  31.737  32.714  1.00  0.00     0.029 A 
ATOM     40  C   UNL A   1      39.201  30.998  32.971  1.00  0.00     0.049 A 
ATOM     41  H   UNL A   1      40.213  29.733  31.661  1.00  0.00     0.167 HD
ATOM     42  C   UNL A   1      42.168  26.954  28.962  1.00  0.00     0.037 A 
ATOM     43  C   UNL A   1      39.882  31.013  34.133  1.00  0.00     0.037 A 
ATOM     44  C   UNL A   1      42.929  26.859  30.181  1.00  0.00     0.049 A 
ATOM     45  C   UNL A   1      41.083  30.125  34.303  1.00  0.00     0.074 A 
ATOM     46  C   UNL A   1      44.064  26.107  30.436  1.00  0.00     0.029 A 
ATOM     47  N   UNL A   1      42.646  27.557  31.344  1.00  0.00    -0.354 N 
ATOM     48  N   UNL A   1      41.651  29.325  33.435  1.00  0.00    -0.248 NA
ATOM     49  C   UNL A   1      41.720  30.120  35.630  1.00  0.00     0.031 C 
ATOM     50  C   UNL A   1      44.455  26.333  31.761  1.00  0.00     0.029 A 
ATOM     51  C   UNL A   1      43.582  27.252  32.319  1.00  0.00     0.049 A 
ATOM     52  H   UNL A   1      41.892  28.179  31.460  1.00  0.00     0.167 HD
ATOM     53  C   UNL A   1      42.713  28.732  34.103  1.00  0.00     0.074 A 
ATOM     54  C   UNL A   1      42.727  29.278  35.443  1.00  0.00     0.031 C 
ATOM     55  C   UNL A   1      43.593  27.808  33.646  1.00  0.00     0.037 A 
BRANCH  42  56
ATOM     56  C   UNL A   1      42.622  26.130  27.793  1.00  0.00     0.064 A 
ATOM     57  C   UNL A   1      42.039  24.892  27.487  1.00  0.00     0.173 A 
ATOM     58  C   UNL A   1      43.622  26.615  26.935  1.00  0.00     0.173 A 
ATOM     59  F   UNL A   1      41.088  24.381  28.282  1.00  0.00    -0.203 F 
ATOM     60  C   UNL A   1      42.454  24.162  26.376  1.00  0.00     0.198 A 
ATOM     61  C   UNL A   1      44.017  25.894  25.813  1.00  0.00     0.198 A 
ATOM     62  F   UNL A   1      44.205  27.798  27.180  1.00  0.00    -0.203 F 
ATOM     63  F   UNL A   1      41.908  22.965  26.123  1.00  0.00    -0.200 F 
ATOM     64  C   UNL A   1      43.437  24.666  25.537  1.00  0.00     0.200 A 
ATOM     65  F   UNL A   1      44.959  26.389  24.996  1.00  0.00    -0.200 F 
ATOM     66  F   UNL A   1      43.828  23.965  24.464  1.00  0.00    -0.200 F 
ENDBRANCH  42  56
BRANCH  43  67
ATOM     67  C   UNL A   1      39.412  31.864  35.258  1.00  0.00     0.064 A 
ATOM     68  C   UNL A   1      39.816  33.201  35.365  1.00  0.00     0.173 A 
ATOM     69  C   UNL A   1      38.564  31.356  36.253  1.00  0.00     0.173 A 
ATOM     70  F   UNL A   1      40.652  33.723  34.455  1.00  0.00    -0.203 F 
ATOM     71  C   UNL A   1      39.397  33.995  36.430  1.00  0.00     0.198 A 
ATOM     72  C   UNL A   1      38.122  32.159  37.300  1.00  0.00     0.198 A 
ATOM     73  F   UNL A   1      38.155  30.080  36.200  1.00  0.00    -0.203 F 
ATOM     74  F   UNL A   1      39.834  35.259  36.533  1.00  0.00    -0.200 F 
ATOM     75  C   UNL A   1      38.544  33.477  37.393  1.00  0.00     0.200 A 
ATOM     76  F   UNL A   1      37.288  31.656  38.222  1.00  0.00    -0.200 F 
ATOM     77  F   UNL A   1      38.137  34.243  38.414  1.00  0.00    -0.200 F 
ENDBRANCH  43  67
BRANCH  55  78
ATOM     78  C   UNL A   1      44.665  27.355  34.592  1.00  0.00     0.064 A 
ATOM     79  C   UNL A   1      45.883  28.041  34.699  1.00  0.00     0.173 A 
ATOM     80  C   UNL A   1      44.459  26.240  35.417  1.00  0.00     0.173 A 
ATOM     81  F   UNL A   1      46.133  29.101  33.917  1.00  0.00    -0.203 F 
ATOM     82  C   UNL A   1      46.866  27.613  35.588  1.00  0.00     0.198 A 
ATOM     83  C   UNL A   1      45.436  25.830  36.321  1.00  0.00     0.198 A 
ATOM     84  F   UNL A   1      43.309  25.553  35.352  1.00  0.00    -0.203 F 
ATOM     85  F   UNL A   1      48.041  28.258  35.647  1.00  0.00    -0.200 F 
ATOM     86  C   UNL A   1      46.640  26.513  36.401  1.00  0.00     0.200 A 
ATOM     87  F   UNL A   1      45.213  24.771  37.111  1.00  0.00    -0.200 F 
ATOM     88  F   UNL A   1      47.587  26.104  37.256  1.00  0.00    -0.200 F 
ENDBRANCH  55  78
ENDBRANCH  29  30
ENDBRANCH  22  24
ENDBRANCH  21  22
ENDBRANCH  20  21
ENDBRANCH   1  20
TORSDOF 15
ENDMDL
MODEL 3
REMARK VINA RESULT:     -11.0      4.366      9.861
REMARK SMILES C[C@@H]1[C@@H](C(=O)OCCOC(=O)c2ccc(-c3c4nc(c(-c5c(F)c(F)c(F)c(F)c5F)c5ccc([nH]5)c(-c5c(F)c(F)c(F)c(F)c5F)c5nc(c(-c6c(F)c(F)c(F)c(F)c6F)c6ccc3[nH]6)C=C5)C=C4)cc2)CC[N@@H+]1CC(=O)N(C)C1CC1
REMARK SMILES IDX 7 1 6 2 4 3 5 4 3 5 1 6 2 7 77 8 75 9 76 10 78 12 79 13
REMARK SMILES IDX 80 14 81 15 82 16 83 17 84 18 85 19 8 20 9 21 10 22 11 23
REMARK SMILES IDX 12 24 13 25 74 26 14 27 73 28 15 29 16 30 17 31 67 32 18 33
REMARK SMILES IDX 72 34 66 35 68 36 19 37 71 38 65 39 64 40 20 42 52 43 32 44
REMARK SMILES IDX 51 45 33 46 36 47 50 48 69 49 34 50 35 51 49 53 70 54 37 55
REMARK SMILES IDX 21 56 22 57 30 58 23 59 24 60 28 61 31 62 25 63 26 64 29 65
REMARK SMILES IDX 27 66 53 67 54 68 62 69 55 70 56 71 60 72 63 73 57 74 58 75
REMARK SMILES IDX 61 76 59 77 38 78 39 79 47 80 40 81 41 82 45 83 48 84 42 85
REMARK SMILES IDX 43 86 46 87 44 88
REMARK H PARENT 77 11 68 41 36 52
REMARK Flexibility Score: inf
ROOT
ATOM      1  C   UNL A   1      35.867  20.517  25.065  1.00  0.00     0.274 C 
ENDROOT
BRANCH   1   2
ATOM      2  O   UNL A   1      35.660  21.594  26.000  1.00  0.00    -0.462 OA
BRANCH   2   3
ATOM      3  C   UNL A   1      34.372  21.848  26.363  1.00  0.00     0.315 C 
ATOM      4  O   UNL A   1      33.616  21.035  26.876  1.00  0.00    -0.252 OA
BRANCH   3   5
ATOM      5  C   UNL A   1      34.032  23.299  26.080  1.00  0.00     0.162 C 
ATOM      6  C   UNL A   1      31.705  24.241  25.998  1.00  0.00     0.076 C 
ATOM      7  C   UNL A   1      32.747  23.417  25.249  1.00  0.00     0.195 C 
ATOM      8  N   UNL A   1      33.162  23.909  23.947  1.00  0.00    -0.324 N 
ATOM      9  C   UNL A   1      35.107  24.002  25.266  1.00  0.00     0.083 C 
ATOM     10  C   UNL A   1      34.605  23.972  23.831  1.00  0.00     0.264 C 
ATOM     11  H   UNL A   1      32.817  23.173  23.330  1.00  0.00     0.348 HD
BRANCH   8  12
ATOM     12  C   UNL A   1      32.327  24.767  23.116  1.00  0.00     0.364 C 
BRANCH  12  13
ATOM     13  C   UNL A   1      33.031  26.075  22.721  1.00  0.00     0.277 C 
ATOM     14  O   UNL A   1      33.799  26.090  21.749  1.00  0.00    -0.268 OA
BRANCH  13  15
ATOM     15  N   UNL A   1      32.833  27.222  23.491  1.00  0.00    -0.338 N 
ATOM     16  C   UNL A   1      31.712  28.151  23.386  1.00  0.00     0.147 C 
BRANCH  15  17
ATOM     17  C   UNL A   1      33.872  27.591  24.429  1.00  0.00     0.085 C 
ATOM     18  C   UNL A   1      33.698  28.684  25.454  1.00  0.00     0.027 C 
ATOM     19  C   UNL A   1      33.731  27.254  25.894  1.00  0.00     0.027 C 
ENDBRANCH  15  17
ENDBRANCH  13  15
ENDBRANCH  12  13
ENDBRANCH   8  12
ENDBRANCH   3   5
ENDBRANCH   2   3
ENDBRANCH   1   2
BRANCH   1  20
ATOM     20  C   UNL A   1      37.365  20.288  24.873  1.00  0.00     0.275 C 
BRANCH  20  21
ATOM     21  O   UNL A   1      38.100  21.433  25.353  1.00  0.00    -0.458 OA
BRANCH  21  22
ATOM     22  C   UNL A   1      39.207  21.163  26.074  1.00  0.00     0.338 C 
ATOM     23  O   UNL A   1      39.764  20.083  26.222  1.00  0.00    -0.246 OA
BRANCH  22  24
ATOM     24  C   UNL A   1      39.734  22.401  26.665  1.00  0.00     0.060 A 
ATOM     25  C   UNL A   1      39.245  23.619  26.208  1.00  0.00     0.016 A 
ATOM     26  C   UNL A   1      40.817  22.370  27.541  1.00  0.00     0.016 A 
ATOM     27  C   UNL A   1      39.901  24.807  26.527  1.00  0.00     0.010 A 
ATOM     28  C   UNL A   1      41.407  23.574  27.950  1.00  0.00     0.010 A 
ATOM     29  C   UNL A   1      40.987  24.808  27.416  1.00  0.00    -0.014 A 
BRANCH  29  30
ATOM     30  C   UNL A   1      41.707  26.076  27.750  1.00  0.00     0.031 A 
ATOM     31  C   UNL A   1      41.041  27.130  28.601  1.00  0.00     0.074 A 
ATOM     32  C   UNL A   1      42.966  26.298  27.317  1.00  0.00     0.049 A 
ATOM     33  N   UNL A   1      41.403  28.370  28.827  1.00  0.00    -0.248 NA
ATOM     34  C   UNL A   1      39.799  26.738  29.286  1.00  0.00     0.031 C 
ATOM     35  C   UNL A   1      43.778  25.359  26.543  1.00  0.00     0.029 A 
ATOM     36  N   UNL A   1      43.788  27.390  27.475  1.00  0.00    -0.354 N 
ATOM     37  C   UNL A   1      40.406  28.920  29.624  1.00  0.00     0.074 A 
ATOM     38  C   UNL A   1      39.427  27.879  29.850  1.00  0.00     0.031 C 
ATOM     39  C   UNL A   1      44.990  25.893  26.331  1.00  0.00     0.029 A 
ATOM     40  C   UNL A   1      45.012  27.250  26.866  1.00  0.00     0.049 A 
ATOM     41  H   UNL A   1      43.526  28.193  27.978  1.00  0.00     0.167 HD
ATOM     42  C   UNL A   1      40.315  30.179  30.119  1.00  0.00     0.037 A 
ATOM     43  C   UNL A   1      46.022  28.127  26.705  1.00  0.00     0.037 A 
ATOM     44  C   UNL A   1      41.314  31.202  29.950  1.00  0.00     0.049 A 
ATOM     45  C   UNL A   1      45.877  29.531  27.220  1.00  0.00     0.074 A 
ATOM     46  C   UNL A   1      41.300  32.509  30.410  1.00  0.00     0.029 A 
ATOM     47  N   UNL A   1      42.518  31.027  29.286  1.00  0.00    -0.354 N 
ATOM     48  N   UNL A   1      44.890  30.068  27.893  1.00  0.00    -0.248 NA
ATOM     49  C   UNL A   1      46.978  30.462  26.925  1.00  0.00     0.031 C 
ATOM     50  C   UNL A   1      42.487  33.131  30.005  1.00  0.00     0.029 A 
ATOM     51  C   UNL A   1      43.253  32.201  29.322  1.00  0.00     0.049 A 
ATOM     52  H   UNL A   1      42.808  30.192  28.854  1.00  0.00     0.167 HD
ATOM     53  C   UNL A   1      45.253  31.390  28.111  1.00  0.00     0.074 A 
ATOM     54  C   UNL A   1      46.560  31.572  27.517  1.00  0.00     0.031 C 
ATOM     55  C   UNL A   1      44.557  32.369  28.738  1.00  0.00     0.037 A 
BRANCH  42  56
ATOM     56  C   UNL A   1      39.069  30.540  30.874  1.00  0.00     0.064 A 
ATOM     57  C   UNL A   1      38.988  30.428  32.268  1.00  0.00     0.173 A 
ATOM     58  C   UNL A   1      37.957  31.058  30.190  1.00  0.00     0.173 A 
ATOM     59  F   UNL A   1      40.020  29.929  32.965  1.00  0.00    -0.203 F 
ATOM     60  C   UNL A   1      37.833  30.803  32.950  1.00  0.00     0.198 A 
ATOM     61  C   UNL A   1      36.813  31.453  30.877  1.00  0.00     0.198 A 
ATOM     62  F   UNL A   1      37.988  31.192  28.856  1.00  0.00    -0.203 F 
ATOM     63  F   UNL A   1      37.764  30.653  34.280  1.00  0.00    -0.200 F 
ATOM     64  C   UNL A   1      36.750  31.321  32.255  1.00  0.00     0.200 A 
ATOM     65  F   UNL A   1      35.772  31.965  30.204  1.00  0.00    -0.200 F 
ATOM     66  F   UNL A   1      35.642  31.688  32.914  1.00  0.00    -0.200 F 
ENDBRANCH  42  56
BRANCH  43  67
ATOM     67  C   UNL A   1      47.250  27.718  25.972  1.00  0.00     0.064 A 
ATOM     68  C   UNL A   1      47.296  27.751  24.572  1.00  0.00     0.173 A 
ATOM     69  C   UNL A   1      48.393  27.274  26.654  1.00  0.00     0.173 A 
ATOM     70  F   UNL A   1      46.217  28.137  23.876  1.00  0.00    -0.203 F 
ATOM     71  C   UNL A   1      48.436  27.347  23.882  1.00  0.00     0.198 A 
ATOM     72  C   UNL A   1      49.542  26.900  25.964  1.00  0.00     0.198 A 
ATOM     73  F   UNL A   1      48.396  27.218  27.993  1.00  0.00    -0.203 F 
ATOM     74  F   UNL A   1      48.440  27.346  22.541  1.00  0.00    -0.200 F 
ATOM     75  C   UNL A   1      49.562  26.929  24.578  1.00  0.00     0.200 A 
ATOM     76  F   UNL A   1      50.630  26.508  26.641  1.00  0.00    -0.200 F 
ATOM     77  F   UNL A   1      50.660  26.545  23.913  1.00  0.00    -0.200 F 
ENDBRANCH  43  67
BRANCH  55  78
ATOM     78  C   UNL A   1      45.210  33.714  28.846  1.00  0.00     0.064 A 
ATOM     79  C   UNL A   1      46.119  34.006  29.873  1.00  0.00     0.173 A 
ATOM     80  C   UNL A   1      44.945  34.711  27.896  1.00  0.00     0.173 A 
ATOM     81  F   UNL A   1      46.390  33.091  30.815  1.00  0.00    -0.203 F 
ATOM     82  C   UNL A   1      46.725  35.257  29.955  1.00  0.00     0.198 A 
ATOM     83  C   UNL A   1      45.570  35.953  27.970  1.00  0.00     0.198 A 
ATOM     84  F   UNL A   1      44.084  34.479  26.894  1.00  0.00    -0.203 F 
ATOM     85  F   UNL A   1      47.560  35.530  30.969  1.00  0.00    -0.200 F 
ATOM     86  C   UNL A   1      46.454  36.227  29.001  1.00  0.00     0.200 A 
ATOM     87  F   UNL A   1      45.313  36.886  27.043  1.00  0.00    -0.200 F 
ATOM     88  F   UNL A   1      47.039  37.430  29.083  1.00  0.00    -0.200 F 
ENDBRANCH  55  78
ENDBRANCH  29  30
ENDBRANCH  22  24
ENDBRANCH  21  22
ENDBRANCH  20  21
ENDBRANCH   1  20
TORSDOF 15
ENDMDL
