MODEL 1
REMARK VINA RESULT:     -11.9      0.000      0.000
REMARK SMILES [NH3+]C[C@H]1CC[C@@H](C(=O)Nc2ccc(O)c(C(=O)OCCOC(=O)c3ccc(-c4c5nc(c(-c6c(F)c(F)c(F)c(F)c6F)c6ccc([nH]6)c(-c6c(F)c(F)c(F)c(F)c6F)c6nc(c(-c7c(F)c(F)c(F)c(F)c7F)c7ccc4[nH]7)C=C6)C=C5)cc3)c2)O1
REMARK SMILES IDX 19 1 18 2 16 3 17 4 15 5 10 6 11 7 87 8 12 9 13 10 9 11 7 12
REMARK SMILES IDX 8 13 6 15 3 16 4 17 88 18 5 19 2 20 1 21 14 25 20 27 21 28
REMARK SMILES IDX 22 29 23 30 24 31 25 32 86 33 26 34 85 35 27 36 28 37 29 38
REMARK SMILES IDX 79 39 30 40 84 41 78 42 80 43 31 44 83 45 77 46 76 47 32 49
REMARK SMILES IDX 64 50 44 51 63 52 45 53 48 54 62 55 81 56 46 57 47 58 61 60
REMARK SMILES IDX 82 61 49 62 33 63 34 64 42 65 35 66 36 67 40 68 43 69 37 70
REMARK SMILES IDX 38 71 41 72 39 73 65 74 66 75 74 76 67 77 68 78 72 79 75 80
REMARK SMILES IDX 69 81 70 82 73 83 71 84 50 85 51 86 59 87 52 88 53 89 57 90
REMARK SMILES IDX 60 91 54 92 55 93 58 94 56 95
REMARK H PARENT 9 14 1 22 1 23 1 24 14 26 80 48 48 59
REMARK Flexibility Score: inf
ROOT
ATOM      1  C   UNL A   1      31.243  30.553  25.253  1.00  0.00     0.275 C 
ENDROOT
BRANCH   1   2
ATOM      2  O   UNL A   1      32.391  29.743  24.941  1.00  0.00    -0.458 OA
BRANCH   2   3
ATOM      3  C   UNL A   1      32.221  28.866  23.925  1.00  0.00     0.342 C 
ATOM      4  O   UNL A   1      32.942  28.751  22.944  1.00  0.00    -0.246 OA
BRANCH   3   5
ATOM      5  C   UNL A   1      31.122  27.917  24.198  1.00  0.00     0.103 A 
ATOM      6  C   UNL A   1      30.397  26.037  25.546  1.00  0.00     0.042 A 
ATOM      7  C   UNL A   1      29.274  25.881  24.741  1.00  0.00     0.030 A 
ATOM      8  C   UNL A   1      31.292  27.068  25.298  1.00  0.00     0.045 A 
ATOM      9  C   UNL A   1      29.075  26.742  23.657  1.00  0.00     0.049 A 
ATOM     10  C   UNL A   1      30.008  27.746  23.372  1.00  0.00     0.130 A 
BRANCH   6  11
ATOM     11  N   UNL A   1      30.688  25.181  26.608  1.00  0.00    -0.324 N 
ATOM     12  C   UNL A   1      31.481  24.069  26.603  1.00  0.00     0.253 C 
ATOM     13  O   UNL A   1      31.593  23.443  27.664  1.00  0.00    -0.272 OA
ATOM     14  H   UNL A   1      30.269  25.407  27.470  1.00  0.00     0.170 HD
BRANCH  12  15
ATOM     15  C   UNL A   1      32.294  23.649  25.350  1.00  0.00     0.208 C 
ATOM     16  C   UNL A   1      33.552  21.749  24.749  1.00  0.00     0.174 C 
ATOM     17  C   UNL A   1      32.428  21.900  23.746  1.00  0.00     0.041 C 
ATOM     18  O   UNL A   1      33.552  22.981  25.494  1.00  0.00    -0.359 OA
ATOM     19  C   UNL A   1      31.420  22.715  24.507  1.00  0.00     0.045 C 
BRANCH  16  20
ATOM     20  C   UNL A   1      33.355  20.558  25.715  1.00  0.00     0.291 C 
BRANCH  20  21
ATOM     21  N   UNL A   1      33.545  20.944  27.118  1.00  0.00    -0.355 N 
ATOM     22  H   UNL A   1      34.325  20.418  27.513  1.00  0.00     0.344 HD
ATOM     23  H   UNL A   1      32.695  20.739  27.645  1.00  0.00     0.344 HD
ATOM     24  H   UNL A   1      33.746  21.942  27.172  1.00  0.00     0.344 HD
ENDBRANCH  20  21
ENDBRANCH  16  20
ENDBRANCH  12  15
ENDBRANCH   6  11
BRANCH  10  25
ATOM     25  O   UNL A   1      29.852  28.509  22.252  1.00  0.00    -0.507 OA
ATOM     26  H   UNL A   1      28.994  28.753  21.968  1.00  0.00     0.293 HD
ENDBRANCH  10  25
ENDBRANCH   3   5
ENDBRANCH   2   3
ENDBRANCH   1   2
BRANCH   1  27
ATOM     27  C   UNL A   1      31.491  31.378  26.514  1.00  0.00     0.275 C 
BRANCH  27  28
ATOM     28  O   UNL A   1      32.788  31.071  27.061  1.00  0.00    -0.458 OA
BRANCH  28  29
ATOM     29  C   UNL A   1      33.518  32.131  27.469  1.00  0.00     0.338 C 
ATOM     30  O   UNL A   1      33.194  33.306  27.476  1.00  0.00    -0.246 OA
BRANCH  29  31
ATOM     31  C   UNL A   1      34.835  31.681  27.952  1.00  0.00     0.060 A 
ATOM     32  C   UNL A   1      35.006  30.356  28.339  1.00  0.00     0.016 A 
ATOM     33  C   UNL A   1      35.849  32.608  28.176  1.00  0.00     0.016 A 
ATOM     34  C   UNL A   1      36.129  29.981  29.075  1.00  0.00     0.010 A 
ATOM     35  C   UNL A   1      37.034  32.198  28.800  1.00  0.00     0.010 A 
ATOM     36  C   UNL A   1      37.169  30.892  29.305  1.00  0.00    -0.014 A 
BRANCH  36  37
ATOM     37  C   UNL A   1      38.375  30.501  30.098  1.00  0.00     0.031 A 
ATOM     38  C   UNL A   1      39.425  29.602  29.493  1.00  0.00     0.074 A 
ATOM     39  C   UNL A   1      38.546  30.945  31.361  1.00  0.00     0.049 A 
ATOM     40  N   UNL A   1      40.418  28.973  30.072  1.00  0.00    -0.248 NA
ATOM     41  C   UNL A   1      39.335  29.362  28.043  1.00  0.00     0.031 C 
ATOM     42  C   UNL A   1      37.647  31.855  32.071  1.00  0.00     0.029 A 
ATOM     43  N   UNL A   1      39.544  30.691  32.272  1.00  0.00    -0.354 N 
ATOM     44  C   UNL A   1      41.022  28.213  29.077  1.00  0.00     0.074 A 
ATOM     45  C   UNL A   1      40.288  28.461  27.855  1.00  0.00     0.031 C 
ATOM     46  C   UNL A   1      38.154  32.121  33.283  1.00  0.00     0.029 A 
ATOM     47  C   UNL A   1      39.359  31.322  33.478  1.00  0.00     0.049 A 
ATOM     48  H   UNL A   1      40.317  30.114  32.078  1.00  0.00     0.167 HD
ATOM     49  C   UNL A   1      42.089  27.383  29.176  1.00  0.00     0.037 A 
ATOM     50  C   UNL A   1      40.046  31.234  34.633  1.00  0.00     0.037 A 
ATOM     51  C   UNL A   1      42.866  27.195  30.374  1.00  0.00     0.049 A 
ATOM     52  C   UNL A   1      41.218  30.298  34.723  1.00  0.00     0.074 A 
ATOM     53  C   UNL A   1      43.977  26.392  30.567  1.00  0.00     0.029 A 
ATOM     54  N   UNL A   1      42.626  27.840  31.578  1.00  0.00    -0.354 N 
ATOM     55  N   UNL A   1      41.732  29.526  33.798  1.00  0.00    -0.248 NA
ATOM     56  C   UNL A   1      41.888  30.201  36.028  1.00  0.00     0.031 C 
ATOM     57  C   UNL A   1      44.391  26.527  31.897  1.00  0.00     0.029 A 
ATOM     58  C   UNL A   1      43.563  27.445  32.521  1.00  0.00     0.049 A 
ATOM     59  H   UNL A   1      41.899  28.483  31.740  1.00  0.00     0.167 HD
ATOM     60  C   UNL A   1      42.787  28.857  34.403  1.00  0.00     0.074 A 
ATOM     61  C   UNL A   1      42.855  29.332  35.770  1.00  0.00     0.031 C 
ATOM     62  C   UNL A   1      43.618  27.927  33.876  1.00  0.00     0.037 A 
BRANCH  49  63
ATOM     63  C   UNL A   1      42.466  26.582  27.963  1.00  0.00     0.064 A 
ATOM     64  C   UNL A   1      41.899  25.329  27.690  1.00  0.00     0.173 A 
ATOM     65  C   UNL A   1      43.382  27.103  27.034  1.00  0.00     0.173 A 
ATOM     66  F   UNL A   1      41.028  24.782  28.551  1.00  0.00    -0.203 F 
ATOM     67  C   UNL A   1      42.252  24.617  26.545  1.00  0.00     0.198 A 
ATOM     68  C   UNL A   1      43.711  26.400  25.878  1.00  0.00     0.198 A 
ATOM     69  F   UNL A   1      43.950  28.300  27.243  1.00  0.00    -0.203 F 
ATOM     70  F   UNL A   1      41.729  23.402  26.327  1.00  0.00    -0.200 F 
ATOM     71  C   UNL A   1      43.152  25.155  25.638  1.00  0.00     0.200 A 
ATOM     72  F   UNL A   1      44.572  26.930  24.996  1.00  0.00    -0.200 F 
ATOM     73  F   UNL A   1      43.484  24.471  24.534  1.00  0.00    -0.200 F 
ENDBRANCH  49  63
BRANCH  50  74
ATOM     74  C   UNL A   1      39.609  32.024  35.815  1.00  0.00     0.064 A 
ATOM     75  C   UNL A   1      40.199  33.258  36.116  1.00  0.00     0.173 A 
ATOM     76  C   UNL A   1      38.587  31.565  36.660  1.00  0.00     0.173 A 
ATOM     77  F   UNL A   1      41.202  33.724  35.356  1.00  0.00    -0.203 F 
ATOM     78  C   UNL A   1      39.787  34.002  37.220  1.00  0.00     0.198 A 
ATOM     79  C   UNL A   1      38.154  32.325  37.744  1.00  0.00     0.198 A 
ATOM     80  F   UNL A   1      37.992  30.388  36.418  1.00  0.00    -0.203 F 
ATOM     81  F   UNL A   1      40.395  35.161  37.508  1.00  0.00    -0.200 F 
ATOM     82  C   UNL A   1      38.759  33.539  38.027  1.00  0.00     0.200 A 
ATOM     83  F   UNL A   1      37.150  31.881  38.512  1.00  0.00    -0.200 F 
ATOM     84  F   UNL A   1      38.355  34.262  39.080  1.00  0.00    -0.200 F 
ENDBRANCH  50  74
BRANCH  62  85
ATOM     85  C   UNL A   1      44.686  27.379  34.775  1.00  0.00     0.064 A 
ATOM     86  C   UNL A   1      44.478  26.219  35.536  1.00  0.00     0.173 A 
ATOM     87  C   UNL A   1      45.938  28.004  34.855  1.00  0.00     0.173 A 
ATOM     88  F   UNL A   1      43.290  25.596  35.506  1.00  0.00    -0.203 F 
ATOM     89  C   UNL A   1      45.478  25.720  36.365  1.00  0.00     0.198 A 
ATOM     90  C   UNL A   1      46.945  27.488  35.665  1.00  0.00     0.198 A 
ATOM     91  F   UNL A   1      46.187  29.113  34.143  1.00  0.00    -0.203 F 
ATOM     92  F   UNL A   1      45.244  24.637  37.118  1.00  0.00    -0.200 F 
ATOM     93  C   UNL A   1      46.712  26.351  36.425  1.00  0.00     0.200 A 
ATOM     94  F   UNL A   1      48.139  28.094  35.716  1.00  0.00    -0.200 F 
ATOM     95  F   UNL A   1      47.676  25.867  37.222  1.00  0.00    -0.200 F 
ENDBRANCH  62  85
ENDBRANCH  36  37
ENDBRANCH  29  31
ENDBRANCH  28  29
ENDBRANCH  27  28
ENDBRANCH   1  27
TORSDOF 16
ENDMDL
MODEL 2
REMARK VINA RESULT:     -11.7      4.810      9.858
REMARK SMILES [NH3+]C[C@H]1CC[C@@H](C(=O)Nc2ccc(O)c(C(=O)OCCOC(=O)c3ccc(-c4c5nc(c(-c6c(F)c(F)c(F)c(F)c6F)c6ccc([nH]6)c(-c6c(F)c(F)c(F)c(F)c6F)c6nc(c(-c7c(F)c(F)c(F)c(F)c7F)c7ccc4[nH]7)C=C6)C=C5)cc3)c2)O1
REMARK SMILES IDX 19 1 18 2 16 3 17 4 15 5 10 6 11 7 87 8 12 9 13 10 9 11 7 12
REMARK SMILES IDX 8 13 6 15 3 16 4 17 88 18 5 19 2 20 1 21 14 25 20 27 21 28
REMARK SMILES IDX 22 29 23 30 24 31 25 32 86 33 26 34 85 35 27 36 28 37 29 38
REMARK SMILES IDX 79 39 30 40 84 41 78 42 80 43 31 44 83 45 77 46 76 47 32 49
REMARK SMILES IDX 64 50 44 51 63 52 45 53 48 54 62 55 81 56 46 57 47 58 61 60
REMARK SMILES IDX 82 61 49 62 33 63 34 64 42 65 35 66 36 67 40 68 43 69 37 70
REMARK SMILES IDX 38 71 41 72 39 73 65 74 66 75 74 76 67 77 68 78 72 79 75 80
REMARK SMILES IDX 69 81 70 82 73 83 71 84 50 85 51 86 59 87 52 88 53 89 57 90
REMARK SMILES IDX 60 91 54 92 55 93 58 94 56 95
REMARK H PARENT 9 14 1 22 1 23 1 24 14 26 80 48 48 59
REMARK Flexibility Score: inf
ROOT
ATOM      1  C   UNL A   1      35.463  21.867  26.325  1.00  0.00     0.275 C 
ENDROOT
BRANCH   1   2
ATOM      2  O   UNL A   1      34.252  21.212  26.743  1.00  0.00    -0.458 OA
BRANCH   2   3
ATOM      3  C   UNL A   1      33.116  21.921  26.557  1.00  0.00     0.342 C 
ATOM      4  O   UNL A   1      32.477  22.500  27.424  1.00  0.00    -0.246 OA
BRANCH   3   5
ATOM      5  C   UNL A   1      32.788  22.064  25.123  1.00  0.00     0.103 A 
ATOM      6  C   UNL A   1      32.296  20.887  23.061  1.00  0.00     0.042 A 
ATOM      7  C   UNL A   1      32.376  22.080  22.351  1.00  0.00     0.030 A 
ATOM      8  C   UNL A   1      32.463  20.886  24.439  1.00  0.00     0.045 A 
ATOM      9  C   UNL A   1      32.669  23.270  23.027  1.00  0.00     0.049 A 
ATOM     10  C   UNL A   1      32.896  23.259  24.408  1.00  0.00     0.130 A 
BRANCH   6  11
ATOM     11  N   UNL A   1      32.063  19.658  22.446  1.00  0.00    -0.324 N 
ATOM     12  C   UNL A   1      32.494  18.422  22.839  1.00  0.00     0.253 C 
ATOM     13  O   UNL A   1      32.180  17.457  22.132  1.00  0.00    -0.272 OA
ATOM     14  H   UNL A   1      31.522  19.683  21.624  1.00  0.00     0.170 HD
BRANCH  12  15
ATOM     15  C   UNL A   1      33.263  18.208  24.169  1.00  0.00     0.208 C 
ATOM     16  C   UNL A   1      33.476  16.425  25.694  1.00  0.00     0.174 C 
ATOM     17  C   UNL A   1      34.856  16.747  25.158  1.00  0.00     0.041 C 
ATOM     18  O   UNL A   1      32.646  17.517  25.260  1.00  0.00    -0.359 OA
ATOM     19  C   UNL A   1      34.546  17.433  23.857  1.00  0.00     0.045 C 
BRANCH  16  20
ATOM     20  C   UNL A   1      32.906  15.093  25.156  1.00  0.00     0.291 C 
BRANCH  20  21
ATOM     21  N   UNL A   1      31.606  14.765  25.751  1.00  0.00    -0.355 N 
ATOM     22  H   UNL A   1      31.344  15.491  26.418  1.00  0.00     0.344 HD
ATOM     23  H   UNL A   1      31.669  13.867  26.232  1.00  0.00     0.344 HD
ATOM     24  H   UNL A   1      30.900  14.707  25.017  1.00  0.00     0.344 HD
ENDBRANCH  20  21
ENDBRANCH  16  20
ENDBRANCH  12  15
ENDBRANCH   6  11
BRANCH  10  25
ATOM     25  O   UNL A   1      33.282  24.409  25.033  1.00  0.00    -0.507 OA
ATOM     26  H   UNL A   1      33.409  24.418  25.960  1.00  0.00     0.293 HD
ENDBRANCH  10  25
ENDBRANCH   3   5
ENDBRANCH   2   3
ENDBRANCH   1   2
BRANCH   1  27
ATOM     27  C   UNL A   1      36.262  20.974  25.379  1.00  0.00     0.275 C 
BRANCH  27  28
ATOM     28  O   UNL A   1      37.497  21.618  25.012  1.00  0.00    -0.458 OA
BRANCH  28  29
ATOM     29  C   UNL A   1      38.583  21.257  25.730  1.00  0.00     0.338 C 
ATOM     30  O   UNL A   1      39.066  20.145  25.850  1.00  0.00    -0.246 OA
BRANCH  29  31
ATOM     31  C   UNL A   1      39.168  22.439  26.387  1.00  0.00     0.060 A 
ATOM     32  C   UNL A   1      38.629  23.697  26.140  1.00  0.00     0.016 A 
ATOM     33  C   UNL A   1      40.351  22.318  27.111  1.00  0.00     0.016 A 
ATOM     34  C   UNL A   1      39.337  24.844  26.494  1.00  0.00     0.010 A 
ATOM     35  C   UNL A   1      40.994  23.470  27.581  1.00  0.00     0.010 A 
ATOM     36  C   UNL A   1      40.524  24.751  27.234  1.00  0.00    -0.014 A 
BRANCH  36  37
ATOM     37  C   UNL A   1      41.295  25.975  27.613  1.00  0.00     0.031 A 
ATOM     38  C   UNL A   1      40.653  27.044  28.465  1.00  0.00     0.074 A 
ATOM     39  C   UNL A   1      42.570  26.143  27.206  1.00  0.00     0.049 A 
ATOM     40  N   UNL A   1      41.061  28.263  28.718  1.00  0.00    -0.248 NA
ATOM     41  C   UNL A   1      39.371  26.701  29.102  1.00  0.00     0.031 C 
ATOM     42  C   UNL A   1      43.345  25.184  26.419  1.00  0.00     0.029 A 
ATOM     43  N   UNL A   1      43.443  27.187  27.405  1.00  0.00    -0.354 N 
ATOM     44  C   UNL A   1      40.057  28.851  29.479  1.00  0.00     0.074 A 
ATOM     45  C   UNL A   1      39.022  27.855  29.651  1.00  0.00     0.031 C 
ATOM     46  C   UNL A   1      44.587  25.658  26.243  1.00  0.00     0.029 A 
ATOM     47  C   UNL A   1      44.668  26.998  26.813  1.00  0.00     0.049 A 
ATOM     48  H   UNL A   1      43.213  27.992  27.923  1.00  0.00     0.167 HD
ATOM     49  C   UNL A   1      40.005  30.108  29.984  1.00  0.00     0.037 A 
ATOM     50  C   UNL A   1      45.726  27.824  26.692  1.00  0.00     0.037 A 
ATOM     51  C   UNL A   1      41.068  31.074  29.877  1.00  0.00     0.049 A 
ATOM     52  C   UNL A   1      45.639  29.216  27.249  1.00  0.00     0.074 A 
ATOM     53  C   UNL A   1      41.116  32.365  30.374  1.00  0.00     0.029 A 
ATOM     54  N   UNL A   1      42.282  30.843  29.248  1.00  0.00    -0.354 N 
ATOM     55  N   UNL A   1      44.656  29.787  27.899  1.00  0.00    -0.248 NA
ATOM     56  C   UNL A   1      46.803  30.088  27.031  1.00  0.00     0.031 C 
ATOM     57  C   UNL A   1      42.347  32.927  30.019  1.00  0.00     0.029 A 
ATOM     58  C   UNL A   1      43.082  31.972  29.336  1.00  0.00     0.049 A 
ATOM     59  H   UNL A   1      42.538  30.003  28.805  1.00  0.00     0.167 HD
ATOM     60  C   UNL A   1      45.080  31.080  28.173  1.00  0.00     0.074 A 
ATOM     61  C   UNL A   1      46.421  31.202  27.639  1.00  0.00     0.031 C 
ATOM     62  C   UNL A   1      44.414  32.078  28.802  1.00  0.00     0.037 A 
BRANCH  49  63
ATOM     63  C   UNL A   1      38.739  30.531  30.673  1.00  0.00     0.064 A 
ATOM     64  C   UNL A   1      38.607  30.514  32.069  1.00  0.00     0.173 A 
ATOM     65  C   UNL A   1      37.653  31.004  29.918  1.00  0.00     0.173 A 
ATOM     66  F   UNL A   1      39.610  30.061  32.835  1.00  0.00    -0.203 F 
ATOM     67  C   UNL A   1      37.427  30.933  32.681  1.00  0.00     0.198 A 
ATOM     68  C   UNL A   1      36.486  31.447  30.535  1.00  0.00     0.198 A 
ATOM     69  F   UNL A   1      37.729  31.048  28.579  1.00  0.00    -0.203 F 
ATOM     70  F   UNL A   1      37.308  30.867  34.015  1.00  0.00    -0.200 F 
ATOM     71  C   UNL A   1      36.372  31.404  31.916  1.00  0.00     0.200 A 
ATOM     72  F   UNL A   1      35.473  31.914  29.792  1.00  0.00    -0.200 F 
ATOM     73  F   UNL A   1      35.241  31.813  32.508  1.00  0.00    -0.200 F 
ENDBRANCH  49  63
BRANCH  50  74
ATOM     74  C   UNL A   1      46.942  27.366  25.969  1.00  0.00     0.064 A 
ATOM     75  C   UNL A   1      47.066  27.539  24.585  1.00  0.00     0.173 A 
ATOM     76  C   UNL A   1      48.006  26.754  26.650  1.00  0.00     0.173 A 
ATOM     77  F   UNL A   1      46.063  28.089  23.886  1.00  0.00    -0.203 F 
ATOM     78  C   UNL A   1      48.207  27.115  23.907  1.00  0.00     0.198 A 
ATOM     79  C   UNL A   1      49.160  26.360  25.976  1.00  0.00     0.198 A 
ATOM     80  F   UNL A   1      47.935  26.562  27.975  1.00  0.00    -0.203 F 
ATOM     81  F   UNL A   1      48.285  27.257  22.577  1.00  0.00    -0.200 F 
ATOM     82  C   UNL A   1      49.257  26.535  24.604  1.00  0.00     0.200 A 
ATOM     83  F   UNL A   1      50.177  25.814  26.656  1.00  0.00    -0.200 F 
ATOM     84  F   UNL A   1      50.359  26.139  23.953  1.00  0.00    -0.200 F 
ENDBRANCH  50  74
BRANCH  62  85
ATOM     85  C   UNL A   1      45.137  33.382  28.965  1.00  0.00     0.064 A 
ATOM     86  C   UNL A   1      45.021  34.408  28.016  1.00  0.00     0.173 A 
ATOM     87  C   UNL A   1      45.931  33.617  30.097  1.00  0.00     0.173 A 
ATOM     88  F   UNL A   1      44.286  34.222  26.909  1.00  0.00    -0.203 F 
ATOM     89  C   UNL A   1      45.694  35.613  28.182  1.00  0.00     0.198 A 
ATOM     90  C   UNL A   1      46.583  34.834  30.272  1.00  0.00     0.198 A 
ATOM     91  F   UNL A   1      46.069  32.669  31.035  1.00  0.00    -0.203 F 
ATOM     92  F   UNL A   1      45.607  36.563  27.241  1.00  0.00    -0.200 F 
ATOM     93  C   UNL A   1      46.471  35.828  29.311  1.00  0.00     0.200 A 
ATOM     94  F   UNL A   1      47.327  35.042  31.368  1.00  0.00    -0.200 F 
ATOM     95  F   UNL A   1      47.118  36.992  29.471  1.00  0.00    -0.200 F 
ENDBRANCH  62  85
ENDBRANCH  36  37
ENDBRANCH  29  31
ENDBRANCH  28  29
ENDBRANCH  27  28
ENDBRANCH   1  27
TORSDOF 16
ENDMDL
MODEL 3
REMARK VINA RESULT:     -11.7      4.456     10.128
REMARK SMILES [NH3+]C[C@H]1CC[C@@H](C(=O)Nc2ccc(O)c(C(=O)OCCOC(=O)c3ccc(-c4c5nc(c(-c6c(F)c(F)c(F)c(F)c6F)c6ccc([nH]6)c(-c6c(F)c(F)c(F)c(F)c6F)c6nc(c(-c7c(F)c(F)c(F)c(F)c7F)c7ccc4[nH]7)C=C6)C=C5)cc3)c2)O1
REMARK SMILES IDX 19 1 18 2 16 3 17 4 15 5 10 6 11 7 87 8 12 9 13 10 9 11 7 12
REMARK SMILES IDX 8 13 6 15 3 16 4 17 88 18 5 19 2 20 1 21 14 25 20 27 21 28
REMARK SMILES IDX 22 29 23 30 24 31 25 32 86 33 26 34 85 35 27 36 28 37 29 38
REMARK SMILES IDX 79 39 30 40 84 41 78 42 80 43 31 44 83 45 77 46 76 47 32 49
REMARK SMILES IDX 64 50 44 51 63 52 45 53 48 54 62 55 81 56 46 57 47 58 61 60
REMARK SMILES IDX 82 61 49 62 33 63 34 64 42 65 35 66 36 67 40 68 43 69 37 70
REMARK SMILES IDX 38 71 41 72 39 73 65 74 66 75 74 76 67 77 68 78 72 79 75 80
REMARK SMILES IDX 69 81 70 82 73 83 71 84 50 85 51 86 59 87 52 88 53 89 57 90
REMARK SMILES IDX 60 91 54 92 55 93 58 94 56 95
REMARK H PARENT 9 14 1 22 1 23 1 24 14 26 80 48 48 59
REMARK Flexibility Score: inf
ROOT
ATOM      1  C   UNL A   1      36.301  20.225  25.053  1.00  0.00     0.275 C 
ENDROOT
BRANCH   1   2
ATOM      2  O   UNL A   1      35.855  21.344  25.840  1.00  0.00    -0.458 OA
BRANCH   2   3
ATOM      3  C   UNL A   1      34.529  21.376  26.101  1.00  0.00     0.342 C 
ATOM      4  O   UNL A   1      34.011  21.395  27.209  1.00  0.00    -0.246 OA
BRANCH   3   5
ATOM      5  C   UNL A   1      33.731  21.547  24.869  1.00  0.00     0.103 A 
ATOM      6  C   UNL A   1      33.311  22.959  22.943  1.00  0.00     0.042 A 
ATOM      7  C   UNL A   1      32.197  22.194  22.614  1.00  0.00     0.030 A 
ATOM      8  C   UNL A   1      34.091  22.615  24.038  1.00  0.00     0.045 A 
ATOM      9  C   UNL A   1      31.844  21.105  23.418  1.00  0.00     0.049 A 
ATOM     10  C   UNL A   1      32.598  20.794  24.556  1.00  0.00     0.130 A 
BRANCH   6  11
ATOM     11  N   UNL A   1      33.689  24.090  22.220  1.00  0.00    -0.324 N 
ATOM     12  C   UNL A   1      33.280  25.381  22.399  1.00  0.00     0.253 C 
ATOM     13  O   UNL A   1      33.736  26.235  21.630  1.00  0.00    -0.272 OA
ATOM     14  H   UNL A   1      34.330  23.939  21.489  1.00  0.00     0.170 HD
BRANCH  12  15
ATOM     15  C   UNL A   1      32.357  25.792  23.577  1.00  0.00     0.208 C 
ATOM     16  C   UNL A   1      31.097  27.711  24.105  1.00  0.00     0.174 C 
ATOM     17  C   UNL A   1      30.141  26.540  24.003  1.00  0.00     0.041 C 
ATOM     18  O   UNL A   1      32.409  27.120  24.109  1.00  0.00    -0.359 OA
ATOM     19  C   UNL A   1      30.906  25.573  23.142  1.00  0.00     0.045 C 
BRANCH  16  20
ATOM     20  C   UNL A   1      30.977  28.704  22.927  1.00  0.00     0.291 C 
BRANCH  20  21
ATOM     21  N   UNL A   1      32.287  29.128  22.423  1.00  0.00    -0.355 N 
ATOM     22  H   UNL A   1      32.672  29.846  23.038  1.00  0.00     0.344 HD
ATOM     23  H   UNL A   1      32.183  29.507  21.481  1.00  0.00     0.344 HD
ATOM     24  H   UNL A   1      32.918  28.327  22.398  1.00  0.00     0.344 HD
ENDBRANCH  20  21
ENDBRANCH  16  20
ENDBRANCH  12  15
ENDBRANCH   6  11
BRANCH  10  25
ATOM     25  O   UNL A   1      32.179  19.793  25.384  1.00  0.00    -0.507 OA
ATOM     26  H   UNL A   1      32.068  19.958  26.299  1.00  0.00     0.293 HD
ENDBRANCH  10  25
ENDBRANCH   3   5
ENDBRANCH   2   3
ENDBRANCH   1   2
BRANCH   1  27
ATOM     27  C   UNL A   1      37.826  20.165  25.015  1.00  0.00     0.275 C 
BRANCH  27  28
ATOM     28  O   UNL A   1      38.385  21.334  25.646  1.00  0.00    -0.458 OA
BRANCH  28  29
ATOM     29  C   UNL A   1      39.526  21.135  26.342  1.00  0.00     0.338 C 
ATOM     30  O   UNL A   1      40.122  20.087  26.521  1.00  0.00    -0.246 OA
BRANCH  29  31
ATOM     31  C   UNL A   1      40.013  22.414  26.887  1.00  0.00     0.060 A 
ATOM     32  C   UNL A   1      39.520  23.609  26.373  1.00  0.00     0.016 A 
ATOM     33  C   UNL A   1      41.076  22.429  27.786  1.00  0.00     0.016 A 
ATOM     34  C   UNL A   1      40.173  24.811  26.646  1.00  0.00     0.010 A 
ATOM     35  C   UNL A   1      41.647  23.651  28.161  1.00  0.00     0.010 A 
ATOM     36  C   UNL A   1      41.238  24.854  27.556  1.00  0.00    -0.014 A 
BRANCH  36  37
ATOM     37  C   UNL A   1      41.949  26.137  27.850  1.00  0.00     0.031 A 
ATOM     38  C   UNL A   1      41.282  27.202  28.686  1.00  0.00     0.074 A 
ATOM     39  C   UNL A   1      43.193  26.361  27.379  1.00  0.00     0.049 A 
ATOM     40  N   UNL A   1      41.625  28.452  28.871  1.00  0.00    -0.248 NA
ATOM     41  C   UNL A   1      40.051  26.812  29.394  1.00  0.00     0.031 C 
ATOM     42  C   UNL A   1      43.990  25.416  26.597  1.00  0.00     0.029 A 
ATOM     43  N   UNL A   1      44.010  27.462  27.495  1.00  0.00    -0.354 N 
ATOM     44  C   UNL A   1      40.622  29.013  29.653  1.00  0.00     0.074 A 
ATOM     45  C   UNL A   1      39.656  27.966  29.912  1.00  0.00     0.031 C 
ATOM     46  C   UNL A   1      45.192  25.954  26.345  1.00  0.00     0.029 A 
ATOM     47  C   UNL A   1      45.217  27.320  26.856  1.00  0.00     0.049 A 
ATOM     48  H   UNL A   1      43.754  28.274  27.990  1.00  0.00     0.167 HD
ATOM     49  C   UNL A   1      40.515  30.285  30.109  1.00  0.00     0.037 A 
ATOM     50  C   UNL A   1      46.216  28.200  26.654  1.00  0.00     0.037 A 
ATOM     51  C   UNL A   1      41.512  31.306  29.915  1.00  0.00     0.049 A 
ATOM     52  C   UNL A   1      46.070  29.608  27.158  1.00  0.00     0.074 A 
ATOM     53  C   UNL A   1      41.504  32.618  30.356  1.00  0.00     0.029 A 
ATOM     54  N   UNL A   1      42.710  31.120  29.241  1.00  0.00    -0.354 N 
ATOM     55  N   UNL A   1      45.083  30.147  27.829  1.00  0.00    -0.248 NA
ATOM     56  C   UNL A   1      47.169  30.536  26.852  1.00  0.00     0.031 C 
ATOM     57  C   UNL A   1      42.683  33.235  29.923  1.00  0.00     0.029 A 
ATOM     58  C   UNL A   1      43.444  32.296  29.247  1.00  0.00     0.049 A 
ATOM     59  H   UNL A   1      42.997  30.277  28.821  1.00  0.00     0.167 HD
ATOM     60  C   UNL A   1      45.440  31.473  28.031  1.00  0.00     0.074 A 
ATOM     61  C   UNL A   1      46.747  31.651  27.432  1.00  0.00     0.031 C 
ATOM     62  C   UNL A   1      44.743  32.457  28.648  1.00  0.00     0.037 A 
BRANCH  49  63
ATOM     63  C   UNL A   1      39.257  30.663  30.837  1.00  0.00     0.064 A 
ATOM     64  C   UNL A   1      38.135  31.175  30.172  1.00  0.00     0.173 A 
ATOM     65  C   UNL A   1      39.163  30.465  32.225  1.00  0.00     0.173 A 
ATOM     66  F   UNL A   1      38.176  31.394  28.849  1.00  0.00    -0.203 F 
ATOM     67  C   UNL A   1      36.973  31.497  30.872  1.00  0.00     0.198 A 
ATOM     68  C   UNL A   1      37.992  30.763  32.916  1.00  0.00     0.198 A 
ATOM     69  F   UNL A   1      40.206  29.972  32.910  1.00  0.00    -0.203 F 
ATOM     70  F   UNL A   1      35.927  32.026  30.221  1.00  0.00    -0.200 F 
ATOM     71  C   UNL A   1      36.900  31.285  32.240  1.00  0.00     0.200 A 
ATOM     72  F   UNL A   1      37.921  30.544  34.237  1.00  0.00    -0.200 F 
ATOM     73  F   UNL A   1      35.779  31.589  32.909  1.00  0.00    -0.200 F 
ENDBRANCH  49  63
BRANCH  50  74
ATOM     74  C   UNL A   1      47.426  27.783  25.896  1.00  0.00     0.064 A 
ATOM     75  C   UNL A   1      47.426  27.759  24.496  1.00  0.00     0.173 A 
ATOM     76  C   UNL A   1      48.607  27.410  26.556  1.00  0.00     0.173 A 
ATOM     77  F   UNL A   1      46.312  28.076  23.820  1.00  0.00    -0.203 F 
ATOM     78  C   UNL A   1      48.560  27.373  23.783  1.00  0.00     0.198 A 
ATOM     79  C   UNL A   1      49.750  27.056  25.843  1.00  0.00     0.198 A 
ATOM     80  F   UNL A   1      48.657  27.413  27.896  1.00  0.00    -0.203 F 
ATOM     81  F   UNL A   1      48.522  27.321  22.445  1.00  0.00    -0.200 F 
ATOM     82  C   UNL A   1      49.723  27.032  24.457  1.00  0.00     0.200 A 
ATOM     83  F   UNL A   1      50.875  26.742  26.498  1.00  0.00    -0.200 F 
ATOM     84  F   UNL A   1      50.817  26.674  23.771  1.00  0.00    -0.200 F 
ENDBRANCH  50  74
BRANCH  62  85
ATOM     85  C   UNL A   1      45.392  33.806  28.726  1.00  0.00     0.064 A 
ATOM     86  C   UNL A   1      46.247  34.148  29.785  1.00  0.00     0.173 A 
ATOM     87  C   UNL A   1      45.178  34.757  27.718  1.00  0.00     0.173 A 
ATOM     88  F   UNL A   1      46.468  33.277  30.781  1.00  0.00    -0.203 F 
ATOM     89  C   UNL A   1      46.845  35.402  29.843  1.00  0.00     0.198 A 
ATOM     90  C   UNL A   1      45.797  36.002  27.767  1.00  0.00     0.198 A 
ATOM     91  F   UNL A   1      44.372  34.476  26.684  1.00  0.00    -0.203 F 
ATOM     92  F   UNL A   1      47.622  35.725  30.886  1.00  0.00    -0.200 F 
ATOM     93  C   UNL A   1      46.624  36.327  28.832  1.00  0.00     0.200 A 
ATOM     94  F   UNL A   1      45.589  36.892  26.786  1.00  0.00    -0.200 F 
ATOM     95  F   UNL A   1      47.203  37.535  28.889  1.00  0.00    -0.200 F 
ENDBRANCH  62  85
ENDBRANCH  36  37
ENDBRANCH  29  31
ENDBRANCH  28  29
ENDBRANCH  27  28
ENDBRANCH   1  27
TORSDOF 16
ENDMDL
