MODEL 1
REMARK VINA RESULT:     -13.1      0.000      0.000
REMARK SMILES Cc1ccccc1-c1nc(CC(=O)OCCOC(=O)c2ccc(-c3c4nc(c(-c5c(F)c(F)c(F)c(F)c5F)c5ccc([nH]5)c(-c5c(F)c(F)c(F)c(F)c5F)c5nc(c(-c6c(F)c(F)c(F)c(F)c6F)c6ccc3[nH]6)C=C5)C=C4)cc2)cs1
REMARK SMILES IDX 15 1 14 2 12 3 13 4 11 5 10 6 8 7 9 8 84 9 83 10 7 11 1 12
REMARK SMILES IDX 2 13 3 14 4 15 6 16 5 17 16 18 17 19 18 20 19 21 20 22 21 23
REMARK SMILES IDX 82 24 22 25 81 26 23 27 24 28 25 29 75 30 26 31 80 32 74 33
REMARK SMILES IDX 76 34 27 35 79 36 73 37 72 38 28 40 60 41 40 42 59 43 41 44
REMARK SMILES IDX 44 45 58 46 77 47 42 48 43 49 57 51 78 52 45 53 29 54 30 55
REMARK SMILES IDX 38 56 31 57 32 58 36 59 39 60 33 61 34 62 37 63 35 64 61 65
REMARK SMILES IDX 62 66 70 67 63 68 64 69 68 70 71 71 65 72 66 73 69 74 67 75
REMARK SMILES IDX 46 76 47 77 55 78 48 79 49 80 53 81 56 82 50 83 51 84 54 85
REMARK SMILES IDX 52 86
REMARK H PARENT 76 39 44 50
REMARK Flexibility Score: inf
ROOT
ATOM      1  C   UNL A   1      33.315  29.014  25.682  1.00  0.00     0.274 C 
ENDROOT
BRANCH   1   2
ATOM      2  O   UNL A   1      31.961  28.915  25.258  1.00  0.00    -0.462 OA
BRANCH   2   3
ATOM      3  C   UNL A   1      31.462  27.651  25.183  1.00  0.00     0.312 C 
ATOM      4  O   UNL A   1      31.058  27.130  24.151  1.00  0.00    -0.252 OA
BRANCH   3   5
ATOM      5  C   UNL A   1      31.576  26.943  26.510  1.00  0.00     0.179 C 
BRANCH   5   6
ATOM      6  C   UNL A   1      32.051  25.560  26.312  1.00  0.00     0.063 A 
ATOM      7  C   UNL A   1      33.613  24.215  25.571  1.00  0.00     0.123 A 
ATOM      8  N   UNL A   1      33.304  25.467  25.790  1.00  0.00    -0.240 NA
ATOM      9  S   UNL A   1      32.416  23.065  25.962  1.00  0.00    -0.122 S 
ATOM     10  C   UNL A   1      31.407  24.352  26.515  1.00  0.00     0.091 A 
BRANCH   7  11
ATOM     11  C   UNL A   1      34.938  23.895  25.085  1.00  0.00     0.013 A 
ATOM     12  C   UNL A   1      33.981  23.523  22.740  1.00  0.00     0.045 C 
ATOM     13  C   UNL A   1      35.087  23.431  23.761  1.00  0.00    -0.041 A 
ATOM     14  C   UNL A   1      36.263  22.754  23.420  1.00  0.00     0.004 A 
ATOM     15  C   UNL A   1      37.266  22.547  24.370  1.00  0.00     0.000 A 
ATOM     16  C   UNL A   1      35.966  23.721  26.023  1.00  0.00     0.011 A 
ATOM     17  C   UNL A   1      37.126  23.041  25.664  1.00  0.00     0.001 A 
ENDBRANCH   7  11
ENDBRANCH   5   6
ENDBRANCH   3   5
ENDBRANCH   2   3
ENDBRANCH   1   2
BRANCH   1  18
ATOM     18  C   UNL A   1      33.459  30.084  26.772  1.00  0.00     0.275 C 
BRANCH  18  19
ATOM     19  O   UNL A   1      34.580  29.987  27.708  1.00  0.00    -0.458 OA
BRANCH  19  20
ATOM     20  C   UNL A   1      35.723  30.713  27.846  1.00  0.00     0.338 C 
ATOM     21  O   UNL A   1      35.726  31.928  27.778  1.00  0.00    -0.246 OA
BRANCH  20  22
ATOM     22  C   UNL A   1      36.969  30.004  28.191  1.00  0.00     0.060 A 
ATOM     23  C   UNL A   1      37.026  29.210  29.351  1.00  0.00     0.016 A 
ATOM     24  C   UNL A   1      38.033  30.032  27.309  1.00  0.00     0.016 A 
ATOM     25  C   UNL A   1      38.087  28.316  29.536  1.00  0.00     0.010 A 
ATOM     26  C   UNL A   1      38.986  29.048  27.404  1.00  0.00     0.010 A 
ATOM     27  C   UNL A   1      39.038  28.200  28.525  1.00  0.00    -0.014 A 
BRANCH  27  28
ATOM     28  C   UNL A   1      40.295  27.469  28.638  1.00  0.00     0.031 A 
ATOM     29  C   UNL A   1      40.488  26.032  28.368  1.00  0.00     0.074 A 
ATOM     30  C   UNL A   1      41.333  28.305  28.853  1.00  0.00     0.049 A 
ATOM     31  N   UNL A   1      41.585  25.412  28.644  1.00  0.00    -0.248 NA
ATOM     32  C   UNL A   1      39.492  25.154  27.772  1.00  0.00     0.031 C 
ATOM     33  C   UNL A   1      42.766  28.106  28.742  1.00  0.00     0.029 A 
ATOM     34  N   UNL A   1      41.213  29.585  29.426  1.00  0.00    -0.354 N 
ATOM     35  C   UNL A   1      41.553  24.178  28.030  1.00  0.00     0.074 A 
ATOM     36  C   UNL A   1      40.204  24.042  27.540  1.00  0.00     0.031 C 
ATOM     37  C   UNL A   1      43.372  29.030  29.515  1.00  0.00     0.029 A 
ATOM     38  C   UNL A   1      42.322  29.708  30.269  1.00  0.00     0.049 A 
ATOM     39  H   UNL A   1      40.503  30.248  29.268  1.00  0.00     0.167 HD
ATOM     40  C   UNL A   1      42.721  23.479  27.917  1.00  0.00     0.037 A 
ATOM     41  C   UNL A   1      42.100  29.611  31.616  1.00  0.00     0.037 A 
ATOM     42  C   UNL A   1      43.789  24.145  28.660  1.00  0.00     0.049 A 
ATOM     43  C   UNL A   1      42.804  28.425  32.242  1.00  0.00     0.074 A 
ATOM     44  C   UNL A   1      44.798  25.030  28.318  1.00  0.00     0.029 A 
ATOM     45  N   UNL A   1      43.672  24.215  30.036  1.00  0.00    -0.354 N 
ATOM     46  N   UNL A   1      43.285  27.416  31.569  1.00  0.00    -0.248 NA
ATOM     47  C   UNL A   1      42.943  28.250  33.684  1.00  0.00     0.031 C 
ATOM     48  C   UNL A   1      45.255  25.662  29.513  1.00  0.00     0.029 A 
ATOM     49  C   UNL A   1      44.535  25.144  30.576  1.00  0.00     0.049 A 
ATOM     50  H   UNL A   1      43.047  23.667  30.565  1.00  0.00     0.167 HD
ATOM     51  C   UNL A   1      43.830  26.510  32.431  1.00  0.00     0.074 A 
ATOM     52  C   UNL A   1      43.538  27.047  33.748  1.00  0.00     0.031 C 
ATOM     53  C   UNL A   1      44.481  25.387  32.007  1.00  0.00     0.037 A 
BRANCH  40  54
ATOM     54  C   UNL A   1      42.961  22.320  26.979  1.00  0.00     0.064 A 
ATOM     55  C   UNL A   1      42.259  21.105  27.158  1.00  0.00     0.173 A 
ATOM     56  C   UNL A   1      43.880  22.320  25.915  1.00  0.00     0.173 A 
ATOM     57  F   UNL A   1      41.305  20.978  28.088  1.00  0.00    -0.203 F 
ATOM     58  C   UNL A   1      42.519  19.963  26.395  1.00  0.00     0.198 A 
ATOM     59  C   UNL A   1      44.169  21.164  25.175  1.00  0.00     0.198 A 
ATOM     60  F   UNL A   1      44.493  23.445  25.529  1.00  0.00    -0.203 F 
ATOM     61  F   UNL A   1      41.824  18.840  26.621  1.00  0.00    -0.200 F 
ATOM     62  C   UNL A   1      43.496  19.983  25.422  1.00  0.00     0.200 A 
ATOM     63  F   UNL A   1      45.107  21.202  24.217  1.00  0.00    -0.200 F 
ATOM     64  F   UNL A   1      43.771  18.878  24.716  1.00  0.00    -0.200 F 
ENDBRANCH  40  54
BRANCH  41  65
ATOM     65  C   UNL A   1      40.752  30.124  32.055  1.00  0.00     0.064 A 
ATOM     66  C   UNL A   1      39.714  29.206  32.343  1.00  0.00     0.173 A 
ATOM     67  C   UNL A   1      40.545  31.448  32.466  1.00  0.00     0.173 A 
ATOM     68  F   UNL A   1      39.836  27.916  31.986  1.00  0.00    -0.203 F 
ATOM     69  C   UNL A   1      38.593  29.569  33.093  1.00  0.00     0.198 A 
ATOM     70  C   UNL A   1      39.402  31.817  33.184  1.00  0.00     0.198 A 
ATOM     71  F   UNL A   1      41.476  32.386  32.250  1.00  0.00    -0.203 F 
ATOM     72  F   UNL A   1      37.696  28.638  33.451  1.00  0.00    -0.200 F 
ATOM     73  C   UNL A   1      38.443  30.875  33.521  1.00  0.00     0.200 A 
ATOM     74  F   UNL A   1      39.267  33.079  33.615  1.00  0.00    -0.200 F 
ATOM     75  F   UNL A   1      37.401  31.218  34.291  1.00  0.00    -0.200 F 
ENDBRANCH  41  65
BRANCH  53  76
ATOM     76  C   UNL A   1      45.122  24.409  32.945  1.00  0.00     0.064 A 
ATOM     77  C   UNL A   1      44.457  23.259  33.399  1.00  0.00     0.173 A 
ATOM     78  C   UNL A   1      46.400  24.645  33.496  1.00  0.00     0.173 A 
ATOM     79  F   UNL A   1      43.194  23.002  33.028  1.00  0.00    -0.203 F 
ATOM     80  C   UNL A   1      45.072  22.354  34.262  1.00  0.00     0.198 A 
ATOM     81  C   UNL A   1      46.985  23.772  34.407  1.00  0.00     0.198 A 
ATOM     82  F   UNL A   1      47.131  25.713  33.150  1.00  0.00    -0.203 F 
ATOM     83  F   UNL A   1      44.433  21.226  34.602  1.00  0.00    -0.200 F 
ATOM     84  C   UNL A   1      46.333  22.611  34.768  1.00  0.00     0.200 A 
ATOM     85  F   UNL A   1      48.190  24.058  34.919  1.00  0.00    -0.200 F 
ATOM     86  F   UNL A   1      46.919  21.745  35.604  1.00  0.00    -0.200 F 
ENDBRANCH  53  76
ENDBRANCH  27  28
ENDBRANCH  20  22
ENDBRANCH  19  20
ENDBRANCH  18  19
ENDBRANCH   1  18
TORSDOF 13
ENDMDL
MODEL 2
REMARK VINA RESULT:     -13.0      0.257      1.187
REMARK SMILES Cc1ccccc1-c1nc(CC(=O)OCCOC(=O)c2ccc(-c3c4nc(c(-c5c(F)c(F)c(F)c(F)c5F)c5ccc([nH]5)c(-c5c(F)c(F)c(F)c(F)c5F)c5nc(c(-c6c(F)c(F)c(F)c(F)c6F)c6ccc3[nH]6)C=C5)C=C4)cc2)cs1
REMARK SMILES IDX 15 1 14 2 12 3 13 4 11 5 10 6 8 7 9 8 84 9 83 10 7 11 1 12
REMARK SMILES IDX 2 13 3 14 4 15 6 16 5 17 16 18 17 19 18 20 19 21 20 22 21 23
REMARK SMILES IDX 82 24 22 25 81 26 23 27 24 28 25 29 75 30 26 31 80 32 74 33
REMARK SMILES IDX 76 34 27 35 79 36 73 37 72 38 28 40 60 41 40 42 59 43 41 44
REMARK SMILES IDX 44 45 58 46 77 47 42 48 43 49 57 51 78 52 45 53 29 54 30 55
REMARK SMILES IDX 38 56 31 57 32 58 36 59 39 60 33 61 34 62 37 63 35 64 61 65
REMARK SMILES IDX 62 66 70 67 63 68 64 69 68 70 71 71 65 72 66 73 69 74 67 75
REMARK SMILES IDX 46 76 47 77 55 78 48 79 49 80 53 81 56 82 50 83 51 84 54 85
REMARK SMILES IDX 52 86
REMARK H PARENT 76 39 44 50
REMARK Flexibility Score: inf
ROOT
ATOM      1  C   UNL A   1      33.570  28.904  25.507  1.00  0.00     0.274 C 
ENDROOT
BRANCH   1   2
ATOM      2  O   UNL A   1      32.210  28.869  25.923  1.00  0.00    -0.462 OA
BRANCH   2   3
ATOM      3  C   UNL A   1      31.530  27.735  25.602  1.00  0.00     0.312 C 
ATOM      4  O   UNL A   1      31.146  27.458  24.472  1.00  0.00    -0.252 OA
BRANCH   3   5
ATOM      5  C   UNL A   1      31.410  26.819  26.794  1.00  0.00     0.179 C 
BRANCH   5   6
ATOM      6  C   UNL A   1      31.868  25.461  26.443  1.00  0.00     0.063 A 
ATOM      7  C   UNL A   1      33.440  24.183  25.608  1.00  0.00     0.123 A 
ATOM      8  N   UNL A   1      33.143  25.404  25.970  1.00  0.00    -0.240 NA
ATOM      9  S   UNL A   1      32.205  23.022  25.795  1.00  0.00    -0.122 S 
ATOM     10  C   UNL A   1      31.194  24.253  26.461  1.00  0.00     0.091 A 
BRANCH   7  11
ATOM     11  C   UNL A   1      34.781  23.895  25.146  1.00  0.00     0.013 A 
ATOM     12  C   UNL A   1      33.958  23.993  22.723  1.00  0.00     0.045 C 
ATOM     13  C   UNL A   1      34.995  23.670  23.769  1.00  0.00    -0.041 A 
ATOM     14  C   UNL A   1      36.166  23.012  23.376  1.00  0.00     0.004 A 
ATOM     15  C   UNL A   1      37.100  22.593  24.326  1.00  0.00     0.000 A 
ATOM     16  C   UNL A   1      35.741  23.509  26.091  1.00  0.00     0.011 A 
ATOM     17  C   UNL A   1      36.897  22.853  25.679  1.00  0.00     0.001 A 
ENDBRANCH   7  11
ENDBRANCH   5   6
ENDBRANCH   3   5
ENDBRANCH   2   3
ENDBRANCH   1   2
BRANCH   1  18
ATOM     18  C   UNL A   1      34.503  28.872  26.725  1.00  0.00     0.275 C 
BRANCH  18  19
ATOM     19  O   UNL A   1      34.651  30.087  27.528  1.00  0.00    -0.458 OA
BRANCH  19  20
ATOM     20  C   UNL A   1      35.741  30.818  27.889  1.00  0.00     0.338 C 
ATOM     21  O   UNL A   1      35.692  32.028  28.015  1.00  0.00    -0.246 OA
BRANCH  20  22
ATOM     22  C   UNL A   1      36.983  30.104  28.238  1.00  0.00     0.060 A 
ATOM     23  C   UNL A   1      37.045  29.339  29.417  1.00  0.00     0.016 A 
ATOM     24  C   UNL A   1      38.037  30.097  27.344  1.00  0.00     0.016 A 
ATOM     25  C   UNL A   1      38.098  28.438  29.614  1.00  0.00     0.010 A 
ATOM     26  C   UNL A   1      38.980  29.105  27.454  1.00  0.00     0.010 A 
ATOM     27  C   UNL A   1      39.035  28.285  28.595  1.00  0.00    -0.014 A 
BRANCH  27  28
ATOM     28  C   UNL A   1      40.285  27.543  28.712  1.00  0.00     0.031 A 
ATOM     29  C   UNL A   1      40.467  26.105  28.440  1.00  0.00     0.074 A 
ATOM     30  C   UNL A   1      41.330  28.370  28.934  1.00  0.00     0.049 A 
ATOM     31  N   UNL A   1      41.557  25.475  28.720  1.00  0.00    -0.248 NA
ATOM     32  C   UNL A   1      39.466  25.237  27.838  1.00  0.00     0.031 C 
ATOM     33  C   UNL A   1      42.761  28.158  28.829  1.00  0.00     0.029 A 
ATOM     34  N   UNL A   1      41.219  29.650  29.509  1.00  0.00    -0.354 N 
ATOM     35  C   UNL A   1      41.517  24.242  28.104  1.00  0.00     0.074 A 
ATOM     36  C   UNL A   1      40.170  24.119  27.607  1.00  0.00     0.031 C 
ATOM     37  C   UNL A   1      43.372  29.075  29.607  1.00  0.00     0.029 A 
ATOM     38  C   UNL A   1      42.325  29.761  30.358  1.00  0.00     0.049 A 
ATOM     39  H   UNL A   1      40.515  30.319  29.349  1.00  0.00     0.167 HD
ATOM     40  C   UNL A   1      42.680  23.533  27.995  1.00  0.00     0.037 A 
ATOM     41  C   UNL A   1      42.095  29.663  31.703  1.00  0.00     0.037 A 
ATOM     42  C   UNL A   1      43.749  24.188  28.744  1.00  0.00     0.049 A 
ATOM     43  C   UNL A   1      42.786  28.469  32.330  1.00  0.00     0.074 A 
ATOM     44  C   UNL A   1      44.768  25.065  28.409  1.00  0.00     0.029 A 
ATOM     45  N   UNL A   1      43.626  24.256  30.119  1.00  0.00    -0.354 N 
ATOM     46  N   UNL A   1      43.260  27.457  31.657  1.00  0.00    -0.248 NA
ATOM     47  C   UNL A   1      42.916  28.290  33.773  1.00  0.00     0.031 C 
ATOM     48  C   UNL A   1      45.225  25.690  29.607  1.00  0.00     0.029 A 
ATOM     49  C   UNL A   1      44.495  25.177  30.666  1.00  0.00     0.049 A 
ATOM     50  H   UNL A   1      42.995  23.713  30.644  1.00  0.00     0.167 HD
ATOM     51  C   UNL A   1      43.794  26.545  32.520  1.00  0.00     0.074 A 
ATOM     52  C   UNL A   1      43.500  27.082  33.837  1.00  0.00     0.031 C 
ATOM     53  C   UNL A   1      44.437  25.417  32.096  1.00  0.00     0.037 A 
BRANCH  40  54
ATOM     54  C   UNL A   1      42.913  22.374  27.055  1.00  0.00     0.064 A 
ATOM     55  C   UNL A   1      42.195  21.167  27.223  1.00  0.00     0.173 A 
ATOM     56  C   UNL A   1      43.843  22.365  26.000  1.00  0.00     0.173 A 
ATOM     57  F   UNL A   1      41.230  21.049  28.145  1.00  0.00    -0.203 F 
ATOM     58  C   UNL A   1      42.447  20.025  26.459  1.00  0.00     0.198 A 
ATOM     59  C   UNL A   1      44.124  21.208  25.259  1.00  0.00     0.198 A 
ATOM     60  F   UNL A   1      44.474  23.484  25.623  1.00  0.00    -0.203 F 
ATOM     61  F   UNL A   1      41.736  18.909  26.676  1.00  0.00    -0.200 F 
ATOM     62  C   UNL A   1      43.433  20.035  25.496  1.00  0.00     0.200 A 
ATOM     63  F   UNL A   1      45.071  21.237  24.310  1.00  0.00    -0.200 F 
ATOM     64  F   UNL A   1      43.701  18.929  24.790  1.00  0.00    -0.200 F 
ENDBRANCH  40  54
BRANCH  41  65
ATOM     65  C   UNL A   1      40.750  30.187  32.137  1.00  0.00     0.064 A 
ATOM     66  C   UNL A   1      39.700  29.278  32.410  1.00  0.00     0.173 A 
ATOM     67  C   UNL A   1      40.554  31.509  32.557  1.00  0.00     0.173 A 
ATOM     68  F   UNL A   1      39.810  27.990  32.043  1.00  0.00    -0.203 F 
ATOM     69  C   UNL A   1      38.578  29.647  33.156  1.00  0.00     0.198 A 
ATOM     70  C   UNL A   1      39.410  31.885  33.270  1.00  0.00     0.198 A 
ATOM     71  F   UNL A   1      41.496  32.440  32.356  1.00  0.00    -0.203 F 
ATOM     72  F   UNL A   1      37.668  28.723  33.499  1.00  0.00    -0.200 F 
ATOM     73  C   UNL A   1      38.439  30.951  33.593  1.00  0.00     0.200 A 
ATOM     74  F   UNL A   1      39.286  33.145  33.711  1.00  0.00    -0.200 F 
ATOM     75  F   UNL A   1      37.395  31.299  34.359  1.00  0.00    -0.200 F 
ENDBRANCH  41  65
BRANCH  53  76
ATOM     76  C   UNL A   1      45.065  24.432  33.035  1.00  0.00     0.064 A 
ATOM     77  C   UNL A   1      46.386  24.564  33.488  1.00  0.00     0.173 A 
ATOM     78  C   UNL A   1      44.384  23.263  33.441  1.00  0.00     0.173 A 
ATOM     79  F   UNL A   1      47.160  25.576  33.068  1.00  0.00    -0.203 F 
ATOM     80  C   UNL A   1      46.951  23.645  34.371  1.00  0.00     0.198 A 
ATOM     81  C   UNL A   1      44.973  22.316  34.271  1.00  0.00     0.198 A 
ATOM     82  F   UNL A   1      43.121  23.017  33.068  1.00  0.00    -0.203 F 
ATOM     83  F   UNL A   1      48.187  23.856  34.844  1.00  0.00    -0.200 F 
ATOM     84  C   UNL A   1      46.247  22.520  34.759  1.00  0.00     0.200 A 
ATOM     85  F   UNL A   1      44.291  21.210  34.604  1.00  0.00    -0.200 F 
ATOM     86  F   UNL A   1      46.794  21.633  35.600  1.00  0.00    -0.200 F 
ENDBRANCH  53  76
ENDBRANCH  27  28
ENDBRANCH  20  22
ENDBRANCH  19  20
ENDBRANCH  18  19
ENDBRANCH   1  18
TORSDOF 13
ENDMDL
MODEL 3
REMARK VINA RESULT:     -13.0      4.187     10.256
REMARK SMILES Cc1ccccc1-c1nc(CC(=O)OCCOC(=O)c2ccc(-c3c4nc(c(-c5c(F)c(F)c(F)c(F)c5F)c5ccc([nH]5)c(-c5c(F)c(F)c(F)c(F)c5F)c5nc(c(-c6c(F)c(F)c(F)c(F)c6F)c6ccc3[nH]6)C=C5)C=C4)cc2)cs1
REMARK SMILES IDX 15 1 14 2 12 3 13 4 11 5 10 6 8 7 9 8 84 9 83 10 7 11 1 12
REMARK SMILES IDX 2 13 3 14 4 15 6 16 5 17 16 18 17 19 18 20 19 21 20 22 21 23
REMARK SMILES IDX 82 24 22 25 81 26 23 27 24 28 25 29 75 30 26 31 80 32 74 33
REMARK SMILES IDX 76 34 27 35 79 36 73 37 72 38 28 40 60 41 40 42 59 43 41 44
REMARK SMILES IDX 44 45 58 46 77 47 42 48 43 49 57 51 78 52 45 53 29 54 30 55
REMARK SMILES IDX 38 56 31 57 32 58 36 59 39 60 33 61 34 62 37 63 35 64 61 65
REMARK SMILES IDX 62 66 70 67 63 68 64 69 68 70 71 71 65 72 66 73 69 74 67 75
REMARK SMILES IDX 46 76 47 77 55 78 48 79 49 80 53 81 56 82 50 83 51 84 54 85
REMARK SMILES IDX 52 86
REMARK H PARENT 76 39 44 50
REMARK Flexibility Score: inf
ROOT
ATOM      1  C   UNL A   1      36.156  22.710  25.946  1.00  0.00     0.274 C 
ENDROOT
BRANCH   1   2
ATOM      2  O   UNL A   1      36.294  22.090  24.673  1.00  0.00    -0.462 OA
BRANCH   2   3
ATOM      3  C   UNL A   1      35.872  22.833  23.613  1.00  0.00     0.312 C 
ATOM      4  O   UNL A   1      36.617  23.299  22.760  1.00  0.00    -0.252 OA
BRANCH   3   5
ATOM      5  C   UNL A   1      34.367  22.910  23.569  1.00  0.00     0.179 C 
BRANCH   5   6
ATOM      6  C   UNL A   1      33.931  24.317  23.484  1.00  0.00     0.063 A 
ATOM      7  C   UNL A   1      33.306  26.140  24.526  1.00  0.00     0.123 A 
ATOM      8  N   UNL A   1      33.770  24.928  24.689  1.00  0.00    -0.240 NA
ATOM      9  S   UNL A   1      33.016  26.625  22.917  1.00  0.00    -0.122 S 
ATOM     10  C   UNL A   1      33.605  25.092  22.384  1.00  0.00     0.091 A 
BRANCH   7  11
ATOM     11  C   UNL A   1      33.134  26.987  25.687  1.00  0.00     0.013 A 
ATOM     12  C   UNL A   1      30.868  25.887  26.146  1.00  0.00     0.045 C 
ATOM     13  C   UNL A   1      31.905  26.957  26.379  1.00  0.00    -0.041 A 
ATOM     14  C   UNL A   1      31.589  28.027  27.224  1.00  0.00     0.004 A 
ATOM     15  C   UNL A   1      32.474  29.096  27.379  1.00  0.00     0.000 A 
ATOM     16  C   UNL A   1      34.037  28.042  25.879  1.00  0.00     0.011 A 
ATOM     17  C   UNL A   1      33.702  29.098  26.721  1.00  0.00     0.001 A 
ENDBRANCH   7  11
ENDBRANCH   5   6
ENDBRANCH   3   5
ENDBRANCH   2   3
ENDBRANCH   1   2
BRANCH   1  18
ATOM     18  C   UNL A   1      37.208  23.813  26.122  1.00  0.00     0.275 C 
BRANCH  18  19
ATOM     19  O   UNL A   1      38.624  23.450  26.048  1.00  0.00    -0.458 OA
BRANCH  19  20
ATOM     20  C   UNL A   1      39.674  23.688  26.882  1.00  0.00     0.338 C 
ATOM     21  O   UNL A   1      40.505  22.834  27.130  1.00  0.00    -0.246 OA
BRANCH  20  22
ATOM     22  C   UNL A   1      39.859  25.052  27.410  1.00  0.00     0.060 A 
ATOM     23  C   UNL A   1      40.266  26.088  26.550  1.00  0.00     0.016 A 
ATOM     24  C   UNL A   1      39.516  25.325  28.721  1.00  0.00     0.016 A 
ATOM     25  C   UNL A   1      40.167  27.422  26.963  1.00  0.00     0.010 A 
ATOM     26  C   UNL A   1      39.266  26.629  29.072  1.00  0.00     0.010 A 
ATOM     27  C   UNL A   1      39.610  27.687  28.212  1.00  0.00    -0.014 A 
BRANCH  27  28
ATOM     28  C   UNL A   1      39.610  28.989  28.869  1.00  0.00     0.031 A 
ATOM     29  C   UNL A   1      38.594  30.043  28.703  1.00  0.00     0.074 A 
ATOM     30  C   UNL A   1      40.576  29.065  29.810  1.00  0.00     0.049 A 
ATOM     31  N   UNL A   1      38.736  31.232  29.182  1.00  0.00    -0.248 NA
ATOM     32  C   UNL A   1      37.333  29.882  27.994  1.00  0.00     0.031 C 
ATOM     33  C   UNL A   1      40.785  30.000  30.899  1.00  0.00     0.029 A 
ATOM     34  N   UNL A   1      41.744  28.278  29.811  1.00  0.00    -0.354 N 
ATOM     35  C   UNL A   1      37.523  31.882  29.103  1.00  0.00     0.074 A 
ATOM     36  C   UNL A   1      36.690  31.016  28.307  1.00  0.00     0.031 C 
ATOM     37  C   UNL A   1      42.093  29.968  31.226  1.00  0.00     0.029 A 
ATOM     38  C   UNL A   1      42.762  29.145  30.222  1.00  0.00     0.049 A 
ATOM     39  H   UNL A   1      41.826  27.327  29.574  1.00  0.00     0.167 HD
ATOM     40  C   UNL A   1      37.351  33.025  29.830  1.00  0.00     0.037 A 
ATOM     41  C   UNL A   1      43.636  29.584  29.265  1.00  0.00     0.037 A 
ATOM     42  C   UNL A   1      38.612  33.436  30.442  1.00  0.00     0.049 A 
ATOM     43  C   UNL A   1      43.582  31.085  29.067  1.00  0.00     0.074 A 
ATOM     44  C   UNL A   1      39.186  33.254  31.689  1.00  0.00     0.029 A 
ATOM     45  N   UNL A   1      39.639  33.827  29.603  1.00  0.00    -0.354 N 
ATOM     46  N   UNL A   1      42.608  31.847  29.484  1.00  0.00    -0.248 NA
ATOM     47  C   UNL A   1      44.583  31.826  28.306  1.00  0.00     0.031 C 
ATOM     48  C   UNL A   1      40.587  33.503  31.571  1.00  0.00     0.029 A 
ATOM     49  C   UNL A   1      40.852  33.854  30.258  1.00  0.00     0.049 A 
ATOM     50  H   UNL A   1      39.518  34.057  28.653  1.00  0.00     0.167 HD
ATOM     51  C   UNL A   1      42.852  33.140  29.123  1.00  0.00     0.074 A 
ATOM     52  C   UNL A   1      44.071  33.067  28.334  1.00  0.00     0.031 C 
ATOM     53  C   UNL A   1      42.043  34.175  29.493  1.00  0.00     0.037 A 
BRANCH  40  54
ATOM     54  C   UNL A   1      36.020  33.658  30.164  1.00  0.00     0.064 A 
ATOM     55  C   UNL A   1      35.217  34.207  29.137  1.00  0.00     0.173 A 
ATOM     56  C   UNL A   1      35.492  33.790  31.461  1.00  0.00     0.173 A 
ATOM     57  F   UNL A   1      35.559  34.099  27.848  1.00  0.00    -0.203 F 
ATOM     58  C   UNL A   1      34.034  34.904  29.395  1.00  0.00     0.198 A 
ATOM     59  C   UNL A   1      34.326  34.522  31.723  1.00  0.00     0.198 A 
ATOM     60  F   UNL A   1      36.061  33.178  32.506  1.00  0.00    -0.203 F 
ATOM     61  F   UNL A   1      33.324  35.409  28.376  1.00  0.00    -0.200 F 
ATOM     62  C   UNL A   1      33.603  35.088  30.691  1.00  0.00     0.200 A 
ATOM     63  F   UNL A   1      33.905  34.677  32.987  1.00  0.00    -0.200 F 
ATOM     64  F   UNL A   1      32.488  35.789  30.941  1.00  0.00    -0.200 F 
ENDBRANCH  40  54
BRANCH  41  65
ATOM     65  C   UNL A   1      43.886  28.593  28.159  1.00  0.00     0.064 A 
ATOM     66  C   UNL A   1      44.481  27.344  28.459  1.00  0.00     0.173 A 
ATOM     67  C   UNL A   1      43.311  28.718  26.887  1.00  0.00     0.173 A 
ATOM     68  F   UNL A   1      45.053  27.141  29.659  1.00  0.00    -0.203 F 
ATOM     69  C   UNL A   1      44.404  26.258  27.585  1.00  0.00     0.198 A 
ATOM     70  C   UNL A   1      43.269  27.639  25.997  1.00  0.00     0.198 A 
ATOM     71  F   UNL A   1      42.712  29.856  26.514  1.00  0.00    -0.203 F 
ATOM     72  F   UNL A   1      44.870  25.059  27.963  1.00  0.00    -0.200 F 
ATOM     73  C   UNL A   1      43.788  26.405  26.356  1.00  0.00     0.200 A 
ATOM     74  F   UNL A   1      42.654  27.777  24.813  1.00  0.00    -0.200 F 
ATOM     75  F   UNL A   1      43.657  25.353  25.536  1.00  0.00    -0.200 F 
ENDBRANCH  41  65
BRANCH  53  76
ATOM     76  C   UNL A   1      42.328  35.604  29.138  1.00  0.00     0.064 A 
ATOM     77  C   UNL A   1      41.844  36.194  27.960  1.00  0.00     0.173 A 
ATOM     78  C   UNL A   1      43.180  36.404  29.929  1.00  0.00     0.173 A 
ATOM     79  F   UNL A   1      41.122  35.486  27.080  1.00  0.00    -0.203 F 
ATOM     80  C   UNL A   1      42.108  37.528  27.651  1.00  0.00     0.198 A 
ATOM     81  C   UNL A   1      43.493  37.715  29.584  1.00  0.00     0.198 A 
ATOM     82  F   UNL A   1      43.714  35.952  31.072  1.00  0.00    -0.203 F 
ATOM     83  F   UNL A   1      41.555  38.076  26.560  1.00  0.00    -0.200 F 
ATOM     84  C   UNL A   1      42.934  38.286  28.460  1.00  0.00     0.200 A 
ATOM     85  F   UNL A   1      44.329  38.422  30.357  1.00  0.00    -0.200 F 
ATOM     86  F   UNL A   1      43.195  39.564  28.157  1.00  0.00    -0.200 F 
ENDBRANCH  53  76
ENDBRANCH  27  28
ENDBRANCH  20  22
ENDBRANCH  19  20
ENDBRANCH  18  19
ENDBRANCH   1  18
TORSDOF 13
ENDMDL
