MODEL 1
REMARK VINA RESULT:     -12.6      0.000      0.000
REMARK SMILES CC(C)[NH2+][C@]1(C(=O)OCCOC(=O)c2ccc(-c3c4nc(c(-c5c(F)c(F)c(F)c(F)c5F)c5ccc([nH]5)c(-c5c(F)c(F)c(F)c(F)c5F)c5nc(c(-c6c(F)c(F)c(F)c(F)c6F)c6ccc3[nH]6)C=C5)C=C4)cc2)CCC[C@H]([N@H+](C)C2CCCCC2)C1
REMARK SMILES IDX 9 1 8 2 6 3 7 4 5 5 77 6 89 7 78 8 80 9 79 10 4 11 2 14 1 15
REMARK SMILES IDX 3 16 81 17 82 18 83 20 84 21 88 22 85 23 87 24 86 25 10 26
REMARK SMILES IDX 11 27 12 28 13 29 14 30 15 31 76 32 16 33 75 34 17 35 18 36
REMARK SMILES IDX 19 37 69 38 20 39 74 40 68 41 70 42 21 43 73 44 67 45 66 46
REMARK SMILES IDX 22 48 54 49 34 50 53 51 35 52 38 53 52 54 71 55 36 56 37 57
REMARK SMILES IDX 51 59 72 60 39 61 23 62 24 63 32 64 25 65 26 66 30 67 33 68
REMARK SMILES IDX 27 69 28 70 31 71 29 72 55 73 56 74 64 75 57 76 58 77 62 78
REMARK SMILES IDX 65 79 59 80 60 81 63 82 61 83 40 84 41 85 49 86 42 87 43 88
REMARK SMILES IDX 47 89 50 90 44 91 45 92 48 93 46 94
REMARK H PARENT 4 12 4 13 81 19 70 47 38 58
REMARK Flexibility Score: inf
ROOT
ATOM      1  C   UNL A   1      31.140  29.710  24.464  1.00  0.00     0.274 C 
ENDROOT
BRANCH   1   2
ATOM      2  O   UNL A   1      30.482  28.426  24.308  1.00  0.00    -0.457 OA
BRANCH   2   3
ATOM      3  C   UNL A   1      30.476  27.681  23.104  1.00  0.00     0.368 C 
ATOM      4  O   UNL A   1      30.243  28.114  22.005  1.00  0.00    -0.245 OA
BRANCH   3   5
ATOM      5  C   UNL A   1      31.072  26.237  23.542  1.00  0.00     0.200 C 
ATOM      6  C   UNL A   1      30.845  26.295  25.097  1.00  0.00     0.081 C 
ATOM      7  C   UNL A   1      30.632  24.790  23.123  1.00  0.00     0.146 C 
ATOM      8  C   UNL A   1      30.826  25.008  25.970  1.00  0.00     0.013 C 
ATOM      9  C   UNL A   1      31.442  23.473  23.921  1.00  0.00     0.190 C 
ATOM     10  C   UNL A   1      30.992  23.590  25.384  1.00  0.00     0.065 C 
BRANCH   5  11
ATOM     11  N   UNL A   1      32.354  26.460  22.824  1.00  0.00    -0.330 N 
ATOM     12  H   UNL A   1      32.711  25.550  22.531  1.00  0.00     0.347 HD
ATOM     13  H   UNL A   1      32.133  27.085  22.047  1.00  0.00     0.347 HD
BRANCH  11  14
ATOM     14  C   UNL A   1      33.362  27.105  23.562  1.00  0.00     0.176 C 
ATOM     15  C   UNL A   1      34.047  26.158  24.572  1.00  0.00     0.075 C 
ATOM     16  C   UNL A   1      33.954  28.028  22.462  1.00  0.00     0.075 C 
ENDBRANCH  11  14
ENDBRANCH   5  11
BRANCH   9  17
ATOM     17  N   UNL A   1      32.860  22.614  23.509  1.00  0.00    -0.332 N 
ATOM     18  C   UNL A   1      32.405  21.208  23.374  1.00  0.00     0.333 C 
ATOM     19  H   UNL A   1      33.166  23.222  22.749  1.00  0.00     0.348 HD
BRANCH  17  20
ATOM     20  C   UNL A   1      34.334  22.574  24.228  1.00  0.00     0.184 C 
ATOM     21  C   UNL A   1      34.855  21.098  24.630  1.00  0.00     0.065 C 
ATOM     22  C   UNL A   1      35.759  22.938  23.537  1.00  0.00     0.065 C 
ATOM     23  C   UNL A   1      36.254  21.004  25.369  1.00  0.00     0.006 C 
ATOM     24  C   UNL A   1      36.858  23.232  24.553  1.00  0.00     0.006 C 
ATOM     25  C   UNL A   1      37.413  21.890  24.896  1.00  0.00     0.000 C 
ENDBRANCH  17  20
ENDBRANCH   9  17
ENDBRANCH   3   5
ENDBRANCH   2   3
ENDBRANCH   1   2
BRANCH   1  26
ATOM     26  C   UNL A   1      31.409  30.044  25.943  1.00  0.00     0.275 C 
BRANCH  26  27
ATOM     27  O   UNL A   1      32.825  30.195  26.114  1.00  0.00    -0.458 OA
BRANCH  27  28
ATOM     28  C   UNL A   1      33.222  31.185  26.938  1.00  0.00     0.338 C 
ATOM     29  O   UNL A   1      32.558  32.139  27.331  1.00  0.00    -0.246 OA
BRANCH  28  30
ATOM     30  C   UNL A   1      34.604  30.916  27.374  1.00  0.00     0.060 A 
ATOM     31  C   UNL A   1      34.983  29.600  27.624  1.00  0.00     0.016 A 
ATOM     32  C   UNL A   1      35.450  31.958  27.741  1.00  0.00     0.016 A 
ATOM     33  C   UNL A   1      36.090  29.330  28.413  1.00  0.00     0.010 A 
ATOM     34  C   UNL A   1      36.669  31.664  28.365  1.00  0.00     0.010 A 
ATOM     35  C   UNL A   1      36.975  30.351  28.771  1.00  0.00    -0.014 A 
BRANCH  35  36
ATOM     36  C   UNL A   1      38.173  30.036  29.604  1.00  0.00     0.031 A 
ATOM     37  C   UNL A   1      39.266  29.149  29.062  1.00  0.00     0.074 A 
ATOM     38  C   UNL A   1      38.306  30.567  30.838  1.00  0.00     0.049 A 
ATOM     39  N   UNL A   1      40.287  28.611  29.686  1.00  0.00    -0.248 NA
ATOM     40  C   UNL A   1      39.194  28.800  27.635  1.00  0.00     0.031 C 
ATOM     41  C   UNL A   1      37.361  31.488  31.477  1.00  0.00     0.029 A 
ATOM     42  N   UNL A   1      39.298  30.420  31.776  1.00  0.00    -0.354 N 
ATOM     43  C   UNL A   1      40.932  27.814  28.747  1.00  0.00     0.074 A 
ATOM     44  C   UNL A   1      40.179  27.921  27.517  1.00  0.00     0.031 C 
ATOM     45  C   UNL A   1      37.841  31.862  32.669  1.00  0.00     0.029 A 
ATOM     46  C   UNL A   1      39.064  31.119  32.936  1.00  0.00     0.049 A 
ATOM     47  H   UNL A   1      40.098  29.866  31.632  1.00  0.00     0.167 HD
ATOM     48  C   UNL A   1      42.052  27.066  28.898  1.00  0.00     0.037 A 
ATOM     49  C   UNL A   1      39.724  31.125  34.109  1.00  0.00     0.037 A 
ATOM     50  C   UNL A   1      42.832  27.013  30.110  1.00  0.00     0.049 A 
ATOM     51  C   UNL A   1      40.934  30.250  34.265  1.00  0.00     0.074 A 
ATOM     52  C   UNL A   1      43.993  26.302  30.359  1.00  0.00     0.029 A 
ATOM     53  N   UNL A   1      42.536  27.711  31.272  1.00  0.00    -0.354 N 
ATOM     54  N   UNL A   1      41.507  29.462  33.388  1.00  0.00    -0.248 NA
ATOM     55  C   UNL A   1      41.582  30.258  35.582  1.00  0.00     0.031 C 
ATOM     56  C   UNL A   1      44.369  26.527  31.687  1.00  0.00     0.029 A 
ATOM     57  C   UNL A   1      43.482  27.431  32.247  1.00  0.00     0.049 A 
ATOM     58  H   UNL A   1      41.769  28.316  31.387  1.00  0.00     0.167 HD
ATOM     59  C   UNL A   1      42.597  28.901  34.038  1.00  0.00     0.074 A 
ATOM     60  C   UNL A   1      42.617  29.460  35.375  1.00  0.00     0.031 C 
ATOM     61  C   UNL A   1      43.496  27.999  33.571  1.00  0.00     0.037 A 
BRANCH  48  62
ATOM     62  C   UNL A   1      42.486  26.212  27.737  1.00  0.00     0.064 A 
ATOM     63  C   UNL A   1      43.477  26.622  26.834  1.00  0.00     0.173 A 
ATOM     64  C   UNL A   1      41.913  24.944  27.545  1.00  0.00     0.173 A 
ATOM     65  F   UNL A   1      44.051  27.828  26.962  1.00  0.00    -0.203 F 
ATOM     66  C   UNL A   1      43.852  25.812  25.764  1.00  0.00     0.198 A 
ATOM     67  C   UNL A   1      42.317  24.122  26.497  1.00  0.00     0.198 A 
ATOM     68  F   UNL A   1      40.966  24.495  28.384  1.00  0.00    -0.203 F 
ATOM     69  F   UNL A   1      44.760  26.251  24.881  1.00  0.00    -0.200 F 
ATOM     70  C   UNL A   1      43.278  24.561  25.600  1.00  0.00     0.200 A 
ATOM     71  F   UNL A   1      41.773  22.905  26.353  1.00  0.00    -0.200 F 
ATOM     72  F   UNL A   1      43.647  23.780  24.576  1.00  0.00    -0.200 F 
ENDBRANCH  48  62
BRANCH  49  73
ATOM     73  C   UNL A   1      39.225  31.954  35.240  1.00  0.00     0.064 A 
ATOM     74  C   UNL A   1      38.443  31.390  36.256  1.00  0.00     0.173 A 
ATOM     75  C   UNL A   1      39.508  33.326  35.321  1.00  0.00     0.173 A 
ATOM     76  F   UNL A   1      38.124  30.088  36.213  1.00  0.00    -0.203 F 
ATOM     77  C   UNL A   1      37.944  32.171  37.297  1.00  0.00     0.198 A 
ATOM     78  C   UNL A   1      39.042  34.098  36.382  1.00  0.00     0.198 A 
ATOM     79  F   UNL A   1      40.253  33.917  34.375  1.00  0.00    -0.203 F 
ATOM     80  F   UNL A   1      37.151  31.617  38.225  1.00  0.00    -0.200 F 
ATOM     81  C   UNL A   1      38.250  33.522  37.364  1.00  0.00     0.200 A 
ATOM     82  F   UNL A   1      39.357  35.397  36.452  1.00  0.00    -0.200 F 
ATOM     83  F   UNL A   1      37.775  34.270  38.368  1.00  0.00    -0.200 F 
ENDBRANCH  49  73
BRANCH  61  84
ATOM     84  C   UNL A   1      44.607  27.603  34.503  1.00  0.00     0.064 A 
ATOM     85  C   UNL A   1      45.812  28.318  34.565  1.00  0.00     0.173 A 
ATOM     86  C   UNL A   1      44.460  26.489  35.344  1.00  0.00     0.173 A 
ATOM     87  F   UNL A   1      46.010  29.381  33.771  1.00  0.00    -0.203 F 
ATOM     88  C   UNL A   1      46.845  27.907  35.404  1.00  0.00     0.198 A 
ATOM     89  C   UNL A   1      45.481  26.105  36.208  1.00  0.00     0.198 A 
ATOM     90  F   UNL A   1      43.326  25.774  35.329  1.00  0.00    -0.203 F 
ATOM     91  F   UNL A   1      48.015  28.563  35.393  1.00  0.00    -0.200 F 
ATOM     92  C   UNL A   1      46.677  26.804  36.228  1.00  0.00     0.200 A 
ATOM     93  F   UNL A   1      45.310  25.049  37.016  1.00  0.00    -0.200 F 
ATOM     94  F   UNL A   1      47.673  26.409  37.032  1.00  0.00    -0.200 F 
ENDBRANCH  61  84
ENDBRANCH  35  36
ENDBRANCH  28  30
ENDBRANCH  27  28
ENDBRANCH  26  27
ENDBRANCH   1  26
TORSDOF 15
ENDMDL
MODEL 2
REMARK VINA RESULT:     -12.5      1.132      1.925
REMARK SMILES CC(C)[NH2+][C@]1(C(=O)OCCOC(=O)c2ccc(-c3c4nc(c(-c5c(F)c(F)c(F)c(F)c5F)c5ccc([nH]5)c(-c5c(F)c(F)c(F)c(F)c5F)c5nc(c(-c6c(F)c(F)c(F)c(F)c6F)c6ccc3[nH]6)C=C5)C=C4)cc2)CCC[C@H]([N@H+](C)C2CCCCC2)C1
REMARK SMILES IDX 9 1 8 2 6 3 7 4 5 5 77 6 89 7 78 8 80 9 79 10 4 11 2 14 1 15
REMARK SMILES IDX 3 16 81 17 82 18 83 20 84 21 88 22 85 23 87 24 86 25 10 26
REMARK SMILES IDX 11 27 12 28 13 29 14 30 15 31 76 32 16 33 75 34 17 35 18 36
REMARK SMILES IDX 19 37 69 38 20 39 74 40 68 41 70 42 21 43 73 44 67 45 66 46
REMARK SMILES IDX 22 48 54 49 34 50 53 51 35 52 38 53 52 54 71 55 36 56 37 57
REMARK SMILES IDX 51 59 72 60 39 61 23 62 24 63 32 64 25 65 26 66 30 67 33 68
REMARK SMILES IDX 27 69 28 70 31 71 29 72 55 73 56 74 64 75 57 76 58 77 62 78
REMARK SMILES IDX 65 79 59 80 60 81 63 82 61 83 40 84 41 85 49 86 42 87 43 88
REMARK SMILES IDX 47 89 50 90 44 91 45 92 48 93 46 94
REMARK H PARENT 4 12 4 13 81 19 70 47 38 58
REMARK Flexibility Score: inf
ROOT
ATOM      1  C   UNL A   1      31.817  28.856  26.939  1.00  0.00     0.274 C 
ENDROOT
BRANCH   1   2
ATOM      2  O   UNL A   1      31.319  28.213  25.737  1.00  0.00    -0.457 OA
BRANCH   2   3
ATOM      3  C   UNL A   1      32.123  27.903  24.615  1.00  0.00     0.368 C 
ATOM      4  O   UNL A   1      32.589  28.696  23.836  1.00  0.00    -0.245 OA
BRANCH   3   5
ATOM      5  C   UNL A   1      32.434  26.321  24.789  1.00  0.00     0.200 C 
ATOM      6  C   UNL A   1      33.322  26.064  23.518  1.00  0.00     0.081 C 
ATOM      7  C   UNL A   1      33.158  25.553  25.951  1.00  0.00     0.146 C 
ATOM      8  C   UNL A   1      34.260  24.827  23.411  1.00  0.00     0.013 C 
ATOM      9  C   UNL A   1      33.419  23.849  25.707  1.00  0.00     0.190 C 
ATOM     10  C   UNL A   1      34.416  23.788  24.542  1.00  0.00     0.065 C 
BRANCH   5  11
ATOM     11  N   UNL A   1      30.998  25.977  24.953  1.00  0.00    -0.330 N 
ATOM     12  H   UNL A   1      30.935  25.194  25.604  1.00  0.00     0.347 HD
ATOM     13  H   UNL A   1      30.543  26.827  25.287  1.00  0.00     0.347 HD
BRANCH  11  14
ATOM     14  C   UNL A   1      30.320  25.615  23.774  1.00  0.00     0.176 C 
ATOM     15  C   UNL A   1      30.520  24.127  23.414  1.00  0.00     0.075 C 
ATOM     16  C   UNL A   1      29.029  26.465  23.935  1.00  0.00     0.075 C 
ENDBRANCH  11  14
ENDBRANCH   5  11
BRANCH   9  17
ATOM     17  N   UNL A   1      32.450  22.499  26.099  1.00  0.00    -0.332 N 
ATOM     18  C   UNL A   1      32.769  22.225  27.523  1.00  0.00     0.333 C 
ATOM     19  H   UNL A   1      31.566  22.863  25.741  1.00  0.00     0.348 HD
BRANCH  17  20
ATOM     20  C   UNL A   1      32.288  21.045  25.356  1.00  0.00     0.184 C 
ATOM     21  C   UNL A   1      32.422  21.084  23.747  1.00  0.00     0.065 C 
ATOM     22  C   UNL A   1      33.311  19.787  25.456  1.00  0.00     0.065 C 
ATOM     23  C   UNL A   1      32.227  19.715  22.974  1.00  0.00     0.006 C 
ATOM     24  C   UNL A   1      32.677  18.466  25.032  1.00  0.00     0.006 C 
ATOM     25  C   UNL A   1      32.847  18.435  23.549  1.00  0.00     0.000 C 
ENDBRANCH  17  20
ENDBRANCH   9  17
ENDBRANCH   3   5
ENDBRANCH   2   3
ENDBRANCH   1   2
BRANCH   1  26
ATOM     26  C   UNL A   1      31.758  30.392  26.838  1.00  0.00     0.275 C 
BRANCH  26  27
ATOM     27  O   UNL A   1      33.071  30.867  26.508  1.00  0.00    -0.458 OA
BRANCH  27  28
ATOM     28  C   UNL A   1      33.572  31.830  27.305  1.00  0.00     0.338 C 
ATOM     29  O   UNL A   1      33.005  32.845  27.696  1.00  0.00    -0.246 OA
BRANCH  28  30
ATOM     30  C   UNL A   1      34.935  31.447  27.715  1.00  0.00     0.060 A 
ATOM     31  C   UNL A   1      35.192  30.113  28.021  1.00  0.00     0.016 A 
ATOM     32  C   UNL A   1      35.891  32.417  28.005  1.00  0.00     0.016 A 
ATOM     33  C   UNL A   1      36.293  29.773  28.792  1.00  0.00     0.010 A 
ATOM     34  C   UNL A   1      37.095  32.033  28.609  1.00  0.00     0.010 A 
ATOM     35  C   UNL A   1      37.284  30.717  29.073  1.00  0.00    -0.014 A 
BRANCH  35  36
ATOM     36  C   UNL A   1      38.473  30.325  29.887  1.00  0.00     0.031 A 
ATOM     37  C   UNL A   1      39.530  29.420  29.306  1.00  0.00     0.074 A 
ATOM     38  C   UNL A   1      38.630  30.804  31.139  1.00  0.00     0.049 A 
ATOM     39  N   UNL A   1      40.531  28.820  29.903  1.00  0.00    -0.248 NA
ATOM     40  C   UNL A   1      39.439  29.129  27.866  1.00  0.00     0.031 C 
ATOM     41  C   UNL A   1      37.724  31.734  31.818  1.00  0.00     0.029 A 
ATOM     42  N   UNL A   1      39.619  30.583  32.066  1.00  0.00    -0.354 N 
ATOM     43  C   UNL A   1      41.142  28.036  28.931  1.00  0.00     0.074 A 
ATOM     44  C   UNL A   1      40.390  28.219  27.710  1.00  0.00     0.031 C 
ATOM     45  C   UNL A   1      38.222  32.044  33.021  1.00  0.00     0.029 A 
ATOM     46  C   UNL A   1      39.417  31.245  33.253  1.00  0.00     0.049 A 
ATOM     47  H   UNL A   1      40.398  30.005  31.897  1.00  0.00     0.167 HD
ATOM     48  C   UNL A   1      42.234  27.241  29.047  1.00  0.00     0.037 A 
ATOM     49  C   UNL A   1      40.080  31.181  34.422  1.00  0.00     0.037 A 
ATOM     50  C   UNL A   1      43.015  27.111  30.252  1.00  0.00     0.049 A 
ATOM     51  C   UNL A   1      41.257  30.256  34.538  1.00  0.00     0.074 A 
ATOM     52  C   UNL A   1      44.150  26.348  30.468  1.00  0.00     0.029 A 
ATOM     53  N   UNL A   1      42.751  27.775  31.442  1.00  0.00    -0.354 N 
ATOM     54  N   UNL A   1      41.797  29.481  33.629  1.00  0.00    -0.248 NA
ATOM     55  C   UNL A   1      41.910  30.188  35.852  1.00  0.00     0.031 C 
ATOM     56  C   UNL A   1      44.539  26.507  31.802  1.00  0.00     0.029 A 
ATOM     57  C   UNL A   1      43.689  27.423  32.401  1.00  0.00     0.049 A 
ATOM     58  H   UNL A   1      42.007  28.404  31.584  1.00  0.00     0.167 HD
ATOM     59  C   UNL A   1      42.867  28.855  34.251  1.00  0.00     0.074 A 
ATOM     60  C   UNL A   1      42.913  29.360  35.608  1.00  0.00     0.031 C 
ATOM     61  C   UNL A   1      43.729  27.938  33.746  1.00  0.00     0.037 A 
BRANCH  48  62
ATOM     62  C   UNL A   1      42.630  26.417  27.852  1.00  0.00     0.064 A 
ATOM     63  C   UNL A   1      43.579  26.857  26.919  1.00  0.00     0.173 A 
ATOM     64  C   UNL A   1      42.065  25.145  27.657  1.00  0.00     0.173 A 
ATOM     65  F   UNL A   1      44.144  28.067  27.049  1.00  0.00    -0.203 F 
ATOM     66  C   UNL A   1      43.921  26.074  25.818  1.00  0.00     0.198 A 
ATOM     67  C   UNL A   1      42.436  24.350  26.577  1.00  0.00     0.198 A 
ATOM     68  F   UNL A   1      41.159  24.667  28.523  1.00  0.00    -0.203 F 
ATOM     69  F   UNL A   1      44.787  26.542  24.909  1.00  0.00    -0.200 F 
ATOM     70  C   UNL A   1      43.356  24.819  25.651  1.00  0.00     0.200 A 
ATOM     71  F   UNL A   1      41.901  23.130  26.428  1.00  0.00    -0.200 F 
ATOM     72  F   UNL A   1      43.692  24.064  24.596  1.00  0.00    -0.200 F 
ENDBRANCH  48  62
BRANCH  49  73
ATOM     73  C   UNL A   1      39.618  31.984  35.586  1.00  0.00     0.064 A 
ATOM     74  C   UNL A   1      38.623  31.500  36.446  1.00  0.00     0.173 A 
ATOM     75  C   UNL A   1      40.149  33.255  35.856  1.00  0.00     0.173 A 
ATOM     76  F   UNL A   1      38.065  30.301  36.218  1.00  0.00    -0.203 F 
ATOM     77  C   UNL A   1      38.162  32.264  37.516  1.00  0.00     0.198 A 
ATOM     78  C   UNL A   1      39.716  34.001  36.948  1.00  0.00     0.198 A 
ATOM     79  F   UNL A   1      41.105  33.766  35.065  1.00  0.00    -0.203 F 
ATOM     80  F   UNL A   1      37.169  31.801  38.287  1.00  0.00    -0.200 F 
ATOM     81  C   UNL A   1      38.714  33.511  37.771  1.00  0.00     0.200 A 
ATOM     82  F   UNL A   1      40.266  35.196  37.202  1.00  0.00    -0.200 F 
ATOM     83  F   UNL A   1      38.273  34.243  38.803  1.00  0.00    -0.200 F 
ENDBRANCH  49  73
BRANCH  61  84
ATOM     84  C   UNL A   1      44.828  27.465  34.655  1.00  0.00     0.064 A 
ATOM     85  C   UNL A   1      46.064  28.124  34.730  1.00  0.00     0.173 A 
ATOM     86  C   UNL A   1      44.637  26.333  35.464  1.00  0.00     0.173 A 
ATOM     87  F   UNL A   1      46.304  29.201  33.967  1.00  0.00    -0.203 F 
ATOM     88  C   UNL A   1      47.084  27.642  35.547  1.00  0.00     0.198 A 
ATOM     89  C   UNL A   1      45.646  25.877  36.307  1.00  0.00     0.198 A 
ATOM     90  F   UNL A   1      43.472  25.669  35.436  1.00  0.00    -0.203 F 
ATOM     91  F   UNL A   1      48.281  28.245  35.547  1.00  0.00    -0.200 F 
ATOM     92  C   UNL A   1      46.872  26.523  36.338  1.00  0.00     0.200 A 
ATOM     93  F   UNL A   1      45.434  24.805  37.083  1.00  0.00    -0.200 F 
ATOM     94  F   UNL A   1      47.855  26.059  37.122  1.00  0.00    -0.200 F 
ENDBRANCH  61  84
ENDBRANCH  35  36
ENDBRANCH  28  30
ENDBRANCH  27  28
ENDBRANCH  26  27
ENDBRANCH   1  26
TORSDOF 15
ENDMDL
MODEL 3
REMARK VINA RESULT:     -12.4      4.498      9.661
REMARK SMILES CC(C)[NH2+][C@]1(C(=O)OCCOC(=O)c2ccc(-c3c4nc(c(-c5c(F)c(F)c(F)c(F)c5F)c5ccc([nH]5)c(-c5c(F)c(F)c(F)c(F)c5F)c5nc(c(-c6c(F)c(F)c(F)c(F)c6F)c6ccc3[nH]6)C=C5)C=C4)cc2)CCC[C@H]([N@H+](C)C2CCCCC2)C1
REMARK SMILES IDX 9 1 8 2 6 3 7 4 5 5 77 6 89 7 78 8 80 9 79 10 4 11 2 14 1 15
REMARK SMILES IDX 3 16 81 17 82 18 83 20 84 21 88 22 85 23 87 24 86 25 10 26
REMARK SMILES IDX 11 27 12 28 13 29 14 30 15 31 76 32 16 33 75 34 17 35 18 36
REMARK SMILES IDX 19 37 69 38 20 39 74 40 68 41 70 42 21 43 73 44 67 45 66 46
REMARK SMILES IDX 22 48 54 49 34 50 53 51 35 52 38 53 52 54 71 55 36 56 37 57
REMARK SMILES IDX 51 59 72 60 39 61 23 62 24 63 32 64 25 65 26 66 30 67 33 68
REMARK SMILES IDX 27 69 28 70 31 71 29 72 55 73 56 74 64 75 57 76 58 77 62 78
REMARK SMILES IDX 65 79 59 80 60 81 63 82 61 83 40 84 41 85 49 86 42 87 43 88
REMARK SMILES IDX 47 89 50 90 44 91 45 92 48 93 46 94
REMARK H PARENT 4 12 4 13 81 19 70 47 38 58
REMARK Flexibility Score: inf
ROOT
ATOM      1  C   UNL A   1      35.556  20.392  25.004  1.00  0.00     0.274 C 
ENDROOT
BRANCH   1   2
ATOM      2  O   UNL A   1      34.523  21.124  24.293  1.00  0.00    -0.457 OA
BRANCH   2   3
ATOM      3  C   UNL A   1      33.144  21.047  24.603  1.00  0.00     0.368 C 
ATOM      4  O   UNL A   1      32.580  20.105  25.098  1.00  0.00    -0.245 OA
BRANCH   3   5
ATOM      5  C   UNL A   1      32.611  22.560  24.360  1.00  0.00     0.200 C 
ATOM      6  C   UNL A   1      33.649  23.059  23.290  1.00  0.00     0.081 C 
ATOM      7  C   UNL A   1      31.219  23.073  23.845  1.00  0.00     0.146 C 
ATOM      8  C   UNL A   1      33.357  24.283  22.375  1.00  0.00     0.013 C 
ATOM      9  C   UNL A   1      31.074  24.788  23.588  1.00  0.00     0.190 C 
ATOM     10  C   UNL A   1      32.031  25.073  22.422  1.00  0.00     0.065 C 
BRANCH   5  11
ATOM     11  N   UNL A   1      32.611  22.878  25.812  1.00  0.00    -0.330 N 
ATOM     12  H   UNL A   1      31.863  23.549  25.986  1.00  0.00     0.347 HD
ATOM     13  H   UNL A   1      32.483  21.986  26.293  1.00  0.00     0.347 HD
BRANCH  11  14
ATOM     14  C   UNL A   1      33.806  23.419  26.317  1.00  0.00     0.176 C 
ATOM     15  C   UNL A   1      33.914  24.940  26.068  1.00  0.00     0.075 C 
ATOM     16  C   UNL A   1      33.954  22.583  27.618  1.00  0.00     0.075 C 
ENDBRANCH  11  14
ENDBRANCH   5  11
BRANCH   9  17
ATOM     17  N   UNL A   1      30.579  26.041  24.637  1.00  0.00    -0.332 N 
ATOM     18  C   UNL A   1      29.423  26.660  23.942  1.00  0.00     0.333 C 
ATOM     19  H   UNL A   1      30.538  25.487  25.493  1.00  0.00     0.348 HD
BRANCH  17  20
ATOM     20  C   UNL A   1      31.433  27.261  25.327  1.00  0.00     0.184 C 
ATOM     21  C   UNL A   1      31.013  28.744  24.843  1.00  0.00     0.065 C 
ATOM     22  C   UNL A   1      31.392  27.710  26.888  1.00  0.00     0.065 C 
ATOM     23  C   UNL A   1      31.837  29.957  25.442  1.00  0.00     0.006 C 
ATOM     24  C   UNL A   1      32.595  28.552  27.299  1.00  0.00     0.006 C 
ATOM     25  C   UNL A   1      32.212  29.947  26.930  1.00  0.00     0.000 C 
ENDBRANCH  17  20
ENDBRANCH   9  17
ENDBRANCH   3   5
ENDBRANCH   2   3
ENDBRANCH   1   2
BRANCH   1  26
ATOM     26  C   UNL A   1      36.969  20.865  24.612  1.00  0.00     0.275 C 
BRANCH  26  27
ATOM     27  O   UNL A   1      37.500  21.630  25.703  1.00  0.00    -0.458 OA
BRANCH  27  28
ATOM     28  C   UNL A   1      38.792  21.405  26.013  1.00  0.00     0.338 C 
ATOM     29  O   UNL A   1      39.465  20.419  25.733  1.00  0.00    -0.246 OA
BRANCH  28  30
ATOM     30  C   UNL A   1      39.327  22.589  26.710  1.00  0.00     0.060 A 
ATOM     31  C   UNL A   1      38.819  23.843  26.384  1.00  0.00     0.016 A 
ATOM     32  C   UNL A   1      40.459  22.491  27.513  1.00  0.00     0.016 A 
ATOM     33  C   UNL A   1      39.545  24.988  26.676  1.00  0.00     0.010 A 
ATOM     34  C   UNL A   1      41.076  23.662  27.973  1.00  0.00     0.010 A 
ATOM     35  C   UNL A   1      40.668  24.926  27.506  1.00  0.00    -0.014 A 
BRANCH  35  36
ATOM     36  C   UNL A   1      41.423  26.173  27.827  1.00  0.00     0.031 A 
ATOM     37  C   UNL A   1      40.788  27.254  28.664  1.00  0.00     0.074 A 
ATOM     38  C   UNL A   1      42.694  26.331  27.398  1.00  0.00     0.049 A 
ATOM     39  N   UNL A   1      41.202  28.477  28.897  1.00  0.00    -0.248 NA
ATOM     40  C   UNL A   1      39.507  26.930  29.310  1.00  0.00     0.031 C 
ATOM     41  C   UNL A   1      43.463  25.350  26.628  1.00  0.00     0.029 A 
ATOM     42  N   UNL A   1      43.571  27.375  27.559  1.00  0.00    -0.354 N 
ATOM     43  C   UNL A   1      40.204  29.080  29.654  1.00  0.00     0.074 A 
ATOM     44  C   UNL A   1      39.156  28.099  29.826  1.00  0.00     0.031 C 
ATOM     45  C   UNL A   1      44.704  25.811  26.432  1.00  0.00     0.029 A 
ATOM     46  C   UNL A   1      44.787  27.168  26.952  1.00  0.00     0.049 A 
ATOM     47  H   UNL A   1      43.351  28.193  28.059  1.00  0.00     0.167 HD
ATOM     48  C   UNL A   1      40.170  30.336  30.163  1.00  0.00     0.037 A 
ATOM     49  C   UNL A   1      45.837  27.992  26.781  1.00  0.00     0.037 A 
ATOM     50  C   UNL A   1      41.246  31.288  30.039  1.00  0.00     0.049 A 
ATOM     51  C   UNL A   1      45.754  29.394  27.312  1.00  0.00     0.074 A 
ATOM     52  C   UNL A   1      41.318  32.579  30.535  1.00  0.00     0.029 A 
ATOM     53  N   UNL A   1      42.446  31.046  29.385  1.00  0.00    -0.354 N 
ATOM     54  N   UNL A   1      44.787  29.971  27.983  1.00  0.00    -0.248 NA
ATOM     55  C   UNL A   1      46.908  30.263  27.049  1.00  0.00     0.031 C 
ATOM     56  C   UNL A   1      42.537  33.136  30.133  1.00  0.00     0.029 A 
ATOM     57  C   UNL A   1      43.255  32.171  29.446  1.00  0.00     0.049 A 
ATOM     58  H   UNL A   1      42.686  30.201  28.942  1.00  0.00     0.167 HD
ATOM     59  C   UNL A   1      45.225  31.261  28.245  1.00  0.00     0.074 A 
ATOM     60  C   UNL A   1      46.555  31.371  27.682  1.00  0.00     0.031 C 
ATOM     61  C   UNL A   1      44.580  32.266  28.889  1.00  0.00     0.037 A 
BRANCH  48  62
ATOM     62  C   UNL A   1      38.915  30.772  30.869  1.00  0.00     0.064 A 
ATOM     63  C   UNL A   1      37.819  31.317  30.183  1.00  0.00     0.173 A 
ATOM     64  C   UNL A   1      38.799  30.613  32.259  1.00  0.00     0.173 A 
ATOM     65  F   UNL A   1      37.877  31.501  28.855  1.00  0.00    -0.203 F 
ATOM     66  C   UNL A   1      36.672  31.718  30.865  1.00  0.00     0.198 A 
ATOM     67  C   UNL A   1      37.638  30.980  32.933  1.00  0.00     0.198 A 
ATOM     68  F   UNL A   1      39.811  30.089  32.967  1.00  0.00    -0.203 F 
ATOM     69  F   UNL A   1      35.662  32.289  30.194  1.00  0.00    -0.200 F 
ATOM     70  C   UNL A   1      36.579  31.543  32.237  1.00  0.00     0.200 A 
ATOM     71  F   UNL A   1      37.544  30.793  34.257  1.00  0.00    -0.200 F 
ATOM     72  F   UNL A   1      35.472  31.921  32.890  1.00  0.00    -0.200 F 
ENDBRANCH  48  62
BRANCH  49  73
ATOM     73  C   UNL A   1      47.037  27.524  26.034  1.00  0.00     0.064 A 
ATOM     74  C   UNL A   1      48.139  26.983  26.709  1.00  0.00     0.173 A 
ATOM     75  C   UNL A   1      47.111  27.621  24.636  1.00  0.00     0.173 A 
ATOM     76  F   UNL A   1      48.128  26.891  28.047  1.00  0.00    -0.203 F 
ATOM     77  C   UNL A   1      49.278  26.578  26.015  1.00  0.00     0.198 A 
ATOM     78  C   UNL A   1      48.234  27.179  23.941  1.00  0.00     0.198 A 
ATOM     79  F   UNL A   1      46.083  28.130  23.940  1.00  0.00    -0.203 F 
ATOM     80  F   UNL A   1      50.340  26.118  26.690  1.00  0.00    -0.200 F 
ATOM     81  C   UNL A   1      49.322  26.668  24.632  1.00  0.00     0.200 A 
ATOM     82  F   UNL A   1      48.263  27.250  22.604  1.00  0.00    -0.200 F 
ATOM     83  F   UNL A   1      50.415  26.274  23.967  1.00  0.00    -0.200 F 
ENDBRANCH  49  73
BRANCH  61  84
ATOM     84  C   UNL A   1      45.333  33.555  29.061  1.00  0.00     0.064 A 
ATOM     85  C   UNL A   1      46.176  33.780  30.160  1.00  0.00     0.173 A 
ATOM     86  C   UNL A   1      45.206  34.580  28.110  1.00  0.00     0.173 A 
ATOM     87  F   UNL A   1      46.320  32.840  31.106  1.00  0.00    -0.203 F 
ATOM     88  C   UNL A   1      46.829  35.000  30.323  1.00  0.00     0.198 A 
ATOM     89  C   UNL A   1      45.890  35.783  28.258  1.00  0.00     0.198 A 
ATOM     90  F   UNL A   1      44.418  34.414  27.037  1.00  0.00    -0.203 F 
ATOM     91  F   UNL A   1      47.570  35.219  31.418  1.00  0.00    -0.200 F 
ATOM     92  C   UNL A   1      46.690  35.997  29.369  1.00  0.00     0.200 A 
ATOM     93  F   UNL A   1      45.768  36.739  27.326  1.00  0.00    -0.200 F 
ATOM     94  F   UNL A   1      47.317  37.170  29.528  1.00  0.00    -0.200 F 
ENDBRANCH  61  84
ENDBRANCH  35  36
ENDBRANCH  28  30
ENDBRANCH  27  28
ENDBRANCH  26  27
ENDBRANCH   1  26
TORSDOF 15
ENDMDL
