MODEL 1
REMARK VINA RESULT:     -13.1      0.000      0.000
REMARK SMILES O=C(OCCOC(=O)c1ccccc1/N=C/c1coc2ccccc2c1=O)c1ccc(-c2c3nc(c(-c4c(F)c(F)c(F)c(F)c4F)c4ccc([nH]4)c(-c4c(F)c(F)c(F)c(F)c4F)c4nc(c(-c5c(F)c(F)c(F)c(F)c5F)c5ccc2[nH]5)C=C4)C=C3)cc1
REMARK SMILES IDX 4 1 3 2 2 3 1 4 28 5 29 6 90 7 30 8 89 9 31 10 32 11 33 12
REMARK SMILES IDX 83 13 34 14 88 15 82 16 84 17 35 18 87 19 81 20 80 21 36 23
REMARK SMILES IDX 68 24 48 25 67 26 49 27 52 28 66 29 85 30 50 31 51 32 65 34
REMARK SMILES IDX 86 35 53 36 37 37 38 38 46 39 39 40 40 41 44 42 47 43 41 44
REMARK SMILES IDX 42 45 45 46 43 47 69 48 70 49 78 50 71 51 72 52 76 53 79 54
REMARK SMILES IDX 73 55 74 56 77 57 75 58 54 59 55 60 63 61 56 62 57 63 61 64
REMARK SMILES IDX 64 65 58 66 59 67 62 68 60 69 5 70 6 71 7 72 8 73 9 74 10 75
REMARK SMILES IDX 14 76 11 77 13 78 12 79 15 80 16 81 17 82 18 83 26 84 19 85
REMARK SMILES IDX 25 86 27 87 20 88 24 89 21 90 23 91 22 92
REMARK H PARENT 84 22 52 33
REMARK Flexibility Score: inf
ROOT
ATOM      1  C   UNL A   1      32.099  30.355  26.170  1.00  0.00     0.275 C 
ENDROOT
BRANCH   1   2
ATOM      2  O   UNL A   1      32.133  31.579  26.942  1.00  0.00    -0.458 OA
BRANCH   2   3
ATOM      3  C   UNL A   1      33.200  32.262  27.430  1.00  0.00     0.338 C 
ATOM      4  O   UNL A   1      33.059  33.462  27.664  1.00  0.00    -0.246 OA
BRANCH   3   5
ATOM      5  C   UNL A   1      34.499  31.618  27.856  1.00  0.00     0.060 A 
ATOM      6  C   UNL A   1      34.711  30.271  28.151  1.00  0.00     0.016 A 
ATOM      7  C   UNL A   1      35.604  32.484  28.015  1.00  0.00     0.016 A 
ATOM      8  C   UNL A   1      35.960  29.816  28.622  1.00  0.00     0.010 A 
ATOM      9  C   UNL A   1      36.852  32.038  28.482  1.00  0.00     0.010 A 
ATOM     10  C   UNL A   1      37.031  30.698  28.823  1.00  0.00    -0.014 A 
BRANCH  10  11
ATOM     11  C   UNL A   1      38.243  30.239  29.558  1.00  0.00     0.031 A 
ATOM     12  C   UNL A   1      38.401  30.606  30.995  1.00  0.00     0.074 A 
ATOM     13  C   UNL A   1      39.241  29.559  28.968  1.00  0.00     0.049 A 
ATOM     14  N   UNL A   1      39.364  30.290  31.820  1.00  0.00    -0.248 NA
ATOM     15  C   UNL A   1      37.401  31.531  31.543  1.00  0.00     0.031 C 
ATOM     16  C   UNL A   1      39.364  29.391  27.537  1.00  0.00     0.029 A 
ATOM     17  N   UNL A   1      40.327  28.878  29.476  1.00  0.00    -0.354 N 
ATOM     18  C   UNL A   1      39.129  31.032  32.963  1.00  0.00     0.074 A 
ATOM     19  C   UNL A   1      37.923  31.801  32.729  1.00  0.00     0.031 C 
ATOM     20  C   UNL A   1      40.365  28.533  27.289  1.00  0.00     0.029 A 
ATOM     21  C   UNL A   1      40.970  28.103  28.534  1.00  0.00     0.049 A 
ATOM     22  H   UNL A   1      40.614  28.939  30.416  1.00  0.00     0.167 HD
ATOM     23  C   UNL A   1      39.884  31.094  34.083  1.00  0.00     0.037 A 
ATOM     24  C   UNL A   1      41.917  27.146  28.659  1.00  0.00     0.037 A 
ATOM     25  C   UNL A   1      41.101  30.351  34.281  1.00  0.00     0.049 A 
ATOM     26  C   UNL A   1      42.615  27.060  29.985  1.00  0.00     0.074 A 
ATOM     27  C   UNL A   1      41.940  30.343  35.382  1.00  0.00     0.029 A 
ATOM     28  N   UNL A   1      41.660  29.484  33.350  1.00  0.00    -0.354 N 
ATOM     29  N   UNL A   1      42.370  27.739  31.079  1.00  0.00    -0.248 NA
ATOM     30  C   UNL A   1      43.786  26.177  30.071  1.00  0.00     0.031 C 
ATOM     31  C   UNL A   1      43.018  29.493  35.106  1.00  0.00     0.029 A 
ATOM     32  C   UNL A   1      42.829  28.930  33.853  1.00  0.00     0.049 A 
ATOM     33  H   UNL A   1      41.282  29.290  32.461  1.00  0.00     0.167 HD
ATOM     34  C   UNL A   1      43.388  27.421  31.959  1.00  0.00     0.074 A 
ATOM     35  C   UNL A   1      44.211  26.422  31.304  1.00  0.00     0.031 C 
ATOM     36  C   UNL A   1      43.645  27.952  33.178  1.00  0.00     0.037 A 
BRANCH  23  37
ATOM     37  C   UNL A   1      39.424  32.056  35.136  1.00  0.00     0.064 A 
ATOM     38  C   UNL A   1      39.864  33.388  35.157  1.00  0.00     0.173 A 
ATOM     39  C   UNL A   1      38.589  31.623  36.176  1.00  0.00     0.173 A 
ATOM     40  F   UNL A   1      40.692  33.841  34.203  1.00  0.00    -0.203 F 
ATOM     41  C   UNL A   1      39.522  34.239  36.204  1.00  0.00     0.198 A 
ATOM     42  C   UNL A   1      38.221  32.486  37.204  1.00  0.00     0.198 A 
ATOM     43  F   UNL A   1      38.148  30.357  36.208  1.00  0.00    -0.203 F 
ATOM     44  F   UNL A   1      40.020  35.482  36.245  1.00  0.00    -0.200 F 
ATOM     45  C   UNL A   1      38.699  33.787  37.225  1.00  0.00     0.200 A 
ATOM     46  F   UNL A   1      37.423  32.049  38.189  1.00  0.00    -0.200 F 
ATOM     47  F   UNL A   1      38.381  34.602  38.241  1.00  0.00    -0.200 F 
ENDBRANCH  23  37
BRANCH  24  48
ATOM     48  C   UNL A   1      42.274  26.222  27.535  1.00  0.00     0.064 A 
ATOM     49  C   UNL A   1      43.347  26.520  26.673  1.00  0.00     0.173 A 
ATOM     50  C   UNL A   1      41.584  25.026  27.287  1.00  0.00     0.173 A 
ATOM     51  F   UNL A   1      44.022  27.671  26.816  1.00  0.00    -0.203 F 
ATOM     52  C   UNL A   1      43.712  25.663  25.631  1.00  0.00     0.198 A 
ATOM     53  C   UNL A   1      41.985  24.143  26.283  1.00  0.00     0.198 A 
ATOM     54  F   UNL A   1      40.519  24.696  28.032  1.00  0.00    -0.203 F 
ATOM     55  F   UNL A   1      44.703  26.005  24.796  1.00  0.00    -0.200 F 
ATOM     56  C   UNL A   1      43.044  24.464  25.451  1.00  0.00     0.200 A 
ATOM     57  F   UNL A   1      41.345  22.976  26.129  1.00  0.00    -0.200 F 
ATOM     58  F   UNL A   1      43.411  23.624  24.473  1.00  0.00    -0.200 F 
ENDBRANCH  24  48
BRANCH  36  59
ATOM     59  C   UNL A   1      44.877  27.458  33.871  1.00  0.00     0.064 A 
ATOM     60  C   UNL A   1      44.844  26.339  34.715  1.00  0.00     0.173 A 
ATOM     61  C   UNL A   1      46.103  28.112  33.685  1.00  0.00     0.173 A 
ATOM     62  F   UNL A   1      43.687  25.696  34.941  1.00  0.00    -0.203 F 
ATOM     63  C   UNL A   1      45.993  25.905  35.370  1.00  0.00     0.198 A 
ATOM     64  C   UNL A   1      47.253  27.661  34.322  1.00  0.00     0.198 A 
ATOM     65  F   UNL A   1      46.180  29.188  32.888  1.00  0.00    -0.203 F 
ATOM     66  F   UNL A   1      45.931  24.865  36.212  1.00  0.00    -0.200 F 
ATOM     67  C   UNL A   1      47.197  26.564  35.168  1.00  0.00     0.200 A 
ATOM     68  F   UNL A   1      48.418  28.294  34.123  1.00  0.00    -0.200 F 
ATOM     69  F   UNL A   1      48.302  26.149  35.803  1.00  0.00    -0.200 F 
ENDBRANCH  36  59
ENDBRANCH  10  11
ENDBRANCH   3   5
ENDBRANCH   2   3
ENDBRANCH   1   2
BRANCH   1  70
ATOM     70  C   UNL A   1      31.722  29.112  26.971  1.00  0.00     0.275 C 
BRANCH  70  71
ATOM     71  O   UNL A   1      32.135  27.969  26.233  1.00  0.00    -0.458 OA
BRANCH  71  72
ATOM     72  C   UNL A   1      31.244  26.968  26.070  1.00  0.00     0.340 C 
ATOM     73  O   UNL A   1      30.524  26.449  26.898  1.00  0.00    -0.246 OA
BRANCH  72  74
ATOM     74  C   UNL A   1      31.303  26.693  24.638  1.00  0.00     0.085 A 
ATOM     75  C   UNL A   1      30.538  27.520  23.795  1.00  0.00     0.018 A 
ATOM     76  C   UNL A   1      32.225  25.769  24.131  1.00  0.00     0.077 A 
ATOM     77  C   UNL A   1      30.694  27.443  22.414  1.00  0.00     0.001 A 
ATOM     78  C   UNL A   1      32.329  25.690  22.731  1.00  0.00     0.029 A 
ATOM     79  C   UNL A   1      31.595  26.528  21.880  1.00  0.00     0.002 A 
BRANCH  76  80
ATOM     80  N   UNL A   1      33.050  24.896  24.885  1.00  0.00    -0.255 NA
ATOM     81  C   UNL A   1      34.344  25.018  24.836  1.00  0.00     0.127 C 
BRANCH  81  82
ATOM     82  C   UNL A   1      35.219  23.855  25.114  1.00  0.00     0.076 A 
ATOM     83  C   UNL A   1      35.274  23.166  26.267  1.00  0.00     0.209 A 
ATOM     84  C   UNL A   1      35.429  22.999  23.932  1.00  0.00     0.201 A 
ATOM     85  O   UNL A   1      35.418  21.760  26.276  1.00  0.00    -0.463 OA
ATOM     86  C   UNL A   1      34.543  21.841  24.067  1.00  0.00     0.065 A 
ATOM     87  O   UNL A   1      36.024  23.336  22.924  1.00  0.00    -0.288 OA
ATOM     88  C   UNL A   1      34.612  21.180  25.289  1.00  0.00     0.137 A 
ATOM     89  C   UNL A   1      33.328  21.907  23.409  1.00  0.00     0.016 A 
ATOM     90  C   UNL A   1      33.598  20.309  25.681  1.00  0.00     0.048 A 
ATOM     91  C   UNL A   1      32.240  21.175  23.881  1.00  0.00     0.001 A 
ATOM     92  C   UNL A   1      32.399  20.313  24.963  1.00  0.00     0.004 A 
ENDBRANCH  81  82
ENDBRANCH  76  80
ENDBRANCH  72  74
ENDBRANCH  71  72
ENDBRANCH  70  71
ENDBRANCH   1  70
TORSDOF 13
ENDMDL
MODEL 2
REMARK VINA RESULT:     -12.9      0.348      1.968
REMARK SMILES O=C(OCCOC(=O)c1ccccc1/N=C/c1coc2ccccc2c1=O)c1ccc(-c2c3nc(c(-c4c(F)c(F)c(F)c(F)c4F)c4ccc([nH]4)c(-c4c(F)c(F)c(F)c(F)c4F)c4nc(c(-c5c(F)c(F)c(F)c(F)c5F)c5ccc2[nH]5)C=C4)C=C3)cc1
REMARK SMILES IDX 4 1 3 2 2 3 1 4 28 5 29 6 90 7 30 8 89 9 31 10 32 11 33 12
REMARK SMILES IDX 83 13 34 14 88 15 82 16 84 17 35 18 87 19 81 20 80 21 36 23
REMARK SMILES IDX 68 24 48 25 67 26 49 27 52 28 66 29 85 30 50 31 51 32 65 34
REMARK SMILES IDX 86 35 53 36 37 37 38 38 46 39 39 40 40 41 44 42 47 43 41 44
REMARK SMILES IDX 42 45 45 46 43 47 69 48 70 49 78 50 71 51 72 52 76 53 79 54
REMARK SMILES IDX 73 55 74 56 77 57 75 58 54 59 55 60 63 61 56 62 57 63 61 64
REMARK SMILES IDX 64 65 58 66 59 67 62 68 60 69 5 70 6 71 7 72 8 73 9 74 10 75
REMARK SMILES IDX 14 76 11 77 13 78 12 79 15 80 16 81 17 82 18 83 26 84 19 85
REMARK SMILES IDX 25 86 27 87 20 88 24 89 21 90 23 91 22 92
REMARK H PARENT 84 22 52 33
REMARK Flexibility Score: inf
ROOT
ATOM      1  C   UNL A   1      32.214  30.436  26.334  1.00  0.00     0.275 C 
ENDROOT
BRANCH   1   2
ATOM      2  O   UNL A   1      32.397  31.550  27.240  1.00  0.00    -0.458 OA
BRANCH   2   3
ATOM      3  C   UNL A   1      33.533  32.217  27.567  1.00  0.00     0.338 C 
ATOM      4  O   UNL A   1      33.477  33.445  27.653  1.00  0.00    -0.246 OA
BRANCH   3   5
ATOM      5  C   UNL A   1      34.821  31.549  27.989  1.00  0.00     0.060 A 
ATOM      6  C   UNL A   1      35.023  30.188  28.223  1.00  0.00     0.016 A 
ATOM      7  C   UNL A   1      35.924  32.402  28.215  1.00  0.00     0.016 A 
ATOM      8  C   UNL A   1      36.260  29.707  28.698  1.00  0.00     0.010 A 
ATOM      9  C   UNL A   1      37.160  31.930  28.686  1.00  0.00     0.010 A 
ATOM     10  C   UNL A   1      37.329  30.574  28.965  1.00  0.00    -0.014 A 
BRANCH  10  11
ATOM     11  C   UNL A   1      38.523  30.076  29.702  1.00  0.00     0.031 A 
ATOM     12  C   UNL A   1      38.664  30.395  31.153  1.00  0.00     0.074 A 
ATOM     13  C   UNL A   1      39.521  29.401  29.106  1.00  0.00     0.049 A 
ATOM     14  N   UNL A   1      39.610  30.039  31.981  1.00  0.00    -0.248 NA
ATOM     15  C   UNL A   1      37.669  31.315  31.715  1.00  0.00     0.031 C 
ATOM     16  C   UNL A   1      39.663  29.277  27.672  1.00  0.00     0.029 A 
ATOM     17  N   UNL A   1      40.590  28.689  29.608  1.00  0.00    -0.354 N 
ATOM     18  C   UNL A   1      39.367  30.747  33.143  1.00  0.00     0.074 A 
ATOM     19  C   UNL A   1      38.176  31.540  32.917  1.00  0.00     0.031 C 
ATOM     20  C   UNL A   1      40.656  28.414  27.411  1.00  0.00     0.029 A 
ATOM     21  C   UNL A   1      41.237  27.936  28.651  1.00  0.00     0.049 A 
ATOM     22  H   UNL A   1      40.864  28.717  30.554  1.00  0.00     0.167 HD
ATOM     23  C   UNL A   1      40.106  30.764  34.277  1.00  0.00     0.037 A 
ATOM     24  C   UNL A   1      42.170  26.963  28.759  1.00  0.00     0.037 A 
ATOM     25  C   UNL A   1      41.311  29.998  34.469  1.00  0.00     0.049 A 
ATOM     26  C   UNL A   1      42.846  26.825  30.092  1.00  0.00     0.074 A 
ATOM     27  C   UNL A   1      42.132  29.943  35.580  1.00  0.00     0.029 A 
ATOM     28  N   UNL A   1      41.872  29.153  33.518  1.00  0.00    -0.354 N 
ATOM     29  N   UNL A   1      42.594  27.472  31.203  1.00  0.00    -0.248 NA
ATOM     30  C   UNL A   1      44.004  25.924  30.167  1.00  0.00     0.031 C 
ATOM     31  C   UNL A   1      43.203  29.087  35.294  1.00  0.00     0.029 A 
ATOM     32  C   UNL A   1      43.026  28.568  34.021  1.00  0.00     0.049 A 
ATOM     33  H   UNL A   1      41.505  28.993  32.618  1.00  0.00     0.167 HD
ATOM     34  C   UNL A   1      43.593  27.112  32.087  1.00  0.00     0.074 A 
ATOM     35  C   UNL A   1      44.413  26.123  31.413  1.00  0.00     0.031 C 
ATOM     36  C   UNL A   1      43.839  27.601  33.327  1.00  0.00     0.037 A 
BRANCH  23  37
ATOM     37  C   UNL A   1      39.644  31.697  35.353  1.00  0.00     0.064 A 
ATOM     38  C   UNL A   1      38.672  31.315  36.289  1.00  0.00     0.173 A 
ATOM     39  C   UNL A   1      40.127  33.013  35.406  1.00  0.00     0.173 A 
ATOM     40  F   UNL A   1      38.154  30.078  36.259  1.00  0.00    -0.203 F 
ATOM     41  C   UNL A   1      38.167  32.228  37.211  1.00  0.00     0.198 A 
ATOM     42  C   UNL A   1      39.645  33.914  36.350  1.00  0.00     0.198 A 
ATOM     43  F   UNL A   1      41.049  33.432  34.527  1.00  0.00    -0.203 F 
ATOM     44  F   UNL A   1      37.182  31.864  38.042  1.00  0.00    -0.200 F 
ATOM     45  C   UNL A   1      38.656  33.526  37.241  1.00  0.00     0.200 A 
ATOM     46  F   UNL A   1      40.120  35.168  36.381  1.00  0.00    -0.200 F 
ATOM     47  F   UNL A   1      38.160  34.409  38.120  1.00  0.00    -0.200 F 
ENDBRANCH  23  37
BRANCH  24  48
ATOM     48  C   UNL A   1      42.531  26.070  27.611  1.00  0.00     0.064 A 
ATOM     49  C   UNL A   1      41.851  24.853  27.407  1.00  0.00     0.173 A 
ATOM     50  C   UNL A   1      43.536  26.390  26.687  1.00  0.00     0.173 A 
ATOM     51  F   UNL A   1      40.912  24.455  28.279  1.00  0.00    -0.203 F 
ATOM     52  C   UNL A   1      42.156  24.014  26.332  1.00  0.00     0.198 A 
ATOM     53  C   UNL A   1      43.800  25.579  25.582  1.00  0.00     0.198 A 
ATOM     54  F   UNL A   1      44.262  27.506  26.841  1.00  0.00    -0.203 F 
ATOM     55  F   UNL A   1      41.527  22.837  26.200  1.00  0.00    -0.200 F 
ATOM     56  C   UNL A   1      43.115  24.388  25.407  1.00  0.00     0.200 A 
ATOM     57  F   UNL A   1      44.716  25.960  24.681  1.00  0.00    -0.200 F 
ATOM     58  F   UNL A   1      43.388  23.602  24.357  1.00  0.00    -0.200 F 
ENDBRANCH  24  48
BRANCH  36  59
ATOM     59  C   UNL A   1      45.054  27.068  34.021  1.00  0.00     0.064 A 
ATOM     60  C   UNL A   1      46.299  27.705  33.911  1.00  0.00     0.173 A 
ATOM     61  C   UNL A   1      44.969  25.910  34.806  1.00  0.00     0.173 A 
ATOM     62  F   UNL A   1      46.432  28.804  33.151  1.00  0.00    -0.203 F 
ATOM     63  C   UNL A   1      47.424  27.185  34.544  1.00  0.00     0.198 A 
ATOM     64  C   UNL A   1      46.090  25.408  35.456  1.00  0.00     0.198 A 
ATOM     65  F   UNL A   1      43.799  25.268  34.937  1.00  0.00    -0.203 F 
ATOM     66  F   UNL A   1      48.615  27.778  34.386  1.00  0.00    -0.200 F 
ATOM     67  C   UNL A   1      47.317  26.040  35.320  1.00  0.00     0.200 A 
ATOM     68  F   UNL A   1      45.986  24.304  36.209  1.00  0.00    -0.200 F 
ATOM     69  F   UNL A   1      48.402  25.537  35.925  1.00  0.00    -0.200 F 
ENDBRANCH  36  59
ENDBRANCH  10  11
ENDBRANCH   3   5
ENDBRANCH   2   3
ENDBRANCH   1   2
BRANCH   1  70
ATOM     70  C   UNL A   1      31.774  29.138  27.007  1.00  0.00     0.275 C 
BRANCH  70  71
ATOM     71  O   UNL A   1      32.153  28.056  26.167  1.00  0.00    -0.458 OA
BRANCH  71  72
ATOM     72  C   UNL A   1      31.284  27.031  26.030  1.00  0.00     0.340 C 
ATOM     73  O   UNL A   1      30.594  26.501  26.876  1.00  0.00    -0.246 OA
BRANCH  72  74
ATOM     74  C   UNL A   1      31.324  26.744  24.599  1.00  0.00     0.085 A 
ATOM     75  C   UNL A   1      30.523  27.545  23.764  1.00  0.00     0.018 A 
ATOM     76  C   UNL A   1      32.258  25.838  24.083  1.00  0.00     0.077 A 
ATOM     77  C   UNL A   1      30.655  27.460  22.381  1.00  0.00     0.001 A 
ATOM     78  C   UNL A   1      32.337  25.749  22.682  1.00  0.00     0.029 A 
ATOM     79  C   UNL A   1      31.567  26.562  21.838  1.00  0.00     0.002 A 
BRANCH  76  80
ATOM     80  N   UNL A   1      33.118  24.992  24.828  1.00  0.00    -0.255 NA
ATOM     81  C   UNL A   1      34.404  25.049  24.649  1.00  0.00     0.127 C 
BRANCH  81  82
ATOM     82  C   UNL A   1      35.257  23.873  24.943  1.00  0.00     0.076 A 
ATOM     83  C   UNL A   1      35.328  23.223  26.118  1.00  0.00     0.209 A 
ATOM     84  C   UNL A   1      35.408  22.971  23.786  1.00  0.00     0.201 A 
ATOM     85  O   UNL A   1      35.436  21.815  26.172  1.00  0.00    -0.463 OA
ATOM     86  C   UNL A   1      34.497  21.843  23.988  1.00  0.00     0.065 A 
ATOM     87  O   UNL A   1      35.982  23.256  22.751  1.00  0.00    -0.288 OA
ATOM     88  C   UNL A   1      34.585  21.223  25.231  1.00  0.00     0.137 A 
ATOM     89  C   UNL A   1      33.264  21.919  23.365  1.00  0.00     0.016 A 
ATOM     90  C   UNL A   1      33.562  20.394  25.684  1.00  0.00     0.048 A 
ATOM     91  C   UNL A   1      32.173  21.234  23.894  1.00  0.00     0.001 A 
ATOM     92  C   UNL A   1      32.342  20.406  25.001  1.00  0.00     0.004 A 
ENDBRANCH  81  82
ENDBRANCH  76  80
ENDBRANCH  72  74
ENDBRANCH  71  72
ENDBRANCH  70  71
ENDBRANCH   1  70
TORSDOF 13
ENDMDL
MODEL 3
REMARK VINA RESULT:     -12.9      3.031      9.006
REMARK SMILES O=C(OCCOC(=O)c1ccccc1/N=C/c1coc2ccccc2c1=O)c1ccc(-c2c3nc(c(-c4c(F)c(F)c(F)c(F)c4F)c4ccc([nH]4)c(-c4c(F)c(F)c(F)c(F)c4F)c4nc(c(-c5c(F)c(F)c(F)c(F)c5F)c5ccc2[nH]5)C=C4)C=C3)cc1
REMARK SMILES IDX 4 1 3 2 2 3 1 4 28 5 29 6 90 7 30 8 89 9 31 10 32 11 33 12
REMARK SMILES IDX 83 13 34 14 88 15 82 16 84 17 35 18 87 19 81 20 80 21 36 23
REMARK SMILES IDX 68 24 48 25 67 26 49 27 52 28 66 29 85 30 50 31 51 32 65 34
REMARK SMILES IDX 86 35 53 36 37 37 38 38 46 39 39 40 40 41 44 42 47 43 41 44
REMARK SMILES IDX 42 45 45 46 43 47 69 48 70 49 78 50 71 51 72 52 76 53 79 54
REMARK SMILES IDX 73 55 74 56 77 57 75 58 54 59 55 60 63 61 56 62 57 63 61 64
REMARK SMILES IDX 64 65 58 66 59 67 62 68 60 69 5 70 6 71 7 72 8 73 9 74 10 75
REMARK SMILES IDX 14 76 11 77 13 78 12 79 15 80 16 81 17 82 18 83 26 84 19 85
REMARK SMILES IDX 25 86 27 87 20 88 24 89 21 90 23 91 22 92
REMARK H PARENT 84 22 52 33
REMARK Flexibility Score: inf
ROOT
ATOM      1  C   UNL A   1      32.910  35.996  29.286  1.00  0.00     0.275 C 
ENDROOT
BRANCH   1   2
ATOM      2  O   UNL A   1      32.325  35.384  30.461  1.00  0.00    -0.458 OA
BRANCH   2   3
ATOM      3  C   UNL A   1      32.589  35.612  31.772  1.00  0.00     0.338 C 
ATOM      4  O   UNL A   1      31.721  36.164  32.449  1.00  0.00    -0.246 OA
BRANCH   3   5
ATOM      5  C   UNL A   1      33.809  35.092  32.498  1.00  0.00     0.060 A 
ATOM      6  C   UNL A   1      35.025  35.753  32.674  1.00  0.00     0.016 A 
ATOM      7  C   UNL A   1      33.719  33.779  33.011  1.00  0.00     0.016 A 
ATOM      8  C   UNL A   1      36.116  35.116  33.301  1.00  0.00     0.010 A 
ATOM      9  C   UNL A   1      34.801  33.139  33.639  1.00  0.00     0.010 A 
ATOM     10  C   UNL A   1      36.026  33.794  33.759  1.00  0.00    -0.014 A 
BRANCH  10  11
ATOM     11  C   UNL A   1      37.257  33.067  34.178  1.00  0.00     0.031 A 
ATOM     12  C   UNL A   1      37.944  32.179  33.196  1.00  0.00     0.074 A 
ATOM     13  C   UNL A   1      37.748  33.123  35.428  1.00  0.00     0.049 A 
ATOM     14  N   UNL A   1      39.037  31.479  33.348  1.00  0.00    -0.248 NA
ATOM     15  C   UNL A   1      37.257  31.974  31.915  1.00  0.00     0.031 C 
ATOM     16  C   UNL A   1      37.036  33.696  36.547  1.00  0.00     0.029 A 
ATOM     17  N   UNL A   1      38.947  32.712  35.973  1.00  0.00    -0.354 N 
ATOM     18  C   UNL A   1      39.133  30.694  32.214  1.00  0.00     0.074 A 
ATOM     19  C   UNL A   1      37.996  31.018  31.376  1.00  0.00     0.031 C 
ATOM     20  C   UNL A   1      37.860  33.742  37.605  1.00  0.00     0.029 A 
ATOM     21  C   UNL A   1      39.152  33.187  37.251  1.00  0.00     0.049 A 
ATOM     22  H   UNL A   1      39.590  32.137  35.498  1.00  0.00     0.167 HD
ATOM     23  C   UNL A   1      40.065  29.756  31.930  1.00  0.00     0.037 A 
ATOM     24  C   UNL A   1      40.252  33.195  38.036  1.00  0.00     0.037 A 
ATOM     25  C   UNL A   1      41.167  29.421  32.794  1.00  0.00     0.049 A 
ATOM     26  C   UNL A   1      41.392  32.317  37.605  1.00  0.00     0.074 A 
ATOM     27  C   UNL A   1      42.167  28.487  32.597  1.00  0.00     0.029 A 
ATOM     28  N   UNL A   1      41.410  30.009  34.031  1.00  0.00    -0.354 N 
ATOM     29  N   UNL A   1      41.499  31.600  36.514  1.00  0.00    -0.248 NA
ATOM     30  C   UNL A   1      42.504  32.148  38.551  1.00  0.00     0.031 C 
ATOM     31  C   UNL A   1      43.000  28.489  33.724  1.00  0.00     0.029 A 
ATOM     32  C   UNL A   1      42.549  29.461  34.604  1.00  0.00     0.049 A 
ATOM     33  H   UNL A   1      40.855  30.711  34.441  1.00  0.00     0.167 HD
ATOM     34  C   UNL A   1      42.647  30.846  36.666  1.00  0.00     0.074 A 
ATOM     35  C   UNL A   1      43.252  31.252  37.920  1.00  0.00     0.031 C 
ATOM     36  C   UNL A   1      43.124  29.865  35.863  1.00  0.00     0.037 A 
BRANCH  23  37
ATOM     37  C   UNL A   1      39.869  28.997  30.654  1.00  0.00     0.064 A 
ATOM     38  C   UNL A   1      39.271  27.728  30.638  1.00  0.00     0.173 A 
ATOM     39  C   UNL A   1      40.347  29.514  29.440  1.00  0.00     0.173 A 
ATOM     40  F   UNL A   1      38.828  27.176  31.778  1.00  0.00    -0.203 F 
ATOM     41  C   UNL A   1      39.199  26.985  29.463  1.00  0.00     0.198 A 
ATOM     42  C   UNL A   1      40.243  28.782  28.261  1.00  0.00     0.198 A 
ATOM     43  F   UNL A   1      40.935  30.718  29.402  1.00  0.00    -0.203 F 
ATOM     44  F   UNL A   1      38.697  25.743  29.488  1.00  0.00    -0.200 F 
ATOM     45  C   UNL A   1      39.683  27.514  28.276  1.00  0.00     0.200 A 
ATOM     46  F   UNL A   1      40.708  29.295  27.113  1.00  0.00    -0.200 F 
ATOM     47  F   UNL A   1      39.626  26.792  27.148  1.00  0.00    -0.200 F 
ENDBRANCH  23  37
BRANCH  24  48
ATOM     48  C   UNL A   1      40.340  34.021  39.283  1.00  0.00     0.064 A 
ATOM     49  C   UNL A   1      39.906  33.503  40.519  1.00  0.00     0.173 A 
ATOM     50  C   UNL A   1      40.859  35.324  39.296  1.00  0.00     0.173 A 
ATOM     51  F   UNL A   1      39.352  32.282  40.577  1.00  0.00    -0.203 F 
ATOM     52  C   UNL A   1      39.998  34.246  41.699  1.00  0.00     0.198 A 
ATOM     53  C   UNL A   1      41.003  36.043  40.484  1.00  0.00     0.198 A 
ATOM     54  F   UNL A   1      41.247  35.906  38.153  1.00  0.00    -0.203 F 
ATOM     55  F   UNL A   1      39.524  33.742  42.848  1.00  0.00    -0.200 F 
ATOM     56  C   UNL A   1      40.567  35.508  41.684  1.00  0.00     0.200 A 
ATOM     57  F   UNL A   1      41.573  37.255  40.462  1.00  0.00    -0.200 F 
ATOM     58  F   UNL A   1      40.686  36.211  42.819  1.00  0.00    -0.200 F 
ENDBRANCH  24  48
BRANCH  36  59
ATOM     59  C   UNL A   1      44.362  29.166  36.333  1.00  0.00     0.064 A 
ATOM     60  C   UNL A   1      45.636  29.712  36.123  1.00  0.00     0.173 A 
ATOM     61  C   UNL A   1      44.269  27.938  37.003  1.00  0.00     0.173 A 
ATOM     62  F   UNL A   1      45.775  30.874  35.465  1.00  0.00    -0.203 F 
ATOM     63  C   UNL A   1      46.779  29.038  36.545  1.00  0.00     0.198 A 
ATOM     64  C   UNL A   1      45.411  27.281  37.445  1.00  0.00     0.198 A 
ATOM     65  F   UNL A   1      43.070  27.378  37.223  1.00  0.00    -0.203 F 
ATOM     66  F   UNL A   1      47.990  29.552  36.291  1.00  0.00    -0.200 F 
ATOM     67  C   UNL A   1      46.665  27.826  37.210  1.00  0.00     0.200 A 
ATOM     68  F   UNL A   1      45.301  26.112  38.091  1.00  0.00    -0.200 F 
ATOM     69  F   UNL A   1      47.765  27.177  37.613  1.00  0.00    -0.200 F 
ENDBRANCH  36  59
ENDBRANCH  10  11
ENDBRANCH   3   5
ENDBRANCH   2   3
ENDBRANCH   1   2
BRANCH   1  70
ATOM     70  C   UNL A   1      34.223  35.365  28.831  1.00  0.00     0.275 C 
BRANCH  70  71
ATOM     71  O   UNL A   1      34.136  33.962  29.048  1.00  0.00    -0.458 OA
BRANCH  71  72
ATOM     72  C   UNL A   1      33.636  33.200  28.052  1.00  0.00     0.340 C 
ATOM     73  O   UNL A   1      32.615  33.355  27.416  1.00  0.00    -0.246 OA
BRANCH  72  74
ATOM     74  C   UNL A   1      34.652  32.167  27.875  1.00  0.00     0.085 A 
ATOM     75  C   UNL A   1      35.978  32.511  28.199  1.00  0.00     0.018 A 
ATOM     76  C   UNL A   1      34.281  30.851  27.575  1.00  0.00     0.077 A 
ATOM     77  C   UNL A   1      36.963  31.529  28.240  1.00  0.00     0.001 A 
ATOM     78  C   UNL A   1      35.309  29.891  27.588  1.00  0.00     0.029 A 
ATOM     79  C   UNL A   1      36.627  30.214  27.938  1.00  0.00     0.002 A 
BRANCH  76  80
ATOM     80  N   UNL A   1      32.980  30.393  27.246  1.00  0.00    -0.255 NA
ATOM     81  C   UNL A   1      32.792  29.150  26.911  1.00  0.00     0.127 C 
BRANCH  81  82
ATOM     82  C   UNL A   1      31.648  28.769  26.050  1.00  0.00     0.076 A 
ATOM     83  C   UNL A   1      31.363  29.287  24.842  1.00  0.00     0.209 A 
ATOM     84  C   UNL A   1      31.307  27.339  26.149  1.00  0.00     0.201 A 
ATOM     85  O   UNL A   1      30.884  28.473  23.790  1.00  0.00    -0.463 OA
ATOM     86  C   UNL A   1      31.878  26.670  24.977  1.00  0.00     0.065 A 
ATOM     87  O   UNL A   1      30.869  26.794  27.146  1.00  0.00    -0.288 OA
ATOM     88  C   UNL A   1      31.583  27.261  23.753  1.00  0.00     0.137 A 
ATOM     89  C   UNL A   1      33.110  26.063  25.147  1.00  0.00     0.016 A 
ATOM     90  C   UNL A   1      32.332  26.955  22.620  1.00  0.00     0.048 A 
ATOM     91  C   UNL A   1      33.960  25.896  24.057  1.00  0.00     0.001 A 
ATOM     92  C   UNL A   1      33.536  26.264  22.782  1.00  0.00     0.004 A 
ENDBRANCH  81  82
ENDBRANCH  76  80
ENDBRANCH  72  74
ENDBRANCH  71  72
ENDBRANCH  70  71
ENDBRANCH   1  70
TORSDOF 13
ENDMDL
