MODEL 1
REMARK VINA RESULT:     -12.6      0.000      0.000
REMARK SMILES NS(=O)(=O)c1ccc(N2CCSCC2)c(C(=O)OCCOC(=O)c2ccc(-c3c4nc(c(-c5c(F)c(F)c(F)c(F)c5F)c5ccc([nH]5)c(-c5c(F)c(F)c(F)c(F)c5F)c5nc(c(-c6c(F)c(F)c(F)c(F)c6F)c6ccc3[nH]6)C=C5)C=C4)cc2)c1
REMARK SMILES IDX 19 1 18 2 16 3 17 4 15 5 5 6 6 7 87 8 7 9 8 10 2 11 3 12
REMARK SMILES IDX 4 13 1 14 9 17 10 18 14 19 11 20 13 21 12 22 20 23 21 24
REMARK SMILES IDX 22 25 23 26 24 27 25 28 86 29 26 30 85 31 27 32 28 33 29 34
REMARK SMILES IDX 79 35 30 36 84 37 78 38 80 39 31 40 83 41 77 42 76 43 32 45
REMARK SMILES IDX 64 46 44 47 63 48 45 49 48 50 62 51 81 52 46 53 47 54 61 56
REMARK SMILES IDX 82 57 49 58 33 59 34 60 42 61 35 62 36 63 40 64 43 65 37 66
REMARK SMILES IDX 38 67 41 68 39 69 65 70 66 71 74 72 67 73 68 74 72 75 75 76
REMARK SMILES IDX 69 77 70 78 73 79 71 80 50 81 51 82 59 83 52 84 53 85 57 86
REMARK SMILES IDX 60 87 54 88 55 89 58 90 56 91
REMARK H PARENT 1 15 1 16 80 44 48 55
REMARK Flexibility Score: inf
ROOT
ATOM      1  C   UNL A   1      33.156  29.122  25.100  1.00  0.00     0.275 C 
ENDROOT
BRANCH   1   2
ATOM      2  O   UNL A   1      33.288  29.328  23.677  1.00  0.00    -0.458 OA
BRANCH   2   3
ATOM      3  C   UNL A   1      32.811  28.344  22.869  1.00  0.00     0.340 C 
ATOM      4  O   UNL A   1      33.466  27.669  22.091  1.00  0.00    -0.246 OA
BRANCH   3   5
ATOM      5  C   UNL A   1      31.329  28.275  22.999  1.00  0.00     0.084 A 
ATOM      6  C   UNL A   1      29.176  29.289  22.561  1.00  0.00     0.083 A 
ATOM      7  C   UNL A   1      28.528  28.150  23.033  1.00  0.00     0.024 A 
ATOM      8  C   UNL A   1      30.571  29.357  22.524  1.00  0.00     0.039 A 
ATOM      9  C   UNL A   1      29.282  27.081  23.502  1.00  0.00     0.028 A 
ATOM     10  C   UNL A   1      30.685  27.132  23.520  1.00  0.00     0.051 A 
BRANCH   6  11
ATOM     11  S   UNL A   1      28.174  30.658  22.075  1.00  0.00     0.238 S 
ATOM     12  O   UNL A   1      27.278  30.969  23.163  1.00  0.00    -0.207 OA
ATOM     13  O   UNL A   1      27.724  30.430  20.724  1.00  0.00    -0.207 OA
BRANCH  11  14
ATOM     14  N   UNL A   1      29.242  31.951  22.002  1.00  0.00    -0.225 NA
ATOM     15  H   UNL A   1      28.912  32.701  22.611  1.00  0.00     0.137 HD
ATOM     16  H   UNL A   1      29.299  32.293  21.042  1.00  0.00     0.137 HD
ENDBRANCH  11  14
ENDBRANCH   6  11
BRANCH  10  17
ATOM     17  N   UNL A   1      31.373  26.098  24.137  1.00  0.00    -0.369 N 
ATOM     18  C   UNL A   1      31.294  26.036  25.599  1.00  0.00     0.127 C 
ATOM     19  C   UNL A   1      31.710  24.913  23.343  1.00  0.00     0.127 C 
ATOM     20  C   UNL A   1      30.428  24.894  26.125  1.00  0.00     0.091 C 
ATOM     21  C   UNL A   1      30.875  23.682  23.707  1.00  0.00     0.091 C 
ATOM     22  S   UNL A   1      30.941  23.270  25.481  1.00  0.00    -0.158 SA
ENDBRANCH  10  17
ENDBRANCH   3   5
ENDBRANCH   2   3
ENDBRANCH   1   2
BRANCH   1  23
ATOM     23  C   UNL A   1      32.278  30.198  25.734  1.00  0.00     0.275 C 
BRANCH  23  24
ATOM     24  O   UNL A   1      32.645  30.357  27.115  1.00  0.00    -0.458 OA
BRANCH  24  25
ATOM     25  C   UNL A   1      33.387  31.446  27.414  1.00  0.00     0.338 C 
ATOM     26  O   UNL A   1      33.008  32.603  27.490  1.00  0.00    -0.246 OA
BRANCH  25  27
ATOM     27  C   UNL A   1      34.781  31.049  27.705  1.00  0.00     0.060 A 
ATOM     28  C   UNL A   1      35.092  29.709  27.899  1.00  0.00     0.016 A 
ATOM     29  C   UNL A   1      35.735  32.027  28.001  1.00  0.00     0.016 A 
ATOM     30  C   UNL A   1      36.283  29.374  28.547  1.00  0.00     0.010 A 
ATOM     31  C   UNL A   1      36.978  31.664  28.548  1.00  0.00     0.010 A 
ATOM     32  C   UNL A   1      37.244  30.334  28.909  1.00  0.00    -0.014 A 
BRANCH  32  33
ATOM     33  C   UNL A   1      38.433  29.955  29.753  1.00  0.00     0.031 A 
ATOM     34  C   UNL A   1      39.568  29.124  29.178  1.00  0.00     0.074 A 
ATOM     35  C   UNL A   1      38.597  30.428  31.009  1.00  0.00     0.049 A 
ATOM     36  N   UNL A   1      40.553  28.516  29.798  1.00  0.00    -0.248 NA
ATOM     37  C   UNL A   1      39.600  28.950  27.717  1.00  0.00     0.031 C 
ATOM     38  C   UNL A   1      37.686  31.335  31.705  1.00  0.00     0.029 A 
ATOM     39  N   UNL A   1      39.619  30.242  31.915  1.00  0.00    -0.354 N 
ATOM     40  C   UNL A   1      41.274  27.841  28.817  1.00  0.00     0.074 A 
ATOM     41  C   UNL A   1      40.621  28.118  27.555  1.00  0.00     0.031 C 
ATOM     42  C   UNL A   1      38.237  31.715  32.865  1.00  0.00     0.029 A 
ATOM     43  C   UNL A   1      39.449  30.937  33.087  1.00  0.00     0.049 A 
ATOM     44  H   UNL A   1      40.398  29.666  31.737  1.00  0.00     0.167 HD
ATOM     45  C   UNL A   1      42.373  27.058  28.953  1.00  0.00     0.037 A 
ATOM     46  C   UNL A   1      40.125  30.904  34.253  1.00  0.00     0.037 A 
ATOM     47  C   UNL A   1      43.080  26.840  30.190  1.00  0.00     0.049 A 
ATOM     48  C   UNL A   1      41.259  29.936  34.423  1.00  0.00     0.074 A 
ATOM     49  C   UNL A   1      44.183  26.035  30.427  1.00  0.00     0.029 A 
ATOM     50  N   UNL A   1      42.773  27.453  31.394  1.00  0.00    -0.354 N 
ATOM     51  N   UNL A   1      41.820  29.156  33.535  1.00  0.00    -0.248 NA
ATOM     52  C   UNL A   1      41.813  29.802  35.777  1.00  0.00     0.031 C 
ATOM     53  C   UNL A   1      44.517  26.128  31.783  1.00  0.00     0.029 A 
ATOM     54  C   UNL A   1      43.650  27.028  32.380  1.00  0.00     0.049 A 
ATOM     55  H   UNL A   1      42.041  28.098  31.529  1.00  0.00     0.167 HD
ATOM     56  C   UNL A   1      42.786  28.433  34.221  1.00  0.00     0.074 A 
ATOM     57  C   UNL A   1      42.755  28.888  35.594  1.00  0.00     0.031 C 
ATOM     58  C   UNL A   1      43.612  27.468  33.751  1.00  0.00     0.037 A 
BRANCH  45  59
ATOM     59  C   UNL A   1      42.863  26.317  27.742  1.00  0.00     0.064 A 
ATOM     60  C   UNL A   1      43.851  26.833  26.894  1.00  0.00     0.173 A 
ATOM     61  C   UNL A   1      42.377  25.026  27.475  1.00  0.00     0.173 A 
ATOM     62  F   UNL A   1      44.340  28.065  27.096  1.00  0.00    -0.203 F 
ATOM     63  C   UNL A   1      44.327  26.088  25.815  1.00  0.00     0.198 A 
ATOM     64  C   UNL A   1      42.874  24.275  26.413  1.00  0.00     0.198 A 
ATOM     65  F   UNL A   1      41.438  24.481  28.262  1.00  0.00    -0.203 F 
ATOM     66  F   UNL A   1      45.251  26.612  24.997  1.00  0.00    -0.200 F 
ATOM     67  C   UNL A   1      43.845  24.808  25.581  1.00  0.00     0.200 A 
ATOM     68  F   UNL A   1      42.416  23.033  26.200  1.00  0.00    -0.200 F 
ATOM     69  F   UNL A   1      44.317  24.090  24.553  1.00  0.00    -0.200 F 
ENDBRANCH  45  59
BRANCH  46  70
ATOM     70  C   UNL A   1      39.657  31.735  35.395  1.00  0.00     0.064 A 
ATOM     71  C   UNL A   1      38.676  31.269  36.278  1.00  0.00     0.173 A 
ATOM     72  C   UNL A   1      40.205  33.005  35.638  1.00  0.00     0.173 A 
ATOM     73  F   UNL A   1      38.090  30.082  36.066  1.00  0.00    -0.203 F 
ATOM     74  C   UNL A   1      38.274  32.036  37.371  1.00  0.00     0.198 A 
ATOM     75  C   UNL A   1      39.833  33.750  36.752  1.00  0.00     0.198 A 
ATOM     76  F   UNL A   1      41.136  33.506  34.811  1.00  0.00    -0.203 F 
ATOM     77  F   UNL A   1      37.310  31.584  38.186  1.00  0.00    -0.200 F 
ATOM     78  C   UNL A   1      38.865  33.267  37.616  1.00  0.00     0.200 A 
ATOM     79  F   UNL A   1      40.424  34.928  36.993  1.00  0.00    -0.200 F 
ATOM     80  F   UNL A   1      38.499  33.989  38.683  1.00  0.00    -0.200 F 
ENDBRANCH  46  70
BRANCH  58  81
ATOM     81  C   UNL A   1      44.562  26.844  34.727  1.00  0.00     0.064 A 
ATOM     82  C   UNL A   1      44.239  25.661  35.408  1.00  0.00     0.173 A 
ATOM     83  C   UNL A   1      45.812  27.428  34.982  1.00  0.00     0.173 A 
ATOM     84  F   UNL A   1      43.048  25.074  35.213  1.00  0.00    -0.203 F 
ATOM     85  C   UNL A   1      45.122  25.099  36.326  1.00  0.00     0.198 A 
ATOM     86  C   UNL A   1      46.703  26.850  35.882  1.00  0.00     0.198 A 
ATOM     87  F   UNL A   1      46.171  28.558  34.354  1.00  0.00    -0.203 F 
ATOM     88  F   UNL A   1      44.772  23.995  37.001  1.00  0.00    -0.200 F 
ATOM     89  C   UNL A   1      46.354  25.691  36.559  1.00  0.00     0.200 A 
ATOM     90  F   UNL A   1      47.897  27.419  36.100  1.00  0.00    -0.200 F 
ATOM     91  F   UNL A   1      47.202  25.151  37.445  1.00  0.00    -0.200 F 
ENDBRANCH  58  81
ENDBRANCH  32  33
ENDBRANCH  25  27
ENDBRANCH  24  25
ENDBRANCH  23  24
ENDBRANCH   1  23
TORSDOF 14
ENDMDL
MODEL 2
REMARK VINA RESULT:     -12.6      0.618      2.104
REMARK SMILES NS(=O)(=O)c1ccc(N2CCSCC2)c(C(=O)OCCOC(=O)c2ccc(-c3c4nc(c(-c5c(F)c(F)c(F)c(F)c5F)c5ccc([nH]5)c(-c5c(F)c(F)c(F)c(F)c5F)c5nc(c(-c6c(F)c(F)c(F)c(F)c6F)c6ccc3[nH]6)C=C5)C=C4)cc2)c1
REMARK SMILES IDX 19 1 18 2 16 3 17 4 15 5 5 6 6 7 87 8 7 9 8 10 2 11 3 12
REMARK SMILES IDX 4 13 1 14 9 17 10 18 14 19 11 20 13 21 12 22 20 23 21 24
REMARK SMILES IDX 22 25 23 26 24 27 25 28 86 29 26 30 85 31 27 32 28 33 29 34
REMARK SMILES IDX 79 35 30 36 84 37 78 38 80 39 31 40 83 41 77 42 76 43 32 45
REMARK SMILES IDX 64 46 44 47 63 48 45 49 48 50 62 51 81 52 46 53 47 54 61 56
REMARK SMILES IDX 82 57 49 58 33 59 34 60 42 61 35 62 36 63 40 64 43 65 37 66
REMARK SMILES IDX 38 67 41 68 39 69 65 70 66 71 74 72 67 73 68 74 72 75 75 76
REMARK SMILES IDX 69 77 70 78 73 79 71 80 50 81 51 82 59 83 52 84 53 85 57 86
REMARK SMILES IDX 60 87 54 88 55 89 58 90 56 91
REMARK H PARENT 1 15 1 16 80 44 48 55
REMARK Flexibility Score: inf
ROOT
ATOM      1  C   UNL A   1      33.298  28.951  25.012  1.00  0.00     0.275 C 
ENDROOT
BRANCH   1   2
ATOM      2  O   UNL A   1      33.350  29.016  23.571  1.00  0.00    -0.458 OA
BRANCH   2   3
ATOM      3  C   UNL A   1      32.933  27.913  22.892  1.00  0.00     0.340 C 
ATOM      4  O   UNL A   1      33.594  27.262  22.100  1.00  0.00    -0.246 OA
BRANCH   3   5
ATOM      5  C   UNL A   1      31.494  27.668  23.186  1.00  0.00     0.084 A 
ATOM      6  C   UNL A   1      29.198  28.408  22.985  1.00  0.00     0.083 A 
ATOM      7  C   UNL A   1      28.749  27.207  23.532  1.00  0.00     0.024 A 
ATOM      8  C   UNL A   1      30.562  28.642  22.794  1.00  0.00     0.039 A 
ATOM      9  C   UNL A   1      29.676  26.246  23.920  1.00  0.00     0.028 A 
ATOM     10  C   UNL A   1      31.055  26.466  23.782  1.00  0.00     0.051 A 
BRANCH   6  11
ATOM     11  S   UNL A   1      27.990  29.636  22.606  1.00  0.00     0.238 S 
ATOM     12  O   UNL A   1      28.033  29.888  21.186  1.00  0.00    -0.207 OA
ATOM     13  O   UNL A   1      28.086  30.682  23.595  1.00  0.00    -0.207 OA
BRANCH  11  14
ATOM     14  N   UNL A   1      26.520  28.871  22.873  1.00  0.00    -0.225 NA
ATOM     15  H   UNL A   1      26.565  28.339  23.743  1.00  0.00     0.137 HD
ATOM     16  H   UNL A   1      26.319  28.239  22.098  1.00  0.00     0.137 HD
ENDBRANCH  11  14
ENDBRANCH   6  11
BRANCH  10  17
ATOM     17  N   UNL A   1      31.927  25.535  24.325  1.00  0.00    -0.369 N 
ATOM     18  C   UNL A   1      32.100  25.564  25.780  1.00  0.00     0.127 C 
ATOM     19  C   UNL A   1      32.232  24.329  23.548  1.00  0.00     0.127 C 
ATOM     20  C   UNL A   1      31.441  24.394  26.506  1.00  0.00     0.091 C 
ATOM     21  C   UNL A   1      31.585  23.063  24.114  1.00  0.00     0.091 C 
ATOM     22  S   UNL A   1      31.985  22.777  25.870  1.00  0.00    -0.158 SA
ENDBRANCH  10  17
ENDBRANCH   3   5
ENDBRANCH   2   3
ENDBRANCH   1   2
BRANCH   1  23
ATOM     23  C   UNL A   1      32.426  30.066  25.584  1.00  0.00     0.275 C 
BRANCH  23  24
ATOM     24  O   UNL A   1      32.710  30.219  26.985  1.00  0.00    -0.458 OA
BRANCH  24  25
ATOM     25  C   UNL A   1      33.398  31.327  27.337  1.00  0.00     0.338 C 
ATOM     26  O   UNL A   1      32.970  32.465  27.441  1.00  0.00    -0.246 OA
BRANCH  25  27
ATOM     27  C   UNL A   1      34.801  30.978  27.648  1.00  0.00     0.060 A 
ATOM     28  C   UNL A   1      35.163  29.646  27.807  1.00  0.00     0.016 A 
ATOM     29  C   UNL A   1      35.707  31.984  27.998  1.00  0.00     0.016 A 
ATOM     30  C   UNL A   1      36.352  29.340  28.472  1.00  0.00     0.010 A 
ATOM     31  C   UNL A   1      36.951  31.654  28.562  1.00  0.00     0.010 A 
ATOM     32  C   UNL A   1      37.264  30.325  28.887  1.00  0.00    -0.014 A 
BRANCH  32  33
ATOM     33  C   UNL A   1      38.448  29.967  29.747  1.00  0.00     0.031 A 
ATOM     34  C   UNL A   1      39.587  29.125  29.198  1.00  0.00     0.074 A 
ATOM     35  C   UNL A   1      38.604  30.469  30.993  1.00  0.00     0.049 A 
ATOM     36  N   UNL A   1      40.570  28.533  29.838  1.00  0.00    -0.248 NA
ATOM     37  C   UNL A   1      39.629  28.918  27.742  1.00  0.00     0.031 C 
ATOM     38  C   UNL A   1      37.688  31.391  31.662  1.00  0.00     0.029 A 
ATOM     39  N   UNL A   1      39.621  30.306  31.908  1.00  0.00    -0.354 N 
ATOM     40  C   UNL A   1      41.298  27.837  28.877  1.00  0.00     0.074 A 
ATOM     41  C   UNL A   1      40.652  28.084  27.605  1.00  0.00     0.031 C 
ATOM     42  C   UNL A   1      38.231  31.799  32.816  1.00  0.00     0.029 A 
ATOM     43  C   UNL A   1      39.443  31.027  33.064  1.00  0.00     0.049 A 
ATOM     44  H   UNL A   1      40.401  29.727  31.749  1.00  0.00     0.167 HD
ATOM     45  C   UNL A   1      42.397  27.059  29.038  1.00  0.00     0.037 A 
ATOM     46  C   UNL A   1      40.112  31.022  34.234  1.00  0.00     0.037 A 
ATOM     47  C   UNL A   1      43.097  26.870  30.284  1.00  0.00     0.049 A 
ATOM     48  C   UNL A   1      41.246  30.060  34.433  1.00  0.00     0.074 A 
ATOM     49  C   UNL A   1      44.199  26.073  30.546  1.00  0.00     0.029 A 
ATOM     50  N   UNL A   1      42.781  27.511  31.471  1.00  0.00    -0.354 N 
ATOM     51  N   UNL A   1      41.814  29.261  33.567  1.00  0.00    -0.248 NA
ATOM     52  C   UNL A   1      41.792  29.958  35.794  1.00  0.00     0.031 C 
ATOM     53  C   UNL A   1      44.525  26.198  31.901  1.00  0.00     0.029 A 
ATOM     54  C   UNL A   1      43.653  27.109  32.472  1.00  0.00     0.049 A 
ATOM     55  H   UNL A   1      42.047  28.157  31.587  1.00  0.00     0.167 HD
ATOM     56  C   UNL A   1      42.776  28.555  34.275  1.00  0.00     0.074 A 
ATOM     57  C   UNL A   1      42.736  29.042  35.637  1.00  0.00     0.031 C 
ATOM     58  C   UNL A   1      43.607  27.581  33.832  1.00  0.00     0.037 A 
BRANCH  45  59
ATOM     59  C   UNL A   1      42.895  26.291  27.847  1.00  0.00     0.064 A 
ATOM     60  C   UNL A   1      42.411  25.018  27.517  1.00  0.00     0.173 A 
ATOM     61  C   UNL A   1      43.827  26.884  26.979  1.00  0.00     0.173 A 
ATOM     62  F   UNL A   1      41.530  24.401  28.318  1.00  0.00    -0.203 F 
ATOM     63  C   UNL A   1      42.851  24.362  26.368  1.00  0.00     0.198 A 
ATOM     64  C   UNL A   1      44.243  26.238  25.819  1.00  0.00     0.198 A 
ATOM     65  F   UNL A   1      44.315  28.105  27.243  1.00  0.00    -0.203 F 
ATOM     66  F   UNL A   1      42.398  23.133  26.085  1.00  0.00    -0.200 F 
ATOM     67  C   UNL A   1      43.758  24.975  25.516  1.00  0.00     0.200 A 
ATOM     68  F   UNL A   1      45.109  26.840  24.991  1.00  0.00    -0.200 F 
ATOM     69  F   UNL A   1      44.166  24.348  24.403  1.00  0.00    -0.200 F 
ENDBRANCH  45  59
BRANCH  46  70
ATOM     70  C   UNL A   1      39.636  31.878  35.354  1.00  0.00     0.064 A 
ATOM     71  C   UNL A   1      40.093  33.192  35.510  1.00  0.00     0.173 A 
ATOM     72  C   UNL A   1      38.692  31.402  36.278  1.00  0.00     0.173 A 
ATOM     73  F   UNL A   1      41.027  33.680  34.680  1.00  0.00    -0.203 F 
ATOM     74  C   UNL A   1      39.611  34.002  36.537  1.00  0.00     0.198 A 
ATOM     75  C   UNL A   1      38.180  32.224  37.276  1.00  0.00     0.198 A 
ATOM     76  F   UNL A   1      38.234  30.143  36.185  1.00  0.00    -0.203 F 
ATOM     77  F   UNL A   1      40.086  35.246  36.686  1.00  0.00    -0.200 F 
ATOM     78  C   UNL A   1      38.642  33.523  37.407  1.00  0.00     0.200 A 
ATOM     79  F   UNL A   1      37.231  31.761  38.100  1.00  0.00    -0.200 F 
ATOM     80  F   UNL A   1      38.158  34.312  38.376  1.00  0.00    -0.200 F 
ENDBRANCH  46  70
BRANCH  58  81
ATOM     81  C   UNL A   1      44.552  26.982  34.828  1.00  0.00     0.064 A 
ATOM     82  C   UNL A   1      45.798  27.566  35.098  1.00  0.00     0.173 A 
ATOM     83  C   UNL A   1      44.208  25.816  35.528  1.00  0.00     0.173 A 
ATOM     84  F   UNL A   1      46.180  28.672  34.440  1.00  0.00    -0.203 F 
ATOM     85  C   UNL A   1      46.675  26.992  36.013  1.00  0.00     0.198 A 
ATOM     86  C   UNL A   1      45.077  25.257  36.462  1.00  0.00     0.198 A 
ATOM     87  F   UNL A   1      43.026  25.219  35.310  1.00  0.00    -0.203 F 
ATOM     88  F   UNL A   1      47.881  27.540  36.219  1.00  0.00    -0.200 F 
ATOM     89  C   UNL A   1      46.313  25.841  36.697  1.00  0.00     0.200 A 
ATOM     90  F   UNL A   1      44.722  24.150  37.128  1.00  0.00    -0.200 F 
ATOM     91  F   UNL A   1      47.160  25.288  37.577  1.00  0.00    -0.200 F 
ENDBRANCH  58  81
ENDBRANCH  32  33
ENDBRANCH  25  27
ENDBRANCH  24  25
ENDBRANCH  23  24
ENDBRANCH   1  23
TORSDOF 14
ENDMDL
MODEL 3
REMARK VINA RESULT:     -12.3      5.033     10.305
REMARK SMILES NS(=O)(=O)c1ccc(N2CCSCC2)c(C(=O)OCCOC(=O)c2ccc(-c3c4nc(c(-c5c(F)c(F)c(F)c(F)c5F)c5ccc([nH]5)c(-c5c(F)c(F)c(F)c(F)c5F)c5nc(c(-c6c(F)c(F)c(F)c(F)c6F)c6ccc3[nH]6)C=C5)C=C4)cc2)c1
REMARK SMILES IDX 19 1 18 2 16 3 17 4 15 5 5 6 6 7 87 8 7 9 8 10 2 11 3 12
REMARK SMILES IDX 4 13 1 14 9 17 10 18 14 19 11 20 13 21 12 22 20 23 21 24
REMARK SMILES IDX 22 25 23 26 24 27 25 28 86 29 26 30 85 31 27 32 28 33 29 34
REMARK SMILES IDX 79 35 30 36 84 37 78 38 80 39 31 40 83 41 77 42 76 43 32 45
REMARK SMILES IDX 64 46 44 47 63 48 45 49 48 50 62 51 81 52 46 53 47 54 61 56
REMARK SMILES IDX 82 57 49 58 33 59 34 60 42 61 35 62 36 63 40 64 43 65 37 66
REMARK SMILES IDX 38 67 41 68 39 69 65 70 66 71 74 72 67 73 68 74 72 75 75 76
REMARK SMILES IDX 69 77 70 78 73 79 71 80 50 81 51 82 59 83 52 84 53 85 57 86
REMARK SMILES IDX 60 87 54 88 55 89 58 90 56 91
REMARK H PARENT 1 15 1 16 80 44 48 55
REMARK Flexibility Score: inf
ROOT
ATOM      1  C   UNL A   1      35.659  22.304  25.994  1.00  0.00     0.275 C 
ENDROOT
BRANCH   1   2
ATOM      2  O   UNL A   1      34.641  21.868  26.920  1.00  0.00    -0.458 OA
BRANCH   2   3
ATOM      3  C   UNL A   1      33.357  22.201  26.621  1.00  0.00     0.340 C 
ATOM      4  O   UNL A   1      32.580  22.799  27.346  1.00  0.00    -0.246 OA
BRANCH   3   5
ATOM      5  C   UNL A   1      32.997  21.631  25.293  1.00  0.00     0.084 A 
ATOM      6  C   UNL A   1      32.582  19.666  23.941  1.00  0.00     0.083 A 
ATOM      7  C   UNL A   1      32.153  20.467  22.885  1.00  0.00     0.024 A 
ATOM      8  C   UNL A   1      32.990  20.233  25.151  1.00  0.00     0.039 A 
ATOM      9  C   UNL A   1      32.162  21.850  23.030  1.00  0.00     0.028 A 
ATOM     10  C   UNL A   1      32.606  22.455  24.216  1.00  0.00     0.051 A 
BRANCH   6  11
ATOM     11  S   UNL A   1      32.651  17.924  23.671  1.00  0.00     0.238 S 
ATOM     12  O   UNL A   1      31.778  17.285  24.626  1.00  0.00    -0.207 OA
ATOM     13  O   UNL A   1      34.033  17.551  23.494  1.00  0.00    -0.207 OA
BRANCH  11  14
ATOM     14  N   UNL A   1      31.911  17.704  22.181  1.00  0.00    -0.225 NA
ATOM     15  H   UNL A   1      32.382  18.274  21.479  1.00  0.00     0.137 HD
ATOM     16  H   UNL A   1      30.931  17.981  22.243  1.00  0.00     0.137 HD
ENDBRANCH  11  14
ENDBRANCH   6  11
BRANCH  10  17
ATOM     17  N   UNL A   1      32.732  23.835  24.242  1.00  0.00    -0.369 N 
ATOM     18  C   UNL A   1      33.880  24.405  23.531  1.00  0.00     0.127 C 
ATOM     19  C   UNL A   1      31.540  24.639  24.528  1.00  0.00     0.127 C 
ATOM     20  C   UNL A   1      33.513  25.122  22.236  1.00  0.00     0.091 C 
ATOM     21  C   UNL A   1      31.000  25.381  23.302  1.00  0.00     0.091 C 
ATOM     22  S   UNL A   1      32.256  26.417  22.481  1.00  0.00    -0.158 SA
ENDBRANCH  10  17
ENDBRANCH   3   5
ENDBRANCH   2   3
ENDBRANCH   1   2
BRANCH   1  23
ATOM     23  C   UNL A   1      36.526  21.134  25.535  1.00  0.00     0.275 C 
BRANCH  23  24
ATOM     24  O   UNL A   1      37.769  21.639  25.017  1.00  0.00    -0.458 OA
BRANCH  24  25
ATOM     25  C   UNL A   1      38.872  21.377  25.751  1.00  0.00     0.338 C 
ATOM     26  O   UNL A   1      39.506  20.335  25.790  1.00  0.00    -0.246 OA
BRANCH  25  27
ATOM     27  C   UNL A   1      39.278  22.581  26.508  1.00  0.00     0.060 A 
ATOM     28  C   UNL A   1      38.742  23.818  26.178  1.00  0.00     0.016 A 
ATOM     29  C   UNL A   1      40.354  22.511  27.398  1.00  0.00     0.016 A 
ATOM     30  C   UNL A   1      39.395  24.977  26.603  1.00  0.00     0.010 A 
ATOM     31  C   UNL A   1      40.929  23.688  27.909  1.00  0.00     0.010 A 
ATOM     32  C   UNL A   1      40.512  24.948  27.455  1.00  0.00    -0.014 A 
BRANCH  32  33
ATOM     33  C   UNL A   1      41.287  26.205  27.755  1.00  0.00     0.031 A 
ATOM     34  C   UNL A   1      40.718  27.277  28.669  1.00  0.00     0.074 A 
ATOM     35  C   UNL A   1      42.556  26.381  27.322  1.00  0.00     0.049 A 
ATOM     36  N   UNL A   1      41.128  28.509  28.866  1.00  0.00    -0.248 NA
ATOM     37  C   UNL A   1      39.531  26.921  29.464  1.00  0.00     0.031 C 
ATOM     38  C   UNL A   1      43.330  25.424  26.534  1.00  0.00     0.029 A 
ATOM     39  N   UNL A   1      43.439  27.420  27.523  1.00  0.00    -0.354 N 
ATOM     40  C   UNL A   1      40.219  29.086  29.748  1.00  0.00     0.074 A 
ATOM     41  C   UNL A   1      39.235  28.071  30.057  1.00  0.00     0.031 C 
ATOM     42  C   UNL A   1      44.591  25.859  26.419  1.00  0.00     0.029 A 
ATOM     43  C   UNL A   1      44.673  27.211  26.957  1.00  0.00     0.049 A 
ATOM     44  H   UNL A   1      43.208  28.234  28.026  1.00  0.00     0.167 HD
ATOM     45  C   UNL A   1      40.199  30.347  30.248  1.00  0.00     0.037 A 
ATOM     46  C   UNL A   1      45.735  28.026  26.799  1.00  0.00     0.037 A 
ATOM     47  C   UNL A   1      41.215  31.342  30.012  1.00  0.00     0.049 A 
ATOM     48  C   UNL A   1      45.642  29.456  27.246  1.00  0.00     0.074 A 
ATOM     49  C   UNL A   1      41.259  32.656  30.451  1.00  0.00     0.029 A 
ATOM     50  N   UNL A   1      42.382  31.125  29.298  1.00  0.00    -0.354 N 
ATOM     51  N   UNL A   1      44.693  30.051  27.920  1.00  0.00    -0.248 NA
ATOM     52  C   UNL A   1      46.749  30.341  26.855  1.00  0.00     0.031 C 
ATOM     53  C   UNL A   1      42.431  33.246  29.967  1.00  0.00     0.029 A 
ATOM     54  C   UNL A   1      43.141  32.286  29.265  1.00  0.00     0.049 A 
ATOM     55  H   UNL A   1      42.636  30.272  28.877  1.00  0.00     0.167 HD
ATOM     56  C   UNL A   1      45.079  31.380  28.027  1.00  0.00     0.074 A 
ATOM     57  C   UNL A   1      46.365  31.498  27.375  1.00  0.00     0.031 C 
ATOM     58  C   UNL A   1      44.414  32.410  28.605  1.00  0.00     0.037 A 
BRANCH  45  59
ATOM     59  C   UNL A   1      39.007  30.762  31.063  1.00  0.00     0.064 A 
ATOM     60  C   UNL A   1      38.980  30.658  32.460  1.00  0.00     0.173 A 
ATOM     61  C   UNL A   1      37.899  31.345  30.425  1.00  0.00     0.173 A 
ATOM     62  F   UNL A   1      40.005  30.097  33.117  1.00  0.00    -0.203 F 
ATOM     63  C   UNL A   1      37.880  31.112  33.188  1.00  0.00     0.198 A 
ATOM     64  C   UNL A   1      36.816  31.822  31.157  1.00  0.00     0.198 A 
ATOM     65  F   UNL A   1      37.880  31.477  29.091  1.00  0.00    -0.203 F 
ATOM     66  F   UNL A   1      37.860  30.977  34.521  1.00  0.00    -0.200 F 
ATOM     67  C   UNL A   1      36.805  31.702  32.539  1.00  0.00     0.200 A 
ATOM     68  F   UNL A   1      35.786  32.404  30.527  1.00  0.00    -0.200 F 
ATOM     69  F   UNL A   1      35.758  32.152  33.243  1.00  0.00    -0.200 F 
ENDBRANCH  45  59
BRANCH  46  70
ATOM     70  C   UNL A   1      46.934  27.534  26.068  1.00  0.00     0.064 A 
ATOM     71  C   UNL A   1      47.043  27.663  24.679  1.00  0.00     0.173 A 
ATOM     72  C   UNL A   1      48.009  26.947  26.756  1.00  0.00     0.173 A 
ATOM     73  F   UNL A   1      46.026  28.177  23.971  1.00  0.00    -0.203 F 
ATOM     74  C   UNL A   1      48.188  27.239  24.007  1.00  0.00     0.198 A 
ATOM     75  C   UNL A   1      49.168  26.563  26.089  1.00  0.00     0.198 A 
ATOM     76  F   UNL A   1      47.948  26.783  28.086  1.00  0.00    -0.203 F 
ATOM     77  F   UNL A   1      48.257  27.342  22.672  1.00  0.00    -0.200 F 
ATOM     78  C   UNL A   1      49.256  26.705  24.715  1.00  0.00     0.200 A 
ATOM     79  F   UNL A   1      50.202  26.068  26.782  1.00  0.00    -0.200 F 
ATOM     80  F   UNL A   1      50.367  26.325  24.071  1.00  0.00    -0.200 F 
ENDBRANCH  46  70
BRANCH  58  81
ATOM     81  C   UNL A   1      45.071  33.755  28.568  1.00  0.00     0.064 A 
ATOM     82  C   UNL A   1      44.793  34.678  27.549  1.00  0.00     0.173 A 
ATOM     83  C   UNL A   1      45.983  34.133  29.565  1.00  0.00     0.173 A 
ATOM     84  F   UNL A   1      43.942  34.356  26.562  1.00  0.00    -0.203 F 
ATOM     85  C   UNL A   1      45.423  35.919  27.515  1.00  0.00     0.198 A 
ATOM     86  C   UNL A   1      46.592  35.385  29.542  1.00  0.00     0.198 A 
ATOM     87  F   UNL A   1      46.281  33.289  30.564  1.00  0.00    -0.203 F 
ATOM     88  F   UNL A   1      45.178  36.766  26.505  1.00  0.00    -0.200 F 
ATOM     89  C   UNL A   1      46.317  36.274  28.513  1.00  0.00     0.200 A 
ATOM     90  F   UNL A   1      47.451  35.730  30.512  1.00  0.00    -0.200 F 
ATOM     91  F   UNL A   1      46.924  37.468  28.478  1.00  0.00    -0.200 F 
ENDBRANCH  58  81
ENDBRANCH  32  33
ENDBRANCH  25  27
ENDBRANCH  24  25
ENDBRANCH  23  24
ENDBRANCH   1  23
TORSDOF 14
ENDMDL
