MODEL 1
REMARK VINA RESULT:     -13.2      0.000      0.000
REMARK SMILES NS(=O)(=O)c1ccc(-n2nc(C(=O)OCCOC(=O)c3ccc(-c4c5nc(c(-c6c(F)c(F)c(F)c(F)c6F)c6ccc([nH]6)c(-c6c(F)c(F)c(F)c(F)c6F)c6nc(c(-c7c(F)c(F)c(F)c(F)c7F)c7ccc4[nH]7)C=C6)C=C5)cc3)c(Cl)c2-c2ccc(Cl)cc2)cc1
REMARK SMILES IDX 15 1 14 2 12 3 13 4 11 5 9 6 10 7 85 8 83 9 84 10 8 11 5 12
REMARK SMILES IDX 6 13 94 14 7 15 93 16 2 17 3 18 4 19 1 20 86 23 87 24 92 25
REMARK SMILES IDX 88 26 91 27 89 28 90 29 16 30 17 31 18 32 19 33 20 34 21 35
REMARK SMILES IDX 82 36 22 37 81 38 23 39 24 40 25 41 75 42 26 43 80 44 74 45
REMARK SMILES IDX 76 46 27 47 79 48 73 49 72 50 28 52 60 53 40 54 59 55 41 56
REMARK SMILES IDX 44 57 58 58 77 59 42 60 43 61 57 63 78 64 45 65 29 66 30 67
REMARK SMILES IDX 38 68 31 69 32 70 36 71 39 72 33 73 34 74 37 75 35 76 61 77
REMARK SMILES IDX 62 78 70 79 63 80 64 81 68 82 71 83 65 84 66 85 69 86 67 87
REMARK SMILES IDX 46 88 47 89 55 90 48 91 49 92 53 93 56 94 50 95 51 96 54 97
REMARK SMILES IDX 52 98
REMARK H PARENT 1 21 1 22 76 51 44 62
REMARK Flexibility Score: inf
ROOT
ATOM      1  C   UNL A   1      41.865  19.540  26.160  1.00  0.00     0.275 C 
ENDROOT
BRANCH   1   2
ATOM      2  O   UNL A   1      41.304  20.760  25.659  1.00  0.00    -0.457 OA
BRANCH   2   3
ATOM      3  C   UNL A   1      40.619  21.590  26.503  1.00  0.00     0.360 C 
ATOM      4  O   UNL A   1      41.144  22.197  27.430  1.00  0.00    -0.244 OA
BRANCH   3   5
ATOM      5  C   UNL A   1      39.186  21.653  26.156  1.00  0.00     0.190 A 
ATOM      6  N   UNL A   1      37.232  21.030  25.522  1.00  0.00    -0.231 N 
ATOM      7  N   UNL A   1      38.408  20.554  26.001  1.00  0.00    -0.159 NA
ATOM      8  C   UNL A   1      37.224  22.407  25.403  1.00  0.00     0.094 A 
ATOM      9  C   UNL A   1      38.428  22.828  25.922  1.00  0.00     0.102 A 
ATOM     10  Cl  UNL A   1      38.894  24.461  26.120  1.00  0.00    -0.079 Cl
BRANCH   6  11
ATOM     11  C   UNL A   1      36.238  20.152  25.027  1.00  0.00     0.065 A 
ATOM     12  C   UNL A   1      34.203  18.348  24.456  1.00  0.00     0.082 A 
ATOM     13  C   UNL A   1      35.539  17.924  24.402  1.00  0.00     0.024 A 
ATOM     14  C   UNL A   1      33.886  19.678  24.743  1.00  0.00     0.024 A 
ATOM     15  C   UNL A   1      36.570  18.838  24.668  1.00  0.00     0.030 A 
ATOM     16  C   UNL A   1      34.905  20.577  25.045  1.00  0.00     0.030 A 
BRANCH  12  17
ATOM     17  S   UNL A   1      32.880  17.194  24.230  1.00  0.00     0.238 S 
ATOM     18  O   UNL A   1      31.799  17.534  25.130  1.00  0.00    -0.207 OA
ATOM     19  O   UNL A   1      33.438  15.867  24.157  1.00  0.00    -0.207 OA
BRANCH  17  20
ATOM     20  N   UNL A   1      32.292  17.548  22.699  1.00  0.00    -0.225 NA
ATOM     21  H   UNL A   1      32.579  18.490  22.434  1.00  0.00     0.137 HD
ATOM     22  H   UNL A   1      31.274  17.493  22.705  1.00  0.00     0.137 HD
ENDBRANCH  17  20
ENDBRANCH  12  17
ENDBRANCH   6  11
BRANCH   8  23
ATOM     23  C   UNL A   1      36.166  23.238  24.844  1.00  0.00     0.002 A 
ATOM     24  C   UNL A   1      35.374  23.984  25.732  1.00  0.00     0.012 A 
ATOM     25  C   UNL A   1      35.838  23.202  23.487  1.00  0.00     0.012 A 
ATOM     26  C   UNL A   1      34.236  24.646  25.280  1.00  0.00     0.021 A 
ATOM     27  C   UNL A   1      34.699  23.874  23.033  1.00  0.00     0.021 A 
ATOM     28  C   UNL A   1      33.897  24.576  23.932  1.00  0.00     0.041 A 
ATOM     29  Cl  UNL A   1      32.456  25.339  23.385  1.00  0.00    -0.084 Cl
ENDBRANCH   8  23
ENDBRANCH   3   5
ENDBRANCH   2   3
ENDBRANCH   1   2
BRANCH   1  30
ATOM     30  C   UNL A   1      43.261  19.329  25.604  1.00  0.00     0.275 C 
BRANCH  30  31
ATOM     31  O   UNL A   1      43.624  20.424  24.769  1.00  0.00    -0.458 OA
BRANCH  31  32
ATOM     32  C   UNL A   1      44.901  20.848  24.875  1.00  0.00     0.338 C 
ATOM     33  O   UNL A   1      45.913  20.169  24.875  1.00  0.00    -0.246 OA
BRANCH  32  34
ATOM     34  C   UNL A   1      44.877  22.272  25.208  1.00  0.00     0.060 A 
ATOM     35  C   UNL A   1      45.721  22.720  26.227  1.00  0.00     0.016 A 
ATOM     36  C   UNL A   1      43.838  23.066  24.698  1.00  0.00     0.016 A 
ATOM     37  C   UNL A   1      45.412  23.910  26.848  1.00  0.00     0.010 A 
ATOM     38  C   UNL A   1      43.522  24.242  25.328  1.00  0.00     0.010 A 
ATOM     39  C   UNL A   1      44.269  24.612  26.439  1.00  0.00    -0.014 A 
BRANCH  39  40
ATOM     40  C   UNL A   1      43.929  25.832  27.131  1.00  0.00     0.031 A 
ATOM     41  C   UNL A   1      44.853  26.942  26.817  1.00  0.00     0.074 A 
ATOM     42  C   UNL A   1      42.824  25.964  27.885  1.00  0.00     0.049 A 
ATOM     43  N   UNL A   1      45.716  27.482  27.607  1.00  0.00    -0.248 NA
ATOM     44  C   UNL A   1      44.949  27.385  25.418  1.00  0.00     0.031 C 
ATOM     45  C   UNL A   1      41.692  25.046  28.028  1.00  0.00     0.029 A 
ATOM     46  N   UNL A   1      42.451  27.028  28.642  1.00  0.00    -0.354 N 
ATOM     47  C   UNL A   1      46.346  28.466  26.855  1.00  0.00     0.074 A 
ATOM     48  C   UNL A   1      45.965  28.244  25.485  1.00  0.00     0.031 C 
ATOM     49  C   UNL A   1      40.672  25.690  28.646  1.00  0.00     0.029 A 
ATOM     50  C   UNL A   1      41.130  27.006  29.062  1.00  0.00     0.049 A 
ATOM     51  H   UNL A   1      43.070  27.758  28.874  1.00  0.00     0.167 HD
ATOM     52  C   UNL A   1      46.930  29.533  27.461  1.00  0.00     0.037 A 
ATOM     53  C   UNL A   1      40.469  28.035  29.648  1.00  0.00     0.037 A 
ATOM     54  C   UNL A   1      47.162  29.275  28.860  1.00  0.00     0.049 A 
ATOM     55  C   UNL A   1      41.495  28.964  30.194  1.00  0.00     0.074 A 
ATOM     56  C   UNL A   1      47.918  28.356  29.562  1.00  0.00     0.029 A 
ATOM     57  N   UNL A   1      46.255  29.778  29.760  1.00  0.00    -0.354 N 
ATOM     58  N   UNL A   1      42.280  28.669  31.192  1.00  0.00    -0.248 NA
ATOM     59  C   UNL A   1      41.962  30.038  29.329  1.00  0.00     0.031 C 
ATOM     60  C   UNL A   1      47.126  28.014  30.698  1.00  0.00     0.029 A 
ATOM     61  C   UNL A   1      45.963  28.785  30.659  1.00  0.00     0.049 A 
ATOM     62  H   UNL A   1      45.882  30.689  29.761  1.00  0.00     0.167 HD
ATOM     63  C   UNL A   1      43.514  29.195  30.837  1.00  0.00     0.074 A 
ATOM     64  C   UNL A   1      43.237  30.097  29.722  1.00  0.00     0.031 C 
ATOM     65  C   UNL A   1      44.672  28.631  31.289  1.00  0.00     0.037 A 
BRANCH  52  66
ATOM     66  C   UNL A   1      46.921  30.927  26.891  1.00  0.00     0.064 A 
ATOM     67  C   UNL A   1      48.119  31.666  26.882  1.00  0.00     0.173 A 
ATOM     68  C   UNL A   1      45.744  31.666  26.646  1.00  0.00     0.173 A 
ATOM     69  F   UNL A   1      49.294  31.065  27.125  1.00  0.00    -0.203 F 
ATOM     70  C   UNL A   1      48.125  33.053  26.720  1.00  0.00     0.198 A 
ATOM     71  C   UNL A   1      45.760  33.042  26.429  1.00  0.00     0.198 A 
ATOM     72  F   UNL A   1      44.525  31.121  26.724  1.00  0.00    -0.203 F 
ATOM     73  F   UNL A   1      49.273  33.731  26.851  1.00  0.00    -0.200 F 
ATOM     74  C   UNL A   1      46.946  33.740  26.500  1.00  0.00     0.200 A 
ATOM     75  F   UNL A   1      44.603  33.691  26.240  1.00  0.00    -0.200 F 
ATOM     76  F   UNL A   1      46.942  35.076  26.410  1.00  0.00    -0.200 F 
ENDBRANCH  52  66
BRANCH  53  77
ATOM     77  C   UNL A   1      39.059  28.449  29.445  1.00  0.00     0.064 A 
ATOM     78  C   UNL A   1      38.204  28.660  30.540  1.00  0.00     0.173 A 
ATOM     79  C   UNL A   1      38.612  28.931  28.200  1.00  0.00     0.173 A 
ATOM     80  F   UNL A   1      38.577  28.276  31.769  1.00  0.00    -0.203 F 
ATOM     81  C   UNL A   1      36.988  29.338  30.401  1.00  0.00     0.198 A 
ATOM     82  C   UNL A   1      37.396  29.603  28.061  1.00  0.00     0.198 A 
ATOM     83  F   UNL A   1      39.389  28.850  27.110  1.00  0.00    -0.203 F 
ATOM     84  F   UNL A   1      36.229  29.578  31.480  1.00  0.00    -0.200 F 
ATOM     85  C   UNL A   1      36.591  29.819  29.165  1.00  0.00     0.200 A 
ATOM     86  F   UNL A   1      37.043  30.098  26.867  1.00  0.00    -0.200 F 
ATOM     87  F   UNL A   1      35.458  30.525  29.043  1.00  0.00    -0.200 F 
ENDBRANCH  53  77
BRANCH  65  88
ATOM     88  C   UNL A   1      44.569  27.606  32.384  1.00  0.00     0.064 A 
ATOM     89  C   UNL A   1      44.374  26.230  32.165  1.00  0.00     0.173 A 
ATOM     90  C   UNL A   1      44.813  28.019  33.701  1.00  0.00     0.173 A 
ATOM     91  F   UNL A   1      44.235  25.740  30.927  1.00  0.00    -0.203 F 
ATOM     92  C   UNL A   1      44.379  25.321  33.223  1.00  0.00     0.198 A 
ATOM     93  C   UNL A   1      44.856  27.105  34.750  1.00  0.00     0.198 A 
ATOM     94  F   UNL A   1      45.059  29.312  33.963  1.00  0.00    -0.203 F 
ATOM     95  F   UNL A   1      44.177  24.016  32.991  1.00  0.00    -0.200 F 
ATOM     96  C   UNL A   1      44.627  25.759  34.513  1.00  0.00     0.200 A 
ATOM     97  F   UNL A   1      45.146  27.528  35.988  1.00  0.00    -0.200 F 
ATOM     98  F   UNL A   1      44.673  24.882  35.526  1.00  0.00    -0.200 F 
ENDBRANCH  65  88
ENDBRANCH  39  40
ENDBRANCH  32  34
ENDBRANCH  31  32
ENDBRANCH  30  31
ENDBRANCH   1  30
TORSDOF 15
ENDMDL
MODEL 2
REMARK VINA RESULT:     -12.9      4.415      8.502
REMARK SMILES NS(=O)(=O)c1ccc(-n2nc(C(=O)OCCOC(=O)c3ccc(-c4c5nc(c(-c6c(F)c(F)c(F)c(F)c6F)c6ccc([nH]6)c(-c6c(F)c(F)c(F)c(F)c6F)c6nc(c(-c7c(F)c(F)c(F)c(F)c7F)c7ccc4[nH]7)C=C6)C=C5)cc3)c(Cl)c2-c2ccc(Cl)cc2)cc1
REMARK SMILES IDX 15 1 14 2 12 3 13 4 11 5 9 6 10 7 85 8 83 9 84 10 8 11 5 12
REMARK SMILES IDX 6 13 94 14 7 15 93 16 2 17 3 18 4 19 1 20 86 23 87 24 92 25
REMARK SMILES IDX 88 26 91 27 89 28 90 29 16 30 17 31 18 32 19 33 20 34 21 35
REMARK SMILES IDX 82 36 22 37 81 38 23 39 24 40 25 41 75 42 26 43 80 44 74 45
REMARK SMILES IDX 76 46 27 47 79 48 73 49 72 50 28 52 60 53 40 54 59 55 41 56
REMARK SMILES IDX 44 57 58 58 77 59 42 60 43 61 57 63 78 64 45 65 29 66 30 67
REMARK SMILES IDX 38 68 31 69 32 70 36 71 39 72 33 73 34 74 37 75 35 76 61 77
REMARK SMILES IDX 62 78 70 79 63 80 64 81 68 82 71 83 65 84 66 85 69 86 67 87
REMARK SMILES IDX 46 88 47 89 55 90 48 91 49 92 53 93 56 94 50 95 51 96 54 97
REMARK SMILES IDX 52 98
REMARK H PARENT 1 21 1 22 76 51 44 62
REMARK Flexibility Score: inf
ROOT
ATOM      1  C   UNL A   1      34.821  21.903  24.168  1.00  0.00     0.275 C 
ENDROOT
BRANCH   1   2
ATOM      2  O   UNL A   1      33.527  22.450  24.454  1.00  0.00    -0.457 OA
BRANCH   2   3
ATOM      3  C   UNL A   1      32.804  23.040  23.454  1.00  0.00     0.360 C 
ATOM      4  O   UNL A   1      32.607  22.520  22.361  1.00  0.00    -0.244 OA
BRANCH   3   5
ATOM      5  C   UNL A   1      32.304  24.368  23.859  1.00  0.00     0.190 A 
ATOM      6  N   UNL A   1      31.251  26.238  23.787  1.00  0.00    -0.231 N 
ATOM      7  N   UNL A   1      31.277  24.998  23.236  1.00  0.00    -0.159 NA
ATOM      8  C   UNL A   1      32.208  26.403  24.770  1.00  0.00     0.094 A 
ATOM      9  C   UNL A   1      32.808  25.173  24.910  1.00  0.00     0.102 A 
ATOM     10  Cl  UNL A   1      33.998  24.789  26.077  1.00  0.00    -0.079 Cl
BRANCH   6  11
ATOM     11  C   UNL A   1      30.448  27.263  23.233  1.00  0.00     0.065 A 
ATOM     12  C   UNL A   1      28.998  29.507  22.467  1.00  0.00     0.082 A 
ATOM     13  C   UNL A   1      28.354  28.468  23.155  1.00  0.00     0.024 A 
ATOM     14  C   UNL A   1      30.346  29.404  22.118  1.00  0.00     0.024 A 
ATOM     15  C   UNL A   1      29.078  27.324  23.524  1.00  0.00     0.030 A 
ATOM     16  C   UNL A   1      31.077  28.288  22.516  1.00  0.00     0.030 A 
BRANCH  12  17
ATOM     17  S   UNL A   1      28.138  31.006  22.084  1.00  0.00     0.238 S 
ATOM     18  O   UNL A   1      27.258  31.339  23.183  1.00  0.00    -0.207 OA
ATOM     19  O   UNL A   1      27.680  30.934  20.719  1.00  0.00    -0.207 OA
BRANCH  17  20
ATOM     20  N   UNL A   1      29.337  32.180  22.122  1.00  0.00    -0.225 NA
ATOM     21  H   UNL A   1      30.172  31.799  22.566  1.00  0.00     0.137 HD
ATOM     22  H   UNL A   1      29.007  32.985  22.654  1.00  0.00     0.137 HD
ENDBRANCH  17  20
ENDBRANCH  12  17
ENDBRANCH   6  11
BRANCH   8  23
ATOM     23  C   UNL A   1      32.518  27.625  25.502  1.00  0.00     0.002 A 
ATOM     24  C   UNL A   1      33.748  28.253  25.247  1.00  0.00     0.012 A 
ATOM     25  C   UNL A   1      31.698  28.098  26.529  1.00  0.00     0.012 A 
ATOM     26  C   UNL A   1      34.181  29.309  26.042  1.00  0.00     0.021 A 
ATOM     27  C   UNL A   1      32.131  29.165  27.322  1.00  0.00     0.021 A 
ATOM     28  C   UNL A   1      33.374  29.753  27.086  1.00  0.00     0.041 A 
ATOM     29  Cl  UNL A   1      33.937  31.014  28.110  1.00  0.00    -0.084 Cl
ENDBRANCH   8  23
ENDBRANCH   3   5
ENDBRANCH   2   3
ENDBRANCH   1   2
BRANCH   1  30
ATOM     30  C   UNL A   1      35.166  20.807  25.160  1.00  0.00     0.275 C 
BRANCH  30  31
ATOM     31  O   UNL A   1      36.326  21.168  25.902  1.00  0.00    -0.458 OA
BRANCH  31  32
ATOM     32  C   UNL A   1      37.503  20.737  25.400  1.00  0.00     0.338 C 
ATOM     33  O   UNL A   1      37.751  19.648  24.914  1.00  0.00    -0.246 OA
BRANCH  32  34
ATOM     34  C   UNL A   1      38.523  21.733  25.729  1.00  0.00     0.060 A 
ATOM     35  C   UNL A   1      39.735  21.279  26.253  1.00  0.00     0.016 A 
ATOM     36  C   UNL A   1      38.157  23.088  25.764  1.00  0.00     0.016 A 
ATOM     37  C   UNL A   1      40.509  22.171  26.964  1.00  0.00     0.010 A 
ATOM     38  C   UNL A   1      38.919  23.970  26.486  1.00  0.00     0.010 A 
ATOM     39  C   UNL A   1      40.046  23.483  27.135  1.00  0.00    -0.014 A 
BRANCH  39  40
ATOM     40  C   UNL A   1      40.841  24.394  27.924  1.00  0.00     0.031 A 
ATOM     41  C   UNL A   1      40.179  25.700  28.126  1.00  0.00     0.074 A 
ATOM     42  C   UNL A   1      42.001  24.041  28.504  1.00  0.00     0.049 A 
ATOM     43  N   UNL A   1      40.528  26.834  27.622  1.00  0.00    -0.248 NA
ATOM     44  C   UNL A   1      38.885  25.718  28.825  1.00  0.00     0.031 C 
ATOM     45  C   UNL A   1      42.603  22.712  28.627  1.00  0.00     0.029 A 
ATOM     46  N   UNL A   1      42.866  24.832  29.191  1.00  0.00    -0.354 N 
ATOM     47  C   UNL A   1      39.596  27.753  28.090  1.00  0.00     0.074 A 
ATOM     48  C   UNL A   1      38.522  26.990  28.671  1.00  0.00     0.031 C 
ATOM     49  C   UNL A   1      43.614  22.762  29.528  1.00  0.00     0.029 A 
ATOM     50  C   UNL A   1      43.816  24.144  29.931  1.00  0.00     0.049 A 
ATOM     51  H   UNL A   1      42.821  25.815  29.167  1.00  0.00     0.167 HD
ATOM     52  C   UNL A   1      39.911  29.072  28.182  1.00  0.00     0.037 A 
ATOM     53  C   UNL A   1      44.650  24.691  30.850  1.00  0.00     0.037 A 
ATOM     54  C   UNL A   1      41.066  29.389  27.380  1.00  0.00     0.049 A 
ATOM     55  C   UNL A   1      44.717  26.151  30.572  1.00  0.00     0.074 A 
ATOM     56  C   UNL A   1      41.353  29.328  26.030  1.00  0.00     0.029 A 
ATOM     57  N   UNL A   1      42.280  29.475  28.016  1.00  0.00    -0.354 N 
ATOM     58  N   UNL A   1      45.270  26.661  29.507  1.00  0.00    -0.248 NA
ATOM     59  C   UNL A   1      43.755  27.011  31.247  1.00  0.00     0.031 C 
ATOM     60  C   UNL A   1      42.713  28.903  25.958  1.00  0.00     0.029 A 
ATOM     61  C   UNL A   1      43.197  28.789  27.262  1.00  0.00     0.049 A 
ATOM     62  H   UNL A   1      42.459  29.945  28.862  1.00  0.00     0.167 HD
ATOM     63  C   UNL A   1      44.426  27.696  29.132  1.00  0.00     0.074 A 
ATOM     64  C   UNL A   1      43.559  27.918  30.286  1.00  0.00     0.031 C 
ATOM     65  C   UNL A   1      44.320  28.076  27.825  1.00  0.00     0.037 A 
BRANCH  52  66
ATOM     66  C   UNL A   1      39.428  29.972  29.288  1.00  0.00     0.064 A 
ATOM     67  C   UNL A   1      39.870  29.732  30.603  1.00  0.00     0.173 A 
ATOM     68  C   UNL A   1      38.327  30.846  29.162  1.00  0.00     0.173 A 
ATOM     69  F   UNL A   1      40.896  28.900  30.837  1.00  0.00    -0.203 F 
ATOM     70  C   UNL A   1      39.206  30.265  31.709  1.00  0.00     0.198 A 
ATOM     71  C   UNL A   1      37.702  31.421  30.267  1.00  0.00     0.198 A 
ATOM     72  F   UNL A   1      37.733  31.088  27.988  1.00  0.00    -0.203 F 
ATOM     73  F   UNL A   1      39.579  29.903  32.944  1.00  0.00    -0.200 F 
ATOM     74  C   UNL A   1      38.119  31.103  31.541  1.00  0.00     0.200 A 
ATOM     75  F   UNL A   1      36.637  32.213  30.081  1.00  0.00    -0.200 F 
ATOM     76  F   UNL A   1      37.442  31.563  32.601  1.00  0.00    -0.200 F 
ENDBRANCH  52  66
BRANCH  53  77
ATOM     77  C   UNL A   1      45.086  24.116  32.145  1.00  0.00     0.064 A 
ATOM     78  C   UNL A   1      46.260  24.562  32.776  1.00  0.00     0.173 A 
ATOM     79  C   UNL A   1      44.212  23.337  32.929  1.00  0.00     0.173 A 
ATOM     80  F   UNL A   1      47.121  25.349  32.115  1.00  0.00    -0.203 F 
ATOM     81  C   UNL A   1      46.528  24.271  34.118  1.00  0.00     0.198 A 
ATOM     82  C   UNL A   1      44.484  23.043  34.266  1.00  0.00     0.198 A 
ATOM     83  F   UNL A   1      43.030  22.930  32.445  1.00  0.00    -0.203 F 
ATOM     84  F   UNL A   1      47.626  24.769  34.704  1.00  0.00    -0.200 F 
ATOM     85  C   UNL A   1      45.635  23.522  34.865  1.00  0.00     0.200 A 
ATOM     86  F   UNL A   1      43.592  22.350  34.989  1.00  0.00    -0.200 F 
ATOM     87  F   UNL A   1      45.859  23.298  36.167  1.00  0.00    -0.200 F 
ENDBRANCH  53  77
BRANCH  65  88
ATOM     88  C   UNL A   1      45.332  27.531  26.855  1.00  0.00     0.064 A 
ATOM     89  C   UNL A   1      46.615  28.073  26.661  1.00  0.00     0.173 A 
ATOM     90  C   UNL A   1      45.035  26.329  26.198  1.00  0.00     0.173 A 
ATOM     91  F   UNL A   1      47.013  29.163  27.328  1.00  0.00    -0.203 F 
ATOM     92  C   UNL A   1      47.537  27.462  25.811  1.00  0.00     0.198 A 
ATOM     93  C   UNL A   1      45.971  25.701  25.381  1.00  0.00     0.198 A 
ATOM     94  F   UNL A   1      43.847  25.736  26.388  1.00  0.00    -0.203 F 
ATOM     95  F   UNL A   1      48.750  28.007  25.630  1.00  0.00    -0.200 F 
ATOM     96  C   UNL A   1      47.217  26.273  25.178  1.00  0.00     0.200 A 
ATOM     97  F   UNL A   1      45.674  24.525  24.812  1.00  0.00    -0.200 F 
ATOM     98  F   UNL A   1      48.117  25.663  24.394  1.00  0.00    -0.200 F 
ENDBRANCH  65  88
ENDBRANCH  39  40
ENDBRANCH  32  34
ENDBRANCH  31  32
ENDBRANCH  30  31
ENDBRANCH   1  30
TORSDOF 15
ENDMDL
MODEL 3
REMARK VINA RESULT:     -12.8      3.966      5.618
REMARK SMILES NS(=O)(=O)c1ccc(-n2nc(C(=O)OCCOC(=O)c3ccc(-c4c5nc(c(-c6c(F)c(F)c(F)c(F)c6F)c6ccc([nH]6)c(-c6c(F)c(F)c(F)c(F)c6F)c6nc(c(-c7c(F)c(F)c(F)c(F)c7F)c7ccc4[nH]7)C=C6)C=C5)cc3)c(Cl)c2-c2ccc(Cl)cc2)cc1
REMARK SMILES IDX 15 1 14 2 12 3 13 4 11 5 9 6 10 7 85 8 83 9 84 10 8 11 5 12
REMARK SMILES IDX 6 13 94 14 7 15 93 16 2 17 3 18 4 19 1 20 86 23 87 24 92 25
REMARK SMILES IDX 88 26 91 27 89 28 90 29 16 30 17 31 18 32 19 33 20 34 21 35
REMARK SMILES IDX 82 36 22 37 81 38 23 39 24 40 25 41 75 42 26 43 80 44 74 45
REMARK SMILES IDX 76 46 27 47 79 48 73 49 72 50 28 52 60 53 40 54 59 55 41 56
REMARK SMILES IDX 44 57 58 58 77 59 42 60 43 61 57 63 78 64 45 65 29 66 30 67
REMARK SMILES IDX 38 68 31 69 32 70 36 71 39 72 33 73 34 74 37 75 35 76 61 77
REMARK SMILES IDX 62 78 70 79 63 80 64 81 68 82 71 83 65 84 66 85 69 86 67 87
REMARK SMILES IDX 46 88 47 89 55 90 48 91 49 92 53 93 56 94 50 95 51 96 54 97
REMARK SMILES IDX 52 98
REMARK H PARENT 1 21 1 22 76 51 44 62
REMARK Flexibility Score: inf
ROOT
ATOM      1  C   UNL A   1      36.262  21.947  24.295  1.00  0.00     0.275 C 
ENDROOT
BRANCH   1   2
ATOM      2  O   UNL A   1      35.024  21.896  25.016  1.00  0.00    -0.457 OA
BRANCH   2   3
ATOM      3  C   UNL A   1      33.842  22.073  24.351  1.00  0.00     0.360 C 
ATOM      4  O   UNL A   1      33.372  21.248  23.575  1.00  0.00    -0.244 OA
BRANCH   3   5
ATOM      5  C   UNL A   1      33.221  23.369  24.685  1.00  0.00     0.190 A 
ATOM      6  N   UNL A   1      31.984  25.116  24.524  1.00  0.00    -0.231 N 
ATOM      7  N   UNL A   1      32.122  23.851  24.055  1.00  0.00    -0.159 NA
ATOM      8  C   UNL A   1      32.943  25.442  25.464  1.00  0.00     0.094 A 
ATOM      9  C   UNL A   1      33.668  24.289  25.665  1.00  0.00     0.102 A 
ATOM     10  Cl  UNL A   1      34.919  24.104  26.817  1.00  0.00    -0.079 Cl
BRANCH   6  11
ATOM     11  C   UNL A   1      31.068  26.017  23.930  1.00  0.00     0.065 A 
ATOM     12  C   UNL A   1      29.379  28.048  23.069  1.00  0.00     0.082 A 
ATOM     13  C   UNL A   1      28.859  26.992  23.831  1.00  0.00     0.024 A 
ATOM     14  C   UNL A   1      30.724  28.065  22.694  1.00  0.00     0.024 A 
ATOM     15  C   UNL A   1      29.705  25.954  24.249  1.00  0.00     0.030 A 
ATOM     16  C   UNL A   1      31.574  27.056  23.140  1.00  0.00     0.030 A 
BRANCH  12  17
ATOM     17  S   UNL A   1      28.360  29.424  22.619  1.00  0.00     0.238 S 
ATOM     18  O   UNL A   1      28.531  29.697  21.209  1.00  0.00    -0.207 OA
ATOM     19  O   UNL A   1      28.499  30.445  23.628  1.00  0.00    -0.207 OA
BRANCH  17  20
ATOM     20  N   UNL A   1      26.796  28.831  22.756  1.00  0.00    -0.225 NA
ATOM     21  H   UNL A   1      26.243  29.145  21.959  1.00  0.00     0.137 HD
ATOM     22  H   UNL A   1      26.376  29.176  23.618  1.00  0.00     0.137 HD
ENDBRANCH  17  20
ENDBRANCH  12  17
ENDBRANCH   6  11
BRANCH   8  23
ATOM     23  C   UNL A   1      33.147  26.735  26.105  1.00  0.00     0.002 A 
ATOM     24  C   UNL A   1      32.086  27.276  26.849  1.00  0.00     0.012 A 
ATOM     25  C   UNL A   1      34.298  27.495  25.885  1.00  0.00     0.012 A 
ATOM     26  C   UNL A   1      32.150  28.582  27.325  1.00  0.00     0.021 A 
ATOM     27  C   UNL A   1      34.364  28.804  26.372  1.00  0.00     0.021 A 
ATOM     28  C   UNL A   1      33.286  29.345  27.072  1.00  0.00     0.041 A 
ATOM     29  Cl  UNL A   1      33.340  30.980  27.604  1.00  0.00    -0.084 Cl
ENDBRANCH   8  23
ENDBRANCH   3   5
ENDBRANCH   2   3
ENDBRANCH   1   2
BRANCH   1  30
ATOM     30  C   UNL A   1      37.429  21.647  25.218  1.00  0.00     0.275 C 
BRANCH  30  31
ATOM     31  O   UNL A   1      38.122  22.849  25.533  1.00  0.00    -0.458 OA
BRANCH  31  32
ATOM     32  C   UNL A   1      39.301  22.699  26.174  1.00  0.00     0.338 C 
ATOM     33  O   UNL A   1      40.066  21.752  26.113  1.00  0.00    -0.246 OA
BRANCH  32  34
ATOM     34  C   UNL A   1      39.428  23.786  27.144  1.00  0.00     0.060 A 
ATOM     35  C   UNL A   1      38.513  24.839  27.071  1.00  0.00     0.016 A 
ATOM     36  C   UNL A   1      40.597  23.868  27.917  1.00  0.00     0.016 A 
ATOM     37  C   UNL A   1      38.861  26.041  27.647  1.00  0.00     0.010 A 
ATOM     38  C   UNL A   1      40.950  25.069  28.474  1.00  0.00     0.010 A 
ATOM     39  C   UNL A   1      40.111  26.157  28.271  1.00  0.00    -0.014 A 
BRANCH  39  40
ATOM     40  C   UNL A   1      40.485  27.437  28.826  1.00  0.00     0.031 A 
ATOM     41  C   UNL A   1      41.713  27.986  28.214  1.00  0.00     0.074 A 
ATOM     42  C   UNL A   1      39.727  28.099  29.717  1.00  0.00     0.049 A 
ATOM     43  N   UNL A   1      42.867  28.120  28.773  1.00  0.00    -0.248 NA
ATOM     44  C   UNL A   1      41.702  28.256  26.769  1.00  0.00     0.031 C 
ATOM     45  C   UNL A   1      38.365  27.804  30.167  1.00  0.00     0.029 A 
ATOM     46  N   UNL A   1      40.019  29.257  30.364  1.00  0.00    -0.354 N 
ATOM     47  C   UNL A   1      43.693  28.666  27.798  1.00  0.00     0.074 A 
ATOM     48  C   UNL A   1      42.981  28.563  26.551  1.00  0.00     0.031 C 
ATOM     49  C   UNL A   1      37.877  28.875  30.840  1.00  0.00     0.029 A 
ATOM     50  C   UNL A   1      38.936  29.861  30.985  1.00  0.00     0.049 A 
ATOM     51  H   UNL A   1      40.926  29.639  30.388  1.00  0.00     0.167 HD
ATOM     52  C   UNL A   1      44.792  29.385  28.146  1.00  0.00     0.037 A 
ATOM     53  C   UNL A   1      38.923  31.109  31.514  1.00  0.00     0.037 A 
ATOM     54  C   UNL A   1      45.170  29.130  29.513  1.00  0.00     0.049 A 
ATOM     55  C   UNL A   1      40.339  31.501  31.754  1.00  0.00     0.074 A 
ATOM     56  C   UNL A   1      45.579  28.010  30.211  1.00  0.00     0.029 A 
ATOM     57  N   UNL A   1      44.778  30.040  30.463  1.00  0.00    -0.354 N 
ATOM     58  N   UNL A   1      41.104  30.940  32.647  1.00  0.00    -0.248 NA
ATOM     59  C   UNL A   1      41.037  32.195  30.681  1.00  0.00     0.031 C 
ATOM     60  C   UNL A   1      44.968  28.130  31.495  1.00  0.00     0.029 A 
ATOM     61  C   UNL A   1      44.275  29.341  31.530  1.00  0.00     0.049 A 
ATOM     62  H   UNL A   1      44.847  31.019  30.392  1.00  0.00     0.167 HD
ATOM     63  C   UNL A   1      42.342  30.827  32.030  1.00  0.00     0.074 A 
ATOM     64  C   UNL A   1      42.262  31.692  30.856  1.00  0.00     0.031 C 
ATOM     65  C   UNL A   1      43.205  29.826  32.370  1.00  0.00     0.037 A 
BRANCH  52  66
ATOM     66  C   UNL A   1      45.273  30.595  27.390  1.00  0.00     0.064 A 
ATOM     67  C   UNL A   1      46.638  30.693  27.059  1.00  0.00     0.173 A 
ATOM     68  C   UNL A   1      44.523  31.784  27.255  1.00  0.00     0.173 A 
ATOM     69  F   UNL A   1      47.446  29.628  27.172  1.00  0.00    -0.203 F 
ATOM     70  C   UNL A   1      47.221  31.910  26.699  1.00  0.00     0.198 A 
ATOM     71  C   UNL A   1      45.098  32.984  26.841  1.00  0.00     0.198 A 
ATOM     72  F   UNL A   1      43.242  31.870  27.629  1.00  0.00    -0.203 F 
ATOM     73  F   UNL A   1      48.547  31.984  26.523  1.00  0.00    -0.200 F 
ATOM     74  C   UNL A   1      46.452  33.055  26.597  1.00  0.00     0.200 A 
ATOM     75  F   UNL A   1      44.338  34.086  26.771  1.00  0.00    -0.200 F 
ATOM     76  F   UNL A   1      47.020  34.235  26.316  1.00  0.00    -0.200 F 
ENDBRANCH  52  66
BRANCH  53  77
ATOM     77  C   UNL A   1      37.825  32.106  31.479  1.00  0.00     0.064 A 
ATOM     78  C   UNL A   1      37.429  32.703  30.270  1.00  0.00     0.173 A 
ATOM     79  C   UNL A   1      36.953  32.269  32.573  1.00  0.00     0.173 A 
ATOM     80  F   UNL A   1      38.179  32.553  29.169  1.00  0.00    -0.203 F 
ATOM     81  C   UNL A   1      36.219  33.396  30.156  1.00  0.00     0.198 A 
ATOM     82  C   UNL A   1      35.748  32.965  32.459  1.00  0.00     0.198 A 
ATOM     83  F   UNL A   1      37.201  31.672  33.747  1.00  0.00    -0.203 F 
ATOM     84  F   UNL A   1      35.844  33.896  28.970  1.00  0.00    -0.200 F 
ATOM     85  C   UNL A   1      35.374  33.517  31.246  1.00  0.00     0.200 A 
ATOM     86  F   UNL A   1      34.922  33.040  33.512  1.00  0.00    -0.200 F 
ATOM     87  F   UNL A   1      34.186  34.123  31.121  1.00  0.00    -0.200 F 
ENDBRANCH  53  77
BRANCH  65  88
ATOM     88  C   UNL A   1      42.894  29.024  33.603  1.00  0.00     0.064 A 
ATOM     89  C   UNL A   1      42.062  27.890  33.621  1.00  0.00     0.173 A 
ATOM     90  C   UNL A   1      43.576  29.340  34.786  1.00  0.00     0.173 A 
ATOM     91  F   UNL A   1      41.454  27.462  32.509  1.00  0.00    -0.203 F 
ATOM     92  C   UNL A   1      41.889  27.139  34.784  1.00  0.00     0.198 A 
ATOM     93  C   UNL A   1      43.431  28.566  35.934  1.00  0.00     0.198 A 
ATOM     94  F   UNL A   1      44.425  30.379  34.814  1.00  0.00    -0.203 F 
ATOM     95  F   UNL A   1      41.079  26.069  34.780  1.00  0.00    -0.200 F 
ATOM     96  C   UNL A   1      42.579  27.473  35.936  1.00  0.00     0.200 A 
ATOM     97  F   UNL A   1      44.140  28.864  37.031  1.00  0.00    -0.200 F 
ATOM     98  F   UNL A   1      42.446  26.728  37.043  1.00  0.00    -0.200 F 
ENDBRANCH  65  88
ENDBRANCH  39  40
ENDBRANCH  32  34
ENDBRANCH  31  32
ENDBRANCH  30  31
ENDBRANCH   1  30
TORSDOF 15
ENDMDL
