MODEL 1
REMARK VINA RESULT:     -12.2      0.000      0.000
REMARK SMILES CCOC(=O)C1=NN(c2cc(F)cc(F)c2)[C@@H](C(=O)OCCOC(=O)c2ccc(-c3c4nc(c(-c5c(F)c(F)c(F)c(F)c5F)c5ccc([nH]5)c(-c5c(F)c(F)c(F)c(F)c5F)c5nc(c(-c6c(F)c(F)c(F)c(F)c6F)c6ccc3[nH]6)C=C5)C=C4)cc2)C1
REMARK SMILES IDX 21 1 20 2 18 3 19 4 17 5 6 6 7 7 89 8 8 9 4 10 5 11 3 12
REMARK SMILES IDX 2 13 1 14 9 15 10 16 16 17 11 18 14 19 12 20 13 21 15 22
REMARK SMILES IDX 22 23 23 24 24 25 25 26 26 27 27 28 88 29 28 30 87 31 29 32
REMARK SMILES IDX 30 33 31 34 81 35 32 36 86 37 80 38 82 39 33 40 85 41 79 42
REMARK SMILES IDX 78 43 34 45 66 46 46 47 65 48 47 49 50 50 64 51 83 52 48 53
REMARK SMILES IDX 49 54 63 56 84 57 51 58 35 59 36 60 44 61 37 62 38 63 42 64
REMARK SMILES IDX 45 65 39 66 40 67 43 68 41 69 67 70 68 71 76 72 69 73 70 74
REMARK SMILES IDX 74 75 77 76 71 77 72 78 75 79 73 80 52 81 53 82 61 83 54 84
REMARK SMILES IDX 55 85 59 86 62 87 56 88 57 89 60 90 58 91
REMARK H PARENT 82 44 50 55
REMARK Flexibility Score: inf
ROOT
ATOM      1  C   UNL A   1      31.817  29.869  25.257  1.00  0.00     0.274 C 
ENDROOT
BRANCH   1   2
ATOM      2  O   UNL A   1      31.750  28.649  26.032  1.00  0.00    -0.460 OA
BRANCH   2   3
ATOM      3  C   UNL A   1      31.765  27.476  25.327  1.00  0.00     0.331 C 
ATOM      4  O   UNL A   1      31.580  26.373  25.827  1.00  0.00    -0.250 OA
BRANCH   3   5
ATOM      5  C   UNL A   1      32.023  27.753  23.842  1.00  0.00     0.224 C 
ATOM      6  C   UNL A   1      32.361  26.208  22.164  1.00  0.00     0.148 C 
ATOM      7  N   UNL A   1      31.112  26.514  22.043  1.00  0.00    -0.169 NA
ATOM      8  C   UNL A   1      33.104  26.809  23.303  1.00  0.00     0.105 C 
ATOM      9  N   UNL A   1      30.839  27.408  23.033  1.00  0.00    -0.250 N 
BRANCH   6  10
ATOM     10  C   UNL A   1      33.038  25.300  21.183  1.00  0.00     0.354 C 
ATOM     11  O   UNL A   1      32.903  25.437  19.983  1.00  0.00    -0.245 OA
BRANCH  10  12
ATOM     12  O   UNL A   1      33.696  24.343  21.861  1.00  0.00    -0.461 OA
BRANCH  12  13
ATOM     13  C   UNL A   1      32.864  23.296  22.378  1.00  0.00     0.230 C 
ATOM     14  C   UNL A   1      33.627  22.551  23.459  1.00  0.00     0.049 C 
ENDBRANCH  12  13
ENDBRANCH  10  12
ENDBRANCH   6  10
BRANCH   9  15
ATOM     15  C   UNL A   1      29.739  28.216  22.789  1.00  0.00     0.066 A 
ATOM     16  C   UNL A   1      28.448  27.895  23.222  1.00  0.00     0.067 A 
ATOM     17  C   UNL A   1      29.950  29.479  22.212  1.00  0.00     0.067 A 
ATOM     18  C   UNL A   1      27.419  28.833  23.110  1.00  0.00     0.128 A 
ATOM     19  C   UNL A   1      28.908  30.394  22.094  1.00  0.00     0.128 A 
ATOM     20  F   UNL A   1      26.191  28.509  23.535  1.00  0.00    -0.207 F 
ATOM     21  C   UNL A   1      27.637  30.088  22.554  1.00  0.00     0.078 A 
ATOM     22  F   UNL A   1      29.135  31.576  21.506  1.00  0.00    -0.207 F 
ENDBRANCH   9  15
ENDBRANCH   3   5
ENDBRANCH   2   3
ENDBRANCH   1   2
BRANCH   1  23
ATOM     23  C   UNL A   1      31.561  31.082  26.151  1.00  0.00     0.275 C 
BRANCH  23  24
ATOM     24  O   UNL A   1      32.472  31.055  27.264  1.00  0.00    -0.458 OA
BRANCH  24  25
ATOM     25  C   UNL A   1      33.278  32.131  27.411  1.00  0.00     0.338 C 
ATOM     26  O   UNL A   1      32.989  33.306  27.258  1.00  0.00    -0.246 OA
BRANCH  25  27
ATOM     27  C   UNL A   1      34.595  31.682  27.896  1.00  0.00     0.060 A 
ATOM     28  C   UNL A   1      34.758  30.344  28.215  1.00  0.00     0.016 A 
ATOM     29  C   UNL A   1      35.625  32.586  28.165  1.00  0.00     0.016 A 
ATOM     30  C   UNL A   1      35.905  29.936  28.888  1.00  0.00     0.010 A 
ATOM     31  C   UNL A   1      36.816  32.140  28.773  1.00  0.00     0.010 A 
ATOM     32  C   UNL A   1      36.960  30.809  29.202  1.00  0.00    -0.014 A 
BRANCH  32  33
ATOM     33  C   UNL A   1      38.117  30.330  30.045  1.00  0.00     0.031 A 
ATOM     34  C   UNL A   1      39.256  29.533  29.436  1.00  0.00     0.074 A 
ATOM     35  C   UNL A   1      38.263  30.701  31.339  1.00  0.00     0.049 A 
ATOM     36  N   UNL A   1      40.240  28.902  30.036  1.00  0.00    -0.248 NA
ATOM     37  C   UNL A   1      39.296  29.425  27.972  1.00  0.00     0.031 C 
ATOM     38  C   UNL A   1      37.342  31.553  32.086  1.00  0.00     0.029 A 
ATOM     39  N   UNL A   1      39.285  30.469  32.237  1.00  0.00    -0.354 N 
ATOM     40  C   UNL A   1      40.949  28.249  29.034  1.00  0.00     0.074 A 
ATOM     41  C   UNL A   1      40.306  28.587  27.783  1.00  0.00     0.031 C 
ATOM     42  C   UNL A   1      37.906  31.902  33.250  1.00  0.00     0.029 A 
ATOM     43  C   UNL A   1      39.142  31.147  33.426  1.00  0.00     0.049 A 
ATOM     44  H   UNL A   1      40.045  29.875  32.045  1.00  0.00     0.167 HD
ATOM     45  C   UNL A   1      42.024  27.429  29.148  1.00  0.00     0.037 A 
ATOM     46  C   UNL A   1      39.872  31.134  34.562  1.00  0.00     0.037 A 
ATOM     47  C   UNL A   1      42.738  27.166  30.374  1.00  0.00     0.049 A 
ATOM     48  C   UNL A   1      41.034  30.190  34.687  1.00  0.00     0.074 A 
ATOM     49  C   UNL A   1      43.811  26.313  30.580  1.00  0.00     0.029 A 
ATOM     50  N   UNL A   1      42.484  27.778  31.589  1.00  0.00    -0.354 N 
ATOM     51  N   UNL A   1      41.578  29.422  33.776  1.00  0.00    -0.248 NA
ATOM     52  C   UNL A   1      41.645  30.062  36.019  1.00  0.00     0.031 C 
ATOM     53  C   UNL A   1      44.173  26.372  31.930  1.00  0.00     0.029 A 
ATOM     54  C   UNL A   1      43.366  27.308  32.552  1.00  0.00     0.049 A 
ATOM     55  H   UNL A   1      41.780  28.450  31.747  1.00  0.00     0.167 HD
ATOM     56  C   UNL A   1      42.580  28.711  34.424  1.00  0.00     0.074 A 
ATOM     57  C   UNL A   1      42.600  29.169  35.797  1.00  0.00     0.031 C 
ATOM     58  C   UNL A   1      43.391  27.748  33.923  1.00  0.00     0.037 A 
BRANCH  45  59
ATOM     59  C   UNL A   1      42.461  26.674  27.926  1.00  0.00     0.064 A 
ATOM     60  C   UNL A   1      43.416  27.247  27.068  1.00  0.00     0.173 A 
ATOM     61  C   UNL A   1      41.906  25.442  27.555  1.00  0.00     0.173 A 
ATOM     62  F   UNL A   1      43.971  28.432  27.370  1.00  0.00    -0.203 F 
ATOM     63  C   UNL A   1      43.786  26.624  25.881  1.00  0.00     0.198 A 
ATOM     64  C   UNL A   1      42.303  24.805  26.381  1.00  0.00     0.198 A 
ATOM     65  F   UNL A   1      41.001  24.845  28.344  1.00  0.00    -0.203 F 
ATOM     66  F   UNL A   1      44.670  27.213  25.063  1.00  0.00    -0.200 F 
ATOM     67  C   UNL A   1      43.233  25.400  25.541  1.00  0.00     0.200 A 
ATOM     68  F   UNL A   1      41.788  23.609  26.062  1.00  0.00    -0.200 F 
ATOM     69  F   UNL A   1      43.598  24.794  24.403  1.00  0.00    -0.200 F 
ENDBRANCH  45  59
BRANCH  46  70
ATOM     70  C   UNL A   1      39.467  31.991  35.712  1.00  0.00     0.064 A 
ATOM     71  C   UNL A   1      38.507  31.562  36.644  1.00  0.00     0.173 A 
ATOM     72  C   UNL A   1      40.018  33.268  35.893  1.00  0.00     0.173 A 
ATOM     73  F   UNL A   1      37.968  30.339  36.537  1.00  0.00    -0.203 F 
ATOM     74  C   UNL A   1      38.066  32.397  37.666  1.00  0.00     0.198 A 
ATOM     75  C   UNL A   1      39.610  34.086  36.946  1.00  0.00     0.198 A 
ATOM     76  F   UNL A   1      40.978  33.708  35.066  1.00  0.00    -0.203 F 
ATOM     77  F   UNL A   1      37.099  31.982  38.495  1.00  0.00    -0.200 F 
ATOM     78  C   UNL A   1      38.620  33.658  37.820  1.00  0.00     0.200 A 
ATOM     79  F   UNL A   1      40.182  35.285  37.123  1.00  0.00    -0.200 F 
ATOM     80  F   UNL A   1      38.208  34.455  38.814  1.00  0.00    -0.200 F 
ENDBRANCH  46  70
BRANCH  58  81
ATOM     81  C   UNL A   1      44.382  27.112  34.855  1.00  0.00     0.064 A 
ATOM     82  C   UNL A   1      44.049  25.953  35.571  1.00  0.00     0.173 A 
ATOM     83  C   UNL A   1      45.645  27.680  35.082  1.00  0.00     0.173 A 
ATOM     84  F   UNL A   1      42.853  25.371  35.399  1.00  0.00    -0.203 F 
ATOM     85  C   UNL A   1      44.939  25.391  36.486  1.00  0.00     0.198 A 
ATOM     86  C   UNL A   1      46.543  27.101  35.976  1.00  0.00     0.198 A 
ATOM     87  F   UNL A   1      46.019  28.783  34.414  1.00  0.00    -0.203 F 
ATOM     88  F   UNL A   1      44.587  24.300  37.178  1.00  0.00    -0.200 F 
ATOM     89  C   UNL A   1      46.187  25.963  36.682  1.00  0.00     0.200 A 
ATOM     90  F   UNL A   1      47.759  27.641  36.145  1.00  0.00    -0.200 F 
ATOM     91  F   UNL A   1      47.048  25.413  37.550  1.00  0.00    -0.200 F 
ENDBRANCH  58  81
ENDBRANCH  32  33
ENDBRANCH  25  27
ENDBRANCH  24  25
ENDBRANCH  23  24
ENDBRANCH   1  23
TORSDOF 15
ENDMDL
MODEL 2
REMARK VINA RESULT:     -12.2      4.902     10.439
REMARK SMILES CCOC(=O)C1=NN(c2cc(F)cc(F)c2)[C@@H](C(=O)OCCOC(=O)c2ccc(-c3c4nc(c(-c5c(F)c(F)c(F)c(F)c5F)c5ccc([nH]5)c(-c5c(F)c(F)c(F)c(F)c5F)c5nc(c(-c6c(F)c(F)c(F)c(F)c6F)c6ccc3[nH]6)C=C5)C=C4)cc2)C1
REMARK SMILES IDX 21 1 20 2 18 3 19 4 17 5 6 6 7 7 89 8 8 9 4 10 5 11 3 12
REMARK SMILES IDX 2 13 1 14 9 15 10 16 16 17 11 18 14 19 12 20 13 21 15 22
REMARK SMILES IDX 22 23 23 24 24 25 25 26 26 27 27 28 88 29 28 30 87 31 29 32
REMARK SMILES IDX 30 33 31 34 81 35 32 36 86 37 80 38 82 39 33 40 85 41 79 42
REMARK SMILES IDX 78 43 34 45 66 46 46 47 65 48 47 49 50 50 64 51 83 52 48 53
REMARK SMILES IDX 49 54 63 56 84 57 51 58 35 59 36 60 44 61 37 62 38 63 42 64
REMARK SMILES IDX 45 65 39 66 40 67 43 68 41 69 67 70 68 71 76 72 69 73 70 74
REMARK SMILES IDX 74 75 77 76 71 77 72 78 75 79 73 80 52 81 53 82 61 83 54 84
REMARK SMILES IDX 55 85 59 86 62 87 56 88 57 89 60 90 58 91
REMARK H PARENT 82 44 50 55
REMARK Flexibility Score: inf
ROOT
ATOM      1  C   UNL A   1      36.092  21.325  25.348  1.00  0.00     0.274 C 
ENDROOT
BRANCH   1   2
ATOM      2  O   UNL A   1      35.827  22.299  24.310  1.00  0.00    -0.460 OA
BRANCH   2   3
ATOM      3  C   UNL A   1      34.549  22.782  24.238  1.00  0.00     0.331 C 
ATOM      4  O   UNL A   1      34.147  23.527  23.353  1.00  0.00    -0.250 OA
BRANCH   3   5
ATOM      5  C   UNL A   1      33.710  22.240  25.401  1.00  0.00     0.224 C 
ATOM      6  C   UNL A   1      31.652  22.994  26.119  1.00  0.00     0.148 C 
ATOM      7  N   UNL A   1      31.359  21.975  25.382  1.00  0.00    -0.169 NA
ATOM      8  C   UNL A   1      33.082  23.395  26.190  1.00  0.00     0.105 C 
ATOM      9  N   UNL A   1      32.539  21.498  24.899  1.00  0.00    -0.250 N 
BRANCH   6  10
ATOM     10  C   UNL A   1      30.598  23.729  26.887  1.00  0.00     0.354 C 
ATOM     11  O   UNL A   1      29.689  23.147  27.448  1.00  0.00    -0.245 OA
BRANCH  10  12
ATOM     12  O   UNL A   1      30.810  25.051  26.761  1.00  0.00    -0.461 OA
BRANCH  12  13
ATOM     13  C   UNL A   1      30.111  25.668  25.673  1.00  0.00     0.230 C 
ATOM     14  C   UNL A   1      30.872  26.908  25.239  1.00  0.00     0.049 C 
ENDBRANCH  12  13
ENDBRANCH  10  12
ENDBRANCH   6  10
BRANCH   9  15
ATOM     15  C   UNL A   1      32.505  20.167  24.514  1.00  0.00     0.066 A 
ATOM     16  C   UNL A   1      32.306  19.762  23.190  1.00  0.00     0.067 A 
ATOM     17  C   UNL A   1      32.830  19.185  25.464  1.00  0.00     0.067 A 
ATOM     18  C   UNL A   1      32.468  18.421  22.836  1.00  0.00     0.128 A 
ATOM     19  C   UNL A   1      32.971  17.851  25.095  1.00  0.00     0.128 A 
ATOM     20  F   UNL A   1      32.277  18.054  21.561  1.00  0.00    -0.207 F 
ATOM     21  C   UNL A   1      32.806  17.457  23.777  1.00  0.00     0.078 A 
ATOM     22  F   UNL A   1      33.246  16.935  26.034  1.00  0.00    -0.207 F 
ENDBRANCH   9  15
ENDBRANCH   3   5
ENDBRANCH   2   3
ENDBRANCH   1   2
BRANCH   1  23
ATOM     23  C   UNL A   1      37.359  20.533  25.024  1.00  0.00     0.275 C 
BRANCH  23  24
ATOM     24  O   UNL A   1      38.504  21.395  25.149  1.00  0.00    -0.458 OA
BRANCH  24  25
ATOM     25  C   UNL A   1      39.344  21.137  26.177  1.00  0.00     0.338 C 
ATOM     26  O   UNL A   1      39.750  20.050  26.553  1.00  0.00    -0.246 OA
BRANCH  25  27
ATOM     27  C   UNL A   1      39.803  22.412  26.754  1.00  0.00     0.060 A 
ATOM     28  C   UNL A   1      39.283  23.590  26.244  1.00  0.00     0.016 A 
ATOM     29  C   UNL A   1      40.834  22.463  27.695  1.00  0.00     0.016 A 
ATOM     30  C   UNL A   1      39.860  24.805  26.602  1.00  0.00     0.010 A 
ATOM     31  C   UNL A   1      41.351  23.707  28.110  1.00  0.00     0.010 A 
ATOM     32  C   UNL A   1      40.913  24.909  27.526  1.00  0.00    -0.014 A 
BRANCH  32  33
ATOM     33  C   UNL A   1      41.578  26.242  27.774  1.00  0.00     0.031 A 
ATOM     34  C   UNL A   1      40.962  27.264  28.711  1.00  0.00     0.074 A 
ATOM     35  C   UNL A   1      42.807  26.531  27.287  1.00  0.00     0.049 A 
ATOM     36  N   UNL A   1      41.305  28.516  28.912  1.00  0.00    -0.248 NA
ATOM     37  C   UNL A   1      39.817  26.832  29.522  1.00  0.00     0.031 C 
ATOM     38  C   UNL A   1      43.620  25.646  26.456  1.00  0.00     0.029 A 
ATOM     39  N   UNL A   1      43.624  27.625  27.484  1.00  0.00    -0.354 N 
ATOM     40  C   UNL A   1      40.363  29.041  29.790  1.00  0.00     0.074 A 
ATOM     41  C   UNL A   1      39.453  27.963  30.113  1.00  0.00     0.031 C 
ATOM     42  C   UNL A   1      44.857  26.149  26.353  1.00  0.00     0.029 A 
ATOM     43  C   UNL A   1      44.880  27.484  26.940  1.00  0.00     0.049 A 
ATOM     44  H   UNL A   1      43.336  28.431  27.969  1.00  0.00     0.167 HD
ATOM     45  C   UNL A   1      40.255  30.306  30.268  1.00  0.00     0.037 A 
ATOM     46  C   UNL A   1      45.925  28.336  26.855  1.00  0.00     0.037 A 
ATOM     47  C   UNL A   1      41.211  31.361  30.038  1.00  0.00     0.049 A 
ATOM     48  C   UNL A   1      45.774  29.747  27.352  1.00  0.00     0.074 A 
ATOM     49  C   UNL A   1      41.151  32.684  30.451  1.00  0.00     0.029 A 
ATOM     50  N   UNL A   1      42.416  31.212  29.372  1.00  0.00    -0.354 N 
ATOM     51  N   UNL A   1      44.784  30.289  28.015  1.00  0.00    -0.248 NA
ATOM     52  C   UNL A   1      46.862  30.683  27.029  1.00  0.00     0.031 C 
ATOM     53  C   UNL A   1      42.295  33.344  29.992  1.00  0.00     0.029 A 
ATOM     54  C   UNL A   1      43.098  32.421  29.346  1.00  0.00     0.049 A 
ATOM     55  H   UNL A   1      42.741  30.371  28.975  1.00  0.00     0.167 HD
ATOM     56  C   UNL A   1      45.120  31.627  28.175  1.00  0.00     0.074 A 
ATOM     57  C   UNL A   1      46.426  31.808  27.578  1.00  0.00     0.031 C 
ATOM     58  C   UNL A   1      44.393  32.616  28.748  1.00  0.00     0.037 A 
BRANCH  45  59
ATOM     59  C   UNL A   1      39.010  30.663  31.029  1.00  0.00     0.064 A 
ATOM     60  C   UNL A   1      37.891  31.144  30.327  1.00  0.00     0.173 A 
ATOM     61  C   UNL A   1      38.932  30.608  32.426  1.00  0.00     0.173 A 
ATOM     62  F   UNL A   1      37.918  31.228  28.988  1.00  0.00    -0.203 F 
ATOM     63  C   UNL A   1      36.749  31.570  30.997  1.00  0.00     0.198 A 
ATOM     64  C   UNL A   1      37.773  31.005  33.092  1.00  0.00     0.198 A 
ATOM     65  F   UNL A   1      39.967  30.146  33.143  1.00  0.00    -0.203 F 
ATOM     66  F   UNL A   1      35.711  32.060  30.304  1.00  0.00    -0.200 F 
ATOM     67  C   UNL A   1      36.688  31.495  32.379  1.00  0.00     0.200 A 
ATOM     68  F   UNL A   1      37.704  30.911  34.427  1.00  0.00    -0.200 F 
ATOM     69  F   UNL A   1      35.583  31.893  33.024  1.00  0.00    -0.200 F 
ENDBRANCH  45  59
BRANCH  46  70
ATOM     70  C   UNL A   1      47.186  27.897  26.194  1.00  0.00     0.064 A 
ATOM     71  C   UNL A   1      47.292  27.822  24.795  1.00  0.00     0.173 A 
ATOM     72  C   UNL A   1      48.308  27.525  26.947  1.00  0.00     0.173 A 
ATOM     73  F   UNL A   1      46.260  28.193  24.022  1.00  0.00    -0.203 F 
ATOM     74  C   UNL A   1      48.440  27.329  24.181  1.00  0.00     0.198 A 
ATOM     75  C   UNL A   1      49.475  27.077  26.329  1.00  0.00     0.198 A 
ATOM     76  F   UNL A   1      48.283  27.629  28.285  1.00  0.00    -0.203 F 
ATOM     77  F   UNL A   1      48.481  27.205  22.848  1.00  0.00    -0.200 F 
ATOM     78  C   UNL A   1      49.533  26.960  24.948  1.00  0.00     0.200 A 
ATOM     79  F   UNL A   1      50.548  26.767  27.070  1.00  0.00    -0.200 F 
ATOM     80  F   UNL A   1      50.644  26.503  24.356  1.00  0.00    -0.200 F 
ENDBRANCH  46  70
BRANCH  58  81
ATOM     81  C   UNL A   1      44.982  33.998  28.767  1.00  0.00     0.064 A 
ATOM     82  C   UNL A   1      44.716  34.905  27.730  1.00  0.00     0.173 A 
ATOM     83  C   UNL A   1      45.856  34.408  29.785  1.00  0.00     0.173 A 
ATOM     84  F   UNL A   1      43.894  34.563  26.727  1.00  0.00    -0.203 F 
ATOM     85  C   UNL A   1      45.308  36.166  27.707  1.00  0.00     0.198 A 
ATOM     86  C   UNL A   1      46.425  35.680  29.774  1.00  0.00     0.198 A 
ATOM     87  F   UNL A   1      46.136  33.585  30.808  1.00  0.00    -0.203 F 
ATOM     88  F   UNL A   1      45.060  37.003  26.691  1.00  0.00    -0.200 F 
ATOM     89  C   UNL A   1      46.157  36.554  28.732  1.00  0.00     0.200 A 
ATOM     90  F   UNL A   1      47.225  36.063  30.779  1.00  0.00    -0.200 F 
ATOM     91  F   UNL A   1      46.714  37.773  28.717  1.00  0.00    -0.200 F 
ENDBRANCH  58  81
ENDBRANCH  32  33
ENDBRANCH  25  27
ENDBRANCH  24  25
ENDBRANCH  23  24
ENDBRANCH   1  23
TORSDOF 15
ENDMDL
MODEL 3
REMARK VINA RESULT:     -12.2      0.932      2.214
REMARK SMILES CCOC(=O)C1=NN(c2cc(F)cc(F)c2)[C@@H](C(=O)OCCOC(=O)c2ccc(-c3c4nc(c(-c5c(F)c(F)c(F)c(F)c5F)c5ccc([nH]5)c(-c5c(F)c(F)c(F)c(F)c5F)c5nc(c(-c6c(F)c(F)c(F)c(F)c6F)c6ccc3[nH]6)C=C5)C=C4)cc2)C1
REMARK SMILES IDX 21 1 20 2 18 3 19 4 17 5 6 6 7 7 89 8 8 9 4 10 5 11 3 12
REMARK SMILES IDX 2 13 1 14 9 15 10 16 16 17 11 18 14 19 12 20 13 21 15 22
REMARK SMILES IDX 22 23 23 24 24 25 25 26 26 27 27 28 88 29 28 30 87 31 29 32
REMARK SMILES IDX 30 33 31 34 81 35 32 36 86 37 80 38 82 39 33 40 85 41 79 42
REMARK SMILES IDX 78 43 34 45 66 46 46 47 65 48 47 49 50 50 64 51 83 52 48 53
REMARK SMILES IDX 49 54 63 56 84 57 51 58 35 59 36 60 44 61 37 62 38 63 42 64
REMARK SMILES IDX 45 65 39 66 40 67 43 68 41 69 67 70 68 71 76 72 69 73 70 74
REMARK SMILES IDX 74 75 77 76 71 77 72 78 75 79 73 80 52 81 53 82 61 83 54 84
REMARK SMILES IDX 55 85 59 86 62 87 56 88 57 89 60 90 58 91
REMARK H PARENT 82 44 50 55
REMARK Flexibility Score: inf
ROOT
ATOM      1  C   UNL A   1      32.085  27.910  26.991  1.00  0.00     0.274 C 
ENDROOT
BRANCH   1   2
ATOM      2  O   UNL A   1      30.925  27.044  26.992  1.00  0.00    -0.460 OA
BRANCH   2   3
ATOM      3  C   UNL A   1      31.021  25.895  26.254  1.00  0.00     0.331 C 
ATOM      4  O   UNL A   1      30.581  24.811  26.615  1.00  0.00    -0.250 OA
BRANCH   3   5
ATOM      5  C   UNL A   1      31.730  26.176  24.924  1.00  0.00     0.224 C 
ATOM      6  C   UNL A   1      32.298  24.654  23.287  1.00  0.00     0.148 C 
ATOM      7  N   UNL A   1      31.195  25.167  22.852  1.00  0.00    -0.169 NA
ATOM      8  C   UNL A   1      32.766  25.085  24.631  1.00  0.00     0.105 C 
ATOM      9  N   UNL A   1      30.788  26.060  23.795  1.00  0.00    -0.250 N 
BRANCH   6  10
ATOM     10  C   UNL A   1      33.083  23.681  22.463  1.00  0.00     0.354 C 
ATOM     11  O   UNL A   1      33.331  23.886  21.290  1.00  0.00    -0.245 OA
BRANCH  10  12
ATOM     12  O   UNL A   1      33.355  22.598  23.212  1.00  0.00    -0.461 OA
BRANCH  12  13
ATOM     13  C   UNL A   1      32.340  21.586  23.192  1.00  0.00     0.230 C 
ATOM     14  C   UNL A   1      32.304  20.898  24.545  1.00  0.00     0.049 C 
ENDBRANCH  12  13
ENDBRANCH  10  12
ENDBRANCH   6  10
BRANCH   9  15
ATOM     15  C   UNL A   1      29.937  27.046  23.322  1.00  0.00     0.066 A 
ATOM     16  C   UNL A   1      28.582  27.110  23.664  1.00  0.00     0.067 A 
ATOM     17  C   UNL A   1      30.486  28.110  22.588  1.00  0.00     0.067 A 
ATOM     18  C   UNL A   1      27.823  28.228  23.309  1.00  0.00     0.128 A 
ATOM     19  C   UNL A   1      29.709  29.207  22.229  1.00  0.00     0.128 A 
ATOM     20  F   UNL A   1      26.528  28.272  23.649  1.00  0.00    -0.207 F 
ATOM     21  C   UNL A   1      28.375  29.286  22.597  1.00  0.00     0.078 A 
ATOM     22  F   UNL A   1      30.255  30.188  21.497  1.00  0.00    -0.207 F 
ENDBRANCH   9  15
ENDBRANCH   3   5
ENDBRANCH   2   3
ENDBRANCH   1   2
BRANCH   1  23
ATOM     23  C   UNL A   1      31.664  29.363  26.771  1.00  0.00     0.275 C 
BRANCH  23  24
ATOM     24  O   UNL A   1      32.777  30.108  26.247  1.00  0.00    -0.458 OA
BRANCH  24  25
ATOM     25  C   UNL A   1      33.179  31.180  26.967  1.00  0.00     0.338 C 
ATOM     26  O   UNL A   1      32.532  32.176  27.245  1.00  0.00    -0.246 OA
BRANCH  25  27
ATOM     27  C   UNL A   1      34.538  30.933  27.479  1.00  0.00     0.060 A 
ATOM     28  C   UNL A   1      34.951  29.622  27.643  1.00  0.00     0.016 A 
ATOM     29  C   UNL A   1      35.354  31.975  27.924  1.00  0.00     0.016 A 
ATOM     30  C   UNL A   1      36.129  29.356  28.335  1.00  0.00     0.010 A 
ATOM     31  C   UNL A   1      36.586  31.689  28.550  1.00  0.00     0.010 A 
ATOM     32  C   UNL A   1      36.974  30.367  28.822  1.00  0.00    -0.014 A 
BRANCH  32  33
ATOM     33  C   UNL A   1      38.169  30.012  29.674  1.00  0.00     0.031 A 
ATOM     34  C   UNL A   1      39.365  29.285  29.087  1.00  0.00     0.074 A 
ATOM     35  C   UNL A   1      38.289  30.440  30.953  1.00  0.00     0.049 A 
ATOM     36  N   UNL A   1      40.398  28.757  29.704  1.00  0.00    -0.248 NA
ATOM     37  C   UNL A   1      39.409  29.128  27.628  1.00  0.00     0.031 C 
ATOM     38  C   UNL A   1      37.306  31.243  31.675  1.00  0.00     0.029 A 
ATOM     39  N   UNL A   1      39.330  30.323  31.852  1.00  0.00    -0.354 N 
ATOM     40  C   UNL A   1      41.154  28.125  28.722  1.00  0.00     0.074 A 
ATOM     41  C   UNL A   1      40.481  28.365  27.463  1.00  0.00     0.031 C 
ATOM     42  C   UNL A   1      37.845  31.679  32.821  1.00  0.00     0.029 A 
ATOM     43  C   UNL A   1      39.138  31.031  33.017  1.00  0.00     0.049 A 
ATOM     44  H   UNL A   1      40.134  29.784  31.677  1.00  0.00     0.167 HD
ATOM     45  C   UNL A   1      42.291  27.398  28.858  1.00  0.00     0.037 A 
ATOM     46  C   UNL A   1      39.870  31.117  34.148  1.00  0.00     0.037 A 
ATOM     47  C   UNL A   1      43.028  27.238  30.089  1.00  0.00     0.049 A 
ATOM     48  C   UNL A   1      41.104  30.273  34.299  1.00  0.00     0.074 A 
ATOM     49  C   UNL A   1      44.166  26.480  30.318  1.00  0.00     0.029 A 
ATOM     50  N   UNL A   1      42.729  27.872  31.282  1.00  0.00    -0.354 N 
ATOM     51  N   UNL A   1      41.704  29.518  33.414  1.00  0.00    -0.248 NA
ATOM     52  C   UNL A   1      41.728  30.243  35.632  1.00  0.00     0.031 C 
ATOM     53  C   UNL A   1      44.526  26.617  31.663  1.00  0.00     0.029 A 
ATOM     54  C   UNL A   1      43.649  27.509  32.256  1.00  0.00     0.049 A 
ATOM     55  H   UNL A   1      41.976  28.491  31.420  1.00  0.00     0.167 HD
ATOM     56  C   UNL A   1      42.761  28.913  34.081  1.00  0.00     0.074 A 
ATOM     57  C   UNL A   1      42.749  29.421  35.436  1.00  0.00     0.031 C 
ATOM     58  C   UNL A   1      43.644  28.000  33.610  1.00  0.00     0.037 A 
BRANCH  45  59
ATOM     59  C   UNL A   1      42.782  26.635  27.662  1.00  0.00     0.064 A 
ATOM     60  C   UNL A   1      42.314  25.329  27.440  1.00  0.00     0.173 A 
ATOM     61  C   UNL A   1      43.751  27.140  26.784  1.00  0.00     0.173 A 
ATOM     62  F   UNL A   1      41.394  24.793  28.258  1.00  0.00    -0.203 F 
ATOM     63  C   UNL A   1      42.806  24.554  26.395  1.00  0.00     0.198 A 
ATOM     64  C   UNL A   1      44.218  26.372  25.719  1.00  0.00     0.198 A 
ATOM     65  F   UNL A   1      44.223  28.385  26.943  1.00  0.00    -0.203 F 
ATOM     66  F   UNL A   1      42.369  23.297  26.231  1.00  0.00    -0.200 F 
ATOM     67  C   UNL A   1      43.754  25.077  25.532  1.00  0.00     0.200 A 
ATOM     68  F   UNL A   1      45.117  26.886  24.869  1.00  0.00    -0.200 F 
ATOM     69  F   UNL A   1      44.220  24.335  24.518  1.00  0.00    -0.200 F 
ENDBRANCH  45  59
BRANCH  46  70
ATOM     70  C   UNL A   1      39.402  31.981  35.268  1.00  0.00     0.064 A 
ATOM     71  C   UNL A   1      39.806  33.322  35.378  1.00  0.00     0.173 A 
ATOM     72  C   UNL A   1      38.555  31.479  36.266  1.00  0.00     0.173 A 
ATOM     73  F   UNL A   1      40.592  33.866  34.436  1.00  0.00    -0.203 F 
ATOM     74  C   UNL A   1      39.440  34.102  36.470  1.00  0.00     0.198 A 
ATOM     75  C   UNL A   1      38.150  32.275  37.336  1.00  0.00     0.198 A 
ATOM     76  F   UNL A   1      38.094  30.221  36.184  1.00  0.00    -0.203 F 
ATOM     77  F   UNL A   1      39.900  35.356  36.579  1.00  0.00    -0.200 F 
ATOM     78  C   UNL A   1      38.608  33.580  37.448  1.00  0.00     0.200 A 
ATOM     79  F   UNL A   1      37.307  31.784  38.255  1.00  0.00    -0.200 F 
ATOM     80  F   UNL A   1      38.242  34.336  38.491  1.00  0.00    -0.200 F 
ENDBRANCH  46  70
BRANCH  58  81
ATOM     81  C   UNL A   1      44.686  27.478  34.558  1.00  0.00     0.064 A 
ATOM     82  C   UNL A   1      45.923  28.126  34.689  1.00  0.00     0.173 A 
ATOM     83  C   UNL A   1      44.481  26.304  35.299  1.00  0.00     0.173 A 
ATOM     84  F   UNL A   1      46.176  29.247  33.999  1.00  0.00    -0.203 F 
ATOM     85  C   UNL A   1      46.919  27.613  35.518  1.00  0.00     0.198 A 
ATOM     86  C   UNL A   1      45.468  25.810  36.149  1.00  0.00     0.198 A 
ATOM     87  F   UNL A   1      43.311  25.651  35.220  1.00  0.00    -0.203 F 
ATOM     88  F   UNL A   1      48.103  28.235  35.605  1.00  0.00    -0.200 F 
ATOM     89  C   UNL A   1      46.688  26.459  36.252  1.00  0.00     0.200 A 
ATOM     90  F   UNL A   1      45.233  24.708  36.876  1.00  0.00    -0.200 F 
ATOM     91  F   UNL A   1      47.640  25.977  37.062  1.00  0.00    -0.200 F 
ENDBRANCH  58  81
ENDBRANCH  32  33
ENDBRANCH  25  27
ENDBRANCH  24  25
ENDBRANCH  23  24
ENDBRANCH   1  23
TORSDOF 15
ENDMDL
