MODEL 1
REMARK VINA RESULT:      -9.5      0.000      0.000
REMARK SMILES C[C@H](C[NH3+])CS/C=C/C(=O)OCCOC(=O)c1ccc(-c2c3nc(c(-c4c(F)c(F)c(F)c(F)c4F)c4ccc([nH]4)c(-c4c(F)c(F)c(F)c(F)c4F)c4nc(c(-c5c(F)c(F)c(F)c(F)c5F)c5ccc2[nH]5)C=C4)C=C3)cc1
REMARK SMILES IDX 11 1 9 2 10 3 8 4 7 5 6 6 5 7 2 8 1 9 3 10 4 11 12 15 13 16
REMARK SMILES IDX 14 17 15 18 16 19 17 20 18 21 79 22 19 23 78 24 20 25 21 26
REMARK SMILES IDX 22 27 72 28 23 29 77 30 71 31 73 32 24 33 76 34 70 35 69 36
REMARK SMILES IDX 25 38 57 39 37 40 56 41 38 42 41 43 55 44 74 45 39 46 40 47
REMARK SMILES IDX 54 49 75 50 42 51 26 52 27 53 35 54 28 55 29 56 33 57 36 58
REMARK SMILES IDX 30 59 31 60 34 61 32 62 58 63 59 64 67 65 60 66 61 67 65 68
REMARK SMILES IDX 68 69 62 70 63 71 66 72 64 73 43 74 44 75 52 76 45 77 46 78
REMARK SMILES IDX 50 79 53 80 47 81 48 82 51 83 49 84
REMARK H PARENT 4 12 4 13 4 14 73 37 41 48
REMARK Flexibility Score: inf
ROOT
ATOM      1  O   UNL A   1      46.379  20.879  24.439  1.00  0.00    -0.459 OA
ENDROOT
BRANCH   1   2
ATOM      2  C   UNL A   1      45.713  19.706  24.463  1.00  0.00     0.331 C 
ATOM      3  O   UNL A   1      45.993  18.680  23.868  1.00  0.00    -0.247 OA
BRANCH   2   4
ATOM      4  C   UNL A   1      44.623  19.781  25.442  1.00  0.00     0.100 C 
ATOM      5  C   UNL A   1      43.643  18.878  25.342  1.00  0.00     0.048 C 
BRANCH   5   6
ATOM      6  S   UNL A   1      42.558  18.560  26.647  1.00  0.00    -0.133 SA
BRANCH   6   7
ATOM      7  C   UNL A   1      41.104  19.572  26.144  1.00  0.00     0.083 C 
BRANCH   7   8
ATOM      8  C   UNL A   1      41.293  21.099  26.270  1.00  0.00     0.051 C 
ATOM      9  C   UNL A   1      42.025  21.406  27.587  1.00  0.00     0.014 C 
BRANCH   8  10
ATOM     10  C   UNL A   1      40.001  21.939  26.146  1.00  0.00     0.262 C 
BRANCH  10  11
ATOM     11  N   UNL A   1      39.665  22.757  27.309  1.00  0.00    -0.357 N 
ATOM     12  H   UNL A   1      38.665  22.686  27.498  1.00  0.00     0.344 HD
ATOM     13  H   UNL A   1      39.907  23.730  27.122  1.00  0.00     0.344 HD
ATOM     14  H   UNL A   1      40.188  22.426  28.120  1.00  0.00     0.344 HD
ENDBRANCH  10  11
ENDBRANCH   8  10
ENDBRANCH   7   8
ENDBRANCH   6   7
ENDBRANCH   5   6
ENDBRANCH   2   4
ENDBRANCH   1   2
BRANCH   1  15
ATOM     15  C   UNL A   1      45.704  21.979  25.070  1.00  0.00     0.275 C 
BRANCH  15  16
ATOM     16  C   UNL A   1      45.046  22.873  24.017  1.00  0.00     0.275 C 
BRANCH  16  17
ATOM     17  O   UNL A   1      44.163  23.854  24.604  1.00  0.00    -0.458 OA
BRANCH  17  18
ATOM     18  C   UNL A   1      44.765  24.983  25.043  1.00  0.00     0.338 C 
ATOM     19  O   UNL A   1      45.785  25.495  24.604  1.00  0.00    -0.246 OA
BRANCH  18  20
ATOM     20  C   UNL A   1      43.960  25.641  26.085  1.00  0.00     0.060 A 
ATOM     21  C   UNL A   1      44.277  26.963  26.403  1.00  0.00     0.016 A 
ATOM     22  C   UNL A   1      43.008  24.946  26.835  1.00  0.00     0.016 A 
ATOM     23  C   UNL A   1      43.666  27.590  27.485  1.00  0.00     0.010 A 
ATOM     24  C   UNL A   1      42.381  25.584  27.916  1.00  0.00     0.010 A 
ATOM     25  C   UNL A   1      42.719  26.906  28.258  1.00  0.00    -0.014 A 
BRANCH  25  26
ATOM     26  C   UNL A   1      42.147  27.589  29.446  1.00  0.00     0.031 A 
ATOM     27  C   UNL A   1      42.854  27.528  30.769  1.00  0.00     0.074 A 
ATOM     28  C   UNL A   1      41.042  28.348  29.311  1.00  0.00     0.049 A 
ATOM     29  N   UNL A   1      42.553  28.116  31.900  1.00  0.00    -0.248 NA
ATOM     30  C   UNL A   1      44.070  26.704  30.826  1.00  0.00     0.031 C 
ATOM     31  C   UNL A   1      40.294  28.530  28.068  1.00  0.00     0.029 A 
ATOM     32  N   UNL A   1      40.372  29.125  30.223  1.00  0.00    -0.354 N 
ATOM     33  C   UNL A   1      43.538  27.736  32.802  1.00  0.00     0.074 A 
ATOM     34  C   UNL A   1      44.430  26.840  32.095  1.00  0.00     0.031 C 
ATOM     35  C   UNL A   1      39.278  29.379  28.290  1.00  0.00     0.029 A 
ATOM     36  C   UNL A   1      39.281  29.772  29.696  1.00  0.00     0.049 A 
ATOM     37  H   UNL A   1      40.648  29.210  31.165  1.00  0.00     0.167 HD
ATOM     38  C   UNL A   1      43.691  28.109  34.095  1.00  0.00     0.037 A 
ATOM     39  C   UNL A   1      38.380  30.582  30.284  1.00  0.00     0.037 A 
ATOM     40  C   UNL A   1      42.801  28.998  34.800  1.00  0.00     0.049 A 
ATOM     41  C   UNL A   1      38.536  30.924  31.742  1.00  0.00     0.074 A 
ATOM     42  C   UNL A   1      42.871  29.429  36.114  1.00  0.00     0.029 A 
ATOM     43  N   UNL A   1      41.672  29.589  34.249  1.00  0.00    -0.354 N 
ATOM     44  N   UNL A   1      39.477  30.568  32.581  1.00  0.00    -0.248 NA
ATOM     45  C   UNL A   1      37.504  31.790  32.331  1.00  0.00     0.031 C 
ATOM     46  C   UNL A   1      41.759  30.238  36.373  1.00  0.00     0.029 A 
ATOM     47  C   UNL A   1      41.028  30.362  35.203  1.00  0.00     0.049 A 
ATOM     48  H   UNL A   1      41.374  29.476  33.318  1.00  0.00     0.167 HD
ATOM     49  C   UNL A   1      39.171  31.190  33.786  1.00  0.00     0.074 A 
ATOM     50  C   UNL A   1      37.964  31.959  33.561  1.00  0.00     0.031 C 
ATOM     51  C   UNL A   1      39.830  31.130  34.969  1.00  0.00     0.037 A 
BRANCH  38  52
ATOM     52  C   UNL A   1      44.852  27.525  34.849  1.00  0.00     0.064 A 
ATOM     53  C   UNL A   1      44.741  26.318  35.556  1.00  0.00     0.173 A 
ATOM     54  C   UNL A   1      46.099  28.167  34.840  1.00  0.00     0.173 A 
ATOM     55  F   UNL A   1      43.567  25.671  35.609  1.00  0.00    -0.203 F 
ATOM     56  C   UNL A   1      45.829  25.790  36.248  1.00  0.00     0.198 A 
ATOM     57  C   UNL A   1      47.192  27.622  35.507  1.00  0.00     0.198 A 
ATOM     58  F   UNL A   1      46.261  29.321  34.175  1.00  0.00    -0.203 F 
ATOM     59  F   UNL A   1      45.688  24.662  36.957  1.00  0.00    -0.200 F 
ATOM     60  C   UNL A   1      47.055  26.440  36.218  1.00  0.00     0.200 A 
ATOM     61  F   UNL A   1      48.379  28.244  35.467  1.00  0.00    -0.200 F 
ATOM     62  F   UNL A   1      48.103  25.929  36.881  1.00  0.00    -0.200 F 
ENDBRANCH  38  52
BRANCH  39  63
ATOM     63  C   UNL A   1      37.242  31.124  29.495  1.00  0.00     0.064 A 
ATOM     64  C   UNL A   1      36.166  30.310  29.115  1.00  0.00     0.173 A 
ATOM     65  C   UNL A   1      37.225  32.464  29.079  1.00  0.00     0.173 A 
ATOM     66  F   UNL A   1      36.151  29.014  29.463  1.00  0.00    -0.203 F 
ATOM     67  C   UNL A   1      35.127  30.809  28.331  1.00  0.00     0.198 A 
ATOM     68  C   UNL A   1      36.170  32.970  28.322  1.00  0.00     0.198 A 
ATOM     69  F   UNL A   1      38.233  33.284  29.410  1.00  0.00    -0.203 F 
ATOM     70  F   UNL A   1      34.141  29.994  27.933  1.00  0.00    -0.200 F 
ATOM     71  C   UNL A   1      35.128  32.139  27.940  1.00  0.00     0.200 A 
ATOM     72  F   UNL A   1      36.170  34.259  27.955  1.00  0.00    -0.200 F 
ATOM     73  F   UNL A   1      34.131  32.618  27.184  1.00  0.00    -0.200 F 
ENDBRANCH  39  63
BRANCH  51  74
ATOM     74  C   UNL A   1      39.285  31.954  36.101  1.00  0.00     0.064 A 
ATOM     75  C   UNL A   1      38.297  31.463  36.969  1.00  0.00     0.173 A 
ATOM     76  C   UNL A   1      39.765  33.254  36.327  1.00  0.00     0.173 A 
ATOM     77  F   UNL A   1      37.793  30.232  36.790  1.00  0.00    -0.203 F 
ATOM     78  C   UNL A   1      37.784  32.256  37.993  1.00  0.00     0.198 A 
ATOM     79  C   UNL A   1      39.274  34.031  37.372  1.00  0.00     0.198 A 
ATOM     80  F   UNL A   1      40.715  33.771  35.533  1.00  0.00    -0.203 F 
ATOM     81  F   UNL A   1      36.796  31.788  38.768  1.00  0.00    -0.200 F 
ATOM     82  C   UNL A   1      38.276  33.537  38.196  1.00  0.00     0.200 A 
ATOM     83  F   UNL A   1      39.762  35.263  37.577  1.00  0.00    -0.200 F 
ATOM     84  F   UNL A   1      37.780  34.297  39.181  1.00  0.00    -0.200 F 
ENDBRANCH  51  74
ENDBRANCH  25  26
ENDBRANCH  18  20
ENDBRANCH  17  18
ENDBRANCH  16  17
ENDBRANCH  15  16
ENDBRANCH   1  15
TORSDOF 16
ENDMDL
MODEL 2
REMARK VINA RESULT:      -9.4      4.019      5.477
REMARK SMILES C[C@H](C[NH3+])CS/C=C/C(=O)OCCOC(=O)c1ccc(-c2c3nc(c(-c4c(F)c(F)c(F)c(F)c4F)c4ccc([nH]4)c(-c4c(F)c(F)c(F)c(F)c4F)c4nc(c(-c5c(F)c(F)c(F)c(F)c5F)c5ccc2[nH]5)C=C4)C=C3)cc1
REMARK SMILES IDX 11 1 9 2 10 3 8 4 7 5 6 6 5 7 2 8 1 9 3 10 4 11 12 15 13 16
REMARK SMILES IDX 14 17 15 18 16 19 17 20 18 21 79 22 19 23 78 24 20 25 21 26
REMARK SMILES IDX 22 27 72 28 23 29 77 30 71 31 73 32 24 33 76 34 70 35 69 36
REMARK SMILES IDX 25 38 57 39 37 40 56 41 38 42 41 43 55 44 74 45 39 46 40 47
REMARK SMILES IDX 54 49 75 50 42 51 26 52 27 53 35 54 28 55 29 56 33 57 36 58
REMARK SMILES IDX 30 59 31 60 34 61 32 62 58 63 59 64 67 65 60 66 61 67 65 68
REMARK SMILES IDX 68 69 62 70 63 71 66 72 64 73 43 74 44 75 52 76 45 77 46 78
REMARK SMILES IDX 50 79 53 80 47 81 48 82 51 83 49 84
REMARK H PARENT 4 12 4 13 4 14 73 37 41 48
REMARK Flexibility Score: inf
ROOT
ATOM      1  O   UNL A   1      42.053  19.257  25.379  1.00  0.00    -0.459 OA
ENDROOT
BRANCH   1   2
ATOM      2  C   UNL A   1      43.081  18.530  25.864  1.00  0.00     0.331 C 
ATOM      3  O   UNL A   1      43.022  17.535  26.566  1.00  0.00    -0.247 OA
BRANCH   2   4
ATOM      4  C   UNL A   1      44.343  19.038  25.315  1.00  0.00     0.100 C 
ATOM      5  C   UNL A   1      44.410  20.342  25.033  1.00  0.00     0.048 C 
BRANCH   5   6
ATOM      6  S   UNL A   1      45.919  21.153  24.814  1.00  0.00    -0.133 SA
BRANCH   6   7
ATOM      7  C   UNL A   1      45.372  22.673  23.932  1.00  0.00     0.083 C 
BRANCH   7   8
ATOM      8  C   UNL A   1      45.233  23.931  24.817  1.00  0.00     0.051 C 
ATOM      9  C   UNL A   1      45.915  23.668  26.169  1.00  0.00     0.014 C 
BRANCH   8  10
ATOM     10  C   UNL A   1      43.789  24.445  25.015  1.00  0.00     0.262 C 
BRANCH  10  11
ATOM     11  N   UNL A   1      43.629  25.898  25.005  1.00  0.00    -0.357 N 
ATOM     12  H   UNL A   1      43.029  26.178  25.782  1.00  0.00     0.344 HD
ATOM     13  H   UNL A   1      43.203  26.187  24.125  1.00  0.00     0.344 HD
ATOM     14  H   UNL A   1      44.542  26.341  25.104  1.00  0.00     0.344 HD
ENDBRANCH  10  11
ENDBRANCH   8  10
ENDBRANCH   7   8
ENDBRANCH   6   7
ENDBRANCH   5   6
ENDBRANCH   2   4
ENDBRANCH   1   2
BRANCH   1  15
ATOM     15  C   UNL A   1      41.148  19.773  26.370  1.00  0.00     0.275 C 
BRANCH  15  16
ATOM     16  C   UNL A   1      40.984  21.285  26.202  1.00  0.00     0.275 C 
BRANCH  16  17
ATOM     17  O   UNL A   1      39.848  21.798  26.933  1.00  0.00    -0.458 OA
BRANCH  17  18
ATOM     18  C   UNL A   1      39.118  22.733  26.284  1.00  0.00     0.338 C 
ATOM     19  O   UNL A   1      38.307  22.545  25.387  1.00  0.00    -0.246 OA
BRANCH  18  20
ATOM     20  C   UNL A   1      39.314  24.066  26.877  1.00  0.00     0.060 A 
ATOM     21  C   UNL A   1      40.053  24.995  26.142  1.00  0.00     0.016 A 
ATOM     22  C   UNL A   1      38.907  24.363  28.180  1.00  0.00     0.016 A 
ATOM     23  C   UNL A   1      40.411  26.213  26.711  1.00  0.00     0.010 A 
ATOM     24  C   UNL A   1      39.255  25.598  28.747  1.00  0.00     0.010 A 
ATOM     25  C   UNL A   1      40.024  26.525  28.020  1.00  0.00    -0.014 A 
BRANCH  25  26
ATOM     26  C   UNL A   1      40.491  27.805  28.611  1.00  0.00     0.031 A 
ATOM     27  C   UNL A   1      41.954  28.037  28.858  1.00  0.00     0.074 A 
ATOM     28  C   UNL A   1      39.608  28.798  28.833  1.00  0.00     0.049 A 
ATOM     29  N   UNL A   1      42.562  29.111  29.297  1.00  0.00    -0.248 NA
ATOM     30  C   UNL A   1      42.856  26.915  28.561  1.00  0.00     0.031 C 
ATOM     31  C   UNL A   1      38.169  28.714  28.585  1.00  0.00     0.029 A 
ATOM     32  N   UNL A   1      39.796  30.077  29.295  1.00  0.00    -0.354 N 
ATOM     33  C   UNL A   1      43.914  28.797  29.329  1.00  0.00     0.074 A 
ATOM     34  C   UNL A   1      44.036  27.421  28.896  1.00  0.00     0.031 C 
ATOM     35  C   UNL A   1      37.606  29.896  28.880  1.00  0.00     0.029 A 
ATOM     36  C   UNL A   1      38.635  30.808  29.372  1.00  0.00     0.049 A 
ATOM     37  H   UNL A   1      40.678  30.436  29.546  1.00  0.00     0.167 HD
ATOM     38  C   UNL A   1      44.959  29.588  29.677  1.00  0.00     0.037 A 
ATOM     39  C   UNL A   1      38.425  32.068  29.800  1.00  0.00     0.037 A 
ATOM     40  C   UNL A   1      44.837  30.957  30.112  1.00  0.00     0.049 A 
ATOM     41  C   UNL A   1      39.598  32.900  30.247  1.00  0.00     0.074 A 
ATOM     42  C   UNL A   1      45.838  31.835  30.492  1.00  0.00     0.029 A 
ATOM     43  N   UNL A   1      43.639  31.646  30.234  1.00  0.00    -0.354 N 
ATOM     44  N   UNL A   1      40.873  32.597  30.262  1.00  0.00    -0.248 NA
ATOM     45  C   UNL A   1      39.298  34.256  30.729  1.00  0.00     0.031 C 
ATOM     46  C   UNL A   1      45.242  33.037  30.891  1.00  0.00     0.029 A 
ATOM     47  C   UNL A   1      43.875  32.930  30.702  1.00  0.00     0.049 A 
ATOM     48  H   UNL A   1      42.752  31.278  30.018  1.00  0.00     0.167 HD
ATOM     49  C   UNL A   1      41.530  33.731  30.723  1.00  0.00     0.074 A 
ATOM     50  C   UNL A   1      40.512  34.734  30.960  1.00  0.00     0.031 C 
ATOM     51  C   UNL A   1      42.855  33.924  30.930  1.00  0.00     0.037 A 
BRANCH  38  52
ATOM     52  C   UNL A   1      46.330  28.977  29.635  1.00  0.00     0.064 A 
ATOM     53  C   UNL A   1      46.880  28.317  30.745  1.00  0.00     0.173 A 
ATOM     54  C   UNL A   1      47.093  29.027  28.459  1.00  0.00     0.173 A 
ATOM     55  F   UNL A   1      46.197  28.252  31.898  1.00  0.00    -0.203 F 
ATOM     56  C   UNL A   1      48.153  27.754  30.686  1.00  0.00     0.198 A 
ATOM     57  C   UNL A   1      48.353  28.438  28.394  1.00  0.00     0.198 A 
ATOM     58  F   UNL A   1      46.613  29.641  27.367  1.00  0.00    -0.203 F 
ATOM     59  F   UNL A   1      48.678  27.172  31.773  1.00  0.00    -0.200 F 
ATOM     60  C   UNL A   1      48.886  27.811  29.509  1.00  0.00     0.200 A 
ATOM     61  F   UNL A   1      49.054  28.482  27.252  1.00  0.00    -0.200 F 
ATOM     62  F   UNL A   1      50.109  27.265  29.452  1.00  0.00    -0.200 F 
ENDBRANCH  38  52
BRANCH  39  63
ATOM     63  C   UNL A   1      37.045  32.620  29.833  1.00  0.00     0.064 A 
ATOM     64  C   UNL A   1      36.515  33.324  28.744  1.00  0.00     0.173 A 
ATOM     65  C   UNL A   1      36.239  32.479  30.973  1.00  0.00     0.173 A 
ATOM     66  F   UNL A   1      37.258  33.511  27.642  1.00  0.00    -0.203 F 
ATOM     67  C   UNL A   1      35.240  33.885  28.799  1.00  0.00     0.198 A 
ATOM     68  C   UNL A   1      34.952  33.013  31.016  1.00  0.00     0.198 A 
ATOM     69  F   UNL A   1      36.700  31.819  32.046  1.00  0.00    -0.203 F 
ATOM     70  F   UNL A   1      34.781  34.603  27.766  1.00  0.00    -0.200 F 
ATOM     71  C   UNL A   1      34.458  33.724  29.934  1.00  0.00     0.200 A 
ATOM     72  F   UNL A   1      34.197  32.846  32.110  1.00  0.00    -0.200 F 
ATOM     73  F   UNL A   1      33.234  34.265  29.989  1.00  0.00    -0.200 F 
ENDBRANCH  39  63
BRANCH  51  74
ATOM     74  C   UNL A   1      43.287  35.287  31.395  1.00  0.00     0.064 A 
ATOM     75  C   UNL A   1      43.676  36.290  30.495  1.00  0.00     0.173 A 
ATOM     76  C   UNL A   1      43.303  35.595  32.765  1.00  0.00     0.173 A 
ATOM     77  F   UNL A   1      43.692  36.044  29.176  1.00  0.00    -0.203 F 
ATOM     78  C   UNL A   1      44.102  37.536  30.950  1.00  0.00     0.198 A 
ATOM     79  C   UNL A   1      43.697  36.852  33.214  1.00  0.00     0.198 A 
ATOM     80  F   UNL A   1      42.933  34.676  33.670  1.00  0.00    -0.203 F 
ATOM     81  F   UNL A   1      44.530  38.456  30.075  1.00  0.00    -0.200 F 
ATOM     82  C   UNL A   1      44.108  37.817  32.308  1.00  0.00     0.200 A 
ATOM     83  F   UNL A   1      43.686  37.127  34.526  1.00  0.00    -0.200 F 
ATOM     84  F   UNL A   1      44.519  39.015  32.744  1.00  0.00    -0.200 F 
ENDBRANCH  51  74
ENDBRANCH  25  26
ENDBRANCH  18  20
ENDBRANCH  17  18
ENDBRANCH  16  17
ENDBRANCH  15  16
ENDBRANCH   1  15
TORSDOF 16
ENDMDL
MODEL 3
REMARK VINA RESULT:      -9.4      5.292      8.030
REMARK SMILES C[C@H](C[NH3+])CS/C=C/C(=O)OCCOC(=O)c1ccc(-c2c3nc(c(-c4c(F)c(F)c(F)c(F)c4F)c4ccc([nH]4)c(-c4c(F)c(F)c(F)c(F)c4F)c4nc(c(-c5c(F)c(F)c(F)c(F)c5F)c5ccc2[nH]5)C=C4)C=C3)cc1
REMARK SMILES IDX 11 1 9 2 10 3 8 4 7 5 6 6 5 7 2 8 1 9 3 10 4 11 12 15 13 16
REMARK SMILES IDX 14 17 15 18 16 19 17 20 18 21 79 22 19 23 78 24 20 25 21 26
REMARK SMILES IDX 22 27 72 28 23 29 77 30 71 31 73 32 24 33 76 34 70 35 69 36
REMARK SMILES IDX 25 38 57 39 37 40 56 41 38 42 41 43 55 44 74 45 39 46 40 47
REMARK SMILES IDX 54 49 75 50 42 51 26 52 27 53 35 54 28 55 29 56 33 57 36 58
REMARK SMILES IDX 30 59 31 60 34 61 32 62 58 63 59 64 67 65 60 66 61 67 65 68
REMARK SMILES IDX 68 69 62 70 63 71 66 72 64 73 43 74 44 75 52 76 45 77 46 78
REMARK SMILES IDX 50 79 53 80 47 81 48 82 51 83 49 84
REMARK H PARENT 4 12 4 13 4 14 73 37 41 48
REMARK Flexibility Score: inf
ROOT
ATOM      1  O   UNL A   1      38.155  21.407  24.856  1.00  0.00    -0.459 OA
ENDROOT
BRANCH   1   2
ATOM      2  C   UNL A   1      36.985  21.959  24.475  1.00  0.00     0.331 C 
ATOM      3  O   UNL A   1      36.780  22.666  23.503  1.00  0.00    -0.247 OA
BRANCH   2   4
ATOM      4  C   UNL A   1      35.908  21.481  25.348  1.00  0.00     0.100 C 
ATOM      5  C   UNL A   1      34.741  21.174  24.775  1.00  0.00     0.048 C 
BRANCH   5   6
ATOM      6  S   UNL A   1      33.559  20.201  25.572  1.00  0.00    -0.133 SA
BRANCH   6   7
ATOM      7  C   UNL A   1      33.233  18.926  24.285  1.00  0.00     0.083 C 
BRANCH   7   8
ATOM      8  C   UNL A   1      33.950  17.576  24.504  1.00  0.00     0.051 C 
ATOM      9  C   UNL A   1      34.112  16.870  23.148  1.00  0.00     0.014 C 
BRANCH   8  10
ATOM     10  C   UNL A   1      33.294  16.638  25.542  1.00  0.00     0.262 C 
BRANCH  10  11
ATOM     11  N   UNL A   1      32.152  15.864  25.061  1.00  0.00    -0.357 N 
ATOM     12  H   UNL A   1      32.248  15.705  24.058  1.00  0.00     0.344 HD
ATOM     13  H   UNL A   1      31.291  16.379  25.242  1.00  0.00     0.344 HD
ATOM     14  H   UNL A   1      32.121  14.967  25.545  1.00  0.00     0.344 HD
ENDBRANCH  10  11
ENDBRANCH   8  10
ENDBRANCH   7   8
ENDBRANCH   6   7
ENDBRANCH   5   6
ENDBRANCH   2   4
ENDBRANCH   1   2
BRANCH   1  15
ATOM     15  C   UNL A   1      38.135  19.978  25.010  1.00  0.00     0.275 C 
BRANCH  15  16
ATOM     16  C   UNL A   1      39.211  19.536  26.005  1.00  0.00     0.275 C 
BRANCH  16  17
ATOM     17  O   UNL A   1      40.509  19.399  25.384  1.00  0.00    -0.458 OA
BRANCH  17  18
ATOM     18  C   UNL A   1      41.564  19.509  26.222  1.00  0.00     0.338 C 
ATOM     19  O   UNL A   1      42.363  18.633  26.524  1.00  0.00    -0.246 OA
BRANCH  18  20
ATOM     20  C   UNL A   1      41.742  20.900  26.670  1.00  0.00     0.060 A 
ATOM     21  C   UNL A   1      41.724  21.897  25.694  1.00  0.00     0.016 A 
ATOM     22  C   UNL A   1      42.058  21.216  27.994  1.00  0.00     0.016 A 
ATOM     23  C   UNL A   1      42.046  23.210  26.027  1.00  0.00     0.010 A 
ATOM     24  C   UNL A   1      42.367  22.543  28.331  1.00  0.00     0.010 A 
ATOM     25  C   UNL A   1      42.379  23.546  27.345  1.00  0.00    -0.014 A 
BRANCH  25  26
ATOM     26  C   UNL A   1      42.785  24.943  27.640  1.00  0.00     0.031 A 
ATOM     27  C   UNL A   1      44.156  25.429  27.262  1.00  0.00     0.074 A 
ATOM     28  C   UNL A   1      41.887  25.804  28.157  1.00  0.00     0.049 A 
ATOM     29  N   UNL A   1      44.670  26.629  27.370  1.00  0.00    -0.248 NA
ATOM     30  C   UNL A   1      45.066  24.436  26.674  1.00  0.00     0.031 C 
ATOM     31  C   UNL A   1      40.511  25.467  28.517  1.00  0.00     0.029 A 
ATOM     32  N   UNL A   1      41.993  27.142  28.446  1.00  0.00    -0.354 N 
ATOM     33  C   UNL A   1      45.960  26.537  26.865  1.00  0.00     0.074 A 
ATOM     34  C   UNL A   1      46.162  25.156  26.480  1.00  0.00     0.031 C 
ATOM     35  C   UNL A   1      39.894  26.572  28.963  1.00  0.00     0.029 A 
ATOM     36  C   UNL A   1      40.839  27.685  28.955  1.00  0.00     0.049 A 
ATOM     37  H   UNL A   1      42.817  27.662  28.302  1.00  0.00     0.167 HD
ATOM     38  C   UNL A   1      46.886  27.517  26.724  1.00  0.00     0.037 A 
ATOM     39  C   UNL A   1      40.577  28.938  29.376  1.00  0.00     0.037 A 
ATOM     40  C   UNL A   1      46.685  28.891  27.111  1.00  0.00     0.049 A 
ATOM     41  C   UNL A   1      41.649  29.990  29.272  1.00  0.00     0.074 A 
ATOM     42  C   UNL A   1      47.568  29.954  27.013  1.00  0.00     0.029 A 
ATOM     43  N   UNL A   1      45.522  29.393  27.678  1.00  0.00    -0.354 N 
ATOM     44  N   UNL A   1      42.860  29.895  28.783  1.00  0.00    -0.248 NA
ATOM     45  C   UNL A   1      41.309  31.329  29.775  1.00  0.00     0.031 C 
ATOM     46  C   UNL A   1      46.958  31.086  27.567  1.00  0.00     0.029 A 
ATOM     47  C   UNL A   1      45.673  30.744  27.953  1.00  0.00     0.049 A 
ATOM     48  H   UNL A   1      44.709  28.868  27.856  1.00  0.00     0.167 HD
ATOM     49  C   UNL A   1      43.416  31.164  28.887  1.00  0.00     0.074 A 
ATOM     50  C   UNL A   1      42.400  32.016  29.473  1.00  0.00     0.031 C 
ATOM     51  C   UNL A   1      44.654  31.586  28.531  1.00  0.00     0.037 A 
BRANCH  38  52
ATOM     52  C   UNL A   1      48.221  27.129  26.156  1.00  0.00     0.064 A 
ATOM     53  C   UNL A   1      49.255  26.640  26.969  1.00  0.00     0.173 A 
ATOM     54  C   UNL A   1      48.458  27.219  24.777  1.00  0.00     0.173 A 
ATOM     55  F   UNL A   1      49.085  26.546  28.296  1.00  0.00    -0.203 F 
ATOM     56  C   UNL A   1      50.487  26.281  26.424  1.00  0.00     0.198 A 
ATOM     57  C   UNL A   1      49.679  26.832  24.231  1.00  0.00     0.198 A 
ATOM     58  F   UNL A   1      47.502  27.674  23.954  1.00  0.00    -0.203 F 
ATOM     59  F   UNL A   1      51.477  25.864  27.224  1.00  0.00    -0.200 F 
ATOM     60  C   UNL A   1      50.695  26.373  25.056  1.00  0.00     0.200 A 
ATOM     61  F   UNL A   1      49.875  26.909  22.907  1.00  0.00    -0.200 F 
ATOM     62  F   UNL A   1      51.879  26.025  24.531  1.00  0.00    -0.200 F 
ENDBRANCH  38  52
BRANCH  39  63
ATOM     63  C   UNL A   1      39.241  29.267  29.942  1.00  0.00     0.064 A 
ATOM     64  C   UNL A   1      38.224  29.806  29.143  1.00  0.00     0.173 A 
ATOM     65  C   UNL A   1      38.968  29.075  31.305  1.00  0.00     0.173 A 
ATOM     66  F   UNL A   1      38.446  30.035  27.840  1.00  0.00    -0.203 F 
ATOM     67  C   UNL A   1      36.992  30.161  29.688  1.00  0.00     0.198 A 
ATOM     68  C   UNL A   1      37.725  29.401  31.843  1.00  0.00     0.198 A 
ATOM     69  F   UNL A   1      39.909  28.568  32.115  1.00  0.00    -0.203 F 
ATOM     70  F   UNL A   1      36.057  30.728  28.914  1.00  0.00    -0.200 F 
ATOM     71  C   UNL A   1      36.742  29.953  31.037  1.00  0.00     0.200 A 
ATOM     72  F   UNL A   1      37.485  29.189  33.144  1.00  0.00    -0.200 F 
ATOM     73  F   UNL A   1      35.558  30.297  31.562  1.00  0.00    -0.200 F 
ENDBRANCH  39  63
BRANCH  51  74
ATOM     74  C   UNL A   1      44.965  33.044  28.721  1.00  0.00     0.064 A 
ATOM     75  C   UNL A   1      45.595  33.524  29.879  1.00  0.00     0.173 A 
ATOM     76  C   UNL A   1      44.634  33.975  27.723  1.00  0.00     0.173 A 
ATOM     77  F   UNL A   1      45.920  32.679  30.870  1.00  0.00    -0.203 F 
ATOM     78  C   UNL A   1      45.845  34.883  30.049  1.00  0.00     0.198 A 
ATOM     79  C   UNL A   1      44.916  35.329  27.881  1.00  0.00     0.198 A 
ATOM     80  F   UNL A   1      44.038  33.571  26.591  1.00  0.00    -0.203 F 
ATOM     81  F   UNL A   1      46.389  35.325  31.191  1.00  0.00    -0.200 F 
ATOM     82  C   UNL A   1      45.510  35.784  29.048  1.00  0.00     0.200 A 
ATOM     83  F   UNL A   1      44.606  36.195  26.906  1.00  0.00    -0.200 F 
ATOM     84  F   UNL A   1      45.750  37.091  29.214  1.00  0.00    -0.200 F 
ENDBRANCH  51  74
ENDBRANCH  25  26
ENDBRANCH  18  20
ENDBRANCH  17  18
ENDBRANCH  16  17
ENDBRANCH  15  16
ENDBRANCH   1  15
TORSDOF 16
ENDMDL
