MODEL 1
REMARK VINA RESULT:     -13.4      0.000      0.000
REMARK SMILES COC(=O)c1ccc([C@H]2Nc3c(C(=O)OCCOC(=O)c4ccc(-c5c6nc(c(-c7c(F)c(F)c(F)c(F)c7F)c7ccc([nH]7)c(-c7c(F)c(F)c(F)c(F)c7F)c7nc(c(-c8c(F)c(F)c(F)c(F)c8F)c8ccc5[nH]8)C=C7)C=C6)cc4)cccc3[C@H]3[C@H]4CC[C@H](C4)[C@H]32)cc1
REMARK SMILES IDX 16 1 15 2 13 3 14 4 12 5 9 6 10 7 94 8 11 9 88 11 92 12
REMARK SMILES IDX 87 13 89 14 91 15 93 16 84 17 86 18 90 19 85 20 8 21 5 22
REMARK SMILES IDX 6 23 96 24 7 25 95 26 3 27 4 28 2 29 1 30 17 31 18 32 19 33
REMARK SMILES IDX 20 34 21 35 22 36 83 37 23 38 82 39 24 40 25 41 26 42 76 43
REMARK SMILES IDX 27 44 81 45 75 46 77 47 28 48 80 49 74 50 73 51 29 53 61 54
REMARK SMILES IDX 41 55 60 56 42 57 45 58 59 59 78 60 43 61 44 62 58 64 79 65
REMARK SMILES IDX 46 66 30 67 31 68 39 69 32 70 33 71 37 72 40 73 34 74 35 75
REMARK SMILES IDX 38 76 36 77 62 78 63 79 71 80 64 81 65 82 69 83 72 84 66 85
REMARK SMILES IDX 67 86 70 87 68 88 47 89 48 90 56 91 49 92 50 93 54 94 57 95
REMARK SMILES IDX 51 96 52 97 55 98 53 99
REMARK H PARENT 10 10 77 52 45 63
REMARK Flexibility Score: inf
ROOT
ATOM      1  C   UNL A   1      31.475  32.084  26.851  1.00  0.00     0.275 C 
ENDROOT
BRANCH   1   2
ATOM      2  O   UNL A   1      32.335  31.235  26.064  1.00  0.00    -0.458 OA
BRANCH   2   3
ATOM      3  C   UNL A   1      33.279  30.494  26.714  1.00  0.00     0.340 C 
ATOM      4  O   UNL A   1      34.295  30.890  27.241  1.00  0.00    -0.246 OA
BRANCH   3   5
ATOM      5  C   UNL A   1      32.886  29.080  26.537  1.00  0.00     0.083 A 
ATOM      6  C   UNL A   1      33.004  28.160  22.921  1.00  0.00     0.113 C 
ATOM      7  N   UNL A   1      33.530  28.860  24.137  1.00  0.00    -0.377 N 
ATOM      8  C   UNL A   1      33.625  26.730  22.969  1.00  0.00     0.027 C 
ATOM      9  C   UNL A   1      33.119  28.327  25.374  1.00  0.00     0.053 A 
ATOM     10  H   UNL A   1      34.124  29.643  24.075  1.00  0.00     0.161 HD
ATOM     11  C   UNL A   1      33.731  26.138  24.402  1.00  0.00     0.030 C 
ATOM     12  C   UNL A   1      33.287  25.476  22.103  1.00  0.00    -0.005 C 
ATOM     13  C   UNL A   1      33.018  26.926  25.467  1.00  0.00    -0.020 A 
ATOM     14  C   UNL A   1      33.465  24.640  24.183  1.00  0.00    -0.003 C 
ATOM     15  C   UNL A   1      31.947  24.761  22.349  1.00  0.00     0.004 C 
ATOM     16  C   UNL A   1      34.173  24.434  22.833  1.00  0.00     0.008 C 
ATOM     17  C   UNL A   1      32.282  28.485  27.654  1.00  0.00     0.018 A 
ATOM     18  C   UNL A   1      32.448  26.333  26.599  1.00  0.00     0.006 A 
ATOM     19  C   UNL A   1      31.994  24.394  23.826  1.00  0.00     0.004 C 
ATOM     20  C   UNL A   1      32.022  27.120  27.665  1.00  0.00     0.001 A 
BRANCH   6  21
ATOM     21  C   UNL A   1      31.501  28.400  22.763  1.00  0.00    -0.025 A 
ATOM     22  C   UNL A   1      28.748  29.020  22.773  1.00  0.00     0.060 A 
ATOM     23  C   UNL A   1      29.628  29.810  22.039  1.00  0.00     0.016 A 
ATOM     24  C   UNL A   1      29.202  27.834  23.343  1.00  0.00     0.016 A 
ATOM     25  C   UNL A   1      30.991  29.497  22.039  1.00  0.00     0.007 A 
ATOM     26  C   UNL A   1      30.559  27.497  23.258  1.00  0.00     0.007 A 
BRANCH  22  27
ATOM     27  C   UNL A   1      27.345  29.454  22.925  1.00  0.00     0.337 C 
ATOM     28  O   UNL A   1      26.423  28.713  23.217  1.00  0.00    -0.246 OA
BRANCH  27  29
ATOM     29  O   UNL A   1      27.269  30.769  22.595  1.00  0.00    -0.465 OA
ATOM     30  C   UNL A   1      27.499  31.676  23.677  1.00  0.00     0.282 C 
ENDBRANCH  27  29
ENDBRANCH  22  27
ENDBRANCH   6  21
ENDBRANCH   3   5
ENDBRANCH   2   3
ENDBRANCH   1   2
BRANCH   1  31
ATOM     31  C   UNL A   1      32.117  33.453  27.068  1.00  0.00     0.275 C 
BRANCH  31  32
ATOM     32  O   UNL A   1      32.332  33.656  28.473  1.00  0.00    -0.458 OA
BRANCH  32  33
ATOM     33  C   UNL A   1      32.887  34.840  28.798  1.00  0.00     0.338 C 
ATOM     34  O   UNL A   1      32.455  35.963  28.600  1.00  0.00    -0.246 OA
BRANCH  33  35
ATOM     35  C   UNL A   1      34.103  34.602  29.582  1.00  0.00     0.060 A 
ATOM     36  C   UNL A   1      35.307  34.547  28.897  1.00  0.00     0.016 A 
ATOM     37  C   UNL A   1      34.032  34.216  30.916  1.00  0.00     0.016 A 
ATOM     38  C   UNL A   1      36.409  33.949  29.490  1.00  0.00     0.010 A 
ATOM     39  C   UNL A   1      35.188  33.753  31.556  1.00  0.00     0.010 A 
ATOM     40  C   UNL A   1      36.381  33.560  30.834  1.00  0.00    -0.014 A 
BRANCH  40  41
ATOM     41  C   UNL A   1      37.581  32.923  31.450  1.00  0.00     0.031 A 
ATOM     42  C   UNL A   1      38.307  31.810  30.739  1.00  0.00     0.074 A 
ATOM     43  C   UNL A   1      38.045  33.360  32.640  1.00  0.00     0.049 A 
ATOM     44  N   UNL A   1      39.219  30.989  31.196  1.00  0.00    -0.248 NA
ATOM     45  C   UNL A   1      37.955  31.580  29.329  1.00  0.00     0.031 C 
ATOM     46  C   UNL A   1      37.492  34.475  33.411  1.00  0.00     0.029 A 
ATOM     47  N   UNL A   1      39.098  32.925  33.409  1.00  0.00    -0.354 N 
ATOM     48  C   UNL A   1      39.487  30.100  30.161  1.00  0.00     0.074 A 
ATOM     49  C   UNL A   1      38.649  30.487  29.047  1.00  0.00     0.031 C 
ATOM     50  C   UNL A   1      38.236  34.672  34.506  1.00  0.00     0.029 A 
ATOM     51  C   UNL A   1      39.228  33.610  34.593  1.00  0.00     0.049 A 
ATOM     52  H   UNL A   1      39.701  32.194  33.138  1.00  0.00     0.167 HD
ATOM     53  C   UNL A   1      40.348  29.052  30.154  1.00  0.00     0.037 A 
ATOM     54  C   UNL A   1      39.998  33.373  35.669  1.00  0.00     0.037 A 
ATOM     55  C   UNL A   1      41.220  28.719  31.253  1.00  0.00     0.049 A 
ATOM     56  C   UNL A   1      40.902  32.176  35.661  1.00  0.00     0.074 A 
ATOM     57  C   UNL A   1      42.147  27.695  31.341  1.00  0.00     0.029 A 
ATOM     58  N   UNL A   1      41.281  29.415  32.454  1.00  0.00    -0.354 N 
ATOM     59  N   UNL A   1      41.098  31.296  34.709  1.00  0.00    -0.248 NA
ATOM     60  C   UNL A   1      41.674  31.926  36.882  1.00  0.00     0.031 C 
ATOM     61  C   UNL A   1      42.726  27.734  32.614  1.00  0.00     0.029 A 
ATOM     62  C   UNL A   1      42.211  28.825  33.296  1.00  0.00     0.049 A 
ATOM     63  H   UNL A   1      40.743  30.209  32.675  1.00  0.00     0.167 HD
ATOM     64  C   UNL A   1      42.026  30.397  35.209  1.00  0.00     0.074 A 
ATOM     65  C   UNL A   1      42.371  30.851  36.542  1.00  0.00     0.031 C 
ATOM     66  C   UNL A   1      42.545  29.293  34.619  1.00  0.00     0.037 A 
BRANCH  53  67
ATOM     67  C   UNL A   1      40.358  28.154  28.948  1.00  0.00     0.064 A 
ATOM     68  C   UNL A   1      41.123  28.432  27.806  1.00  0.00     0.173 A 
ATOM     69  C   UNL A   1      39.616  26.960  28.959  1.00  0.00     0.173 A 
ATOM     70  F   UNL A   1      41.842  29.563  27.734  1.00  0.00    -0.203 F 
ATOM     71  C   UNL A   1      41.122  27.566  26.714  1.00  0.00     0.198 A 
ATOM     72  C   UNL A   1      39.645  26.081  27.881  1.00  0.00     0.198 A 
ATOM     73  F   UNL A   1      38.871  26.637  30.028  1.00  0.00    -0.203 F 
ATOM     74  F   UNL A   1      41.823  27.879  25.613  1.00  0.00    -0.200 F 
ATOM     75  C   UNL A   1      40.392  26.388  26.754  1.00  0.00     0.200 A 
ATOM     76  F   UNL A   1      38.951  24.936  27.931  1.00  0.00    -0.200 F 
ATOM     77  F   UNL A   1      40.402  25.553  25.706  1.00  0.00    -0.200 F 
ENDBRANCH  53  67
BRANCH  54  78
ATOM     78  C   UNL A   1      39.878  34.247  36.867  1.00  0.00     0.064 A 
ATOM     79  C   UNL A   1      39.021  33.916  37.925  1.00  0.00     0.173 A 
ATOM     80  C   UNL A   1      40.638  35.423  36.989  1.00  0.00     0.173 A 
ATOM     81  F   UNL A   1      38.252  32.820  37.845  1.00  0.00    -0.203 F 
ATOM     82  C   UNL A   1      38.924  34.729  39.053  1.00  0.00     0.198 A 
ATOM     83  C   UNL A   1      40.571  36.211  38.134  1.00  0.00     0.198 A 
ATOM     84  F   UNL A   1      41.472  35.789  36.005  1.00  0.00    -0.203 F 
ATOM     85  F   UNL A   1      38.063  34.415  40.029  1.00  0.00    -0.200 F 
ATOM     86  C   UNL A   1      39.707  35.868  39.162  1.00  0.00     0.200 A 
ATOM     87  F   UNL A   1      41.345  37.300  38.241  1.00  0.00    -0.200 F 
ATOM     88  F   UNL A   1      39.624  36.641  40.253  1.00  0.00    -0.200 F 
ENDBRANCH  54  78
BRANCH  66  89
ATOM     89  C   UNL A   1      43.576  28.528  35.395  1.00  0.00     0.064 A 
ATOM     90  C   UNL A   1      43.221  27.539  36.324  1.00  0.00     0.173 A 
ATOM     91  C   UNL A   1      44.941  28.777  35.189  1.00  0.00     0.173 A 
ATOM     92  F   UNL A   1      41.928  27.277  36.569  1.00  0.00    -0.203 F 
ATOM     93  C   UNL A   1      44.194  26.849  37.040  1.00  0.00     0.198 A 
ATOM     94  C   UNL A   1      45.913  28.060  35.882  1.00  0.00     0.198 A 
ATOM     95  F   UNL A   1      45.334  29.709  34.308  1.00  0.00    -0.203 F 
ATOM     96  F   UNL A   1      43.831  25.948  37.965  1.00  0.00    -0.200 F 
ATOM     97  C   UNL A   1      45.539  27.105  36.813  1.00  0.00     0.200 A 
ATOM     98  F   UNL A   1      47.211  28.299  35.650  1.00  0.00    -0.200 F 
ATOM     99  F   UNL A   1      46.475  26.436  37.500  1.00  0.00    -0.200 F 
ENDBRANCH  66  89
ENDBRANCH  40  41
ENDBRANCH  33  35
ENDBRANCH  32  33
ENDBRANCH  31  32
ENDBRANCH   1  31
TORSDOF 14
ENDMDL
MODEL 2
REMARK VINA RESULT:     -13.4      6.467     11.216
REMARK SMILES COC(=O)c1ccc([C@H]2Nc3c(C(=O)OCCOC(=O)c4ccc(-c5c6nc(c(-c7c(F)c(F)c(F)c(F)c7F)c7ccc([nH]7)c(-c7c(F)c(F)c(F)c(F)c7F)c7nc(c(-c8c(F)c(F)c(F)c(F)c8F)c8ccc5[nH]8)C=C7)C=C6)cc4)cccc3[C@H]3[C@H]4CC[C@H](C4)[C@H]32)cc1
REMARK SMILES IDX 16 1 15 2 13 3 14 4 12 5 9 6 10 7 94 8 11 9 88 11 92 12
REMARK SMILES IDX 87 13 89 14 91 15 93 16 84 17 86 18 90 19 85 20 8 21 5 22
REMARK SMILES IDX 6 23 96 24 7 25 95 26 3 27 4 28 2 29 1 30 17 31 18 32 19 33
REMARK SMILES IDX 20 34 21 35 22 36 83 37 23 38 82 39 24 40 25 41 26 42 76 43
REMARK SMILES IDX 27 44 81 45 75 46 77 47 28 48 80 49 74 50 73 51 29 53 61 54
REMARK SMILES IDX 41 55 60 56 42 57 45 58 59 59 78 60 43 61 44 62 58 64 79 65
REMARK SMILES IDX 46 66 30 67 31 68 39 69 32 70 33 71 37 72 40 73 34 74 35 75
REMARK SMILES IDX 38 76 36 77 62 78 63 79 71 80 64 81 65 82 69 83 72 84 66 85
REMARK SMILES IDX 67 86 70 87 68 88 47 89 48 90 56 91 49 92 50 93 54 94 57 95
REMARK SMILES IDX 51 96 52 97 55 98 53 99
REMARK H PARENT 10 10 77 52 45 63
REMARK Flexibility Score: inf
ROOT
ATOM      1  C   UNL A   1      38.144  20.317  24.978  1.00  0.00     0.275 C 
ENDROOT
BRANCH   1   2
ATOM      2  O   UNL A   1      37.886  21.223  26.071  1.00  0.00    -0.458 OA
BRANCH   2   3
ATOM      3  C   UNL A   1      37.968  22.563  25.829  1.00  0.00     0.340 C 
ATOM      4  O   UNL A   1      38.848  23.323  26.170  1.00  0.00    -0.246 OA
BRANCH   3   5
ATOM      5  C   UNL A   1      36.697  22.942  25.176  1.00  0.00     0.083 A 
ATOM      6  C   UNL A   1      33.808  21.528  27.072  1.00  0.00     0.113 C 
ATOM      7  N   UNL A   1      35.158  22.173  26.983  1.00  0.00    -0.377 N 
ATOM      8  C   UNL A   1      32.787  22.706  27.035  1.00  0.00     0.027 C 
ATOM      9  C   UNL A   1      35.432  22.853  25.780  1.00  0.00     0.053 A 
ATOM     10  H   UNL A   1      35.812  22.123  27.717  1.00  0.00     0.161 HD
ATOM     11  C   UNL A   1      33.196  23.864  26.083  1.00  0.00     0.030 C 
ATOM     12  C   UNL A   1      31.235  22.663  26.876  1.00  0.00    -0.005 C 
ATOM     13  C   UNL A   1      34.370  23.565  25.191  1.00  0.00    -0.020 A 
ATOM     14  C   UNL A   1      31.850  24.348  25.520  1.00  0.00    -0.003 C 
ATOM     15  C   UNL A   1      30.652  22.287  25.503  1.00  0.00     0.004 C 
ATOM     16  C   UNL A   1      30.962  24.185  26.767  1.00  0.00     0.008 C 
ATOM     17  C   UNL A   1      36.826  23.463  23.881  1.00  0.00     0.018 A 
ATOM     18  C   UNL A   1      34.514  24.115  23.912  1.00  0.00     0.006 A 
ATOM     19  C   UNL A   1      31.258  23.313  24.556  1.00  0.00     0.004 C 
ATOM     20  C   UNL A   1      35.723  24.006  23.232  1.00  0.00     0.001 A 
BRANCH   6  21
ATOM     21  C   UNL A   1      33.716  20.328  26.127  1.00  0.00    -0.025 A 
ATOM     22  C   UNL A   1      33.782  17.960  24.593  1.00  0.00     0.060 A 
ATOM     23  C   UNL A   1      32.779  18.137  25.542  1.00  0.00     0.016 A 
ATOM     24  C   UNL A   1      34.629  19.020  24.282  1.00  0.00     0.016 A 
ATOM     25  C   UNL A   1      32.753  19.312  26.299  1.00  0.00     0.007 A 
ATOM     26  C   UNL A   1      34.529  20.221  24.997  1.00  0.00     0.007 A 
BRANCH  22  27
ATOM     27  C   UNL A   1      33.921  16.649  23.927  1.00  0.00     0.337 C 
ATOM     28  O   UNL A   1      33.747  16.461  22.736  1.00  0.00    -0.246 OA
BRANCH  27  29
ATOM     29  O   UNL A   1      34.178  15.715  24.877  1.00  0.00    -0.465 OA
ATOM     30  C   UNL A   1      35.519  15.714  25.375  1.00  0.00     0.282 C 
ENDBRANCH  27  29
ENDBRANCH  22  27
ENDBRANCH   6  21
ENDBRANCH   3   5
ENDBRANCH   2   3
ENDBRANCH   1   2
BRANCH   1  31
ATOM     31  C   UNL A   1      39.195  19.281  25.371  1.00  0.00     0.275 C 
BRANCH  31  32
ATOM     32  O   UNL A   1      40.082  19.855  26.342  1.00  0.00    -0.458 OA
BRANCH  32  33
ATOM     33  C   UNL A   1      41.386  19.561  26.166  1.00  0.00     0.338 C 
ATOM     34  O   UNL A   1      41.882  18.539  25.721  1.00  0.00    -0.246 OA
BRANCH  33  35
ATOM     35  C   UNL A   1      42.192  20.743  26.482  1.00  0.00     0.060 A 
ATOM     36  C   UNL A   1      42.474  20.989  27.817  1.00  0.00     0.016 A 
ATOM     37  C   UNL A   1      42.466  21.704  25.514  1.00  0.00     0.016 A 
ATOM     38  C   UNL A   1      42.874  22.256  28.213  1.00  0.00     0.010 A 
ATOM     39  C   UNL A   1      43.014  22.931  25.906  1.00  0.00     0.010 A 
ATOM     40  C   UNL A   1      43.173  23.245  27.270  1.00  0.00    -0.014 A 
BRANCH  40  41
ATOM     41  C   UNL A   1      43.606  24.600  27.721  1.00  0.00     0.031 A 
ATOM     42  C   UNL A   1      42.587  25.627  28.144  1.00  0.00     0.074 A 
ATOM     43  C   UNL A   1      44.918  24.907  27.783  1.00  0.00     0.049 A 
ATOM     44  N   UNL A   1      42.741  26.911  28.351  1.00  0.00    -0.248 NA
ATOM     45  C   UNL A   1      41.209  25.154  28.349  1.00  0.00     0.031 C 
ATOM     46  C   UNL A   1      46.021  23.993  27.476  1.00  0.00     0.029 A 
ATOM     47  N   UNL A   1      45.553  26.074  28.136  1.00  0.00    -0.354 N 
ATOM     48  C   UNL A   1      41.473  27.408  28.631  1.00  0.00     0.074 A 
ATOM     49  C   UNL A   1      40.560  26.287  28.576  1.00  0.00     0.031 C 
ATOM     50  C   UNL A   1      47.187  24.609  27.705  1.00  0.00     0.029 A 
ATOM     51  C   UNL A   1      46.922  26.002  28.032  1.00  0.00     0.049 A 
ATOM     52  H   UNL A   1      45.075  26.881  28.434  1.00  0.00     0.167 HD
ATOM     53  C   UNL A   1      41.110  28.688  28.897  1.00  0.00     0.037 A 
ATOM     54  C   UNL A   1      47.863  26.959  28.110  1.00  0.00     0.037 A 
ATOM     55  C   UNL A   1      42.043  29.782  29.008  1.00  0.00     0.049 A 
ATOM     56  C   UNL A   1      47.434  28.376  28.350  1.00  0.00     0.074 A 
ATOM     57  C   UNL A   1      41.785  31.111  29.297  1.00  0.00     0.029 A 
ATOM     58  N   UNL A   1      43.418  29.670  28.846  1.00  0.00    -0.354 N 
ATOM     59  N   UNL A   1      46.228  28.853  28.539  1.00  0.00    -0.248 NA
ATOM     60  C   UNL A   1      48.493  29.391  28.363  1.00  0.00     0.031 C 
ATOM     61  C   UNL A   1      42.994  31.812  29.253  1.00  0.00     0.029 A 
ATOM     62  C   UNL A   1      44.016  30.910  29.005  1.00  0.00     0.049 A 
ATOM     63  H   UNL A   1      43.897  28.833  28.647  1.00  0.00     0.167 HD
ATOM     64  C   UNL A   1      46.383  30.219  28.710  1.00  0.00     0.074 A 
ATOM     65  C   UNL A   1      47.803  30.492  28.623  1.00  0.00     0.031 C 
ATOM     66  C   UNL A   1      45.433  31.164  28.919  1.00  0.00     0.037 A 
BRANCH  53  67
ATOM     67  C   UNL A   1      39.644  28.993  29.034  1.00  0.00     0.064 A 
ATOM     68  C   UNL A   1      38.848  29.377  27.945  1.00  0.00     0.173 A 
ATOM     69  C   UNL A   1      39.014  28.853  30.283  1.00  0.00     0.173 A 
ATOM     70  F   UNL A   1      39.397  29.538  26.731  1.00  0.00    -0.203 F 
ATOM     71  C   UNL A   1      37.488  29.634  28.106  1.00  0.00     0.198 A 
ATOM     72  C   UNL A   1      37.649  29.078  30.433  1.00  0.00     0.198 A 
ATOM     73  F   UNL A   1      39.725  28.483  31.360  1.00  0.00    -0.203 F 
ATOM     74  F   UNL A   1      36.758  30.047  27.059  1.00  0.00    -0.200 F 
ATOM     75  C   UNL A   1      36.887  29.476  29.346  1.00  0.00     0.200 A 
ATOM     76  F   UNL A   1      37.070  28.908  31.630  1.00  0.00    -0.200 F 
ATOM     77  F   UNL A   1      35.577  29.714  29.495  1.00  0.00    -0.200 F 
ENDBRANCH  53  67
BRANCH  54  78
ATOM     78  C   UNL A   1      49.290  26.608  27.876  1.00  0.00     0.064 A 
ATOM     79  C   UNL A   1      50.170  26.396  28.945  1.00  0.00     0.173 A 
ATOM     80  C   UNL A   1      49.798  26.453  26.575  1.00  0.00     0.173 A 
ATOM     81  F   UNL A   1      49.743  26.560  30.206  1.00  0.00    -0.203 F 
ATOM     82  C   UNL A   1      51.502  26.051  28.722  1.00  0.00     0.198 A 
ATOM     83  C   UNL A   1      51.117  26.069  26.355  1.00  0.00     0.198 A 
ATOM     84  F   UNL A   1      49.000  26.648  25.514  1.00  0.00    -0.203 F 
ATOM     85  F   UNL A   1      52.334  25.900  29.761  1.00  0.00    -0.200 F 
ATOM     86  C   UNL A   1      51.971  25.876  27.429  1.00  0.00     0.200 A 
ATOM     87  F   UNL A   1      51.558  25.882  25.103  1.00  0.00    -0.200 F 
ATOM     88  F   UNL A   1      53.248  25.529  27.216  1.00  0.00    -0.200 F 
ENDBRANCH  54  78
BRANCH  66  89
ATOM     89  C   UNL A   1      45.907  32.573  29.114  1.00  0.00     0.064 A 
ATOM     90  C   UNL A   1      46.030  33.468  28.042  1.00  0.00     0.173 A 
ATOM     91  C   UNL A   1      46.225  33.039  30.399  1.00  0.00     0.173 A 
ATOM     92  F   UNL A   1      45.756  33.066  26.791  1.00  0.00    -0.203 F 
ATOM     93  C   UNL A   1      46.482  34.769  28.245  1.00  0.00     0.198 A 
ATOM     94  C   UNL A   1      46.644  34.350  30.603  1.00  0.00     0.198 A 
ATOM     95  F   UNL A   1      46.121  32.223  31.459  1.00  0.00    -0.203 F 
ATOM     96  F   UNL A   1      46.647  35.591  27.198  1.00  0.00    -0.200 F 
ATOM     97  C   UNL A   1      46.782  35.211  29.526  1.00  0.00     0.200 A 
ATOM     98  F   UNL A   1      46.918  34.778  31.843  1.00  0.00    -0.200 F 
ATOM     99  F   UNL A   1      47.212  36.465  29.720  1.00  0.00    -0.200 F 
ENDBRANCH  66  89
ENDBRANCH  40  41
ENDBRANCH  33  35
ENDBRANCH  32  33
ENDBRANCH  31  32
ENDBRANCH   1  31
TORSDOF 14
ENDMDL
MODEL 3
REMARK VINA RESULT:     -13.3      6.434     11.123
REMARK SMILES COC(=O)c1ccc([C@H]2Nc3c(C(=O)OCCOC(=O)c4ccc(-c5c6nc(c(-c7c(F)c(F)c(F)c(F)c7F)c7ccc([nH]7)c(-c7c(F)c(F)c(F)c(F)c7F)c7nc(c(-c8c(F)c(F)c(F)c(F)c8F)c8ccc5[nH]8)C=C7)C=C6)cc4)cccc3[C@H]3[C@H]4CC[C@H](C4)[C@H]32)cc1
REMARK SMILES IDX 16 1 15 2 13 3 14 4 12 5 9 6 10 7 94 8 11 9 88 11 92 12
REMARK SMILES IDX 87 13 89 14 91 15 93 16 84 17 86 18 90 19 85 20 8 21 5 22
REMARK SMILES IDX 6 23 96 24 7 25 95 26 3 27 4 28 2 29 1 30 17 31 18 32 19 33
REMARK SMILES IDX 20 34 21 35 22 36 83 37 23 38 82 39 24 40 25 41 26 42 76 43
REMARK SMILES IDX 27 44 81 45 75 46 77 47 28 48 80 49 74 50 73 51 29 53 61 54
REMARK SMILES IDX 41 55 60 56 42 57 45 58 59 59 78 60 43 61 44 62 58 64 79 65
REMARK SMILES IDX 46 66 30 67 31 68 39 69 32 70 33 71 37 72 40 73 34 74 35 75
REMARK SMILES IDX 38 76 36 77 62 78 63 79 71 80 64 81 65 82 69 83 72 84 66 85
REMARK SMILES IDX 67 86 70 87 68 88 47 89 48 90 56 91 49 92 50 93 54 94 57 95
REMARK SMILES IDX 51 96 52 97 55 98 53 99
REMARK H PARENT 10 10 77 52 45 63
REMARK Flexibility Score: inf
ROOT
ATOM      1  C   UNL A   1      38.261  20.299  24.987  1.00  0.00     0.275 C 
ENDROOT
BRANCH   1   2
ATOM      2  O   UNL A   1      37.904  21.181  26.071  1.00  0.00    -0.458 OA
BRANCH   2   3
ATOM      3  C   UNL A   1      38.000  22.526  25.865  1.00  0.00     0.340 C 
ATOM      4  O   UNL A   1      38.881  23.270  26.234  1.00  0.00    -0.246 OA
BRANCH   3   5
ATOM      5  C   UNL A   1      36.739  22.933  25.208  1.00  0.00     0.083 A 
ATOM      6  C   UNL A   1      33.817  21.532  27.062  1.00  0.00     0.113 C 
ATOM      7  N   UNL A   1      35.176  22.159  26.992  1.00  0.00    -0.377 N 
ATOM      8  C   UNL A   1      32.812  22.724  27.035  1.00  0.00     0.027 C 
ATOM      9  C   UNL A   1      35.468  22.852  25.802  1.00  0.00     0.053 A 
ATOM     10  H   UNL A   1      35.824  22.090  27.731  1.00  0.00     0.161 HD
ATOM     11  C   UNL A   1      33.245  23.890  26.103  1.00  0.00     0.030 C 
ATOM     12  C   UNL A   1      31.261  22.705  26.865  1.00  0.00    -0.005 C 
ATOM     13  C   UNL A   1      34.420  23.588  25.215  1.00  0.00    -0.020 A 
ATOM     14  C   UNL A   1      31.909  24.401  25.537  1.00  0.00    -0.003 C 
ATOM     15  C   UNL A   1      30.683  22.357  25.482  1.00  0.00     0.004 C 
ATOM     16  C   UNL A   1      31.010  24.233  26.775  1.00  0.00     0.008 C 
ATOM     17  C   UNL A   1      36.884  23.470  23.921  1.00  0.00     0.018 A 
ATOM     18  C   UNL A   1      34.581  24.154  23.945  1.00  0.00     0.006 A 
ATOM     19  C   UNL A   1      31.310  23.388  24.554  1.00  0.00     0.004 C 
ATOM     20  C   UNL A   1      35.794  24.038  23.273  1.00  0.00     0.001 A 
BRANCH   6  21
ATOM     21  C   UNL A   1      33.715  20.347  26.100  1.00  0.00    -0.025 A 
ATOM     22  C   UNL A   1      33.752  17.997  24.537  1.00  0.00     0.060 A 
ATOM     23  C   UNL A   1      32.729  18.193  25.460  1.00  0.00     0.016 A 
ATOM     24  C   UNL A   1      34.640  19.034  24.265  1.00  0.00     0.016 A 
ATOM     25  C   UNL A   1      32.717  19.360  26.231  1.00  0.00     0.007 A 
ATOM     26  C   UNL A   1      34.556  20.229  24.992  1.00  0.00     0.007 A 
BRANCH  22  27
ATOM     27  C   UNL A   1      33.871  16.691  23.858  1.00  0.00     0.337 C 
ATOM     28  O   UNL A   1      33.723  16.522  22.661  1.00  0.00    -0.246 OA
BRANCH  27  29
ATOM     29  O   UNL A   1      34.075  15.738  24.803  1.00  0.00    -0.465 OA
ATOM     30  C   UNL A   1      35.394  15.709  25.355  1.00  0.00     0.282 C 
ENDBRANCH  27  29
ENDBRANCH  22  27
ENDBRANCH   6  21
ENDBRANCH   3   5
ENDBRANCH   2   3
ENDBRANCH   1   2
BRANCH   1  31
ATOM     31  C   UNL A   1      39.295  19.272  25.443  1.00  0.00     0.275 C 
BRANCH  31  32
ATOM     32  O   UNL A   1      40.209  19.897  26.357  1.00  0.00    -0.458 OA
BRANCH  32  33
ATOM     33  C   UNL A   1      41.512  19.650  26.116  1.00  0.00     0.338 C 
ATOM     34  O   UNL A   1      42.017  18.670  25.594  1.00  0.00    -0.246 OA
BRANCH  33  35
ATOM     35  C   UNL A   1      42.299  20.834  26.472  1.00  0.00     0.060 A 
ATOM     36  C   UNL A   1      42.518  21.077  27.820  1.00  0.00     0.016 A 
ATOM     37  C   UNL A   1      42.615  21.799  25.521  1.00  0.00     0.016 A 
ATOM     38  C   UNL A   1      42.896  22.344  28.237  1.00  0.00     0.010 A 
ATOM     39  C   UNL A   1      43.141  23.026  25.942  1.00  0.00     0.010 A 
ATOM     40  C   UNL A   1      43.235  23.337  27.312  1.00  0.00    -0.014 A 
BRANCH  40  41
ATOM     41  C   UNL A   1      43.643  24.691  27.786  1.00  0.00     0.031 A 
ATOM     42  C   UNL A   1      42.604  25.705  28.190  1.00  0.00     0.074 A 
ATOM     43  C   UNL A   1      44.950  25.009  27.886  1.00  0.00     0.049 A 
ATOM     44  N   UNL A   1      42.739  26.989  28.413  1.00  0.00    -0.248 NA
ATOM     45  C   UNL A   1      41.225  25.217  28.354  1.00  0.00     0.031 C 
ATOM     46  C   UNL A   1      46.070  24.109  27.601  1.00  0.00     0.029 A 
ATOM     47  N   UNL A   1      45.564  26.179  28.265  1.00  0.00    -0.354 N 
ATOM     48  C   UNL A   1      41.460  27.471  28.662  1.00  0.00     0.074 A 
ATOM     49  C   UNL A   1      40.559  26.342  28.574  1.00  0.00     0.031 C 
ATOM     50  C   UNL A   1      47.224  24.734  27.866  1.00  0.00     0.029 A 
ATOM     51  C   UNL A   1      46.936  26.121  28.199  1.00  0.00     0.049 A 
ATOM     52  H   UNL A   1      45.071  26.980  28.558  1.00  0.00     0.167 HD
ATOM     53  C   UNL A   1      41.078  28.745  28.930  1.00  0.00     0.037 A 
ATOM     54  C   UNL A   1      47.866  27.086  28.310  1.00  0.00     0.037 A 
ATOM     55  C   UNL A   1      41.997  29.847  29.075  1.00  0.00     0.049 A 
ATOM     56  C   UNL A   1      47.417  28.497  28.550  1.00  0.00     0.074 A 
ATOM     57  C   UNL A   1      41.719  31.170  29.369  1.00  0.00     0.029 A 
ATOM     58  N   UNL A   1      43.377  29.749  28.950  1.00  0.00    -0.354 N 
ATOM     59  N   UNL A   1      46.202  28.961  28.711  1.00  0.00    -0.248 NA
ATOM     60  C   UNL A   1      48.466  29.522  28.601  1.00  0.00     0.031 C 
ATOM     61  C   UNL A   1      42.922  31.884  29.363  1.00  0.00     0.029 A 
ATOM     62  C   UNL A   1      43.959  30.993  29.135  1.00  0.00     0.049 A 
ATOM     63  H   UNL A   1      43.869  28.918  28.756  1.00  0.00     0.167 HD
ATOM     64  C   UNL A   1      46.338  30.327  28.898  1.00  0.00     0.074 A 
ATOM     65  C   UNL A   1      47.758  30.614  28.852  1.00  0.00     0.031 C 
ATOM     66  C   UNL A   1      45.375  31.261  29.089  1.00  0.00     0.037 A 
BRANCH  53  67
ATOM     67  C   UNL A   1      39.606  29.036  29.030  1.00  0.00     0.064 A 
ATOM     68  C   UNL A   1      38.832  29.403  27.919  1.00  0.00     0.173 A 
ATOM     69  C   UNL A   1      38.948  28.897  30.264  1.00  0.00     0.173 A 
ATOM     70  F   UNL A   1      39.408  29.562  26.718  1.00  0.00    -0.203 F 
ATOM     71  C   UNL A   1      37.466  29.647  28.046  1.00  0.00     0.198 A 
ATOM     72  C   UNL A   1      37.577  29.108  30.381  1.00  0.00     0.198 A 
ATOM     73  F   UNL A   1      39.636  28.541  31.361  1.00  0.00    -0.203 F 
ATOM     74  F   UNL A   1      36.757  30.045  26.980  1.00  0.00    -0.200 F 
ATOM     75  C   UNL A   1      36.837  29.491  29.273  1.00  0.00     0.200 A 
ATOM     76  F   UNL A   1      36.972  28.940  31.564  1.00  0.00    -0.200 F 
ATOM     77  F   UNL A   1      35.521  29.716  29.389  1.00  0.00    -0.200 F 
ENDBRANCH  53  67
BRANCH  54  78
ATOM     78  C   UNL A   1      49.302  26.751  28.112  1.00  0.00     0.064 A 
ATOM     79  C   UNL A   1      49.891  26.804  26.842  1.00  0.00     0.173 A 
ATOM     80  C   UNL A   1      50.122  26.394  29.196  1.00  0.00     0.173 A 
ATOM     81  F   UNL A   1      49.146  27.111  25.770  1.00  0.00    -0.203 F 
ATOM     82  C   UNL A   1      51.242  26.505  26.664  1.00  0.00     0.198 A 
ATOM     83  C   UNL A   1      51.478  26.136  29.022  1.00  0.00     0.198 A 
ATOM     84  F   UNL A   1      49.608  26.324  30.433  1.00  0.00    -0.203 F 
ATOM     85  F   UNL A   1      51.770  26.517  25.433  1.00  0.00    -0.200 F 
ATOM     86  C   UNL A   1      52.036  26.184  27.754  1.00  0.00     0.200 A 
ATOM     87  F   UNL A   1      52.244  25.846  30.083  1.00  0.00    -0.200 F 
ATOM     88  F   UNL A   1      53.336  25.912  27.584  1.00  0.00    -0.200 F 
ENDBRANCH  54  78
BRANCH  66  89
ATOM     89  C   UNL A   1      45.830  32.673  29.309  1.00  0.00     0.064 A 
ATOM     90  C   UNL A   1      46.132  33.163  30.588  1.00  0.00     0.173 A 
ATOM     91  C   UNL A   1      45.986  33.542  28.218  1.00  0.00     0.173 A 
ATOM     92  F   UNL A   1      45.981  32.377  31.665  1.00  0.00    -0.203 F 
ATOM     93  C   UNL A   1      46.543  34.480  30.770  1.00  0.00     0.198 A 
ATOM     94  C   UNL A   1      46.431  34.848  28.400  1.00  0.00     0.198 A 
ATOM     95  F   UNL A   1      45.715  33.121  26.974  1.00  0.00    -0.203 F 
ATOM     96  F   UNL A   1      46.771  34.944  32.007  1.00  0.00    -0.200 F 
ATOM     97  C   UNL A   1      46.699  35.319  29.675  1.00  0.00     0.200 A 
ATOM     98  F   UNL A   1      46.594  35.651  27.340  1.00  0.00    -0.200 F 
ATOM     99  F   UNL A   1      47.101  36.585  29.852  1.00  0.00    -0.200 F 
ENDBRANCH  66  89
ENDBRANCH  40  41
ENDBRANCH  33  35
ENDBRANCH  32  33
ENDBRANCH  31  32
ENDBRANCH   1  31
TORSDOF 14
ENDMDL
