MODEL 1
REMARK VINA RESULT:     -12.3      0.000      0.000
REMARK SMILES O=C(OCCOC(=O)[C@@]1(Cc2cn3ccccc3n2)CCC[NH2+]C1)c1ccc(-c2c3nc(c(-c4c(F)c(F)c(F)c(F)c4F)c4ccc([nH]4)c(-c4c(F)c(F)c(F)c(F)c4F)c4nc(c(-c5c(F)c(F)c(F)c(F)c5F)c5ccc2[nH]5)C=C4)C=C3)cc1
REMARK SMILES IDX 4 1 3 2 2 3 1 4 25 5 26 6 87 7 27 8 86 9 28 10 29 11 30 12
REMARK SMILES IDX 80 13 31 14 85 15 79 16 81 17 32 18 84 19 78 20 77 21 33 23
REMARK SMILES IDX 65 24 45 25 64 26 46 27 49 28 63 29 82 30 47 31 48 32 62 34
REMARK SMILES IDX 83 35 50 36 34 37 35 38 43 39 36 40 37 41 41 42 44 43 38 44
REMARK SMILES IDX 39 45 42 46 40 47 66 48 67 49 75 50 68 51 69 52 73 53 76 54
REMARK SMILES IDX 70 55 71 56 74 57 72 58 51 59 52 60 60 61 53 62 54 63 58 64
REMARK SMILES IDX 61 65 55 66 56 67 59 68 57 69 5 70 6 71 7 72 8 73 9 74 20 75
REMARK SMILES IDX 24 76 21 77 23 78 22 79 10 82 11 83 12 84 19 85 13 86 18 87
REMARK SMILES IDX 14 88 17 89 15 90 16 91
REMARK H PARENT 81 22 49 33 23 80 23 81
REMARK Flexibility Score: inf
ROOT
ATOM      1  C   UNL A   1      31.580  32.167  26.814  1.00  0.00     0.275 C 
ENDROOT
BRANCH   1   2
ATOM      2  O   UNL A   1      32.574  33.196  26.920  1.00  0.00    -0.458 OA
BRANCH   2   3
ATOM      3  C   UNL A   1      33.282  33.587  28.004  1.00  0.00     0.338 C 
ATOM      4  O   UNL A   1      32.932  34.592  28.619  1.00  0.00    -0.246 OA
BRANCH   3   5
ATOM      5  C   UNL A   1      34.578  32.954  28.392  1.00  0.00     0.060 A 
ATOM      6  C   UNL A   1      35.860  33.436  28.109  1.00  0.00     0.016 A 
ATOM      7  C   UNL A   1      34.475  31.762  29.118  1.00  0.00     0.016 A 
ATOM      8  C   UNL A   1      37.001  32.838  28.667  1.00  0.00     0.010 A 
ATOM      9  C   UNL A   1      35.608  31.166  29.671  1.00  0.00     0.010 A 
ATOM     10  C   UNL A   1      36.884  31.723  29.494  1.00  0.00    -0.014 A 
BRANCH  10  11
ATOM     11  C   UNL A   1      38.073  31.094  30.128  1.00  0.00     0.031 A 
ATOM     12  C   UNL A   1      38.488  31.568  31.491  1.00  0.00     0.074 A 
ATOM     13  C   UNL A   1      38.803  30.148  29.493  1.00  0.00     0.049 A 
ATOM     14  N   UNL A   1      39.457  31.135  32.254  1.00  0.00    -0.248 NA
ATOM     15  C   UNL A   1      37.707  32.670  32.083  1.00  0.00     0.031 C 
ATOM     16  C   UNL A   1      38.522  29.588  28.171  1.00  0.00     0.029 A 
ATOM     17  N   UNL A   1      39.965  29.510  29.862  1.00  0.00    -0.354 N 
ATOM     18  C   UNL A   1      39.340  31.852  33.433  1.00  0.00     0.074 A 
ATOM     19  C   UNL A   1      38.340  32.871  33.225  1.00  0.00     0.031 C 
ATOM     20  C   UNL A   1      39.526  28.775  27.797  1.00  0.00     0.029 A 
ATOM     21  C   UNL A   1      40.488  28.689  28.887  1.00  0.00     0.049 A 
ATOM     22  H   UNL A   1      40.385  29.630  30.743  1.00  0.00     0.167 HD
ATOM     23  C   UNL A   1      39.924  31.607  34.626  1.00  0.00     0.037 A 
ATOM     24  C   UNL A   1      41.598  27.924  28.890  1.00  0.00     0.037 A 
ATOM     25  C   UNL A   1      40.924  30.603  34.831  1.00  0.00     0.049 A 
ATOM     26  C   UNL A   1      42.346  27.770  30.189  1.00  0.00     0.074 A 
ATOM     27  C   UNL A   1      41.577  30.255  35.997  1.00  0.00     0.029 A 
ATOM     28  N   UNL A   1      41.427  29.791  33.825  1.00  0.00    -0.354 N 
ATOM     29  N   UNL A   1      42.117  28.344  31.346  1.00  0.00    -0.248 NA
ATOM     30  C   UNL A   1      43.452  26.803  30.208  1.00  0.00     0.031 C 
ATOM     31  C   UNL A   1      42.513  29.262  35.686  1.00  0.00     0.029 A 
ATOM     32  C   UNL A   1      42.406  28.959  34.337  1.00  0.00     0.049 A 
ATOM     33  H   UNL A   1      41.131  29.805  32.886  1.00  0.00     0.167 HD
ATOM     34  C   UNL A   1      42.996  27.756  32.244  1.00  0.00     0.074 A 
ATOM     35  C   UNL A   1      43.764  26.782  31.495  1.00  0.00     0.031 C 
ATOM     36  C   UNL A   1      43.144  27.987  33.572  1.00  0.00     0.037 A 
BRANCH  23  37
ATOM     37  C   UNL A   1      39.420  32.409  35.787  1.00  0.00     0.064 A 
ATOM     38  C   UNL A   1      39.991  33.658  36.096  1.00  0.00     0.173 A 
ATOM     39  C   UNL A   1      38.409  31.923  36.623  1.00  0.00     0.173 A 
ATOM     40  F   UNL A   1      40.984  34.152  35.340  1.00  0.00    -0.203 F 
ATOM     41  C   UNL A   1      39.596  34.367  37.224  1.00  0.00     0.198 A 
ATOM     42  C   UNL A   1      37.995  32.652  37.735  1.00  0.00     0.198 A 
ATOM     43  F   UNL A   1      37.840  30.735  36.375  1.00  0.00    -0.203 F 
ATOM     44  F   UNL A   1      40.206  35.518  37.537  1.00  0.00    -0.200 F 
ATOM     45  C   UNL A   1      38.595  33.866  38.041  1.00  0.00     0.200 A 
ATOM     46  F   UNL A   1      37.027  32.169  38.526  1.00  0.00    -0.200 F 
ATOM     47  F   UNL A   1      38.220  34.544  39.133  1.00  0.00    -0.200 F 
ENDBRANCH  23  37
BRANCH  24  48
ATOM     48  C   UNL A   1      42.025  27.170  27.676  1.00  0.00     0.064 A 
ATOM     49  C   UNL A   1      41.573  25.865  27.430  1.00  0.00     0.173 A 
ATOM     50  C   UNL A   1      42.961  27.708  26.780  1.00  0.00     0.173 A 
ATOM     51  F   UNL A   1      40.690  25.296  28.264  1.00  0.00    -0.203 F 
ATOM     52  C   UNL A   1      42.079  25.109  26.373  1.00  0.00     0.198 A 
ATOM     53  C   UNL A   1      43.448  26.960  25.706  1.00  0.00     0.198 A 
ATOM     54  F   UNL A   1      43.424  28.954  26.959  1.00  0.00    -0.203 F 
ATOM     55  F   UNL A   1      41.681  23.839  26.209  1.00  0.00    -0.200 F 
ATOM     56  C   UNL A   1      43.018  25.656  25.512  1.00  0.00     0.200 A 
ATOM     57  F   UNL A   1      44.353  27.495  24.874  1.00  0.00    -0.200 F 
ATOM     58  F   UNL A   1      43.521  24.921  24.511  1.00  0.00    -0.200 F 
ENDBRANCH  24  48
BRANCH  36  59
ATOM     59  C   UNL A   1      44.140  27.140  34.308  1.00  0.00     0.064 A 
ATOM     60  C   UNL A   1      43.789  25.901  34.858  1.00  0.00     0.173 A 
ATOM     61  C   UNL A   1      45.474  27.561  34.423  1.00  0.00     0.173 A 
ATOM     62  F   UNL A   1      42.522  25.464  34.787  1.00  0.00    -0.203 F 
ATOM     63  C   UNL A   1      44.730  25.125  35.526  1.00  0.00     0.198 A 
ATOM     64  C   UNL A   1      46.421  26.764  35.057  1.00  0.00     0.198 A 
ATOM     65  F   UNL A   1      45.862  28.737  33.906  1.00  0.00    -0.203 F 
ATOM     66  F   UNL A   1      44.360  23.970  36.096  1.00  0.00    -0.200 F 
ATOM     67  C   UNL A   1      46.047  25.551  35.617  1.00  0.00     0.200 A 
ATOM     68  F   UNL A   1      47.697  27.169  35.126  1.00  0.00    -0.200 F 
ATOM     69  F   UNL A   1      46.955  24.796  36.250  1.00  0.00    -0.200 F 
ENDBRANCH  36  59
ENDBRANCH  10  11
ENDBRANCH   3   5
ENDBRANCH   2   3
ENDBRANCH   1   2
BRANCH   1  70
ATOM     70  C   UNL A   1      32.086  30.734  26.991  1.00  0.00     0.274 C 
BRANCH  70  71
ATOM     71  O   UNL A   1      32.227  29.969  25.779  1.00  0.00    -0.461 OA
BRANCH  71  72
ATOM     72  C   UNL A   1      31.803  28.673  25.845  1.00  0.00     0.318 C 
ATOM     73  O   UNL A   1      31.455  28.140  26.897  1.00  0.00    -0.251 OA
BRANCH  72  74
ATOM     74  C   UNL A   1      31.818  27.925  24.494  1.00  0.00     0.122 C 
ATOM     75  C   UNL A   1      32.822  28.676  23.593  1.00  0.00     0.031 C 
ATOM     76  C   UNL A   1      32.297  26.475  24.656  1.00  0.00     0.279 C 
ATOM     77  C   UNL A   1      33.234  27.927  22.326  1.00  0.00     0.063 C 
ATOM     78  N   UNL A   1      32.592  25.753  23.420  1.00  0.00    -0.345 N 
ATOM     79  C   UNL A   1      33.506  26.440  22.522  1.00  0.00     0.260 C 
ATOM     80  H   UNL A   1      33.005  24.854  23.666  1.00  0.00     0.346 HD
ATOM     81  H   UNL A   1      31.707  25.664  22.919  1.00  0.00     0.346 HD
BRANCH  74  82
ATOM     82  C   UNL A   1      30.343  27.989  23.999  1.00  0.00     0.082 C 
BRANCH  82  83
ATOM     83  C   UNL A   1      29.910  29.231  23.297  1.00  0.00     0.061 A 
ATOM     84  C   UNL A   1      29.807  30.521  23.780  1.00  0.00     0.116 A 
ATOM     85  N   UNL A   1      29.512  29.183  21.979  1.00  0.00    -0.234 NA
ATOM     86  N   UNL A   1      29.123  31.217  22.820  1.00  0.00    -0.307 N 
ATOM     87  C   UNL A   1      29.040  30.383  21.712  1.00  0.00     0.136 A 
ATOM     88  C   UNL A   1      28.557  32.488  22.876  1.00  0.00     0.093 A 
ATOM     89  C   UNL A   1      28.426  30.918  20.546  1.00  0.00     0.048 A 
ATOM     90  C   UNL A   1      27.928  32.969  21.790  1.00  0.00     0.018 A 
ATOM     91  C   UNL A   1      27.893  32.156  20.581  1.00  0.00     0.005 A 
ENDBRANCH  82  83
ENDBRANCH  74  82
ENDBRANCH  72  74
ENDBRANCH  71  72
ENDBRANCH  70  71
ENDBRANCH   1  70
TORSDOF 13
ENDMDL
MODEL 2
REMARK VINA RESULT:     -12.3      1.188      3.005
REMARK SMILES O=C(OCCOC(=O)[C@@]1(Cc2cn3ccccc3n2)CCC[NH2+]C1)c1ccc(-c2c3nc(c(-c4c(F)c(F)c(F)c(F)c4F)c4ccc([nH]4)c(-c4c(F)c(F)c(F)c(F)c4F)c4nc(c(-c5c(F)c(F)c(F)c(F)c5F)c5ccc2[nH]5)C=C4)C=C3)cc1
REMARK SMILES IDX 4 1 3 2 2 3 1 4 25 5 26 6 87 7 27 8 86 9 28 10 29 11 30 12
REMARK SMILES IDX 80 13 31 14 85 15 79 16 81 17 32 18 84 19 78 20 77 21 33 23
REMARK SMILES IDX 65 24 45 25 64 26 46 27 49 28 63 29 82 30 47 31 48 32 62 34
REMARK SMILES IDX 83 35 50 36 34 37 35 38 43 39 36 40 37 41 41 42 44 43 38 44
REMARK SMILES IDX 39 45 42 46 40 47 66 48 67 49 75 50 68 51 69 52 73 53 76 54
REMARK SMILES IDX 70 55 71 56 74 57 72 58 51 59 52 60 60 61 53 62 54 63 58 64
REMARK SMILES IDX 61 65 55 66 56 67 59 68 57 69 5 70 6 71 7 72 8 73 9 74 20 75
REMARK SMILES IDX 24 76 21 77 23 78 22 79 10 82 11 83 12 84 19 85 13 86 18 87
REMARK SMILES IDX 14 88 17 89 15 90 16 91
REMARK H PARENT 81 22 49 33 23 80 23 81
REMARK Flexibility Score: inf
ROOT
ATOM      1  C   UNL A   1      32.050  32.988  26.715  1.00  0.00     0.275 C 
ENDROOT
BRANCH   1   2
ATOM      2  O   UNL A   1      32.180  33.728  27.937  1.00  0.00    -0.458 OA
BRANCH   2   3
ATOM      3  C   UNL A   1      33.265  34.359  28.439  1.00  0.00     0.338 C 
ATOM      4  O   UNL A   1      33.276  35.587  28.488  1.00  0.00    -0.246 OA
BRANCH   3   5
ATOM      5  C   UNL A   1      34.530  33.641  28.778  1.00  0.00     0.060 A 
ATOM      6  C   UNL A   1      35.828  34.022  28.421  1.00  0.00     0.016 A 
ATOM      7  C   UNL A   1      34.378  32.475  29.537  1.00  0.00     0.016 A 
ATOM      8  C   UNL A   1      36.949  33.353  28.937  1.00  0.00     0.010 A 
ATOM      9  C   UNL A   1      35.492  31.809  30.048  1.00  0.00     0.010 A 
ATOM     10  C   UNL A   1      36.794  32.267  29.795  1.00  0.00    -0.014 A 
BRANCH  10  11
ATOM     11  C   UNL A   1      37.965  31.566  30.385  1.00  0.00     0.031 A 
ATOM     12  C   UNL A   1      38.448  32.001  31.738  1.00  0.00     0.074 A 
ATOM     13  C   UNL A   1      38.620  30.587  29.719  1.00  0.00     0.049 A 
ATOM     14  N   UNL A   1      39.415  31.506  32.466  1.00  0.00    -0.248 NA
ATOM     15  C   UNL A   1      37.750  33.138  32.365  1.00  0.00     0.031 C 
ATOM     16  C   UNL A   1      38.266  30.058  28.401  1.00  0.00     0.029 A 
ATOM     17  N   UNL A   1      39.756  29.881  30.044  1.00  0.00    -0.354 N 
ATOM     18  C   UNL A   1      39.376  32.216  33.654  1.00  0.00     0.074 A 
ATOM     19  C   UNL A   1      38.429  33.292  33.488  1.00  0.00     0.031 C 
ATOM     20  C   UNL A   1      39.211  29.194  27.988  1.00  0.00     0.029 A 
ATOM     21  C   UNL A   1      40.200  29.042  29.046  1.00  0.00     0.049 A 
ATOM     22  H   UNL A   1      40.209  29.968  30.913  1.00  0.00     0.167 HD
ATOM     23  C   UNL A   1      39.983  31.926  34.826  1.00  0.00     0.037 A 
ATOM     24  C   UNL A   1      41.265  28.217  29.006  1.00  0.00     0.037 A 
ATOM     25  C   UNL A   1      40.930  30.865  34.990  1.00  0.00     0.049 A 
ATOM     26  C   UNL A   1      42.044  28.007  30.280  1.00  0.00     0.074 A 
ATOM     27  C   UNL A   1      41.599  30.468  36.132  1.00  0.00     0.029 A 
ATOM     28  N   UNL A   1      41.355  30.037  33.961  1.00  0.00    -0.354 N 
ATOM     29  N   UNL A   1      41.884  28.580  31.448  1.00  0.00    -0.248 NA
ATOM     30  C   UNL A   1      43.094  26.980  30.255  1.00  0.00     0.031 C 
ATOM     31  C   UNL A   1      42.467  29.428  35.782  1.00  0.00     0.029 A 
ATOM     32  C   UNL A   1      42.301  29.146  34.434  1.00  0.00     0.049 A 
ATOM     33  H   UNL A   1      41.031  30.077  33.032  1.00  0.00     0.167 HD
ATOM     34  C   UNL A   1      42.756  27.935  32.313  1.00  0.00     0.074 A 
ATOM     35  C   UNL A   1      43.444  26.927  31.531  1.00  0.00     0.031 C 
ATOM     36  C   UNL A   1      42.959  28.142  33.637  1.00  0.00     0.037 A 
BRANCH  23  37
ATOM     37  C   UNL A   1      39.562  32.742  36.010  1.00  0.00     0.064 A 
ATOM     38  C   UNL A   1      40.250  33.923  36.346  1.00  0.00     0.173 A 
ATOM     39  C   UNL A   1      38.512  32.333  36.839  1.00  0.00     0.173 A 
ATOM     40  F   UNL A   1      41.282  34.340  35.597  1.00  0.00    -0.203 F 
ATOM     41  C   UNL A   1      39.928  34.638  37.494  1.00  0.00     0.198 A 
ATOM     42  C   UNL A   1      38.173  33.070  37.972  1.00  0.00     0.198 A 
ATOM     43  F   UNL A   1      37.832  31.211  36.566  1.00  0.00    -0.203 F 
ATOM     44  F   UNL A   1      40.646  35.718  37.832  1.00  0.00    -0.200 F 
ATOM     45  C   UNL A   1      38.887  34.214  38.304  1.00  0.00     0.200 A 
ATOM     46  F   UNL A   1      37.167  32.661  38.756  1.00  0.00    -0.200 F 
ATOM     47  F   UNL A   1      38.582  34.896  39.416  1.00  0.00    -0.200 F 
ENDBRANCH  23  37
BRANCH  24  48
ATOM     48  C   UNL A   1      41.611  27.453  27.774  1.00  0.00     0.064 A 
ATOM     49  C   UNL A   1      41.070  26.182  27.525  1.00  0.00     0.173 A 
ATOM     50  C   UNL A   1      42.555  27.942  26.858  1.00  0.00     0.173 A 
ATOM     51  F   UNL A   1      40.175  25.660  28.376  1.00  0.00    -0.203 F 
ATOM     52  C   UNL A   1      41.498  25.410  26.445  1.00  0.00     0.198 A 
ATOM     53  C   UNL A   1      42.965  27.178  25.763  1.00  0.00     0.198 A 
ATOM     54  F   UNL A   1      43.102  29.154  27.039  1.00  0.00    -0.203 F 
ATOM     55  F   UNL A   1      41.016  24.170  26.278  1.00  0.00    -0.200 F 
ATOM     56  C   UNL A   1      42.447  25.907  25.566  1.00  0.00     0.200 A 
ATOM     57  F   UNL A   1      43.879  27.665  24.912  1.00  0.00    -0.200 F 
ATOM     58  F   UNL A   1      42.875  25.155  24.543  1.00  0.00    -0.200 F 
ENDBRANCH  24  48
BRANCH  36  59
ATOM     59  C   UNL A   1      43.928  27.234  34.333  1.00  0.00     0.064 A 
ATOM     60  C   UNL A   1      43.524  26.012  34.887  1.00  0.00     0.173 A 
ATOM     61  C   UNL A   1      45.287  27.575  34.406  1.00  0.00     0.173 A 
ATOM     62  F   UNL A   1      42.233  25.650  34.856  1.00  0.00    -0.203 F 
ATOM     63  C   UNL A   1      44.441  25.177  35.518  1.00  0.00     0.198 A 
ATOM     64  C   UNL A   1      46.207  26.720  35.002  1.00  0.00     0.198 A 
ATOM     65  F   UNL A   1      45.725  28.731  33.884  1.00  0.00    -0.203 F 
ATOM     66  F   UNL A   1      44.024  24.041  36.092  1.00  0.00    -0.200 F 
ATOM     67  C   UNL A   1      45.783  25.526  35.566  1.00  0.00     0.200 A 
ATOM     68  F   UNL A   1      47.507  27.050  35.030  1.00  0.00    -0.200 F 
ATOM     69  F   UNL A   1      46.667  24.714  36.163  1.00  0.00    -0.200 F 
ENDBRANCH  36  59
ENDBRANCH  10  11
ENDBRANCH   3   5
ENDBRANCH   2   3
ENDBRANCH   1   2
BRANCH   1  70
ATOM     70  C   UNL A   1      31.762  31.492  26.872  1.00  0.00     0.274 C 
BRANCH  70  71
ATOM     71  O   UNL A   1      31.342  30.811  25.675  1.00  0.00    -0.461 OA
BRANCH  71  72
ATOM     72  C   UNL A   1      32.118  29.754  25.294  1.00  0.00     0.318 C 
ATOM     73  O   UNL A   1      33.252  29.570  25.731  1.00  0.00    -0.251 OA
BRANCH  72  74
ATOM     74  C   UNL A   1      31.461  28.821  24.253  1.00  0.00     0.122 C 
ATOM     75  C   UNL A   1      30.971  27.580  25.027  1.00  0.00     0.031 C 
ATOM     76  C   UNL A   1      30.251  29.488  23.582  1.00  0.00     0.279 C 
ATOM     77  C   UNL A   1      30.012  26.676  24.255  1.00  0.00     0.063 C 
ATOM     78  N   UNL A   1      29.404  28.616  22.770  1.00  0.00    -0.345 N 
ATOM     79  C   UNL A   1      28.949  27.414  23.448  1.00  0.00     0.260 C 
ATOM     80  H   UNL A   1      28.584  29.147  22.480  1.00  0.00     0.346 HD
ATOM     81  H   UNL A   1      29.978  28.305  21.985  1.00  0.00     0.346 HD
BRANCH  74  82
ATOM     82  C   UNL A   1      32.595  28.528  23.226  1.00  0.00     0.082 C 
BRANCH  82  83
ATOM     83  C   UNL A   1      33.119  27.134  23.165  1.00  0.00     0.061 A 
ATOM     84  C   UNL A   1      32.921  26.163  22.202  1.00  0.00     0.116 A 
ATOM     85  N   UNL A   1      33.905  26.641  24.184  1.00  0.00    -0.234 NA
ATOM     86  N   UNL A   1      33.396  25.002  22.751  1.00  0.00    -0.307 N 
ATOM     87  C   UNL A   1      34.058  25.359  23.919  1.00  0.00     0.136 A 
ATOM     88  C   UNL A   1      33.254  23.688  22.313  1.00  0.00     0.093 A 
ATOM     89  C   UNL A   1      34.705  24.317  24.638  1.00  0.00     0.048 A 
ATOM     90  C   UNL A   1      33.820  22.699  23.026  1.00  0.00     0.018 A 
ATOM     91  C   UNL A   1      34.593  23.044  24.212  1.00  0.00     0.005 A 
ENDBRANCH  82  83
ENDBRANCH  74  82
ENDBRANCH  72  74
ENDBRANCH  71  72
ENDBRANCH  70  71
ENDBRANCH   1  70
TORSDOF 13
ENDMDL
MODEL 3
REMARK VINA RESULT:     -12.3      1.297      2.381
REMARK SMILES O=C(OCCOC(=O)[C@@]1(Cc2cn3ccccc3n2)CCC[NH2+]C1)c1ccc(-c2c3nc(c(-c4c(F)c(F)c(F)c(F)c4F)c4ccc([nH]4)c(-c4c(F)c(F)c(F)c(F)c4F)c4nc(c(-c5c(F)c(F)c(F)c(F)c5F)c5ccc2[nH]5)C=C4)C=C3)cc1
REMARK SMILES IDX 4 1 3 2 2 3 1 4 25 5 26 6 87 7 27 8 86 9 28 10 29 11 30 12
REMARK SMILES IDX 80 13 31 14 85 15 79 16 81 17 32 18 84 19 78 20 77 21 33 23
REMARK SMILES IDX 65 24 45 25 64 26 46 27 49 28 63 29 82 30 47 31 48 32 62 34
REMARK SMILES IDX 83 35 50 36 34 37 35 38 43 39 36 40 37 41 41 42 44 43 38 44
REMARK SMILES IDX 39 45 42 46 40 47 66 48 67 49 75 50 68 51 69 52 73 53 76 54
REMARK SMILES IDX 70 55 71 56 74 57 72 58 51 59 52 60 60 61 53 62 54 63 58 64
REMARK SMILES IDX 61 65 55 66 56 67 59 68 57 69 5 70 6 71 7 72 8 73 9 74 20 75
REMARK SMILES IDX 24 76 21 77 23 78 22 79 10 82 11 83 12 84 19 85 13 86 18 87
REMARK SMILES IDX 14 88 17 89 15 90 16 91
REMARK H PARENT 81 22 49 33 23 80 23 81
REMARK Flexibility Score: inf
ROOT
ATOM      1  C   UNL A   1      31.736  31.232  26.266  1.00  0.00     0.275 C 
ENDROOT
BRANCH   1   2
ATOM      2  O   UNL A   1      32.727  31.112  27.296  1.00  0.00    -0.458 OA
BRANCH   2   3
ATOM      3  C   UNL A   1      33.715  31.973  27.631  1.00  0.00     0.338 C 
ATOM      4  O   UNL A   1      33.572  33.171  27.398  1.00  0.00    -0.246 OA
BRANCH   3   5
ATOM      5  C   UNL A   1      35.052  31.516  28.115  1.00  0.00     0.060 A 
ATOM      6  C   UNL A   1      36.227  32.273  28.161  1.00  0.00     0.016 A 
ATOM      7  C   UNL A   1      35.110  30.194  28.571  1.00  0.00     0.016 A 
ATOM      8  C   UNL A   1      37.383  31.784  28.788  1.00  0.00     0.010 A 
ATOM      9  C   UNL A   1      36.259  29.706  29.192  1.00  0.00     0.010 A 
ATOM     10  C   UNL A   1      37.397  30.510  29.354  1.00  0.00    -0.014 A 
BRANCH  10  11
ATOM     11  C   UNL A   1      38.597  29.983  30.057  1.00  0.00     0.031 A 
ATOM     12  C   UNL A   1      38.948  30.562  31.397  1.00  0.00     0.074 A 
ATOM     13  C   UNL A   1      39.391  29.038  29.502  1.00  0.00     0.049 A 
ATOM     14  N   UNL A   1      39.915  30.226  32.211  1.00  0.00    -0.248 NA
ATOM     15  C   UNL A   1      38.098  31.657  31.898  1.00  0.00     0.031 C 
ATOM     16  C   UNL A   1      39.176  28.384  28.211  1.00  0.00     0.029 A 
ATOM     17  N   UNL A   1      40.571  28.484  29.941  1.00  0.00    -0.354 N 
ATOM     18  C   UNL A   1      39.729  31.009  33.339  1.00  0.00     0.074 A 
ATOM     19  C   UNL A   1      38.687  31.961  33.041  1.00  0.00     0.031 C 
ATOM     20  C   UNL A   1      40.229  27.601  27.916  1.00  0.00     0.029 A 
ATOM     21  C   UNL A   1      41.162  27.631  29.034  1.00  0.00     0.049 A 
ATOM     22  H   UNL A   1      40.959  28.679  30.824  1.00  0.00     0.167 HD
ATOM     23  C   UNL A   1      40.289  30.868  34.560  1.00  0.00     0.037 A 
ATOM     24  C   UNL A   1      42.307  26.925  29.114  1.00  0.00     0.037 A 
ATOM     25  C   UNL A   1      41.331  29.930  34.854  1.00  0.00     0.049 A 
ATOM     26  C   UNL A   1      43.024  26.890  30.440  1.00  0.00     0.074 A 
ATOM     27  C   UNL A   1      41.966  29.689  36.057  1.00  0.00     0.029 A 
ATOM     28  N   UNL A   1      41.902  29.083  33.915  1.00  0.00    -0.354 N 
ATOM     29  N   UNL A   1      42.733  27.522  31.551  1.00  0.00    -0.248 NA
ATOM     30  C   UNL A   1      44.175  25.984  30.549  1.00  0.00     0.031 C 
ATOM     31  C   UNL A   1      42.957  28.727  35.833  1.00  0.00     0.029 A 
ATOM     32  C   UNL A   1      42.905  28.335  34.504  1.00  0.00     0.049 A 
ATOM     33  H   UNL A   1      41.633  29.024  32.969  1.00  0.00     0.167 HD
ATOM     34  C   UNL A   1      43.614  27.037  32.508  1.00  0.00     0.074 A 
ATOM     35  C   UNL A   1      44.450  26.058  31.842  1.00  0.00     0.031 C 
ATOM     36  C   UNL A   1      43.712  27.356  33.821  1.00  0.00     0.037 A 
BRANCH  23  37
ATOM     37  C   UNL A   1      39.713  31.713  35.654  1.00  0.00     0.064 A 
ATOM     38  C   UNL A   1      40.278  32.965  35.964  1.00  0.00     0.173 A 
ATOM     39  C   UNL A   1      38.637  31.268  36.428  1.00  0.00     0.173 A 
ATOM     40  F   UNL A   1      41.331  33.421  35.269  1.00  0.00    -0.203 F 
ATOM     41  C   UNL A   1      39.812  33.716  37.037  1.00  0.00     0.198 A 
ATOM     42  C   UNL A   1      38.152  32.038  37.483  1.00  0.00     0.198 A 
ATOM     43  F   UNL A   1      38.070  30.079  36.178  1.00  0.00    -0.203 F 
ATOM     44  F   UNL A   1      40.414  34.869  37.357  1.00  0.00    -0.200 F 
ATOM     45  C   UNL A   1      38.746  33.254  37.793  1.00  0.00     0.200 A 
ATOM     46  F   UNL A   1      37.122  31.594  38.215  1.00  0.00    -0.200 F 
ATOM     47  F   UNL A   1      38.302  33.973  38.833  1.00  0.00    -0.200 F 
ENDBRANCH  23  37
BRANCH  24  48
ATOM     48  C   UNL A   1      42.806  26.120  27.963  1.00  0.00     0.064 A 
ATOM     49  C   UNL A   1      43.712  26.655  27.034  1.00  0.00     0.173 A 
ATOM     50  C   UNL A   1      42.324  24.825  27.720  1.00  0.00     0.173 A 
ATOM     51  F   UNL A   1      44.193  27.894  27.210  1.00  0.00    -0.203 F 
ATOM     52  C   UNL A   1      44.072  25.953  25.884  1.00  0.00     0.198 A 
ATOM     53  C   UNL A   1      42.704  24.113  26.581  1.00  0.00     0.198 A 
ATOM     54  F   UNL A   1      41.461  24.257  28.576  1.00  0.00    -0.203 F 
ATOM     55  F   UNL A   1      44.881  26.522  24.980  1.00  0.00    -0.200 F 
ATOM     56  C   UNL A   1      43.566  24.683  25.656  1.00  0.00     0.200 A 
ATOM     57  F   UNL A   1      42.215  22.883  26.367  1.00  0.00    -0.200 F 
ATOM     58  F   UNL A   1      43.893  24.019  24.539  1.00  0.00    -0.200 F 
ENDBRANCH  24  48
BRANCH  36  59
ATOM     59  C   UNL A   1      44.726  26.609  34.635  1.00  0.00     0.064 A 
ATOM     60  C   UNL A   1      46.023  27.102  34.828  1.00  0.00     0.173 A 
ATOM     61  C   UNL A   1      44.377  25.404  35.264  1.00  0.00     0.173 A 
ATOM     62  F   UNL A   1      46.408  28.242  34.233  1.00  0.00    -0.203 F 
ATOM     63  C   UNL A   1      46.946  26.400  35.596  1.00  0.00     0.198 A 
ATOM     64  C   UNL A   1      45.290  24.726  36.064  1.00  0.00     0.198 A 
ATOM     65  F   UNL A   1      43.145  24.894  35.116  1.00  0.00    -0.203 F 
ATOM     66  F   UNL A   1      48.199  26.860  35.720  1.00  0.00    -0.200 F 
ATOM     67  C   UNL A   1      46.577  25.218  36.222  1.00  0.00     0.200 A 
ATOM     68  F   UNL A   1      44.924  23.594  36.683  1.00  0.00    -0.200 F 
ATOM     69  F   UNL A   1      47.463  24.551  36.972  1.00  0.00    -0.200 F 
ENDBRANCH  36  59
ENDBRANCH  10  11
ENDBRANCH   3   5
ENDBRANCH   2   3
ENDBRANCH   1   2
BRANCH   1  70
ATOM     70  C   UNL A   1      31.494  29.974  25.428  1.00  0.00     0.274 C 
BRANCH  70  71
ATOM     71  O   UNL A   1      31.823  28.727  26.070  1.00  0.00    -0.461 OA
BRANCH  71  72
ATOM     72  C   UNL A   1      32.689  27.922  25.388  1.00  0.00     0.318 C 
ATOM     73  O   UNL A   1      33.712  28.347  24.854  1.00  0.00    -0.251 OA
BRANCH  72  74
ATOM     74  C   UNL A   1      32.267  26.438  25.323  1.00  0.00     0.122 C 
ATOM     75  C   UNL A   1      33.496  25.616  25.763  1.00  0.00     0.031 C 
ATOM     76  C   UNL A   1      31.108  26.139  26.286  1.00  0.00     0.279 C 
ATOM     77  C   UNL A   1      33.209  24.149  26.080  1.00  0.00     0.063 C 
ATOM     78  N   UNL A   1      30.794  24.726  26.495  1.00  0.00    -0.345 N 
ATOM     79  C   UNL A   1      31.931  23.905  26.876  1.00  0.00     0.260 C 
ATOM     80  H   UNL A   1      30.094  24.661  27.234  1.00  0.00     0.346 HD
ATOM     81  H   UNL A   1      30.466  24.367  25.598  1.00  0.00     0.346 HD
BRANCH  74  82
ATOM     82  C   UNL A   1      31.848  26.219  23.839  1.00  0.00     0.082 C 
BRANCH  82  83
ATOM     83  C   UNL A   1      30.834  27.152  23.270  1.00  0.00     0.061 A 
ATOM     84  C   UNL A   1      30.999  28.176  22.357  1.00  0.00     0.116 A 
ATOM     85  N   UNL A   1      29.517  27.077  23.669  1.00  0.00    -0.234 NA
ATOM     86  N   UNL A   1      29.822  28.875  22.377  1.00  0.00    -0.307 N 
ATOM     87  C   UNL A   1      28.927  28.122  23.125  1.00  0.00     0.136 A 
ATOM     88  C   UNL A   1      29.514  30.115  21.821  1.00  0.00     0.093 A 
ATOM     89  C   UNL A   1      27.598  28.616  23.231  1.00  0.00     0.048 A 
ATOM     90  C   UNL A   1      28.272  30.605  21.971  1.00  0.00     0.018 A 
ATOM     91  C   UNL A   1      27.282  29.804  22.679  1.00  0.00     0.005 A 
ENDBRANCH  82  83
ENDBRANCH  74  82
ENDBRANCH  72  74
ENDBRANCH  71  72
ENDBRANCH  70  71
ENDBRANCH   1  70
TORSDOF 13
ENDMDL
