MODEL 1
REMARK VINA RESULT:     -13.1      0.000      0.000
REMARK SMILES CN1C(=O)C[C@@H](C(=O)OCCOC(=O)c2ccc(-c3c4nc(c(-c5c(F)c(F)c(F)c(F)c5F)c5ccc([nH]5)c(-c5c(F)c(F)c(F)c(F)c5F)c5nc(c(-c6c(F)c(F)c(F)c(F)c6F)c6ccc3[nH]6)C=C5)C=C4)cc2)C12CCN(c1ccc(Cl)cn1)CC2
REMARK SMILES IDX 11 1 10 2 9 3 7 4 8 5 6 6 1 7 2 8 3 9 78 10 4 11 5 12 79 13
REMARK SMILES IDX 90 14 80 15 89 16 81 17 82 18 83 19 88 20 84 21 87 22 85 23
REMARK SMILES IDX 86 24 12 25 13 26 14 27 15 28 16 29 77 30 17 31 76 32 18 33
REMARK SMILES IDX 19 34 20 35 70 36 21 37 75 38 69 39 71 40 22 41 74 42 68 43
REMARK SMILES IDX 67 44 23 46 55 47 35 48 54 49 36 50 39 51 53 52 72 53 37 54
REMARK SMILES IDX 38 55 52 57 73 58 40 59 24 60 25 61 33 62 26 63 27 64 31 65
REMARK SMILES IDX 34 66 28 67 29 68 32 69 30 70 56 71 57 72 65 73 58 74 59 75
REMARK SMILES IDX 63 76 66 77 60 78 61 79 64 80 62 81 41 82 42 83 50 84 43 85
REMARK SMILES IDX 44 86 48 87 51 88 45 89 46 90 49 91 47 92
REMARK H PARENT 71 45 39 56
REMARK Flexibility Score: inf
ROOT
ATOM      1  C   UNL A   1      31.763  29.792  26.270  1.00  0.00     0.275 C 
ENDROOT
BRANCH   1   2
ATOM      2  C   UNL A   1      31.728  28.366  26.821  1.00  0.00     0.274 C 
BRANCH   2   3
ATOM      3  O   UNL A   1      31.404  27.407  25.790  1.00  0.00    -0.462 OA
BRANCH   3   4
ATOM      4  C   UNL A   1      31.937  26.181  25.967  1.00  0.00     0.311 C 
ATOM      5  O   UNL A   1      31.609  25.417  26.874  1.00  0.00    -0.252 OA
BRANCH   4   6
ATOM      6  C   UNL A   1      33.004  25.763  24.973  1.00  0.00     0.134 C 
ATOM      7  C   UNL A   1      32.030  25.954  21.359  1.00  0.00     0.147 C 
ATOM      8  N   UNL A   1      32.547  26.111  22.706  1.00  0.00    -0.339 N 
ATOM      9  C   UNL A   1      33.080  27.311  23.153  1.00  0.00     0.223 C 
ATOM     10  C   UNL A   1      32.736  24.996  23.649  1.00  0.00     0.060 C 
ATOM     11  O   UNL A   1      33.120  28.363  22.550  1.00  0.00    -0.275 OA
ATOM     12  C   UNL A   1      33.665  27.078  24.518  1.00  0.00     0.118 C 
ATOM     13  C   UNL A   1      31.548  24.009  23.603  1.00  0.00     0.051 C 
ATOM     14  C   UNL A   1      34.046  24.217  23.258  1.00  0.00     0.051 C 
ATOM     15  C   UNL A   1      31.801  22.724  24.374  1.00  0.00     0.120 C 
ATOM     16  C   UNL A   1      34.225  22.872  23.981  1.00  0.00     0.120 C 
ATOM     17  N   UNL A   1      33.000  22.108  23.822  1.00  0.00    -0.356 N 
BRANCH  17  18
ATOM     18  C   UNL A   1      33.062  20.723  23.863  1.00  0.00     0.128 A 
ATOM     19  C   UNL A   1      34.061  20.108  24.626  1.00  0.00     0.048 A 
ATOM     20  N   UNL A   1      32.153  19.990  23.186  1.00  0.00    -0.238 NA
ATOM     21  C   UNL A   1      34.166  18.717  24.666  1.00  0.00     0.026 A 
ATOM     22  C   UNL A   1      32.274  18.638  23.239  1.00  0.00     0.134 A 
ATOM     23  C   UNL A   1      33.260  17.965  23.943  1.00  0.00     0.059 A 
ATOM     24  Cl  UNL A   1      33.358  16.253  23.913  1.00  0.00    -0.083 Cl
ENDBRANCH  17  18
ENDBRANCH   4   6
ENDBRANCH   3   4
ENDBRANCH   2   3
ENDBRANCH   1   2
BRANCH   1  25
ATOM     25  O   UNL A   1      33.122  30.255  26.139  1.00  0.00    -0.458 OA
BRANCH  25  26
ATOM     26  C   UNL A   1      33.489  31.237  26.992  1.00  0.00     0.338 C 
ATOM     27  O   UNL A   1      32.871  32.257  27.251  1.00  0.00    -0.246 OA
BRANCH  26  28
ATOM     28  C   UNL A   1      34.773  30.912  27.647  1.00  0.00     0.060 A 
ATOM     29  C   UNL A   1      35.073  29.604  28.036  1.00  0.00     0.016 A 
ATOM     30  C   UNL A   1      35.628  31.954  28.001  1.00  0.00     0.016 A 
ATOM     31  C   UNL A   1      36.190  29.345  28.830  1.00  0.00     0.010 A 
ATOM     32  C   UNL A   1      36.797  31.681  28.719  1.00  0.00     0.010 A 
ATOM     33  C   UNL A   1      37.080  30.377  29.160  1.00  0.00    -0.014 A 
BRANCH  33  34
ATOM     34  C   UNL A   1      38.317  30.105  29.941  1.00  0.00     0.031 A 
ATOM     35  C   UNL A   1      39.380  29.189  29.397  1.00  0.00     0.074 A 
ATOM     36  C   UNL A   1      38.469  30.643  31.167  1.00  0.00     0.049 A 
ATOM     37  N   UNL A   1      40.421  28.672  30.002  1.00  0.00    -0.248 NA
ATOM     38  C   UNL A   1      39.249  28.792  27.988  1.00  0.00     0.031 C 
ATOM     39  C   UNL A   1      37.537  31.572  31.806  1.00  0.00     0.029 A 
ATOM     40  N   UNL A   1      39.460  30.472  32.103  1.00  0.00    -0.354 N 
ATOM     41  C   UNL A   1      41.051  27.870  29.060  1.00  0.00     0.074 A 
ATOM     42  C   UNL A   1      40.261  27.947  27.849  1.00  0.00     0.031 C 
ATOM     43  C   UNL A   1      38.002  31.897  33.022  1.00  0.00     0.029 A 
ATOM     44  C   UNL A   1      39.223  31.140  33.279  1.00  0.00     0.049 A 
ATOM     45  H   UNL A   1      40.263  29.924  31.946  1.00  0.00     0.167 HD
ATOM     46  C   UNL A   1      42.186  27.142  29.191  1.00  0.00     0.037 A 
ATOM     47  C   UNL A   1      39.881  31.112  34.451  1.00  0.00     0.037 A 
ATOM     48  C   UNL A   1      42.980  27.077  30.392  1.00  0.00     0.049 A 
ATOM     49  C   UNL A   1      41.091  30.233  34.598  1.00  0.00     0.074 A 
ATOM     50  C   UNL A   1      44.147  26.368  30.620  1.00  0.00     0.029 A 
ATOM     51  N   UNL A   1      42.688  27.751  31.568  1.00  0.00    -0.354 N 
ATOM     52  N   UNL A   1      41.664  29.459  33.709  1.00  0.00    -0.248 NA
ATOM     53  C   UNL A   1      41.735  30.213  35.918  1.00  0.00     0.031 C 
ATOM     54  C   UNL A   1      44.541  26.583  31.946  1.00  0.00     0.029 A 
ATOM     55  C   UNL A   1      43.643  27.461  32.530  1.00  0.00     0.049 A 
ATOM     56  H   UNL A   1      41.917  28.348  31.700  1.00  0.00     0.167 HD
ATOM     57  C   UNL A   1      42.748  28.879  34.353  1.00  0.00     0.074 A 
ATOM     58  C   UNL A   1      42.760  29.401  35.705  1.00  0.00     0.031 C 
ATOM     59  C   UNL A   1      43.650  27.992  33.868  1.00  0.00     0.037 A 
BRANCH  46  60
ATOM     60  C   UNL A   1      42.639  26.337  28.007  1.00  0.00     0.064 A 
ATOM     61  C   UNL A   1      42.176  25.032  27.784  1.00  0.00     0.173 A 
ATOM     62  C   UNL A   1      43.498  26.901  27.052  1.00  0.00     0.173 A 
ATOM     63  F   UNL A   1      41.365  24.441  28.675  1.00  0.00    -0.203 F 
ATOM     64  C   UNL A   1      42.570  24.316  26.656  1.00  0.00     0.198 A 
ATOM     65  C   UNL A   1      43.869  26.191  25.913  1.00  0.00     0.198 A 
ATOM     66  F   UNL A   1      43.964  28.148  27.214  1.00  0.00    -0.203 F 
ATOM     67  F   UNL A   1      42.140  23.058  26.480  1.00  0.00    -0.200 F 
ATOM     68  C   UNL A   1      43.408  24.898  25.718  1.00  0.00     0.200 A 
ATOM     69  F   UNL A   1      44.670  26.761  25.001  1.00  0.00    -0.200 F 
ATOM     70  F   UNL A   1      43.774  24.212  24.626  1.00  0.00    -0.200 F 
ENDBRANCH  46  60
BRANCH  47  71
ATOM     71  C   UNL A   1      39.388  31.922  35.594  1.00  0.00     0.064 A 
ATOM     72  C   UNL A   1      39.810  33.247  35.771  1.00  0.00     0.173 A 
ATOM     73  C   UNL A   1      38.489  31.392  36.530  1.00  0.00     0.173 A 
ATOM     74  F   UNL A   1      40.690  33.788  34.916  1.00  0.00    -0.203 F 
ATOM     75  C   UNL A   1      39.359  34.006  36.847  1.00  0.00     0.198 A 
ATOM     76  C   UNL A   1      38.015  32.162  37.589  1.00  0.00     0.198 A 
ATOM     77  F   UNL A   1      38.056  30.128  36.406  1.00  0.00    -0.203 F 
ATOM     78  F   UNL A   1      39.810  35.256  37.017  1.00  0.00    -0.200 F 
ATOM     79  C   UNL A   1      38.457  33.466  37.751  1.00  0.00     0.200 A 
ATOM     80  F   UNL A   1      37.133  31.640  38.453  1.00  0.00    -0.200 F 
ATOM     81  F   UNL A   1      38.018  34.200  38.783  1.00  0.00    -0.200 F 
ENDBRANCH  47  71
BRANCH  59  82
ATOM     82  C   UNL A   1      44.749  27.562  34.793  1.00  0.00     0.064 A 
ATOM     83  C   UNL A   1      45.951  28.279  34.890  1.00  0.00     0.173 A 
ATOM     84  C   UNL A   1      44.591  26.428  35.602  1.00  0.00     0.173 A 
ATOM     85  F   UNL A   1      46.156  29.360  34.122  1.00  0.00    -0.203 F 
ATOM     86  C   UNL A   1      46.966  27.860  35.746  1.00  0.00     0.198 A 
ATOM     87  C   UNL A   1      45.598  26.027  36.477  1.00  0.00     0.198 A 
ATOM     88  F   UNL A   1      43.459  25.710  35.549  1.00  0.00    -0.203 F 
ATOM     89  F   UNL A   1      48.124  28.532  35.788  1.00  0.00    -0.200 F 
ATOM     90  C   UNL A   1      46.786  26.739  36.542  1.00  0.00     0.200 A 
ATOM     91  F   UNL A   1      45.420  24.948  37.252  1.00  0.00    -0.200 F 
ATOM     92  F   UNL A   1      47.765  26.336  37.366  1.00  0.00    -0.200 F 
ENDBRANCH  59  82
ENDBRANCH  33  34
ENDBRANCH  26  28
ENDBRANCH  25  26
ENDBRANCH   1  25
TORSDOF 12
ENDMDL
MODEL 2
REMARK VINA RESULT:     -13.0      4.742      9.857
REMARK SMILES CN1C(=O)C[C@@H](C(=O)OCCOC(=O)c2ccc(-c3c4nc(c(-c5c(F)c(F)c(F)c(F)c5F)c5ccc([nH]5)c(-c5c(F)c(F)c(F)c(F)c5F)c5nc(c(-c6c(F)c(F)c(F)c(F)c6F)c6ccc3[nH]6)C=C5)C=C4)cc2)C12CCN(c1ccc(Cl)cn1)CC2
REMARK SMILES IDX 11 1 10 2 9 3 7 4 8 5 6 6 1 7 2 8 3 9 78 10 4 11 5 12 79 13
REMARK SMILES IDX 90 14 80 15 89 16 81 17 82 18 83 19 88 20 84 21 87 22 85 23
REMARK SMILES IDX 86 24 12 25 13 26 14 27 15 28 16 29 77 30 17 31 76 32 18 33
REMARK SMILES IDX 19 34 20 35 70 36 21 37 75 38 69 39 71 40 22 41 74 42 68 43
REMARK SMILES IDX 67 44 23 46 55 47 35 48 54 49 36 50 39 51 53 52 72 53 37 54
REMARK SMILES IDX 38 55 52 57 73 58 40 59 24 60 25 61 33 62 26 63 27 64 31 65
REMARK SMILES IDX 34 66 28 67 29 68 32 69 30 70 56 71 57 72 65 73 58 74 59 75
REMARK SMILES IDX 63 76 66 77 60 78 61 79 64 80 62 81 41 82 42 83 50 84 43 85
REMARK SMILES IDX 44 86 48 87 51 88 45 89 46 90 49 91 47 92
REMARK H PARENT 71 45 39 56
REMARK Flexibility Score: inf
ROOT
ATOM      1  C   UNL A   1      37.003  21.434  24.260  1.00  0.00     0.275 C 
ENDROOT
BRANCH   1   2
ATOM      2  C   UNL A   1      36.337  22.658  23.629  1.00  0.00     0.274 C 
BRANCH   2   3
ATOM      3  O   UNL A   1      34.959  22.783  24.044  1.00  0.00    -0.462 OA
BRANCH   3   4
ATOM      4  C   UNL A   1      34.369  23.950  23.713  1.00  0.00     0.311 C 
ATOM      5  O   UNL A   1      34.403  24.437  22.584  1.00  0.00    -0.252 OA
BRANCH   4   6
ATOM      6  C   UNL A   1      33.641  24.675  24.829  1.00  0.00     0.134 C 
ATOM      7  C   UNL A   1      30.631  22.925  26.216  1.00  0.00     0.147 C 
ATOM      8  N   UNL A   1      31.920  23.517  25.910  1.00  0.00    -0.339 N 
ATOM      9  C   UNL A   1      33.078  23.139  26.573  1.00  0.00     0.223 C 
ATOM     10  C   UNL A   1      32.101  24.683  25.029  1.00  0.00     0.060 C 
ATOM     11  O   UNL A   1      33.193  22.259  27.401  1.00  0.00    -0.275 OA
ATOM     12  C   UNL A   1      34.184  24.055  26.131  1.00  0.00     0.118 C 
ATOM     13  C   UNL A   1      31.200  24.590  23.776  1.00  0.00     0.051 C 
ATOM     14  C   UNL A   1      31.715  25.984  25.825  1.00  0.00     0.051 C 
ATOM     15  C   UNL A   1      31.168  25.872  22.961  1.00  0.00     0.120 C 
ATOM     16  C   UNL A   1      31.592  27.247  24.956  1.00  0.00     0.120 C 
ATOM     17  N   UNL A   1      30.715  26.942  23.839  1.00  0.00    -0.356 N 
BRANCH  17  18
ATOM     18  C   UNL A   1      30.000  27.971  23.245  1.00  0.00     0.128 A 
ATOM     19  C   UNL A   1      28.605  27.986  23.359  1.00  0.00     0.048 A 
ATOM     20  N   UNL A   1      30.654  28.950  22.585  1.00  0.00    -0.238 NA
ATOM     21  C   UNL A   1      27.855  28.993  22.751  1.00  0.00     0.026 A 
ATOM     22  C   UNL A   1      29.904  29.921  22.001  1.00  0.00     0.134 A 
ATOM     23  C   UNL A   1      28.520  29.975  22.042  1.00  0.00     0.059 A 
ATOM     24  Cl  UNL A   1      27.658  31.218  21.233  1.00  0.00    -0.083 Cl
ENDBRANCH  17  18
ENDBRANCH   4   6
ENDBRANCH   3   4
ENDBRANCH   2   3
ENDBRANCH   1   2
BRANCH   1  25
ATOM     25  O   UNL A   1      37.341  21.690  25.637  1.00  0.00    -0.458 OA
BRANCH  25  26
ATOM     26  C   UNL A   1      38.626  21.446  25.979  1.00  0.00     0.338 C 
ATOM     27  O   UNL A   1      39.231  20.393  25.864  1.00  0.00    -0.246 OA
BRANCH  26  28
ATOM     28  C   UNL A   1      39.273  22.667  26.500  1.00  0.00     0.060 A 
ATOM     29  C   UNL A   1      38.805  23.936  26.152  1.00  0.00     0.016 A 
ATOM     30  C   UNL A   1      40.450  22.541  27.238  1.00  0.00     0.016 A 
ATOM     31  C   UNL A   1      39.542  25.074  26.483  1.00  0.00     0.010 A 
ATOM     32  C   UNL A   1      41.140  23.686  27.648  1.00  0.00     0.010 A 
ATOM     33  C   UNL A   1      40.706  24.964  27.257  1.00  0.00    -0.014 A 
BRANCH  33  34
ATOM     34  C   UNL A   1      41.462  26.173  27.684  1.00  0.00     0.031 A 
ATOM     35  C   UNL A   1      40.792  27.246  28.499  1.00  0.00     0.074 A 
ATOM     36  C   UNL A   1      42.742  26.334  27.299  1.00  0.00     0.049 A 
ATOM     37  N   UNL A   1      41.214  28.451  28.792  1.00  0.00    -0.248 NA
ATOM     38  C   UNL A   1      39.466  26.926  29.047  1.00  0.00     0.031 C 
ATOM     39  C   UNL A   1      43.527  25.363  26.535  1.00  0.00     0.029 A 
ATOM     40  N   UNL A   1      43.607  27.385  27.485  1.00  0.00    -0.354 N 
ATOM     41  C   UNL A   1      40.199  29.041  29.533  1.00  0.00     0.074 A 
ATOM     42  C   UNL A   1      39.127  28.071  29.623  1.00  0.00     0.031 C 
ATOM     43  C   UNL A   1      44.757  25.856  26.327  1.00  0.00     0.029 A 
ATOM     44  C   UNL A   1      44.823  27.208  26.872  1.00  0.00     0.049 A 
ATOM     45  H   UNL A   1      43.378  28.187  28.007  1.00  0.00     0.167 HD
ATOM     46  C   UNL A   1      40.165  30.276  30.092  1.00  0.00     0.037 A 
ATOM     47  C   UNL A   1      45.859  28.052  26.720  1.00  0.00     0.037 A 
ATOM     48  C   UNL A   1      41.237  31.235  30.015  1.00  0.00     0.049 A 
ATOM     49  C   UNL A   1      45.766  29.444  27.277  1.00  0.00     0.074 A 
ATOM     50  C   UNL A   1      41.297  32.510  30.551  1.00  0.00     0.029 A 
ATOM     51  N   UNL A   1      42.442  31.022  29.363  1.00  0.00    -0.354 N 
ATOM     52  N   UNL A   1      44.792  30.000  27.954  1.00  0.00    -0.248 NA
ATOM     53  C   UNL A   1      46.914  30.330  27.035  1.00  0.00     0.031 C 
ATOM     54  C   UNL A   1      42.522  33.083  30.191  1.00  0.00     0.029 A 
ATOM     55  C   UNL A   1      43.244  32.148  29.467  1.00  0.00     0.049 A 
ATOM     56  H   UNL A   1      42.691  30.193  28.894  1.00  0.00     0.167 HD
ATOM     57  C   UNL A   1      45.216  31.291  28.238  1.00  0.00     0.074 A 
ATOM     58  C   UNL A   1      46.542  31.430  27.672  1.00  0.00     0.031 C 
ATOM     59  C   UNL A   1      44.564  32.272  28.907  1.00  0.00     0.037 A 
BRANCH  46  60
ATOM     60  C   UNL A   1      38.919  30.674  30.829  1.00  0.00     0.064 A 
ATOM     61  C   UNL A   1      38.796  30.498  32.215  1.00  0.00     0.173 A 
ATOM     62  C   UNL A   1      37.860  31.295  30.150  1.00  0.00     0.173 A 
ATOM     63  F   UNL A   1      39.774  29.896  32.909  1.00  0.00    -0.203 F 
ATOM     64  C   UNL A   1      37.652  30.915  32.891  1.00  0.00     0.198 A 
ATOM     65  C   UNL A   1      36.728  31.733  30.832  1.00  0.00     0.198 A 
ATOM     66  F   UNL A   1      37.930  31.492  28.825  1.00  0.00    -0.203 F 
ATOM     67  F   UNL A   1      37.543  30.708  34.211  1.00  0.00    -0.200 F 
ATOM     68  C   UNL A   1      36.624  31.540  32.202  1.00  0.00     0.200 A 
ATOM     69  F   UNL A   1      35.741  32.347  30.166  1.00  0.00    -0.200 F 
ATOM     70  F   UNL A   1      35.530  31.953  32.857  1.00  0.00    -0.200 F 
ENDBRANCH  46  60
BRANCH  47  71
ATOM     71  C   UNL A   1      47.067  27.611  25.976  1.00  0.00     0.064 A 
ATOM     72  C   UNL A   1      48.175  27.086  26.652  1.00  0.00     0.173 A 
ATOM     73  C   UNL A   1      47.137  27.705  24.578  1.00  0.00     0.173 A 
ATOM     74  F   UNL A   1      48.164  27.001  27.990  1.00  0.00    -0.203 F 
ATOM     75  C   UNL A   1      49.314  26.682  25.959  1.00  0.00     0.198 A 
ATOM     76  C   UNL A   1      48.265  27.273  23.884  1.00  0.00     0.198 A 
ATOM     77  F   UNL A   1      46.102  28.203  23.884  1.00  0.00    -0.203 F 
ATOM     78  F   UNL A   1      50.377  26.222  26.633  1.00  0.00    -0.200 F 
ATOM     79  C   UNL A   1      49.355  26.769  24.576  1.00  0.00     0.200 A 
ATOM     80  F   UNL A   1      48.295  27.347  22.546  1.00  0.00    -0.200 F 
ATOM     81  F   UNL A   1      50.448  26.374  23.910  1.00  0.00    -0.200 F 
ENDBRANCH  47  71
BRANCH  59  82
ATOM     82  C   UNL A   1      45.292  33.569  29.098  1.00  0.00     0.064 A 
ATOM     83  C   UNL A   1      45.165  34.625  28.184  1.00  0.00     0.173 A 
ATOM     84  C   UNL A   1      46.114  33.762  30.218  1.00  0.00     0.173 A 
ATOM     85  F   UNL A   1      44.406  34.481  27.087  1.00  0.00    -0.203 F 
ATOM     86  C   UNL A   1      45.857  35.819  28.370  1.00  0.00     0.198 A 
ATOM     87  C   UNL A   1      46.783  34.968  30.415  1.00  0.00     0.198 A 
ATOM     88  F   UNL A   1      46.266  32.784  31.123  1.00  0.00    -0.203 F 
ATOM     89  F   UNL A   1      45.760  36.797  27.459  1.00  0.00    -0.200 F 
ATOM     90  C   UNL A   1      46.660  35.991  29.488  1.00  0.00     0.200 A 
ATOM     91  F   UNL A   1      47.552  35.135  31.500  1.00  0.00    -0.200 F 
ATOM     92  F   UNL A   1      47.325  37.141  29.666  1.00  0.00    -0.200 F 
ENDBRANCH  59  82
ENDBRANCH  33  34
ENDBRANCH  26  28
ENDBRANCH  25  26
ENDBRANCH   1  25
TORSDOF 12
ENDMDL
MODEL 3
REMARK VINA RESULT:     -13.0      0.326      2.008
REMARK SMILES CN1C(=O)C[C@@H](C(=O)OCCOC(=O)c2ccc(-c3c4nc(c(-c5c(F)c(F)c(F)c(F)c5F)c5ccc([nH]5)c(-c5c(F)c(F)c(F)c(F)c5F)c5nc(c(-c6c(F)c(F)c(F)c(F)c6F)c6ccc3[nH]6)C=C5)C=C4)cc2)C12CCN(c1ccc(Cl)cn1)CC2
REMARK SMILES IDX 11 1 10 2 9 3 7 4 8 5 6 6 1 7 2 8 3 9 78 10 4 11 5 12 79 13
REMARK SMILES IDX 90 14 80 15 89 16 81 17 82 18 83 19 88 20 84 21 87 22 85 23
REMARK SMILES IDX 86 24 12 25 13 26 14 27 15 28 16 29 77 30 17 31 76 32 18 33
REMARK SMILES IDX 19 34 20 35 70 36 21 37 75 38 69 39 71 40 22 41 74 42 68 43
REMARK SMILES IDX 67 44 23 46 55 47 35 48 54 49 36 50 39 51 53 52 72 53 37 54
REMARK SMILES IDX 38 55 52 57 73 58 40 59 24 60 25 61 33 62 26 63 27 64 31 65
REMARK SMILES IDX 34 66 28 67 29 68 32 69 30 70 56 71 57 72 65 73 58 74 59 75
REMARK SMILES IDX 63 76 66 77 60 78 61 79 64 80 62 81 41 82 42 83 50 84 43 85
REMARK SMILES IDX 44 86 48 87 51 88 45 89 46 90 49 91 47 92
REMARK H PARENT 71 45 39 56
REMARK Flexibility Score: inf
ROOT
ATOM      1  C   UNL A   1      31.689  29.757  26.292  1.00  0.00     0.275 C 
ENDROOT
BRANCH   1   2
ATOM      2  C   UNL A   1      31.712  28.330  26.839  1.00  0.00     0.274 C 
BRANCH   2   3
ATOM      3  O   UNL A   1      31.360  27.366  25.822  1.00  0.00    -0.462 OA
BRANCH   3   4
ATOM      4  C   UNL A   1      31.887  26.137  25.998  1.00  0.00     0.311 C 
ATOM      5  O   UNL A   1      31.523  25.356  26.876  1.00  0.00    -0.252 OA
BRANCH   4   6
ATOM      6  C   UNL A   1      32.994  25.738  25.040  1.00  0.00     0.134 C 
ATOM      7  C   UNL A   1      32.153  25.953  21.395  1.00  0.00     0.147 C 
ATOM      8  N   UNL A   1      32.619  26.103  22.761  1.00  0.00    -0.339 N 
ATOM      9  C   UNL A   1      33.123  27.303  23.238  1.00  0.00     0.223 C 
ATOM     10  C   UNL A   1      32.783  24.981  23.701  1.00  0.00     0.060 C 
ATOM     11  O   UNL A   1      33.175  28.361  22.646  1.00  0.00    -0.275 OA
ATOM     12  C   UNL A   1      33.658  27.064  24.621  1.00  0.00     0.118 C 
ATOM     13  C   UNL A   1      31.606  23.984  23.601  1.00  0.00     0.051 C 
ATOM     14  C   UNL A   1      34.113  24.218  23.352  1.00  0.00     0.051 C 
ATOM     15  C   UNL A   1      31.843  22.694  24.370  1.00  0.00     0.120 C 
ATOM     16  C   UNL A   1      34.279  22.868  24.069  1.00  0.00     0.120 C 
ATOM     17  N   UNL A   1      33.068  22.094  23.858  1.00  0.00    -0.356 N 
BRANCH  17  18
ATOM     18  C   UNL A   1      33.141  20.710  23.889  1.00  0.00     0.128 A 
ATOM     19  C   UNL A   1      32.229  19.962  23.134  1.00  0.00     0.048 A 
ATOM     20  N   UNL A   1      34.095  20.103  24.626  1.00  0.00    -0.238 NA
ATOM     21  C   UNL A   1      32.260  18.568  23.165  1.00  0.00     0.026 A 
ATOM     22  C   UNL A   1      34.107  18.745  24.641  1.00  0.00     0.134 A 
ATOM     23  C   UNL A   1      33.212  17.945  23.949  1.00  0.00     0.059 A 
ATOM     24  Cl  UNL A   1      33.278  16.235  24.067  1.00  0.00    -0.083 Cl
ENDBRANCH  17  18
ENDBRANCH   4   6
ENDBRANCH   3   4
ENDBRANCH   2   3
ENDBRANCH   1   2
BRANCH   1  25
ATOM     25  O   UNL A   1      33.029  30.262  26.127  1.00  0.00    -0.458 OA
BRANCH  25  26
ATOM     26  C   UNL A   1      33.398  31.233  26.992  1.00  0.00     0.338 C 
ATOM     27  O   UNL A   1      32.774  32.242  27.276  1.00  0.00    -0.246 OA
BRANCH  26  28
ATOM     28  C   UNL A   1      34.693  30.909  27.625  1.00  0.00     0.060 A 
ATOM     29  C   UNL A   1      35.008  29.598  27.990  1.00  0.00     0.016 A 
ATOM     30  C   UNL A   1      35.544  31.952  27.985  1.00  0.00     0.016 A 
ATOM     31  C   UNL A   1      36.138  29.336  28.766  1.00  0.00     0.010 A 
ATOM     32  C   UNL A   1      36.724  31.677  28.684  1.00  0.00     0.010 A 
ATOM     33  C   UNL A   1      37.024  30.370  29.101  1.00  0.00    -0.014 A 
BRANCH  33  34
ATOM     34  C   UNL A   1      38.272  30.096  29.862  1.00  0.00     0.031 A 
ATOM     35  C   UNL A   1      39.330  29.186  29.296  1.00  0.00     0.074 A 
ATOM     36  C   UNL A   1      38.440  30.626  31.089  1.00  0.00     0.049 A 
ATOM     37  N   UNL A   1      40.381  28.668  29.883  1.00  0.00    -0.248 NA
ATOM     38  C   UNL A   1      39.179  28.798  27.886  1.00  0.00     0.031 C 
ATOM     39  C   UNL A   1      37.515  31.548  31.748  1.00  0.00     0.029 A 
ATOM     40  N   UNL A   1      39.445  30.452  32.009  1.00  0.00    -0.354 N 
ATOM     41  C   UNL A   1      40.999  27.874  28.926  1.00  0.00     0.074 A 
ATOM     42  C   UNL A   1      40.191  27.957  27.727  1.00  0.00     0.031 C 
ATOM     43  C   UNL A   1      37.998  31.866  32.958  1.00  0.00     0.029 A 
ATOM     44  C   UNL A   1      39.224  31.111  33.193  1.00  0.00     0.049 A 
ATOM     45  H   UNL A   1      40.247  29.907  31.836  1.00  0.00     0.167 HD
ATOM     46  C   UNL A   1      42.138  27.148  29.036  1.00  0.00     0.037 A 
ATOM     47  C   UNL A   1      39.900  31.077  34.355  1.00  0.00     0.037 A 
ATOM     48  C   UNL A   1      42.949  27.078  30.225  1.00  0.00     0.049 A 
ATOM     49  C   UNL A   1      41.114  30.200  34.478  1.00  0.00     0.074 A 
ATOM     50  C   UNL A   1      44.121  26.370  30.431  1.00  0.00     0.029 A 
ATOM     51  N   UNL A   1      42.673  27.743  31.409  1.00  0.00    -0.354 N 
ATOM     52  N   UNL A   1      41.676  29.435  33.576  1.00  0.00    -0.248 NA
ATOM     53  C   UNL A   1      41.778  30.174  35.789  1.00  0.00     0.031 C 
ATOM     54  C   UNL A   1      44.534  26.577  31.752  1.00  0.00     0.029 A 
ATOM     55  C   UNL A   1      43.643  27.449  32.356  1.00  0.00     0.049 A 
ATOM     56  H   UNL A   1      41.902  28.337  31.557  1.00  0.00     0.167 HD
ATOM     57  C   UNL A   1      42.770  28.853  34.201  1.00  0.00     0.074 A 
ATOM     58  C   UNL A   1      42.801  29.366  35.555  1.00  0.00     0.031 C 
ATOM     59  C   UNL A   1      43.667  27.972  33.697  1.00  0.00     0.037 A 
BRANCH  46  60
ATOM     60  C   UNL A   1      42.575  26.352  27.840  1.00  0.00     0.064 A 
ATOM     61  C   UNL A   1      43.535  26.840  26.942  1.00  0.00     0.173 A 
ATOM     62  C   UNL A   1      42.071  25.060  27.625  1.00  0.00     0.173 A 
ATOM     63  F   UNL A   1      44.037  28.074  27.096  1.00  0.00    -0.203 F 
ATOM     64  C   UNL A   1      43.964  26.069  25.864  1.00  0.00     0.198 A 
ATOM     65  C   UNL A   1      42.520  24.283  26.560  1.00  0.00     0.198 A 
ATOM     66  F   UNL A   1      41.155  24.544  28.457  1.00  0.00    -0.203 F 
ATOM     67  F   UNL A   1      44.860  26.569  25.001  1.00  0.00    -0.200 F 
ATOM     68  C   UNL A   1      43.464  24.789  25.679  1.00  0.00     0.200 A 
ATOM     69  F   UNL A   1      42.043  23.041  26.390  1.00  0.00    -0.200 F 
ATOM     70  F   UNL A   1      43.888  24.044  24.648  1.00  0.00    -0.200 F 
ENDBRANCH  46  60
BRANCH  47  71
ATOM     71  C   UNL A   1      39.422  31.879  35.510  1.00  0.00     0.064 A 
ATOM     72  C   UNL A   1      38.533  31.332  36.445  1.00  0.00     0.173 A 
ATOM     73  C   UNL A   1      39.841  33.203  35.703  1.00  0.00     0.173 A 
ATOM     74  F   UNL A   1      38.084  30.078  36.288  1.00  0.00    -0.203 F 
ATOM     75  C   UNL A   1      38.074  32.083  37.524  1.00  0.00     0.198 A 
ATOM     76  C   UNL A   1      39.404  33.944  36.799  1.00  0.00     0.198 A 
ATOM     77  F   UNL A   1      40.690  33.773  34.835  1.00  0.00    -0.203 F 
ATOM     78  F   UNL A   1      37.191  31.551  38.380  1.00  0.00    -0.200 F 
ATOM     79  C   UNL A   1      38.514  33.386  37.704  1.00  0.00     0.200 A 
ATOM     80  F   UNL A   1      39.843  35.197  36.975  1.00  0.00    -0.200 F 
ATOM     81  F   UNL A   1      38.077  34.106  38.745  1.00  0.00    -0.200 F 
ENDBRANCH  47  71
BRANCH  59  82
ATOM     82  C   UNL A   1      44.782  27.539  34.602  1.00  0.00     0.064 A 
ATOM     83  C   UNL A   1      44.678  26.388  35.397  1.00  0.00     0.173 A 
ATOM     84  C   UNL A   1      45.973  28.276  34.662  1.00  0.00     0.173 A 
ATOM     85  F   UNL A   1      43.551  25.660  35.388  1.00  0.00    -0.203 F 
ATOM     86  C   UNL A   1      45.718  26.005  36.240  1.00  0.00     0.198 A 
ATOM     87  C   UNL A   1      47.022  27.875  35.486  1.00  0.00     0.198 A 
ATOM     88  F   UNL A   1      46.123  29.382  33.919  1.00  0.00    -0.203 F 
ATOM     89  F   UNL A   1      45.579  24.930  37.027  1.00  0.00    -0.200 F 
ATOM     90  C   UNL A   1      46.890  26.746  36.279  1.00  0.00     0.200 A 
ATOM     91  F   UNL A   1      48.157  28.587  35.517  1.00  0.00    -0.200 F 
ATOM     92  F   UNL A   1      47.891  26.376  37.092  1.00  0.00    -0.200 F 
ENDBRANCH  59  82
ENDBRANCH  33  34
ENDBRANCH  26  28
ENDBRANCH  25  26
ENDBRANCH   1  25
TORSDOF 12
ENDMDL
