MODEL 1
REMARK VINA RESULT:     -12.8      0.000      0.000
REMARK SMILES COc1cccc(C(=O)NNC(=O)[C@H]2CC(C)=C(C)C[C@@H]2C(=O)OCCOC(=O)c2ccc(-c3c4nc(c(-c5c(F)c(F)c(F)c(F)c5F)c5ccc([nH]5)c(-c5c(F)c(F)c(F)c(F)c5F)c5nc(c(-c6c(F)c(F)c(F)c(F)c6F)c6ccc3[nH]6)C=C5)C=C4)cc2)c1
REMARK SMILES IDX 25 1 24 2 22 3 23 4 21 5 14 6 15 7 16 8 20 9 17 10 18 11
REMARK SMILES IDX 19 12 12 13 11 14 13 16 10 17 8 18 9 19 7 21 3 22 4 23 93 24
REMARK SMILES IDX 5 25 6 26 2 27 1 28 26 29 27 30 28 31 29 32 30 33 31 34
REMARK SMILES IDX 92 35 32 36 91 37 33 38 34 39 35 40 85 41 36 42 90 43 84 44
REMARK SMILES IDX 86 45 37 46 89 47 83 48 82 49 38 51 70 52 50 53 69 54 51 55
REMARK SMILES IDX 54 56 68 57 87 58 52 59 53 60 67 62 88 63 55 64 39 65 40 66
REMARK SMILES IDX 48 67 41 68 42 69 46 70 49 71 43 72 44 73 47 74 45 75 71 76
REMARK SMILES IDX 72 77 80 78 73 79 74 80 78 81 81 82 75 83 76 84 79 85 77 86
REMARK SMILES IDX 56 87 57 88 65 89 58 90 59 91 63 92 66 93 60 94 61 95 64 96
REMARK SMILES IDX 62 97
REMARK H PARENT 11 15 10 20 86 50 54 61
REMARK Flexibility Score: inf
ROOT
ATOM      1  C   UNL A   1      31.873  27.966  26.693  1.00  0.00     0.274 C 
ENDROOT
BRANCH   1   2
ATOM      2  O   UNL A   1      31.304  27.725  25.391  1.00  0.00    -0.462 OA
BRANCH   2   3
ATOM      3  C   UNL A   1      30.451  26.670  25.273  1.00  0.00     0.310 C 
ATOM      4  O   UNL A   1      30.016  26.009  26.206  1.00  0.00    -0.252 OA
BRANCH   3   5
ATOM      5  C   UNL A   1      30.069  26.459  23.812  1.00  0.00     0.116 C 
ATOM      6  C   UNL A   1      31.031  27.281  22.924  1.00  0.00     0.099 C 
ATOM      7  C   UNL A   1      30.426  28.492  22.205  1.00  0.00     0.045 C 
ATOM      8  C   UNL A   1      29.061  28.958  22.635  1.00  0.00    -0.074 C 
ATOM      9  C   UNL A   1      28.576  26.728  23.626  1.00  0.00     0.046 C 
ATOM     10  C   UNL A   1      28.752  30.382  22.240  1.00  0.00     0.039 C 
ATOM     11  C   UNL A   1      28.200  28.143  23.273  1.00  0.00    -0.073 C 
ATOM     12  C   UNL A   1      26.793  28.555  23.617  1.00  0.00     0.039 C 
BRANCH   6  13
ATOM     13  C   UNL A   1      31.849  26.370  21.999  1.00  0.00     0.242 C 
ATOM     14  N   UNL A   1      32.819  25.572  22.561  1.00  0.00    -0.267 N 
ATOM     15  H   UNL A   1      33.039  24.721  22.119  1.00  0.00     0.191 HD
ATOM     16  O   UNL A   1      31.623  26.253  20.795  1.00  0.00    -0.273 OA
BRANCH  14  17
ATOM     17  N   UNL A   1      33.502  25.903  23.716  1.00  0.00    -0.263 N 
ATOM     18  C   UNL A   1      33.780  25.077  24.786  1.00  0.00     0.269 C 
ATOM     19  O   UNL A   1      34.469  25.532  25.699  1.00  0.00    -0.267 OA
ATOM     20  H   UNL A   1      33.825  26.831  23.784  1.00  0.00     0.191 HD
BRANCH  18  21
ATOM     21  C   UNL A   1      33.200  23.714  24.912  1.00  0.00     0.045 A 
ATOM     22  C   UNL A   1      31.487  22.140  25.595  1.00  0.00     0.119 A 
ATOM     23  C   UNL A   1      32.331  21.083  25.254  1.00  0.00     0.046 A 
ATOM     24  C   UNL A   1      31.900  23.453  25.360  1.00  0.00     0.060 A 
ATOM     25  C   UNL A   1      33.596  21.331  24.724  1.00  0.00     0.005 A 
ATOM     26  C   UNL A   1      34.038  22.641  24.571  1.00  0.00     0.014 A 
BRANCH  22  27
ATOM     27  O   UNL A   1      30.288  21.775  26.140  1.00  0.00    -0.497 OA
ATOM     28  C   UNL A   1      29.703  22.698  27.053  1.00  0.00     0.278 C 
ENDBRANCH  22  27
ENDBRANCH  18  21
ENDBRANCH  14  17
ENDBRANCH   6  13
ENDBRANCH   3   5
ENDBRANCH   2   3
ENDBRANCH   1   2
BRANCH   1  29
ATOM     29  C   UNL A   1      31.727  29.439  27.069  1.00  0.00     0.275 C 
BRANCH  29  30
ATOM     30  O   UNL A   1      32.733  30.219  26.392  1.00  0.00    -0.458 OA
BRANCH  30  31
ATOM     31  C   UNL A   1      33.264  31.234  27.102  1.00  0.00     0.338 C 
ATOM     32  O   UNL A   1      32.700  32.254  27.485  1.00  0.00    -0.246 OA
BRANCH  31  33
ATOM     33  C   UNL A   1      34.675  30.971  27.423  1.00  0.00     0.060 A 
ATOM     34  C   UNL A   1      35.148  29.664  27.441  1.00  0.00     0.016 A 
ATOM     35  C   UNL A   1      35.474  32.005  27.910  1.00  0.00     0.016 A 
ATOM     36  C   UNL A   1      36.335  29.376  28.116  1.00  0.00     0.010 A 
ATOM     37  C   UNL A   1      36.724  31.718  28.474  1.00  0.00     0.010 A 
ATOM     38  C   UNL A   1      37.135  30.391  28.679  1.00  0.00    -0.014 A 
BRANCH  38  39
ATOM     39  C   UNL A   1      38.315  30.057  29.550  1.00  0.00     0.031 A 
ATOM     40  C   UNL A   1      39.496  29.277  28.997  1.00  0.00     0.074 A 
ATOM     41  C   UNL A   1      38.388  30.481  30.831  1.00  0.00     0.049 A 
ATOM     42  N   UNL A   1      40.516  28.750  29.634  1.00  0.00    -0.248 NA
ATOM     43  C   UNL A   1      39.528  29.032  27.545  1.00  0.00     0.031 C 
ATOM     44  C   UNL A   1      37.360  31.247  31.535  1.00  0.00     0.029 A 
ATOM     45  N   UNL A   1      39.395  30.361  31.761  1.00  0.00    -0.354 N 
ATOM     46  C   UNL A   1      41.222  28.011  28.691  1.00  0.00     0.074 A 
ATOM     47  C   UNL A   1      40.549  28.194  27.425  1.00  0.00     0.031 C 
ATOM     48  C   UNL A   1      37.829  31.624  32.732  1.00  0.00     0.029 A 
ATOM     49  C   UNL A   1      39.148  31.033  32.934  1.00  0.00     0.049 A 
ATOM     50  H   UNL A   1      40.216  29.840  31.602  1.00  0.00     0.167 HD
ATOM     51  C   UNL A   1      42.330  27.249  28.861  1.00  0.00     0.037 A 
ATOM     52  C   UNL A   1      39.877  31.147  34.063  1.00  0.00     0.037 A 
ATOM     53  C   UNL A   1      43.117  27.206  30.064  1.00  0.00     0.049 A 
ATOM     54  C   UNL A   1      41.178  30.405  34.184  1.00  0.00     0.074 A 
ATOM     55  C   UNL A   1      44.301  26.524  30.295  1.00  0.00     0.029 A 
ATOM     56  N   UNL A   1      42.831  27.913  31.219  1.00  0.00    -0.354 N 
ATOM     57  N   UNL A   1      41.777  29.636  33.309  1.00  0.00    -0.248 NA
ATOM     58  C   UNL A   1      41.885  30.517  35.469  1.00  0.00     0.031 C 
ATOM     59  C   UNL A   1      44.733  26.822  31.593  1.00  0.00     0.029 A 
ATOM     60  C   UNL A   1      43.823  27.696  32.163  1.00  0.00     0.049 A 
ATOM     61  H   UNL A   1      42.040  28.485  31.351  1.00  0.00     0.167 HD
ATOM     62  C   UNL A   1      42.920  29.166  33.938  1.00  0.00     0.074 A 
ATOM     63  C   UNL A   1      42.953  29.763  35.256  1.00  0.00     0.031 C 
ATOM     64  C   UNL A   1      43.848  28.296  33.470  1.00  0.00     0.037 A 
BRANCH  51  65
ATOM     65  C   UNL A   1      42.754  26.369  27.723  1.00  0.00     0.064 A 
ATOM     66  C   UNL A   1      43.706  26.771  26.780  1.00  0.00     0.173 A 
ATOM     67  C   UNL A   1      42.235  25.069  27.616  1.00  0.00     0.173 A 
ATOM     68  F   UNL A   1      44.254  27.989  26.855  1.00  0.00    -0.203 F 
ATOM     69  C   UNL A   1      44.101  25.923  25.748  1.00  0.00     0.198 A 
ATOM     70  C   UNL A   1      42.650  24.212  26.599  1.00  0.00     0.198 A 
ATOM     71  F   UNL A   1      41.338  24.625  28.508  1.00  0.00    -0.203 F 
ATOM     72  F   UNL A   1      44.990  26.346  24.839  1.00  0.00    -0.200 F 
ATOM     73  C   UNL A   1      43.576  24.643  25.660  1.00  0.00     0.200 A 
ATOM     74  F   UNL A   1      42.155  22.969  26.526  1.00  0.00    -0.200 F 
ATOM     75  F   UNL A   1      43.963  23.824  24.673  1.00  0.00    -0.200 F 
ENDBRANCH  51  65
BRANCH  52  76
ATOM     76  C   UNL A   1      39.371  31.979  35.185  1.00  0.00     0.064 A 
ATOM     77  C   UNL A   1      38.565  31.423  36.188  1.00  0.00     0.173 A 
ATOM     78  C   UNL A   1      39.696  33.340  35.289  1.00  0.00     0.173 A 
ATOM     79  F   UNL A   1      38.197  30.135  36.115  1.00  0.00    -0.203 F 
ATOM     80  C   UNL A   1      38.105  32.195  37.253  1.00  0.00     0.198 A 
ATOM     81  C   UNL A   1      39.263  34.103  36.370  1.00  0.00     0.198 A 
ATOM     82  F   UNL A   1      40.460  33.921  34.353  1.00  0.00    -0.203 F 
ATOM     83  F   UNL A   1      37.307  31.648  38.180  1.00  0.00    -0.200 F 
ATOM     84  C   UNL A   1      38.464  33.532  37.349  1.00  0.00     0.200 A 
ATOM     85  F   UNL A   1      39.623  35.390  36.467  1.00  0.00    -0.200 F 
ATOM     86  F   UNL A   1      38.035  34.271  38.382  1.00  0.00    -0.200 F 
ENDBRANCH  52  76
BRANCH  64  87
ATOM     87  C   UNL A   1      44.976  27.944  34.390  1.00  0.00     0.064 A 
ATOM     88  C   UNL A   1      46.153  28.707  34.421  1.00  0.00     0.173 A 
ATOM     89  C   UNL A   1      44.875  26.849  35.259  1.00  0.00     0.173 A 
ATOM     90  F   UNL A   1      46.297  29.755  33.595  1.00  0.00    -0.203 F 
ATOM     91  C   UNL A   1      47.198  28.373  35.275  1.00  0.00     0.198 A 
ATOM     92  C   UNL A   1      45.917  26.528  36.126  1.00  0.00     0.198 A 
ATOM     93  F   UNL A   1      43.769  26.092  35.268  1.00  0.00    -0.203 F 
ATOM     94  F   UNL A   1      48.329  29.093  35.262  1.00  0.00    -0.200 F 
ATOM     95  C   UNL A   1      47.079  27.286  36.129  1.00  0.00     0.200 A 
ATOM     96  F   UNL A   1      45.799  25.481  36.953  1.00  0.00    -0.200 F 
ATOM     97  F   UNL A   1      48.088  26.964  36.950  1.00  0.00    -0.200 F 
ENDBRANCH  64  87
ENDBRANCH  38  39
ENDBRANCH  31  33
ENDBRANCH  30  31
ENDBRANCH  29  30
ENDBRANCH   1  29
TORSDOF 15
ENDMDL
MODEL 2
REMARK VINA RESULT:     -12.7      1.350      2.158
REMARK SMILES COc1cccc(C(=O)NNC(=O)[C@H]2CC(C)=C(C)C[C@@H]2C(=O)OCCOC(=O)c2ccc(-c3c4nc(c(-c5c(F)c(F)c(F)c(F)c5F)c5ccc([nH]5)c(-c5c(F)c(F)c(F)c(F)c5F)c5nc(c(-c6c(F)c(F)c(F)c(F)c6F)c6ccc3[nH]6)C=C5)C=C4)cc2)c1
REMARK SMILES IDX 25 1 24 2 22 3 23 4 21 5 14 6 15 7 16 8 20 9 17 10 18 11
REMARK SMILES IDX 19 12 12 13 11 14 13 16 10 17 8 18 9 19 7 21 3 22 4 23 93 24
REMARK SMILES IDX 5 25 6 26 2 27 1 28 26 29 27 30 28 31 29 32 30 33 31 34
REMARK SMILES IDX 92 35 32 36 91 37 33 38 34 39 35 40 85 41 36 42 90 43 84 44
REMARK SMILES IDX 86 45 37 46 89 47 83 48 82 49 38 51 70 52 50 53 69 54 51 55
REMARK SMILES IDX 54 56 68 57 87 58 52 59 53 60 67 62 88 63 55 64 39 65 40 66
REMARK SMILES IDX 48 67 41 68 42 69 46 70 49 71 43 72 44 73 47 74 45 75 71 76
REMARK SMILES IDX 72 77 80 78 73 79 74 80 78 81 81 82 75 83 76 84 79 85 77 86
REMARK SMILES IDX 56 87 57 88 65 89 58 90 59 91 63 92 66 93 60 94 61 95 64 96
REMARK SMILES IDX 62 97
REMARK H PARENT 11 15 10 20 86 50 54 61
REMARK Flexibility Score: inf
ROOT
ATOM      1  C   UNL A   1      31.942  29.788  25.511  1.00  0.00     0.274 C 
ENDROOT
BRANCH   1   2
ATOM      2  O   UNL A   1      31.710  28.743  26.475  1.00  0.00    -0.462 OA
BRANCH   2   3
ATOM      3  C   UNL A   1      32.455  27.608  26.350  1.00  0.00     0.310 C 
ATOM      4  O   UNL A   1      33.661  27.534  26.542  1.00  0.00    -0.252 OA
BRANCH   3   5
ATOM      5  C   UNL A   1      31.562  26.427  25.991  1.00  0.00     0.116 C 
ATOM      6  C   UNL A   1      32.443  25.295  25.415  1.00  0.00     0.099 C 
ATOM      7  C   UNL A   1      32.284  25.002  23.919  1.00  0.00     0.045 C 
ATOM      8  C   UNL A   1      31.530  25.999  23.082  1.00  0.00    -0.074 C 
ATOM      9  C   UNL A   1      30.407  26.903  25.110  1.00  0.00     0.046 C 
ATOM     10  C   UNL A   1      31.820  25.895  21.604  1.00  0.00     0.039 C 
ATOM     11  C   UNL A   1      30.652  26.863  23.624  1.00  0.00    -0.073 C 
ATOM     12  C   UNL A   1      29.810  27.796  22.795  1.00  0.00     0.039 C 
BRANCH   6  13
ATOM     13  C   UNL A   1      32.376  24.037  26.293  1.00  0.00     0.242 C 
ATOM     14  N   UNL A   1      33.555  23.406  26.618  1.00  0.00    -0.267 N 
ATOM     15  H   UNL A   1      33.601  22.910  27.467  1.00  0.00     0.191 HD
ATOM     16  O   UNL A   1      31.332  23.616  26.790  1.00  0.00    -0.273 OA
BRANCH  14  17
ATOM     17  N   UNL A   1      34.679  23.430  25.814  1.00  0.00    -0.263 N 
ATOM     18  C   UNL A   1      34.975  22.578  24.770  1.00  0.00     0.269 C 
ATOM     19  O   UNL A   1      35.995  22.803  24.117  1.00  0.00    -0.267 OA
ATOM     20  H   UNL A   1      35.342  24.132  26.008  1.00  0.00     0.191 HD
BRANCH  18  21
ATOM     21  C   UNL A   1      34.169  21.363  24.479  1.00  0.00     0.045 A 
ATOM     22  C   UNL A   1      33.776  18.971  24.477  1.00  0.00     0.119 A 
ATOM     23  C   UNL A   1      32.637  19.165  23.695  1.00  0.00     0.046 A 
ATOM     24  C   UNL A   1      34.501  20.077  24.923  1.00  0.00     0.060 A 
ATOM     25  C   UNL A   1      32.247  20.450  23.321  1.00  0.00     0.005 A 
ATOM     26  C   UNL A   1      33.020  21.544  23.695  1.00  0.00     0.014 A 
BRANCH  22  27
ATOM     27  O   UNL A   1      34.079  17.666  24.749  1.00  0.00    -0.497 OA
ATOM     28  C   UNL A   1      33.672  16.709  23.775  1.00  0.00     0.278 C 
ENDBRANCH  22  27
ENDBRANCH  18  21
ENDBRANCH  14  17
ENDBRANCH   6  13
ENDBRANCH   3   5
ENDBRANCH   2   3
ENDBRANCH   1   2
BRANCH   1  29
ATOM     29  C   UNL A   1      31.677  31.155  26.140  1.00  0.00     0.275 C 
BRANCH  29  30
ATOM     30  O   UNL A   1      32.350  31.247  27.412  1.00  0.00    -0.458 OA
BRANCH  30  31
ATOM     31  C   UNL A   1      33.234  32.256  27.535  1.00  0.00     0.338 C 
ATOM     32  O   UNL A   1      33.008  33.460  27.469  1.00  0.00    -0.246 OA
BRANCH  31  33
ATOM     33  C   UNL A   1      34.586  31.742  27.801  1.00  0.00     0.060 A 
ATOM     34  C   UNL A   1      34.782  30.380  27.998  1.00  0.00     0.016 A 
ATOM     35  C   UNL A   1      35.623  32.638  28.063  1.00  0.00     0.016 A 
ATOM     36  C   UNL A   1      35.946  29.943  28.632  1.00  0.00     0.010 A 
ATOM     37  C   UNL A   1      36.837  32.171  28.584  1.00  0.00     0.010 A 
ATOM     38  C   UNL A   1      36.986  30.830  28.972  1.00  0.00    -0.014 A 
BRANCH  38  39
ATOM     39  C   UNL A   1      38.152  30.377  29.807  1.00  0.00     0.031 A 
ATOM     40  C   UNL A   1      39.254  29.520  29.206  1.00  0.00     0.074 A 
ATOM     41  C   UNL A   1      38.286  30.756  31.097  1.00  0.00     0.049 A 
ATOM     42  N   UNL A   1      40.240  28.893  29.807  1.00  0.00    -0.248 NA
ATOM     43  C   UNL A   1      39.236  29.314  27.748  1.00  0.00     0.031 C 
ATOM     44  C   UNL A   1      37.338  31.583  31.844  1.00  0.00     0.029 A 
ATOM     45  N   UNL A   1      39.298  30.528  32.001  1.00  0.00    -0.354 N 
ATOM     46  C   UNL A   1      40.864  28.127  28.828  1.00  0.00     0.074 A 
ATOM     47  C   UNL A   1      40.183  28.400  27.583  1.00  0.00     0.031 C 
ATOM     48  C   UNL A   1      37.861  31.886  33.040  1.00  0.00     0.029 A 
ATOM     49  C   UNL A   1      39.131  31.185  33.197  1.00  0.00     0.049 A 
ATOM     50  H   UNL A   1      40.070  29.948  31.810  1.00  0.00     0.167 HD
ATOM     51  C   UNL A   1      41.910  27.272  28.952  1.00  0.00     0.037 A 
ATOM     52  C   UNL A   1      39.889  31.206  34.311  1.00  0.00     0.037 A 
ATOM     53  C   UNL A   1      42.715  27.131  30.136  1.00  0.00     0.049 A 
ATOM     54  C   UNL A   1      41.127  30.359  34.383  1.00  0.00     0.074 A 
ATOM     55  C   UNL A   1      43.843  26.349  30.322  1.00  0.00     0.029 A 
ATOM     56  N   UNL A   1      42.511  27.826  31.316  1.00  0.00    -0.354 N 
ATOM     57  N   UNL A   1      41.644  29.569  33.475  1.00  0.00    -0.248 NA
ATOM     58  C   UNL A   1      41.867  30.376  35.655  1.00  0.00     0.031 C 
ATOM     59  C   UNL A   1      44.324  26.574  31.617  1.00  0.00     0.029 A 
ATOM     60  C   UNL A   1      43.501  27.503  32.231  1.00  0.00     0.049 A 
ATOM     61  H   UNL A   1      41.772  28.456  31.481  1.00  0.00     0.167 HD
ATOM     62  C   UNL A   1      42.757  28.989  34.065  1.00  0.00     0.074 A 
ATOM     63  C   UNL A   1      42.866  29.544  35.397  1.00  0.00     0.031 C 
ATOM     64  C   UNL A   1      43.601  28.061  33.553  1.00  0.00     0.037 A 
BRANCH  51  65
ATOM     65  C   UNL A   1      42.237  26.394  27.782  1.00  0.00     0.064 A 
ATOM     66  C   UNL A   1      43.231  26.723  26.854  1.00  0.00     0.173 A 
ATOM     67  C   UNL A   1      41.578  25.164  27.628  1.00  0.00     0.173 A 
ATOM     68  F   UNL A   1      43.910  27.869  26.973  1.00  0.00    -0.203 F 
ATOM     69  C   UNL A   1      43.532  25.875  25.791  1.00  0.00     0.198 A 
ATOM     70  C   UNL A   1      41.898  24.305  26.578  1.00  0.00     0.198 A 
ATOM     71  F   UNL A   1      40.635  24.789  28.503  1.00  0.00    -0.203 F 
ATOM     72  F   UNL A   1      44.466  26.231  24.897  1.00  0.00    -0.200 F 
ATOM     73  C   UNL A   1      42.869  24.666  25.656  1.00  0.00     0.200 A 
ATOM     74  F   UNL A   1      41.269  23.128  26.460  1.00  0.00    -0.200 F 
ATOM     75  F   UNL A   1      43.166  23.846  24.638  1.00  0.00    -0.200 F 
ENDBRANCH  51  65
BRANCH  52  76
ATOM     76  C   UNL A   1      39.476  32.045  35.466  1.00  0.00     0.064 A 
ATOM     77  C   UNL A   1      38.584  31.554  36.430  1.00  0.00     0.173 A 
ATOM     78  C   UNL A   1      39.975  33.344  35.642  1.00  0.00     0.173 A 
ATOM     79  F   UNL A   1      38.051  30.331  36.288  1.00  0.00    -0.203 F 
ATOM     80  C   UNL A   1      38.210  32.329  37.526  1.00  0.00     0.198 A 
ATOM     81  C   UNL A   1      39.626  34.106  36.754  1.00  0.00     0.198 A 
ATOM     82  F   UNL A   1      40.828  33.862  34.746  1.00  0.00    -0.203 F 
ATOM     83  F   UNL A   1      37.328  31.850  38.414  1.00  0.00    -0.200 F 
ATOM     84  C   UNL A   1      38.740  33.600  37.692  1.00  0.00     0.200 A 
ATOM     85  F   UNL A   1      40.151  35.328  36.918  1.00  0.00    -0.200 F 
ATOM     86  F   UNL A   1      38.392  34.340  38.754  1.00  0.00    -0.200 F 
ENDBRANCH  52  76
BRANCH  64  87
ATOM     87  C   UNL A   1      44.715  27.592  34.437  1.00  0.00     0.064 A 
ATOM     88  C   UNL A   1      45.947  28.262  34.469  1.00  0.00     0.173 A 
ATOM     89  C   UNL A   1      44.546  26.479  35.272  1.00  0.00     0.173 A 
ATOM     90  F   UNL A   1      46.158  29.323  33.675  1.00  0.00    -0.203 F 
ATOM     91  C   UNL A   1      46.980  27.819  35.290  1.00  0.00     0.198 A 
ATOM     92  C   UNL A   1      45.575  26.050  36.106  1.00  0.00     0.198 A 
ATOM     93  F   UNL A   1      43.384  25.809  35.279  1.00  0.00    -0.203 F 
ATOM     94  F   UNL A   1      48.162  28.451  35.277  1.00  0.00    -0.200 F 
ATOM     95  C   UNL A   1      46.792  26.716  36.110  1.00  0.00     0.200 A 
ATOM     96  F   UNL A   1      45.392  24.987  36.902  1.00  0.00    -0.200 F 
ATOM     97  F   UNL A   1      47.788  26.290  36.899  1.00  0.00    -0.200 F 
ENDBRANCH  64  87
ENDBRANCH  38  39
ENDBRANCH  31  33
ENDBRANCH  30  31
ENDBRANCH  29  30
ENDBRANCH   1  29
TORSDOF 15
ENDMDL
MODEL 3
REMARK VINA RESULT:     -12.7      3.969      7.073
REMARK SMILES COc1cccc(C(=O)NNC(=O)[C@H]2CC(C)=C(C)C[C@@H]2C(=O)OCCOC(=O)c2ccc(-c3c4nc(c(-c5c(F)c(F)c(F)c(F)c5F)c5ccc([nH]5)c(-c5c(F)c(F)c(F)c(F)c5F)c5nc(c(-c6c(F)c(F)c(F)c(F)c6F)c6ccc3[nH]6)C=C5)C=C4)cc2)c1
REMARK SMILES IDX 25 1 24 2 22 3 23 4 21 5 14 6 15 7 16 8 20 9 17 10 18 11
REMARK SMILES IDX 19 12 12 13 11 14 13 16 10 17 8 18 9 19 7 21 3 22 4 23 93 24
REMARK SMILES IDX 5 25 6 26 2 27 1 28 26 29 27 30 28 31 29 32 30 33 31 34
REMARK SMILES IDX 92 35 32 36 91 37 33 38 34 39 35 40 85 41 36 42 90 43 84 44
REMARK SMILES IDX 86 45 37 46 89 47 83 48 82 49 38 51 70 52 50 53 69 54 51 55
REMARK SMILES IDX 54 56 68 57 87 58 52 59 53 60 67 62 88 63 55 64 39 65 40 66
REMARK SMILES IDX 48 67 41 68 42 69 46 70 49 71 43 72 44 73 47 74 45 75 71 76
REMARK SMILES IDX 72 77 80 78 73 79 74 80 78 81 81 82 75 83 76 84 79 85 77 86
REMARK SMILES IDX 56 87 57 88 65 89 58 90 59 91 63 92 66 93 60 94 61 95 64 96
REMARK SMILES IDX 62 97
REMARK H PARENT 11 15 10 20 86 50 54 61
REMARK Flexibility Score: inf
ROOT
ATOM      1  C   UNL A   1      36.256  21.132  25.374  1.00  0.00     0.274 C 
ENDROOT
BRANCH   1   2
ATOM      2  O   UNL A   1      36.041  21.894  24.171  1.00  0.00    -0.462 OA
BRANCH   2   3
ATOM      3  C   UNL A   1      35.566  23.163  24.316  1.00  0.00     0.310 C 
ATOM      4  O   UNL A   1      36.086  24.035  24.999  1.00  0.00    -0.252 OA
BRANCH   3   5
ATOM      5  C   UNL A   1      34.319  23.361  23.462  1.00  0.00     0.116 C 
ATOM      6  C   UNL A   1      33.513  24.552  24.028  1.00  0.00     0.099 C 
ATOM      7  C   UNL A   1      32.177  24.213  24.697  1.00  0.00     0.045 C 
ATOM      8  C   UNL A   1      31.894  22.770  25.015  1.00  0.00    -0.074 C 
ATOM      9  C   UNL A   1      33.569  22.036  23.329  1.00  0.00     0.046 C 
ATOM     10  C   UNL A   1      30.826  22.577  26.065  1.00  0.00     0.039 C 
ATOM     11  C   UNL A   1      32.519  21.766  24.374  1.00  0.00    -0.073 C 
ATOM     12  C   UNL A   1      32.175  20.317  24.601  1.00  0.00     0.039 C 
BRANCH   6  13
ATOM     13  C   UNL A   1      33.410  25.690  23.003  1.00  0.00     0.242 C 
ATOM     14  N   UNL A   1      33.634  26.978  23.434  1.00  0.00    -0.267 N 
ATOM     15  H   UNL A   1      33.993  27.630  22.790  1.00  0.00     0.191 HD
ATOM     16  O   UNL A   1      33.222  25.501  21.802  1.00  0.00    -0.273 OA
BRANCH  14  17
ATOM     17  N   UNL A   1      33.383  27.404  24.724  1.00  0.00    -0.263 N 
ATOM     18  C   UNL A   1      32.182  27.855  25.233  1.00  0.00     0.269 C 
ATOM     19  O   UNL A   1      32.132  28.123  26.434  1.00  0.00    -0.267 OA
ATOM     20  H   UNL A   1      34.143  27.384  25.349  1.00  0.00     0.191 HD
BRANCH  18  21
ATOM     21  C   UNL A   1      30.999  28.118  24.371  1.00  0.00     0.045 A 
ATOM     22  C   UNL A   1      29.548  29.548  23.058  1.00  0.00     0.119 A 
ATOM     23  C   UNL A   1      28.638  28.498  22.931  1.00  0.00     0.046 A 
ATOM     24  C   UNL A   1      30.757  29.334  23.721  1.00  0.00     0.060 A 
ATOM     25  C   UNL A   1      28.909  27.255  23.501  1.00  0.00     0.005 A 
ATOM     26  C   UNL A   1      30.077  27.070  24.235  1.00  0.00     0.014 A 
BRANCH  22  27
ATOM     27  O   UNL A   1      29.157  30.728  22.489  1.00  0.00    -0.497 OA
ATOM     28  C   UNL A   1      28.382  30.627  21.298  1.00  0.00     0.278 C 
ENDBRANCH  22  27
ENDBRANCH  18  21
ENDBRANCH  14  17
ENDBRANCH   6  13
ENDBRANCH   3   5
ENDBRANCH   2   3
ENDBRANCH   1   2
BRANCH   1  29
ATOM     29  C   UNL A   1      37.517  20.280  25.243  1.00  0.00     0.275 C 
BRANCH  29  30
ATOM     30  O   UNL A   1      38.676  21.133  25.153  1.00  0.00    -0.458 OA
BRANCH  30  31
ATOM     31  C   UNL A   1      39.591  20.982  26.131  1.00  0.00     0.338 C 
ATOM     32  O   UNL A   1      40.205  19.963  26.429  1.00  0.00    -0.246 OA
BRANCH  31  33
ATOM     33  C   UNL A   1      39.819  22.251  26.838  1.00  0.00     0.060 A 
ATOM     34  C   UNL A   1      39.081  23.377  26.494  1.00  0.00     0.016 A 
ATOM     35  C   UNL A   1      40.912  22.372  27.697  1.00  0.00     0.016 A 
ATOM     36  C   UNL A   1      39.552  24.640  26.858  1.00  0.00     0.010 A 
ATOM     37  C   UNL A   1      41.302  23.636  28.160  1.00  0.00     0.010 A 
ATOM     38  C   UNL A   1      40.691  24.802  27.671  1.00  0.00    -0.014 A 
BRANCH  38  39
ATOM     39  C   UNL A   1      41.288  26.163  27.911  1.00  0.00     0.031 A 
ATOM     40  C   UNL A   1      42.612  26.555  27.277  1.00  0.00     0.074 A 
ATOM     41  C   UNL A   1      40.646  27.093  28.651  1.00  0.00     0.049 A 
ATOM     42  N   UNL A   1      43.363  27.609  27.506  1.00  0.00    -0.248 NA
ATOM     43  C   UNL A   1      43.185  25.638  26.278  1.00  0.00     0.031 C 
ATOM     44  C   UNL A   1      39.365  26.905  29.331  1.00  0.00     0.029 A 
ATOM     45  N   UNL A   1      40.968  28.403  28.924  1.00  0.00    -0.354 N 
ATOM     46  C   UNL A   1      44.537  27.410  26.787  1.00  0.00     0.074 A 
ATOM     47  C   UNL A   1      44.387  26.162  26.074  1.00  0.00     0.031 C 
ATOM     48  C   UNL A   1      38.957  28.076  29.840  1.00  0.00     0.029 A 
ATOM     49  C   UNL A   1      39.997  29.077  29.625  1.00  0.00     0.049 A 
ATOM     50  H   UNL A   1      41.816  28.819  28.644  1.00  0.00     0.167 HD
ATOM     51  C   UNL A   1      45.641  28.194  26.726  1.00  0.00     0.037 A 
ATOM     52  C   UNL A   1      39.947  30.347  30.075  1.00  0.00     0.037 A 
ATOM     53  C   UNL A   1      45.735  29.520  27.274  1.00  0.00     0.049 A 
ATOM     54  C   UNL A   1      41.130  31.252  29.875  1.00  0.00     0.074 A 
ATOM     55  C   UNL A   1      46.788  30.416  27.187  1.00  0.00     0.029 A 
ATOM     56  N   UNL A   1      44.721  30.161  27.966  1.00  0.00    -0.354 N 
ATOM     57  N   UNL A   1      42.267  31.008  29.273  1.00  0.00    -0.248 NA
ATOM     58  C   UNL A   1      41.034  32.601  30.454  1.00  0.00     0.031 C 
ATOM     59  C   UNL A   1      46.408  31.603  27.825  1.00  0.00     0.029 A 
ATOM     60  C   UNL A   1      45.117  31.448  28.298  1.00  0.00     0.049 A 
ATOM     61  H   UNL A   1      43.848  29.762  28.188  1.00  0.00     0.167 HD
ATOM     62  C   UNL A   1      43.024  32.162  29.410  1.00  0.00     0.074 A 
ATOM     63  C   UNL A   1      42.206  33.122  30.120  1.00  0.00     0.031 C 
ATOM     64  C   UNL A   1      44.295  32.395  29.002  1.00  0.00     0.037 A 
BRANCH  51  65
ATOM     65  C   UNL A   1      46.861  27.631  26.060  1.00  0.00     0.064 A 
ATOM     66  C   UNL A   1      47.057  27.699  24.676  1.00  0.00     0.173 A 
ATOM     67  C   UNL A   1      47.883  27.067  26.839  1.00  0.00     0.173 A 
ATOM     68  F   UNL A   1      46.127  28.254  23.891  1.00  0.00    -0.203 F 
ATOM     69  C   UNL A   1      48.213  27.191  24.087  1.00  0.00     0.198 A 
ATOM     70  C   UNL A   1      49.050  26.583  26.251  1.00  0.00     0.198 A 
ATOM     71  F   UNL A   1      47.757  27.000  28.172  1.00  0.00    -0.203 F 
ATOM     72  F   UNL A   1      48.359  27.239  22.755  1.00  0.00    -0.200 F 
ATOM     73  C   UNL A   1      49.210  26.637  24.874  1.00  0.00     0.200 A 
ATOM     74  F   UNL A   1      50.021  26.064  27.016  1.00  0.00    -0.200 F 
ATOM     75  F   UNL A   1      50.325  26.158  24.307  1.00  0.00    -0.200 F 
ENDBRANCH  51  65
BRANCH  52  76
ATOM     76  C   UNL A   1      38.736  30.828  30.789  1.00  0.00     0.064 A 
ATOM     77  C   UNL A   1      37.635  31.332  30.082  1.00  0.00     0.173 A 
ATOM     78  C   UNL A   1      38.645  30.779  32.188  1.00  0.00     0.173 A 
ATOM     79  F   UNL A   1      37.687  31.433  28.746  1.00  0.00    -0.203 F 
ATOM     80  C   UNL A   1      36.490  31.765  30.747  1.00  0.00     0.198 A 
ATOM     81  C   UNL A   1      37.488  31.182  32.849  1.00  0.00     0.198 A 
ATOM     82  F   UNL A   1      39.672  30.310  32.911  1.00  0.00    -0.203 F 
ATOM     83  F   UNL A   1      35.465  32.276  30.050  1.00  0.00    -0.200 F 
ATOM     84  C   UNL A   1      36.414  31.679  32.129  1.00  0.00     0.200 A 
ATOM     85  F   UNL A   1      37.413  31.084  34.184  1.00  0.00    -0.200 F 
ATOM     86  F   UNL A   1      35.306  32.082  32.767  1.00  0.00    -0.200 F 
ENDBRANCH  52  76
BRANCH  64  87
ATOM     87  C   UNL A   1      44.874  33.741  29.313  1.00  0.00     0.064 A 
ATOM     88  C   UNL A   1      45.585  33.969  30.501  1.00  0.00     0.173 A 
ATOM     89  C   UNL A   1      44.735  34.805  28.411  1.00  0.00     0.173 A 
ATOM     90  F   UNL A   1      45.729  32.982  31.399  1.00  0.00    -0.203 F 
ATOM     91  C   UNL A   1      46.117  35.222  30.786  1.00  0.00     0.198 A 
ATOM     92  C   UNL A   1      45.284  36.054  28.692  1.00  0.00     0.198 A 
ATOM     93  F   UNL A   1      44.066  34.635  27.262  1.00  0.00    -0.203 F 
ATOM     94  F   UNL A   1      46.759  35.428  31.944  1.00  0.00    -0.200 F 
ATOM     95  C   UNL A   1      45.969  36.263  29.880  1.00  0.00     0.200 A 
ATOM     96  F   UNL A   1      45.145  37.057  27.815  1.00  0.00    -0.200 F 
ATOM     97  F   UNL A   1      46.480  37.470  30.157  1.00  0.00    -0.200 F 
ENDBRANCH  64  87
ENDBRANCH  38  39
ENDBRANCH  31  33
ENDBRANCH  30  31
ENDBRANCH  29  30
ENDBRANCH   1  29
TORSDOF 15
ENDMDL
