MODEL 1
REMARK VINA RESULT:     -10.8      0.000      0.000
REMARK SMILES O=C(/C=C/C(=O)OCCOC(=O)c1ccc(-c2c3nc(c(-c4c(F)c(F)c(F)c(F)c4F)c4ccc([nH]4)c(-c4c(F)c(F)c(F)c(F)c4F)c4nc(c(-c5c(F)c(F)c(F)c(F)c5F)c5ccc2[nH]5)C=C4)C=C3)cc1)NNC(=O)CSc1ccc2ccccc2n1
REMARK SMILES IDX 7 1 5 2 6 3 4 4 3 5 2 6 1 7 76 8 77 10 78 11 79 13 80 14
REMARK SMILES IDX 81 15 82 16 83 17 91 18 84 19 90 20 85 21 89 22 86 23 88 24
REMARK SMILES IDX 87 25 8 26 9 27 10 28 11 29 12 30 13 31 14 32 75 33 15 34
REMARK SMILES IDX 74 35 16 36 17 37 18 38 68 39 19 40 73 41 67 42 69 43 20 44
REMARK SMILES IDX 72 45 66 46 65 47 21 49 53 50 33 51 52 52 34 53 37 54 51 55
REMARK SMILES IDX 70 56 35 57 36 58 50 60 71 61 38 62 22 63 23 64 31 65 24 66
REMARK SMILES IDX 25 67 29 68 32 69 26 70 27 71 30 72 28 73 54 74 55 75 63 76
REMARK SMILES IDX 56 77 57 78 61 79 64 80 58 81 59 82 62 83 60 84 39 85 40 86
REMARK SMILES IDX 48 87 41 88 42 89 46 90 49 91 43 92 44 93 47 94 45 95
REMARK H PARENT 76 9 77 12 69 48 37 59
REMARK Flexibility Score: inf
ROOT
ATOM      1  O   UNL A   1      41.358  19.214  26.034  1.00  0.00    -0.459 OA
ENDROOT
BRANCH   1   2
ATOM      2  C   UNL A   1      42.592  18.659  26.038  1.00  0.00     0.331 C 
ATOM      3  O   UNL A   1      42.880  17.535  26.420  1.00  0.00    -0.247 OA
BRANCH   2   4
ATOM      4  C   UNL A   1      43.612  19.526  25.417  1.00  0.00     0.099 C 
ATOM      5  C   UNL A   1      44.835  19.128  25.045  1.00  0.00     0.080 C 
BRANCH   5   6
ATOM      6  C   UNL A   1      45.831  20.093  24.523  1.00  0.00     0.262 C 
ATOM      7  O   UNL A   1      47.031  19.858  24.589  1.00  0.00    -0.268 OA
ATOM      8  N   UNL A   1      45.287  21.286  24.089  1.00  0.00    -0.264 N 
ATOM      9  H   UNL A   1      44.311  21.415  24.073  1.00  0.00     0.191 HD
BRANCH   8  10
ATOM     10  N   UNL A   1      46.142  22.305  23.676  1.00  0.00    -0.267 N 
ATOM     11  C   UNL A   1      46.453  23.419  24.418  1.00  0.00     0.248 C 
ATOM     12  H   UNL A   1      46.555  22.221  22.785  1.00  0.00     0.191 HD
ATOM     13  O   UNL A   1      47.237  24.256  23.965  1.00  0.00    -0.272 OA
BRANCH  11  14
ATOM     14  C   UNL A   1      45.830  23.580  25.795  1.00  0.00     0.178 C 
BRANCH  14  15
ATOM     15  S   UNL A   1      46.910  24.635  26.809  1.00  0.00    -0.096 SA
BRANCH  15  16
ATOM     16  C   UNL A   1      45.987  26.148  26.943  1.00  0.00     0.097 A 
ATOM     17  C   UNL A   1      46.297  27.186  27.810  1.00  0.00     0.036 A 
ATOM     18  N   UNL A   1      44.928  26.209  26.106  1.00  0.00    -0.241 NA
ATOM     19  C   UNL A   1      45.462  28.302  27.847  1.00  0.00     0.013 A 
ATOM     20  C   UNL A   1      44.132  27.290  26.123  1.00  0.00     0.072 A 
ATOM     21  C   UNL A   1      44.346  28.366  27.004  1.00  0.00     0.000 A 
ATOM     22  C   UNL A   1      43.055  27.354  25.251  1.00  0.00     0.029 A 
ATOM     23  C   UNL A   1      43.453  29.455  27.018  1.00  0.00     0.010 A 
ATOM     24  C   UNL A   1      42.168  28.435  25.258  1.00  0.00     0.002 A 
ATOM     25  C   UNL A   1      42.361  29.482  26.152  1.00  0.00     0.001 A 
ENDBRANCH  15  16
ENDBRANCH  14  15
ENDBRANCH  11  14
ENDBRANCH   8  10
ENDBRANCH   5   6
ENDBRANCH   2   4
ENDBRANCH   1   2
BRANCH   1  26
ATOM     26  C   UNL A   1      41.197  20.394  26.845  1.00  0.00     0.275 C 
BRANCH  26  27
ATOM     27  C   UNL A   1      39.906  21.147  26.504  1.00  0.00     0.275 C 
BRANCH  27  28
ATOM     28  O   UNL A   1      40.147  22.530  26.180  1.00  0.00    -0.458 OA
BRANCH  28  29
ATOM     29  C   UNL A   1      39.053  23.323  26.199  1.00  0.00     0.338 C 
ATOM     30  O   UNL A   1      37.958  23.089  25.707  1.00  0.00    -0.246 OA
BRANCH  29  31
ATOM     31  C   UNL A   1      39.288  24.502  27.050  1.00  0.00     0.060 A 
ATOM     32  C   UNL A   1      40.032  25.549  26.501  1.00  0.00     0.016 A 
ATOM     33  C   UNL A   1      38.857  24.559  28.377  1.00  0.00     0.016 A 
ATOM     34  C   UNL A   1      40.360  26.656  27.277  1.00  0.00     0.010 A 
ATOM     35  C   UNL A   1      39.184  25.676  29.157  1.00  0.00     0.010 A 
ATOM     36  C   UNL A   1      39.947  26.724  28.615  1.00  0.00    -0.014 A 
BRANCH  36  37
ATOM     37  C   UNL A   1      40.343  27.896  29.431  1.00  0.00     0.031 A 
ATOM     38  C   UNL A   1      41.712  27.968  30.041  1.00  0.00     0.074 A 
ATOM     39  C   UNL A   1      39.483  28.920  29.579  1.00  0.00     0.049 A 
ATOM     40  N   UNL A   1      42.250  28.922  30.758  1.00  0.00    -0.248 NA
ATOM     41  C   UNL A   1      42.596  26.815  29.811  1.00  0.00     0.031 C 
ATOM     42  C   UNL A   1      38.134  28.975  29.016  1.00  0.00     0.029 A 
ATOM     43  N   UNL A   1      39.618  30.113  30.243  1.00  0.00    -0.354 N 
ATOM     44  C   UNL A   1      43.531  28.486  31.071  1.00  0.00     0.074 A 
ATOM     45  C   UNL A   1      43.681  27.169  30.486  1.00  0.00     0.031 C 
ATOM     46  C   UNL A   1      37.568  30.145  29.351  1.00  0.00     0.029 A 
ATOM     47  C   UNL A   1      38.500  30.907  30.179  1.00  0.00     0.049 A 
ATOM     48  H   UNL A   1      40.440  30.376  30.719  1.00  0.00     0.167 HD
ATOM     49  C   UNL A   1      44.494  29.129  31.774  1.00  0.00     0.037 A 
ATOM     50  C   UNL A   1      38.252  32.105  30.738  1.00  0.00     0.037 A 
ATOM     51  C   UNL A   1      44.343  30.439  32.353  1.00  0.00     0.049 A 
ATOM     52  C   UNL A   1      39.318  32.773  31.563  1.00  0.00     0.074 A 
ATOM     53  C   UNL A   1      45.274  31.187  33.054  1.00  0.00     0.029 A 
ATOM     54  N   UNL A   1      43.180  31.193  32.308  1.00  0.00    -0.354 N 
ATOM     55  N   UNL A   1      40.538  32.367  31.822  1.00  0.00    -0.248 NA
ATOM     56  C   UNL A   1      38.973  34.064  32.171  1.00  0.00     0.031 C 
ATOM     57  C   UNL A   1      44.659  32.373  33.473  1.00  0.00     0.029 A 
ATOM     58  C   UNL A   1      43.359  32.385  32.993  1.00  0.00     0.049 A 
ATOM     59  H   UNL A   1      42.348  30.922  31.856  1.00  0.00     0.167 HD
ATOM     60  C   UNL A   1      41.110  33.357  32.609  1.00  0.00     0.074 A 
ATOM     61  C   UNL A   1      40.110  34.393  32.768  1.00  0.00     0.031 C 
ATOM     62  C   UNL A   1      42.352  33.404  33.150  1.00  0.00     0.037 A 
BRANCH  49  63
ATOM     63  C   UNL A   1      45.797  28.411  31.977  1.00  0.00     0.064 A 
ATOM     64  C   UNL A   1      45.937  27.395  32.932  1.00  0.00     0.173 A 
ATOM     65  C   UNL A   1      46.911  28.727  31.183  1.00  0.00     0.173 A 
ATOM     66  F   UNL A   1      44.906  27.066  33.724  1.00  0.00    -0.203 F 
ATOM     67  C   UNL A   1      47.153  26.737  33.104  1.00  0.00     0.198 A 
ATOM     68  C   UNL A   1      48.118  28.050  31.342  1.00  0.00     0.198 A 
ATOM     69  F   UNL A   1      46.828  29.689  30.252  1.00  0.00    -0.203 F 
ATOM     70  F   UNL A   1      47.277  25.800  34.054  1.00  0.00    -0.200 F 
ATOM     71  C   UNL A   1      48.240  27.061  32.305  1.00  0.00     0.200 A 
ATOM     72  F   UNL A   1      49.163  28.359  30.562  1.00  0.00    -0.200 F 
ATOM     73  F   UNL A   1      49.409  26.427  32.472  1.00  0.00    -0.200 F 
ENDBRANCH  49  63
BRANCH  50  74
ATOM     74  C   UNL A   1      36.931  32.752  30.533  1.00  0.00     0.064 A 
ATOM     75  C   UNL A   1      36.645  33.445  29.348  1.00  0.00     0.173 A 
ATOM     76  C   UNL A   1      35.928  32.681  31.509  1.00  0.00     0.173 A 
ATOM     77  F   UNL A   1      37.581  33.552  28.394  1.00  0.00    -0.203 F 
ATOM     78  C   UNL A   1      35.406  34.049  29.153  1.00  0.00     0.198 A 
ATOM     79  C   UNL A   1      34.680  33.264  31.301  1.00  0.00     0.198 A 
ATOM     80  F   UNL A   1      36.154  32.025  32.658  1.00  0.00    -0.203 F 
ATOM     81  F   UNL A   1      35.167  34.730  28.025  1.00  0.00    -0.200 F 
ATOM     82  C   UNL A   1      34.422  33.952  30.126  1.00  0.00     0.200 A 
ATOM     83  F   UNL A   1      33.728  33.152  32.237  1.00  0.00    -0.200 F 
ATOM     84  F   UNL A   1      33.225  34.522  29.931  1.00  0.00    -0.200 F 
ENDBRANCH  50  74
BRANCH  62  85
ATOM     85  C   UNL A   1      42.704  34.622  33.952  1.00  0.00     0.064 A 
ATOM     86  C   UNL A   1      43.105  35.817  33.334  1.00  0.00     0.173 A 
ATOM     87  C   UNL A   1      42.614  34.606  35.352  1.00  0.00     0.173 A 
ATOM     88  F   UNL A   1      43.223  35.878  32.000  1.00  0.00    -0.203 F 
ATOM     89  C   UNL A   1      43.425  36.941  34.090  1.00  0.00     0.198 A 
ATOM     90  C   UNL A   1      42.909  35.740  36.104  1.00  0.00     0.198 A 
ATOM     91  F   UNL A   1      42.232  33.489  35.991  1.00  0.00    -0.203 F 
ATOM     92  F   UNL A   1      43.849  38.057  33.481  1.00  0.00    -0.200 F 
ATOM     93  C   UNL A   1      43.321  36.904  35.472  1.00  0.00     0.200 A 
ATOM     94  F   UNL A   1      42.799  35.705  37.439  1.00  0.00    -0.200 F 
ATOM     95  F   UNL A   1      43.628  37.988  36.198  1.00  0.00    -0.200 F 
ENDBRANCH  62  85
ENDBRANCH  36  37
ENDBRANCH  29  31
ENDBRANCH  28  29
ENDBRANCH  27  28
ENDBRANCH  26  27
ENDBRANCH   1  26
TORSDOF 16
ENDMDL
MODEL 2
REMARK VINA RESULT:     -10.8      4.918     11.626
REMARK SMILES O=C(/C=C/C(=O)OCCOC(=O)c1ccc(-c2c3nc(c(-c4c(F)c(F)c(F)c(F)c4F)c4ccc([nH]4)c(-c4c(F)c(F)c(F)c(F)c4F)c4nc(c(-c5c(F)c(F)c(F)c(F)c5F)c5ccc2[nH]5)C=C4)C=C3)cc1)NNC(=O)CSc1ccc2ccccc2n1
REMARK SMILES IDX 7 1 5 2 6 3 4 4 3 5 2 6 1 7 76 8 77 10 78 11 79 13 80 14
REMARK SMILES IDX 81 15 82 16 83 17 91 18 84 19 90 20 85 21 89 22 86 23 88 24
REMARK SMILES IDX 87 25 8 26 9 27 10 28 11 29 12 30 13 31 14 32 75 33 15 34
REMARK SMILES IDX 74 35 16 36 17 37 18 38 68 39 19 40 73 41 67 42 69 43 20 44
REMARK SMILES IDX 72 45 66 46 65 47 21 49 53 50 33 51 52 52 34 53 37 54 51 55
REMARK SMILES IDX 70 56 35 57 36 58 50 60 71 61 38 62 22 63 23 64 31 65 24 66
REMARK SMILES IDX 25 67 29 68 32 69 26 70 27 71 30 72 28 73 54 74 55 75 63 76
REMARK SMILES IDX 56 77 57 78 61 79 64 80 58 81 59 82 62 83 60 84 39 85 40 86
REMARK SMILES IDX 48 87 41 88 42 89 46 90 49 91 43 92 44 93 47 94 45 95
REMARK H PARENT 76 9 77 12 69 48 37 59
REMARK Flexibility Score: inf
ROOT
ATOM      1  O   UNL A   1      34.026  35.064  28.360  1.00  0.00    -0.459 OA
ENDROOT
BRANCH   1   2
ATOM      2  C   UNL A   1      33.216  35.809  29.147  1.00  0.00     0.331 C 
ATOM      3  O   UNL A   1      32.245  36.455  28.783  1.00  0.00    -0.247 OA
BRANCH   2   4
ATOM      4  C   UNL A   1      33.552  35.701  30.580  1.00  0.00     0.099 C 
ATOM      5  C   UNL A   1      33.282  36.631  31.504  1.00  0.00     0.080 C 
BRANCH   5   6
ATOM      6  C   UNL A   1      33.748  36.482  32.903  1.00  0.00     0.262 C 
ATOM      7  O   UNL A   1      33.967  37.462  33.602  1.00  0.00    -0.268 OA
ATOM      8  N   UNL A   1      34.017  35.178  33.272  1.00  0.00    -0.264 N 
ATOM      9  H   UNL A   1      33.828  34.434  32.655  1.00  0.00     0.191 HD
BRANCH   8  10
ATOM     10  N   UNL A   1      34.560  34.933  34.531  1.00  0.00    -0.267 N 
ATOM     11  C   UNL A   1      35.482  33.953  34.813  1.00  0.00     0.248 C 
ATOM     12  H   UNL A   1      34.262  35.505  35.275  1.00  0.00     0.191 HD
ATOM     13  O   UNL A   1      35.913  33.830  35.961  1.00  0.00    -0.272 OA
BRANCH  11  14
ATOM     14  C   UNL A   1      35.961  33.052  33.685  1.00  0.00     0.178 C 
BRANCH  14  15
ATOM     15  S   UNL A   1      37.770  32.896  33.787  1.00  0.00    -0.096 SA
BRANCH  15  16
ATOM     16  C   UNL A   1      38.319  33.527  32.220  1.00  0.00     0.097 A 
ATOM     17  C   UNL A   1      37.533  33.601  31.079  1.00  0.00     0.036 A 
ATOM     18  N   UNL A   1      39.605  33.945  32.229  1.00  0.00    -0.241 NA
ATOM     19  C   UNL A   1      38.103  34.078  29.899  1.00  0.00     0.013 A 
ATOM     20  C   UNL A   1      40.153  34.425  31.100  1.00  0.00     0.072 A 
ATOM     21  C   UNL A   1      39.441  34.489  29.888  1.00  0.00     0.000 A 
ATOM     22  C   UNL A   1      41.468  34.866  31.119  1.00  0.00     0.029 A 
ATOM     23  C   UNL A   1      40.077  34.953  28.721  1.00  0.00     0.010 A 
ATOM     24  C   UNL A   1      42.102  35.332  29.963  1.00  0.00     0.002 A 
ATOM     25  C   UNL A   1      41.409  35.364  28.759  1.00  0.00     0.001 A 
ENDBRANCH  15  16
ENDBRANCH  14  15
ENDBRANCH  11  14
ENDBRANCH   8  10
ENDBRANCH   5   6
ENDBRANCH   2   4
ENDBRANCH   1   2
BRANCH   1  26
ATOM     26  C   UNL A   1      33.637  33.688  28.182  1.00  0.00     0.275 C 
BRANCH  26  27
ATOM     27  C   UNL A   1      34.854  32.771  28.005  1.00  0.00     0.275 C 
BRANCH  27  28
ATOM     28  O   UNL A   1      34.801  31.618  28.868  1.00  0.00    -0.458 OA
BRANCH  28  29
ATOM     29  C   UNL A   1      34.939  30.427  28.245  1.00  0.00     0.338 C 
ATOM     30  O   UNL A   1      34.104  29.845  27.565  1.00  0.00    -0.246 OA
BRANCH  29  31
ATOM     31  C   UNL A   1      36.326  29.948  28.353  1.00  0.00     0.060 A 
ATOM     32  C   UNL A   1      36.722  29.407  29.580  1.00  0.00     0.016 A 
ATOM     33  C   UNL A   1      37.245  30.086  27.311  1.00  0.00     0.016 A 
ATOM     34  C   UNL A   1      38.040  29.010  29.776  1.00  0.00     0.010 A 
ATOM     35  C   UNL A   1      38.572  29.683  27.508  1.00  0.00     0.010 A 
ATOM     36  C   UNL A   1      38.979  29.154  28.745  1.00  0.00    -0.014 A 
BRANCH  36  37
ATOM     37  C   UNL A   1      40.386  28.760  28.993  1.00  0.00     0.031 A 
ATOM     38  C   UNL A   1      41.307  29.672  29.750  1.00  0.00     0.074 A 
ATOM     39  C   UNL A   1      40.819  27.555  28.579  1.00  0.00     0.049 A 
ATOM     40  N   UNL A   1      42.558  29.489  30.091  1.00  0.00    -0.248 NA
ATOM     41  C   UNL A   1      40.746  30.960  30.185  1.00  0.00     0.031 C 
ATOM     42  C   UNL A   1      40.012  26.574  27.855  1.00  0.00     0.029 A 
ATOM     43  N   UNL A   1      42.042  26.949  28.715  1.00  0.00    -0.354 N 
ATOM     44  C   UNL A   1      42.937  30.636  30.774  1.00  0.00     0.074 A 
ATOM     45  C   UNL A   1      41.790  31.522  30.778  1.00  0.00     0.031 C 
ATOM     46  C   UNL A   1      40.758  25.485  27.615  1.00  0.00     0.029 A 
ATOM     47  C   UNL A   1      42.104  25.704  28.140  1.00  0.00     0.049 A 
ATOM     48  H   UNL A   1      42.803  27.366  29.181  1.00  0.00     0.167 HD
ATOM     49  C   UNL A   1      44.129  30.921  31.352  1.00  0.00     0.037 A 
ATOM     50  C   UNL A   1      43.135  24.845  28.036  1.00  0.00     0.037 A 
ATOM     51  C   UNL A   1      45.267  30.038  31.348  1.00  0.00     0.049 A 
ATOM     52  C   UNL A   1      44.466  25.209  28.636  1.00  0.00     0.074 A 
ATOM     53  C   UNL A   1      46.507  30.224  31.936  1.00  0.00     0.029 A 
ATOM     54  N   UNL A   1      45.308  28.805  30.715  1.00  0.00    -0.354 N 
ATOM     55  N   UNL A   1      44.802  26.282  29.310  1.00  0.00    -0.248 NA
ATOM     56  C   UNL A   1      45.557  24.243  28.460  1.00  0.00     0.031 C 
ATOM     57  C   UNL A   1      47.313  29.124  31.619  1.00  0.00     0.029 A 
ATOM     58  C   UNL A   1      46.560  28.231  30.874  1.00  0.00     0.049 A 
ATOM     59  H   UNL A   1      44.558  28.396  30.226  1.00  0.00     0.167 HD
ATOM     60  C   UNL A   1      46.137  26.115  29.652  1.00  0.00     0.074 A 
ATOM     61  C   UNL A   1      46.543  24.827  29.127  1.00  0.00     0.031 C 
ATOM     62  C   UNL A   1      46.953  26.952  30.339  1.00  0.00     0.037 A 
BRANCH  49  63
ATOM     63  C   UNL A   1      44.272  32.258  32.019  1.00  0.00     0.064 A 
ATOM     64  C   UNL A   1      43.822  32.479  33.329  1.00  0.00     0.173 A 
ATOM     65  C   UNL A   1      44.893  33.322  31.348  1.00  0.00     0.173 A 
ATOM     66  F   UNL A   1      43.210  31.497  34.007  1.00  0.00    -0.203 F 
ATOM     67  C   UNL A   1      43.967  33.725  33.934  1.00  0.00     0.198 A 
ATOM     68  C   UNL A   1      45.057  34.560  31.965  1.00  0.00     0.198 A 
ATOM     69  F   UNL A   1      45.344  33.161  30.095  1.00  0.00    -0.203 F 
ATOM     70  F   UNL A   1      43.489  33.928  35.170  1.00  0.00    -0.200 F 
ATOM     71  C   UNL A   1      44.589  34.763  33.254  1.00  0.00     0.200 A 
ATOM     72  F   UNL A   1      45.667  35.557  31.310  1.00  0.00    -0.200 F 
ATOM     73  F   UNL A   1      44.727  35.961  33.838  1.00  0.00    -0.200 F 
ENDBRANCH  49  63
BRANCH  50  74
ATOM     74  C   UNL A   1      42.945  23.551  27.333  1.00  0.00     0.064 A 
ATOM     75  C   UNL A   1      43.351  23.389  26.001  1.00  0.00     0.173 A 
ATOM     76  C   UNL A   1      42.366  22.451  27.980  1.00  0.00     0.173 A 
ATOM     77  F   UNL A   1      43.894  24.420  25.337  1.00  0.00    -0.203 F 
ATOM     78  C   UNL A   1      43.176  22.176  25.341  1.00  0.00     0.198 A 
ATOM     79  C   UNL A   1      42.216  21.230  27.327  1.00  0.00     0.198 A 
ATOM     80  F   UNL A   1      41.966  22.558  29.256  1.00  0.00    -0.203 F 
ATOM     81  F   UNL A   1      43.546  22.054  24.060  1.00  0.00    -0.200 F 
ATOM     82  C   UNL A   1      42.616  21.095  26.006  1.00  0.00     0.200 A 
ATOM     83  F   UNL A   1      41.690  20.185  27.979  1.00  0.00    -0.200 F 
ATOM     84  F   UNL A   1      42.461  19.923  25.375  1.00  0.00    -0.200 F 
ENDBRANCH  50  74
BRANCH  62  85
ATOM     85  C   UNL A   1      48.362  26.493  30.576  1.00  0.00     0.064 A 
ATOM     86  C   UNL A   1      49.400  26.826  29.692  1.00  0.00     0.173 A 
ATOM     87  C   UNL A   1      48.684  25.736  31.712  1.00  0.00     0.173 A 
ATOM     88  F   UNL A   1      49.140  27.533  28.583  1.00  0.00    -0.203 F 
ATOM     89  C   UNL A   1      50.703  26.396  29.926  1.00  0.00     0.198 A 
ATOM     90  C   UNL A   1      49.993  25.331  31.957  1.00  0.00     0.198 A 
ATOM     91  F   UNL A   1      47.728  25.395  32.590  1.00  0.00    -0.203 F 
ATOM     92  F   UNL A   1      51.671  26.686  29.045  1.00  0.00    -0.200 F 
ATOM     93  C   UNL A   1      51.000  25.655  31.060  1.00  0.00     0.200 A 
ATOM     94  F   UNL A   1      50.279  24.623  33.058  1.00  0.00    -0.200 F 
ATOM     95  F   UNL A   1      52.256  25.244  31.284  1.00  0.00    -0.200 F 
ENDBRANCH  62  85
ENDBRANCH  36  37
ENDBRANCH  29  31
ENDBRANCH  28  29
ENDBRANCH  27  28
ENDBRANCH  26  27
ENDBRANCH   1  26
TORSDOF 16
ENDMDL
MODEL 3
REMARK VINA RESULT:     -10.8      5.195     10.311
REMARK SMILES O=C(/C=C/C(=O)OCCOC(=O)c1ccc(-c2c3nc(c(-c4c(F)c(F)c(F)c(F)c4F)c4ccc([nH]4)c(-c4c(F)c(F)c(F)c(F)c4F)c4nc(c(-c5c(F)c(F)c(F)c(F)c5F)c5ccc2[nH]5)C=C4)C=C3)cc1)NNC(=O)CSc1ccc2ccccc2n1
REMARK SMILES IDX 7 1 5 2 6 3 4 4 3 5 2 6 1 7 76 8 77 10 78 11 79 13 80 14
REMARK SMILES IDX 81 15 82 16 83 17 91 18 84 19 90 20 85 21 89 22 86 23 88 24
REMARK SMILES IDX 87 25 8 26 9 27 10 28 11 29 12 30 13 31 14 32 75 33 15 34
REMARK SMILES IDX 74 35 16 36 17 37 18 38 68 39 19 40 73 41 67 42 69 43 20 44
REMARK SMILES IDX 72 45 66 46 65 47 21 49 53 50 33 51 52 52 34 53 37 54 51 55
REMARK SMILES IDX 70 56 35 57 36 58 50 60 71 61 38 62 22 63 23 64 31 65 24 66
REMARK SMILES IDX 25 67 29 68 32 69 26 70 27 71 30 72 28 73 54 74 55 75 63 76
REMARK SMILES IDX 56 77 57 78 61 79 64 80 58 81 59 82 62 83 60 84 39 85 40 86
REMARK SMILES IDX 48 87 41 88 42 89 46 90 49 91 43 92 44 93 47 94 45 95
REMARK H PARENT 76 9 77 12 69 48 37 59
REMARK Flexibility Score: inf
ROOT
ATOM      1  O   UNL A   1      30.266  29.461  23.969  1.00  0.00    -0.459 OA
ENDROOT
BRANCH   1   2
ATOM      2  C   UNL A   1      30.418  29.021  22.699  1.00  0.00     0.331 C 
ATOM      3  O   UNL A   1      30.179  29.651  21.679  1.00  0.00    -0.247 OA
BRANCH   2   4
ATOM      4  C   UNL A   1      31.021  27.676  22.626  1.00  0.00     0.099 C 
ATOM      5  C   UNL A   1      32.262  27.413  22.197  1.00  0.00     0.080 C 
BRANCH   5   6
ATOM      6  C   UNL A   1      32.749  26.020  22.062  1.00  0.00     0.262 C 
ATOM      7  O   UNL A   1      33.905  25.786  21.736  1.00  0.00    -0.268 OA
ATOM      8  N   UNL A   1      31.765  25.062  22.214  1.00  0.00    -0.264 N 
ATOM      9  H   UNL A   1      30.849  25.320  22.466  1.00  0.00     0.191 HD
BRANCH   8  10
ATOM     10  N   UNL A   1      32.091  23.724  22.003  1.00  0.00    -0.267 N 
ATOM     11  C   UNL A   1      32.237  22.784  22.996  1.00  0.00     0.248 C 
ATOM     12  H   UNL A   1      32.228  23.429  21.074  1.00  0.00     0.191 HD
ATOM     13  O   UNL A   1      32.512  21.620  22.700  1.00  0.00    -0.272 OA
BRANCH  11  14
ATOM     14  C   UNL A   1      32.035  23.209  24.442  1.00  0.00     0.178 C 
BRANCH  14  15
ATOM     15  S   UNL A   1      32.373  21.787  25.524  1.00  0.00    -0.096 SA
BRANCH  15  16
ATOM     16  C   UNL A   1      34.144  21.644  25.464  1.00  0.00     0.097 A 
ATOM     17  C   UNL A   1      34.830  20.508  25.058  1.00  0.00     0.036 A 
ATOM     18  N   UNL A   1      34.788  22.766  25.855  1.00  0.00    -0.241 NA
ATOM     19  C   UNL A   1      36.224  20.514  25.101  1.00  0.00     0.013 A 
ATOM     20  C   UNL A   1      36.130  22.784  25.879  1.00  0.00     0.072 A 
ATOM     21  C   UNL A   1      36.903  21.661  25.530  1.00  0.00     0.000 A 
ATOM     22  C   UNL A   1      36.787  23.943  26.267  1.00  0.00     0.029 A 
ATOM     23  C   UNL A   1      38.307  21.715  25.619  1.00  0.00     0.010 A 
ATOM     24  C   UNL A   1      38.181  24.003  26.353  1.00  0.00     0.002 A 
ATOM     25  C   UNL A   1      38.942  22.883  26.041  1.00  0.00     0.001 A 
ENDBRANCH  15  16
ENDBRANCH  14  15
ENDBRANCH  11  14
ENDBRANCH   8  10
ENDBRANCH   5   6
ENDBRANCH   2   4
ENDBRANCH   1   2
BRANCH   1  26
ATOM     26  C   UNL A   1      31.341  29.146  24.876  1.00  0.00     0.275 C 
BRANCH  26  27
ATOM     27  C   UNL A   1      31.697  30.339  25.772  1.00  0.00     0.275 C 
BRANCH  27  28
ATOM     28  O   UNL A   1      33.083  30.333  26.166  1.00  0.00    -0.458 OA
BRANCH  28  29
ATOM     29  C   UNL A   1      33.432  31.295  27.049  1.00  0.00     0.338 C 
ATOM     30  O   UNL A   1      32.754  32.245  27.418  1.00  0.00    -0.246 OA
BRANCH  29  31
ATOM     31  C   UNL A   1      34.732  30.980  27.665  1.00  0.00     0.060 A 
ATOM     32  C   UNL A   1      34.931  29.667  28.101  1.00  0.00     0.016 A 
ATOM     33  C   UNL A   1      35.709  31.954  27.880  1.00  0.00     0.016 A 
ATOM     34  C   UNL A   1      36.104  29.321  28.764  1.00  0.00     0.010 A 
ATOM     35  C   UNL A   1      36.891  31.604  28.546  1.00  0.00     0.010 A 
ATOM     36  C   UNL A   1      37.089  30.289  29.001  1.00  0.00    -0.014 A 
BRANCH  36  37
ATOM     37  C   UNL A   1      38.312  29.904  29.746  1.00  0.00     0.031 A 
ATOM     38  C   UNL A   1      38.559  30.438  31.126  1.00  0.00     0.074 A 
ATOM     39  C   UNL A   1      39.174  29.030  29.194  1.00  0.00     0.049 A 
ATOM     40  N   UNL A   1      39.553  30.191  31.943  1.00  0.00    -0.248 NA
ATOM     41  C   UNL A   1      37.556  31.370  31.661  1.00  0.00     0.031 C 
ATOM     42  C   UNL A   1      39.029  28.426  27.870  1.00  0.00     0.029 A 
ATOM     43  N   UNL A   1      40.338  28.494  29.682  1.00  0.00    -0.354 N 
ATOM     44  C   UNL A   1      39.299  30.939  33.085  1.00  0.00     0.074 A 
ATOM     45  C   UNL A   1      38.070  31.669  32.845  1.00  0.00     0.031 C 
ATOM     46  C   UNL A   1      40.062  27.596  27.653  1.00  0.00     0.029 A 
ATOM     47  C   UNL A   1      40.956  27.635  28.808  1.00  0.00     0.049 A 
ATOM     48  H   UNL A   1      40.697  28.704  30.575  1.00  0.00     0.167 HD
ATOM     49  C   UNL A   1      40.021  31.005  34.229  1.00  0.00     0.037 A 
ATOM     50  C   UNL A   1      42.119  26.968  28.920  1.00  0.00     0.037 A 
ATOM     51  C   UNL A   1      41.241  30.277  34.466  1.00  0.00     0.049 A 
ATOM     52  C   UNL A   1      42.931  27.102  30.179  1.00  0.00     0.074 A 
ATOM     53  C   UNL A   1      42.025  30.253  35.607  1.00  0.00     0.029 A 
ATOM     54  N   UNL A   1      41.861  29.453  33.539  1.00  0.00    -0.354 N 
ATOM     55  N   UNL A   1      42.663  27.785  31.266  1.00  0.00    -0.248 NA
ATOM     56  C   UNL A   1      44.205  26.373  30.226  1.00  0.00     0.031 C 
ATOM     57  C   UNL A   1      43.145  29.451  35.353  1.00  0.00     0.029 A 
ATOM     58  C   UNL A   1      43.034  28.938  34.071  1.00  0.00     0.049 A 
ATOM     59  H   UNL A   1      41.520  29.262  32.636  1.00  0.00     0.167 HD
ATOM     60  C   UNL A   1      43.725  27.556  32.131  1.00  0.00     0.074 A 
ATOM     61  C   UNL A   1      44.632  26.656  31.448  1.00  0.00     0.031 C 
ATOM     62  C   UNL A   1      43.931  28.049  33.377  1.00  0.00     0.037 A 
BRANCH  49  63
ATOM     63  C   UNL A   1      39.519  31.916  35.312  1.00  0.00     0.064 A 
ATOM     64  C   UNL A   1      38.602  31.478  36.278  1.00  0.00     0.173 A 
ATOM     65  C   UNL A   1      39.985  33.237  35.398  1.00  0.00     0.173 A 
ATOM     66  F   UNL A   1      38.117  30.229  36.230  1.00  0.00    -0.203 F 
ATOM     67  C   UNL A   1      38.151  32.337  37.277  1.00  0.00     0.198 A 
ATOM     68  C   UNL A   1      39.549  34.086  36.413  1.00  0.00     0.198 A 
ATOM     69  F   UNL A   1      40.865  33.705  34.500  1.00  0.00    -0.203 F 
ATOM     70  F   UNL A   1      37.240  31.911  38.163  1.00  0.00    -0.200 F 
ATOM     71  C   UNL A   1      38.628  33.638  37.347  1.00  0.00     0.200 A 
ATOM     72  F   UNL A   1      40.020  35.339  36.483  1.00  0.00    -0.200 F 
ATOM     73  F   UNL A   1      38.193  34.462  38.310  1.00  0.00    -0.200 F 
ENDBRANCH  49  63
BRANCH  50  74
ATOM     74  C   UNL A   1      42.583  26.108  27.802  1.00  0.00     0.064 A 
ATOM     75  C   UNL A   1      42.135  24.786  27.676  1.00  0.00     0.173 A 
ATOM     76  C   UNL A   1      43.473  26.593  26.834  1.00  0.00     0.173 A 
ATOM     77  F   UNL A   1      41.296  24.275  28.588  1.00  0.00    -0.203 F 
ATOM     78  C   UNL A   1      42.568  23.980  26.627  1.00  0.00     0.198 A 
ATOM     79  C   UNL A   1      43.884  25.793  25.770  1.00  0.00     0.198 A 
ATOM     80  F   UNL A   1      43.927  27.853  26.911  1.00  0.00    -0.203 F 
ATOM     81  F   UNL A   1      42.147  22.710  26.544  1.00  0.00    -0.200 F 
ATOM     82  C   UNL A   1      43.436  24.485  25.670  1.00  0.00     0.200 A 
ATOM     83  F   UNL A   1      44.709  26.293  24.840  1.00  0.00    -0.200 F 
ATOM     84  F   UNL A   1      43.840  23.713  24.653  1.00  0.00    -0.200 F 
ENDBRANCH  50  74
BRANCH  62  85
ATOM     85  C   UNL A   1      45.176  27.610  34.090  1.00  0.00     0.064 A 
ATOM     86  C   UNL A   1      46.367  28.347  34.007  1.00  0.00     0.173 A 
ATOM     87  C   UNL A   1      45.173  26.455  34.886  1.00  0.00     0.173 A 
ATOM     88  F   UNL A   1      46.425  29.449  33.245  1.00  0.00    -0.203 F 
ATOM     89  C   UNL A   1      47.515  27.930  34.676  1.00  0.00     0.198 A 
ATOM     90  C   UNL A   1      46.315  26.055  35.576  1.00  0.00     0.198 A 
ATOM     91  F   UNL A   1      44.059  25.716  35.002  1.00  0.00    -0.203 F 
ATOM     92  F   UNL A   1      48.654  28.625  34.546  1.00  0.00    -0.200 F 
ATOM     93  C   UNL A   1      47.486  26.790  35.464  1.00  0.00     0.200 A 
ATOM     94  F   UNL A   1      46.283  24.958  36.344  1.00  0.00    -0.200 F 
ATOM     95  F   UNL A   1      48.592  26.391  36.109  1.00  0.00    -0.200 F 
ENDBRANCH  62  85
ENDBRANCH  36  37
ENDBRANCH  29  31
ENDBRANCH  28  29
ENDBRANCH  27  28
ENDBRANCH  26  27
ENDBRANCH   1  26
TORSDOF 16
ENDMDL
