MODEL 1
REMARK VINA RESULT:     -11.5      0.000      0.000
REMARK SMILES CN(CCS(C)(=O)=O)S(=O)(=O)c1cc(C(=O)OCCOC(=O)c2ccc(-c3c4nc(c(-c5c(F)c(F)c(F)c(F)c5F)c5ccc([nH]5)c(-c5c(F)c(F)c(F)c(F)c5F)c5nc(c(-c6c(F)c(F)c(F)c(F)c6F)c6ccc3[nH]6)C=C5)C=C4)cc2)ccc1F
REMARK SMILES IDX 17 1 15 2 16 3 14 4 12 5 13 6 88 7 87 8 89 9 86 10 9 11
REMARK SMILES IDX 10 12 11 13 2 14 1 15 3 16 4 17 5 18 6 19 7 20 8 21 18 22
REMARK SMILES IDX 19 23 20 24 21 25 22 26 23 27 24 28 85 29 25 30 84 31 26 32
REMARK SMILES IDX 27 33 28 34 78 35 29 36 83 37 77 38 79 39 30 40 82 41 76 42
REMARK SMILES IDX 75 43 31 45 63 46 43 47 62 48 44 49 47 50 61 51 80 52 45 53
REMARK SMILES IDX 46 54 60 56 81 57 48 58 32 59 33 60 41 61 34 62 35 63 39 64
REMARK SMILES IDX 42 65 36 66 37 67 40 68 38 69 64 70 65 71 73 72 66 73 67 74
REMARK SMILES IDX 71 75 74 76 68 77 69 78 72 79 70 80 49 81 50 82 58 83 51 84
REMARK SMILES IDX 52 85 56 86 59 87 53 88 54 89 57 90 55 91
REMARK H PARENT 79 44 47 55
REMARK Flexibility Score: inf
ROOT
ATOM      1  O   UNL A   1      31.100  28.646  24.962  1.00  0.00    -0.458 OA
ENDROOT
BRANCH   1   2
ATOM      2  C   UNL A   1      31.472  27.870  23.921  1.00  0.00     0.338 C 
ATOM      3  O   UNL A   1      30.993  27.849  22.796  1.00  0.00    -0.246 OA
BRANCH   2   4
ATOM      4  C   UNL A   1      32.612  27.001  24.273  1.00  0.00     0.061 A 
ATOM      5  C   UNL A   1      33.809  24.934  23.846  1.00  0.00     0.119 A 
ATOM      6  C   UNL A   1      32.932  25.934  23.422  1.00  0.00     0.040 A 
ATOM      7  C   UNL A   1      34.425  25.046  25.085  1.00  0.00     0.143 A 
ATOM      8  C   UNL A   1      34.149  26.137  25.915  1.00  0.00     0.041 A 
ATOM      9  F   UNL A   1      35.312  24.138  25.505  1.00  0.00    -0.206 F 
ATOM     10  C   UNL A   1      33.230  27.114  25.519  1.00  0.00     0.019 A 
BRANCH   5  11
ATOM     11  S   UNL A   1      34.161  23.531  22.836  1.00  0.00     0.245 S 
ATOM     12  O   UNL A   1      35.555  23.193  22.928  1.00  0.00    -0.207 OA
ATOM     13  O   UNL A   1      33.523  23.799  21.560  1.00  0.00    -0.207 OA
BRANCH  11  14
ATOM     14  N   UNL A   1      33.319  22.199  23.531  1.00  0.00    -0.200 NA
ATOM     15  C   UNL A   1      34.179  21.414  24.469  1.00  0.00     0.124 C 
BRANCH  14  16
ATOM     16  C   UNL A   1      31.919  22.345  24.041  1.00  0.00     0.118 C 
BRANCH  16  17
ATOM     17  C   UNL A   1      31.618  21.910  25.457  1.00  0.00     0.153 C 
BRANCH  17  18
ATOM     18  S   UNL A   1      31.060  23.196  26.574  1.00  0.00     0.148 S 
ATOM     19  C   UNL A   1      29.459  22.734  27.192  1.00  0.00     0.158 C 
ATOM     20  O   UNL A   1      31.957  23.173  27.715  1.00  0.00    -0.229 OA
ATOM     21  O   UNL A   1      30.857  24.417  25.824  1.00  0.00    -0.229 OA
ENDBRANCH  17  18
ENDBRANCH  16  17
ENDBRANCH  14  16
ENDBRANCH  11  14
ENDBRANCH   5  11
ENDBRANCH   2   4
ENDBRANCH   1   2
BRANCH   1  22
ATOM     22  C   UNL A   1      31.174  30.074  24.744  1.00  0.00     0.275 C 
BRANCH  22  23
ATOM     23  C   UNL A   1      31.377  30.825  26.060  1.00  0.00     0.275 C 
BRANCH  23  24
ATOM     24  O   UNL A   1      32.750  30.698  26.472  1.00  0.00    -0.458 OA
BRANCH  24  25
ATOM     25  C   UNL A   1      33.277  31.753  27.137  1.00  0.00     0.338 C 
ATOM     26  O   UNL A   1      32.753  32.828  27.366  1.00  0.00    -0.246 OA
BRANCH  25  27
ATOM     27  C   UNL A   1      34.606  31.383  27.655  1.00  0.00     0.060 A 
ATOM     28  C   UNL A   1      34.832  30.053  27.982  1.00  0.00     0.016 A 
ATOM     29  C   UNL A   1      35.566  32.345  27.967  1.00  0.00     0.016 A 
ATOM     30  C   UNL A   1      35.952  29.697  28.719  1.00  0.00     0.010 A 
ATOM     31  C   UNL A   1      36.754  31.960  28.613  1.00  0.00     0.010 A 
ATOM     32  C   UNL A   1      36.944  30.633  29.034  1.00  0.00    -0.014 A 
BRANCH  32  33
ATOM     33  C   UNL A   1      38.110  30.197  29.858  1.00  0.00     0.031 A 
ATOM     34  C   UNL A   1      39.203  29.358  29.247  1.00  0.00     0.074 A 
ATOM     35  C   UNL A   1      38.273  30.653  31.118  1.00  0.00     0.049 A 
ATOM     36  N   UNL A   1      40.241  28.805  29.824  1.00  0.00    -0.248 NA
ATOM     37  C   UNL A   1      39.128  29.119  27.797  1.00  0.00     0.031 C 
ATOM     38  C   UNL A   1      37.356  31.557  31.816  1.00  0.00     0.029 A 
ATOM     39  N   UNL A   1      39.288  30.456  32.025  1.00  0.00    -0.354 N 
ATOM     40  C   UNL A   1      40.906  28.106  28.824  1.00  0.00     0.074 A 
ATOM     41  C   UNL A   1      40.167  28.319  27.599  1.00  0.00     0.031 C 
ATOM     42  C   UNL A   1      37.884  31.895  33.002  1.00  0.00     0.029 A 
ATOM     43  C   UNL A   1      39.119  31.142  33.204  1.00  0.00     0.049 A 
ATOM     44  H   UNL A   1      40.063  29.876  31.848  1.00  0.00     0.167 HD
ATOM     45  C   UNL A   1      42.025  27.349  28.923  1.00  0.00     0.037 A 
ATOM     46  C   UNL A   1      39.843  31.136  34.342  1.00  0.00     0.037 A 
ATOM     47  C   UNL A   1      42.793  27.175  30.128  1.00  0.00     0.049 A 
ATOM     48  C   UNL A   1      41.037  30.229  34.450  1.00  0.00     0.074 A 
ATOM     49  C   UNL A   1      43.921  26.397  30.327  1.00  0.00     0.029 A 
ATOM     50  N   UNL A   1      42.526  27.805  31.333  1.00  0.00    -0.354 N 
ATOM     51  N   UNL A   1      41.586  29.475  33.530  1.00  0.00    -0.248 NA
ATOM     52  C   UNL A   1      41.686  30.140  35.766  1.00  0.00     0.031 C 
ATOM     53  C   UNL A   1      44.314  26.527  31.663  1.00  0.00     0.029 A 
ATOM     54  C   UNL A   1      43.459  27.422  32.285  1.00  0.00     0.049 A 
ATOM     55  H   UNL A   1      41.783  28.432  31.491  1.00  0.00     0.167 HD
ATOM     56  C   UNL A   1      42.636  28.817  34.157  1.00  0.00     0.074 A 
ATOM     57  C   UNL A   1      42.673  29.289  35.524  1.00  0.00     0.031 C 
ATOM     58  C   UNL A   1      43.483  27.891  33.645  1.00  0.00     0.037 A 
BRANCH  45  59
ATOM     59  C   UNL A   1      42.472  26.601  27.702  1.00  0.00     0.064 A 
ATOM     60  C   UNL A   1      41.958  25.321  27.440  1.00  0.00     0.173 A 
ATOM     61  C   UNL A   1      43.446  27.108  26.833  1.00  0.00     0.173 A 
ATOM     62  F   UNL A   1      41.027  24.788  28.248  1.00  0.00    -0.203 F 
ATOM     63  C   UNL A   1      42.413  24.572  26.360  1.00  0.00     0.198 A 
ATOM     64  C   UNL A   1      43.882  26.367  25.738  1.00  0.00     0.198 A 
ATOM     65  F   UNL A   1      43.957  28.333  27.034  1.00  0.00    -0.203 F 
ATOM     66  F   UNL A   1      41.929  23.340  26.149  1.00  0.00    -0.200 F 
ATOM     67  C   UNL A   1      43.373  25.096  25.508  1.00  0.00     0.200 A 
ATOM     68  F   UNL A   1      44.794  26.880  24.902  1.00  0.00    -0.200 F 
ATOM     69  F   UNL A   1      43.805  24.377  24.462  1.00  0.00    -0.200 F 
ENDBRANCH  45  59
BRANCH  46  70
ATOM     70  C   UNL A   1      39.422  31.974  35.498  1.00  0.00     0.064 A 
ATOM     71  C   UNL A   1      38.536  31.486  36.470  1.00  0.00     0.173 A 
ATOM     72  C   UNL A   1      39.902  33.281  35.653  1.00  0.00     0.173 A 
ATOM     73  F   UNL A   1      38.053  30.238  36.373  1.00  0.00    -0.203 F 
ATOM     74  C   UNL A   1      38.120  32.285  37.533  1.00  0.00     0.198 A 
ATOM     75  C   UNL A   1      39.512  34.068  36.736  1.00  0.00     0.198 A 
ATOM     76  F   UNL A   1      40.772  33.784  34.765  1.00  0.00    -0.203 F 
ATOM     77  F   UNL A   1      37.237  31.806  38.421  1.00  0.00    -0.200 F 
ATOM     78  C   UNL A   1      38.613  33.573  37.669  1.00  0.00     0.200 A 
ATOM     79  F   UNL A   1      40.014  35.302  36.881  1.00  0.00    -0.200 F 
ATOM     80  F   UNL A   1      38.225  34.334  38.700  1.00  0.00    -0.200 F 
ENDBRANCH  46  70
BRANCH  58  81
ATOM     81  C   UNL A   1      44.523  27.320  34.563  1.00  0.00     0.064 A 
ATOM     82  C   UNL A   1      45.779  27.932  34.692  1.00  0.00     0.173 A 
ATOM     83  C   UNL A   1      44.295  26.131  35.272  1.00  0.00     0.173 A 
ATOM     84  F   UNL A   1      46.048  29.068  34.031  1.00  0.00    -0.203 F 
ATOM     85  C   UNL A   1      46.771  27.368  35.489  1.00  0.00     0.198 A 
ATOM     86  C   UNL A   1      45.282  25.584  36.087  1.00  0.00     0.198 A 
ATOM     87  F   UNL A   1      43.105  25.517  35.193  1.00  0.00    -0.203 F 
ATOM     88  F   UNL A   1      47.973  27.956  35.575  1.00  0.00    -0.200 F 
ATOM     89  C   UNL A   1      46.521  26.198  36.188  1.00  0.00     0.200 A 
ATOM     90  F   UNL A   1      45.029  24.466  36.783  1.00  0.00    -0.200 F 
ATOM     91  F   UNL A   1      47.473  25.663  36.965  1.00  0.00    -0.200 F 
ENDBRANCH  58  81
ENDBRANCH  32  33
ENDBRANCH  25  27
ENDBRANCH  24  25
ENDBRANCH  23  24
ENDBRANCH  22  23
ENDBRANCH   1  22
TORSDOF 16
ENDMDL
MODEL 2
REMARK VINA RESULT:     -11.3      1.332      1.965
REMARK SMILES CN(CCS(C)(=O)=O)S(=O)(=O)c1cc(C(=O)OCCOC(=O)c2ccc(-c3c4nc(c(-c5c(F)c(F)c(F)c(F)c5F)c5ccc([nH]5)c(-c5c(F)c(F)c(F)c(F)c5F)c5nc(c(-c6c(F)c(F)c(F)c(F)c6F)c6ccc3[nH]6)C=C5)C=C4)cc2)ccc1F
REMARK SMILES IDX 17 1 15 2 16 3 14 4 12 5 13 6 88 7 87 8 89 9 86 10 9 11
REMARK SMILES IDX 10 12 11 13 2 14 1 15 3 16 4 17 5 18 6 19 7 20 8 21 18 22
REMARK SMILES IDX 19 23 20 24 21 25 22 26 23 27 24 28 85 29 25 30 84 31 26 32
REMARK SMILES IDX 27 33 28 34 78 35 29 36 83 37 77 38 79 39 30 40 82 41 76 42
REMARK SMILES IDX 75 43 31 45 63 46 43 47 62 48 44 49 47 50 61 51 80 52 45 53
REMARK SMILES IDX 46 54 60 56 81 57 48 58 32 59 33 60 41 61 34 62 35 63 39 64
REMARK SMILES IDX 42 65 36 66 37 67 40 68 38 69 64 70 65 71 73 72 66 73 67 74
REMARK SMILES IDX 71 75 74 76 68 77 69 78 72 79 70 80 49 81 50 82 58 83 51 84
REMARK SMILES IDX 52 85 56 86 59 87 53 88 54 89 57 90 55 91
REMARK H PARENT 79 44 47 55
REMARK Flexibility Score: inf
ROOT
ATOM      1  O   UNL A   1      31.410  28.493  25.459  1.00  0.00    -0.458 OA
ENDROOT
BRANCH   1   2
ATOM      2  C   UNL A   1      31.198  27.443  24.636  1.00  0.00     0.338 C 
ATOM      3  O   UNL A   1      30.380  27.353  23.733  1.00  0.00    -0.246 OA
BRANCH   2   4
ATOM      4  C   UNL A   1      32.130  26.334  24.924  1.00  0.00     0.061 A 
ATOM      5  C   UNL A   1      32.511  24.240  26.089  1.00  0.00     0.119 A 
ATOM      6  C   UNL A   1      31.633  25.184  25.553  1.00  0.00     0.040 A 
ATOM      7  C   UNL A   1      33.879  24.406  25.922  1.00  0.00     0.143 A 
ATOM      8  C   UNL A   1      34.377  25.525  25.247  1.00  0.00     0.041 A 
ATOM      9  F   UNL A   1      34.750  23.497  26.372  1.00  0.00    -0.206 F 
ATOM     10  C   UNL A   1      33.505  26.503  24.756  1.00  0.00     0.019 A 
BRANCH   5  11
ATOM     11  S   UNL A   1      31.919  22.829  26.968  1.00  0.00     0.245 S 
ATOM     12  O   UNL A   1      30.502  22.940  27.184  1.00  0.00    -0.207 OA
ATOM     13  O   UNL A   1      32.846  22.638  28.069  1.00  0.00    -0.207 OA
BRANCH  11  14
ATOM     14  N   UNL A   1      32.119  21.476  25.922  1.00  0.00    -0.200 NA
ATOM     15  C   UNL A   1      31.809  21.811  24.499  1.00  0.00     0.124 C 
BRANCH  14  16
ATOM     16  C   UNL A   1      33.306  20.572  26.040  1.00  0.00     0.118 C 
BRANCH  16  17
ATOM     17  C   UNL A   1      33.822  19.890  24.793  1.00  0.00     0.153 C 
BRANCH  17  18
ATOM     18  S   UNL A   1      33.272  18.205  24.531  1.00  0.00     0.148 S 
ATOM     19  C   UNL A   1      32.681  18.070  22.861  1.00  0.00     0.158 C 
ATOM     20  O   UNL A   1      34.453  17.365  24.611  1.00  0.00    -0.229 OA
ATOM     21  O   UNL A   1      32.128  17.945  25.378  1.00  0.00    -0.229 OA
ENDBRANCH  17  18
ENDBRANCH  16  17
ENDBRANCH  14  16
ENDBRANCH  11  14
ENDBRANCH   5  11
ENDBRANCH   2   4
ENDBRANCH   1   2
BRANCH   1  22
ATOM     22  C   UNL A   1      31.137  29.798  24.899  1.00  0.00     0.275 C 
BRANCH  22  23
ATOM     23  C   UNL A   1      31.437  30.906  25.909  1.00  0.00     0.275 C 
BRANCH  23  24
ATOM     24  O   UNL A   1      32.797  30.780  26.362  1.00  0.00    -0.458 OA
BRANCH  24  25
ATOM     25  C   UNL A   1      33.266  31.784  27.140  1.00  0.00     0.338 C 
ATOM     26  O   UNL A   1      32.697  32.815  27.451  1.00  0.00    -0.246 OA
BRANCH  25  27
ATOM     27  C   UNL A   1      34.591  31.411  27.664  1.00  0.00     0.060 A 
ATOM     28  C   UNL A   1      34.813  30.080  27.991  1.00  0.00     0.016 A 
ATOM     29  C   UNL A   1      35.552  32.370  27.982  1.00  0.00     0.016 A 
ATOM     30  C   UNL A   1      35.929  29.721  28.732  1.00  0.00     0.010 A 
ATOM     31  C   UNL A   1      36.736  31.982  28.633  1.00  0.00     0.010 A 
ATOM     32  C   UNL A   1      36.921  30.655  29.054  1.00  0.00    -0.014 A 
BRANCH  32  33
ATOM     33  C   UNL A   1      38.083  30.215  29.882  1.00  0.00     0.031 A 
ATOM     34  C   UNL A   1      39.180  29.379  29.274  1.00  0.00     0.074 A 
ATOM     35  C   UNL A   1      38.236  30.664  31.146  1.00  0.00     0.049 A 
ATOM     36  N   UNL A   1      40.215  28.824  29.856  1.00  0.00    -0.248 NA
ATOM     37  C   UNL A   1      39.115  29.148  27.823  1.00  0.00     0.031 C 
ATOM     38  C   UNL A   1      37.315  31.564  31.843  1.00  0.00     0.029 A 
ATOM     39  N   UNL A   1      39.246  30.463  32.059  1.00  0.00    -0.354 N 
ATOM     40  C   UNL A   1      40.887  28.131  28.857  1.00  0.00     0.074 A 
ATOM     41  C   UNL A   1      40.155  28.350  27.627  1.00  0.00     0.031 C 
ATOM     42  C   UNL A   1      37.835  31.897  33.034  1.00  0.00     0.029 A 
ATOM     43  C   UNL A   1      39.069  31.143  33.240  1.00  0.00     0.049 A 
ATOM     44  H   UNL A   1      40.023  29.885  31.883  1.00  0.00     0.167 HD
ATOM     45  C   UNL A   1      42.005  27.375  28.958  1.00  0.00     0.037 A 
ATOM     46  C   UNL A   1      39.785  31.132  34.383  1.00  0.00     0.037 A 
ATOM     47  C   UNL A   1      42.765  27.195  30.168  1.00  0.00     0.049 A 
ATOM     48  C   UNL A   1      40.980  30.225  34.494  1.00  0.00     0.074 A 
ATOM     49  C   UNL A   1      43.893  26.416  30.370  1.00  0.00     0.029 A 
ATOM     50  N   UNL A   1      42.491  27.818  31.374  1.00  0.00    -0.354 N 
ATOM     51  N   UNL A   1      41.535  29.476  33.573  1.00  0.00    -0.248 NA
ATOM     52  C   UNL A   1      41.620  30.130  35.813  1.00  0.00     0.031 C 
ATOM     53  C   UNL A   1      44.277  26.540  31.709  1.00  0.00     0.029 A 
ATOM     54  C   UNL A   1      43.418  27.431  32.329  1.00  0.00     0.049 A 
ATOM     55  H   UNL A   1      41.746  28.444  31.530  1.00  0.00     0.167 HD
ATOM     56  C   UNL A   1      42.582  28.816  34.203  1.00  0.00     0.074 A 
ATOM     57  C   UNL A   1      42.609  29.281  35.573  1.00  0.00     0.031 C 
ATOM     58  C   UNL A   1      43.433  27.893  33.693  1.00  0.00     0.037 A 
BRANCH  45  59
ATOM     59  C   UNL A   1      42.460  26.632  27.736  1.00  0.00     0.064 A 
ATOM     60  C   UNL A   1      41.981  25.336  27.487  1.00  0.00     0.173 A 
ATOM     61  C   UNL A   1      43.409  27.164  26.853  1.00  0.00     0.173 A 
ATOM     62  F   UNL A   1      41.076  24.782  28.308  1.00  0.00    -0.203 F 
ATOM     63  C   UNL A   1      42.447  24.595  26.406  1.00  0.00     0.198 A 
ATOM     64  C   UNL A   1      43.855  26.429  25.758  1.00  0.00     0.198 A 
ATOM     65  F   UNL A   1      43.886  28.404  27.042  1.00  0.00    -0.203 F 
ATOM     66  F   UNL A   1      41.997  23.349  26.207  1.00  0.00    -0.200 F 
ATOM     67  C   UNL A   1      43.381  25.143  25.540  1.00  0.00     0.200 A 
ATOM     68  F   UNL A   1      44.742  26.964  24.909  1.00  0.00    -0.200 F 
ATOM     69  F   UNL A   1      43.823  24.431  24.494  1.00  0.00    -0.200 F 
ENDBRANCH  45  59
BRANCH  46  70
ATOM     70  C   UNL A   1      39.357  31.963  35.540  1.00  0.00     0.064 A 
ATOM     71  C   UNL A   1      38.478  31.465  36.513  1.00  0.00     0.173 A 
ATOM     72  C   UNL A   1      39.822  33.276  35.696  1.00  0.00     0.173 A 
ATOM     73  F   UNL A   1      38.009  30.212  36.415  1.00  0.00    -0.203 F 
ATOM     74  C   UNL A   1      38.055  32.257  37.577  1.00  0.00     0.198 A 
ATOM     75  C   UNL A   1      39.425  34.057  36.781  1.00  0.00     0.198 A 
ATOM     76  F   UNL A   1      40.685  33.789  34.808  1.00  0.00    -0.203 F 
ATOM     77  F   UNL A   1      37.178  31.767  38.466  1.00  0.00    -0.200 F 
ATOM     78  C   UNL A   1      38.533  33.550  37.714  1.00  0.00     0.200 A 
ATOM     79  F   UNL A   1      39.913  35.297  36.926  1.00  0.00    -0.200 F 
ATOM     80  F   UNL A   1      38.137  34.306  38.747  1.00  0.00    -0.200 F 
ENDBRANCH  46  70
BRANCH  58  81
ATOM     81  C   UNL A   1      44.467  27.318  34.614  1.00  0.00     0.064 A 
ATOM     82  C   UNL A   1      45.715  27.941  34.769  1.00  0.00     0.173 A 
ATOM     83  C   UNL A   1      44.243  26.115  35.300  1.00  0.00     0.173 A 
ATOM     84  F   UNL A   1      45.980  29.091  34.130  1.00  0.00    -0.203 F 
ATOM     85  C   UNL A   1      46.703  27.375  35.569  1.00  0.00     0.198 A 
ATOM     86  C   UNL A   1      45.225  25.565  36.119  1.00  0.00     0.198 A 
ATOM     87  F   UNL A   1      43.061  25.490  35.196  1.00  0.00    -0.203 F 
ATOM     88  F   UNL A   1      47.897  27.974  35.681  1.00  0.00    -0.200 F 
ATOM     89  C   UNL A   1      46.457  26.190  36.246  1.00  0.00     0.200 A 
ATOM     90  F   UNL A   1      44.976  24.433  36.793  1.00  0.00    -0.200 F 
ATOM     91  F   UNL A   1      47.405  25.653  37.026  1.00  0.00    -0.200 F 
ENDBRANCH  58  81
ENDBRANCH  32  33
ENDBRANCH  25  27
ENDBRANCH  24  25
ENDBRANCH  23  24
ENDBRANCH  22  23
ENDBRANCH   1  22
TORSDOF 16
ENDMDL
MODEL 3
REMARK VINA RESULT:     -11.2      1.351      2.528
REMARK SMILES CN(CCS(C)(=O)=O)S(=O)(=O)c1cc(C(=O)OCCOC(=O)c2ccc(-c3c4nc(c(-c5c(F)c(F)c(F)c(F)c5F)c5ccc([nH]5)c(-c5c(F)c(F)c(F)c(F)c5F)c5nc(c(-c6c(F)c(F)c(F)c(F)c6F)c6ccc3[nH]6)C=C5)C=C4)cc2)ccc1F
REMARK SMILES IDX 17 1 15 2 16 3 14 4 12 5 13 6 88 7 87 8 89 9 86 10 9 11
REMARK SMILES IDX 10 12 11 13 2 14 1 15 3 16 4 17 5 18 6 19 7 20 8 21 18 22
REMARK SMILES IDX 19 23 20 24 21 25 22 26 23 27 24 28 85 29 25 30 84 31 26 32
REMARK SMILES IDX 27 33 28 34 78 35 29 36 83 37 77 38 79 39 30 40 82 41 76 42
REMARK SMILES IDX 75 43 31 45 63 46 43 47 62 48 44 49 47 50 61 51 80 52 45 53
REMARK SMILES IDX 46 54 60 56 81 57 48 58 32 59 33 60 41 61 34 62 35 63 39 64
REMARK SMILES IDX 42 65 36 66 37 67 40 68 38 69 64 70 65 71 73 72 66 73 67 74
REMARK SMILES IDX 71 75 74 76 68 77 69 78 72 79 70 80 49 81 50 82 58 83 51 84
REMARK SMILES IDX 52 85 56 86 59 87 53 88 54 89 57 90 55 91
REMARK H PARENT 79 44 47 55
REMARK Flexibility Score: inf
ROOT
ATOM      1  O   UNL A   1      31.428  28.546  25.700  1.00  0.00    -0.458 OA
ENDROOT
BRANCH   1   2
ATOM      2  C   UNL A   1      31.196  27.519  24.854  1.00  0.00     0.338 C 
ATOM      3  O   UNL A   1      30.354  27.452  23.972  1.00  0.00    -0.246 OA
BRANCH   2   4
ATOM      4  C   UNL A   1      32.138  26.405  25.085  1.00  0.00     0.061 A 
ATOM      5  C   UNL A   1      32.533  24.252  26.131  1.00  0.00     0.119 A 
ATOM      6  C   UNL A   1      31.649  25.216  25.644  1.00  0.00     0.040 A 
ATOM      7  C   UNL A   1      33.900  24.442  25.984  1.00  0.00     0.143 A 
ATOM      8  C   UNL A   1      34.391  25.603  25.378  1.00  0.00     0.041 A 
ATOM      9  F   UNL A   1      34.779  23.518  26.388  1.00  0.00    -0.206 F 
ATOM     10  C   UNL A   1      33.512  26.598  24.938  1.00  0.00     0.019 A 
BRANCH   5  11
ATOM     11  S   UNL A   1      31.951  22.787  26.923  1.00  0.00     0.245 S 
ATOM     12  O   UNL A   1      30.520  22.832  27.056  1.00  0.00    -0.207 OA
ATOM     13  O   UNL A   1      32.817  22.593  28.071  1.00  0.00    -0.207 OA
BRANCH  11  14
ATOM     14  N   UNL A   1      32.271  21.483  25.845  1.00  0.00    -0.200 NA
ATOM     15  C   UNL A   1      32.083  21.872  24.415  1.00  0.00     0.124 C 
BRANCH  14  16
ATOM     16  C   UNL A   1      33.459  20.592  26.034  1.00  0.00     0.118 C 
BRANCH  16  17
ATOM     17  C   UNL A   1      33.939  19.769  24.860  1.00  0.00     0.153 C 
BRANCH  17  18
ATOM     18  S   UNL A   1      32.982  18.301  24.484  1.00  0.00     0.148 S 
ATOM     19  C   UNL A   1      34.115  16.971  24.161  1.00  0.00     0.158 C 
ATOM     20  O   UNL A   1      32.275  17.944  25.701  1.00  0.00    -0.229 OA
ATOM     21  O   UNL A   1      32.258  18.513  23.249  1.00  0.00    -0.229 OA
ENDBRANCH  17  18
ENDBRANCH  16  17
ENDBRANCH  14  16
ENDBRANCH  11  14
ENDBRANCH   5  11
ENDBRANCH   2   4
ENDBRANCH   1   2
BRANCH   1  22
ATOM     22  C   UNL A   1      31.334  29.870  25.125  1.00  0.00     0.275 C 
BRANCH  22  23
ATOM     23  C   UNL A   1      31.661  30.946  26.161  1.00  0.00     0.275 C 
BRANCH  23  24
ATOM     24  O   UNL A   1      33.043  30.833  26.545  1.00  0.00    -0.458 OA
BRANCH  24  25
ATOM     25  C   UNL A   1      33.531  31.821  27.330  1.00  0.00     0.338 C 
ATOM     26  O   UNL A   1      32.983  32.861  27.648  1.00  0.00    -0.246 OA
BRANCH  25  27
ATOM     27  C   UNL A   1      34.847  31.416  27.855  1.00  0.00     0.060 A 
ATOM     28  C   UNL A   1      35.010  30.099  28.262  1.00  0.00     0.016 A 
ATOM     29  C   UNL A   1      35.858  32.345  28.096  1.00  0.00     0.016 A 
ATOM     30  C   UNL A   1      36.122  29.732  29.007  1.00  0.00     0.010 A 
ATOM     31  C   UNL A   1      37.034  31.940  28.751  1.00  0.00     0.010 A 
ATOM     32  C   UNL A   1      37.164  30.634  29.252  1.00  0.00    -0.014 A 
BRANCH  32  33
ATOM     33  C   UNL A   1      38.319  30.189  30.088  1.00  0.00     0.031 A 
ATOM     34  C   UNL A   1      39.406  29.334  29.491  1.00  0.00     0.074 A 
ATOM     35  C   UNL A   1      38.475  30.651  31.347  1.00  0.00     0.049 A 
ATOM     36  N   UNL A   1      40.434  28.773  30.081  1.00  0.00    -0.248 NA
ATOM     37  C   UNL A   1      39.341  29.087  28.043  1.00  0.00     0.031 C 
ATOM     38  C   UNL A   1      37.564  31.570  32.032  1.00  0.00     0.029 A 
ATOM     39  N   UNL A   1      39.481  30.449  32.263  1.00  0.00    -0.354 N 
ATOM     40  C   UNL A   1      41.099  28.061  29.091  1.00  0.00     0.074 A 
ATOM     41  C   UNL A   1      40.372  28.275  27.858  1.00  0.00     0.031 C 
ATOM     42  C   UNL A   1      38.086  31.910  33.220  1.00  0.00     0.029 A 
ATOM     43  C   UNL A   1      39.310  31.144  33.437  1.00  0.00     0.049 A 
ATOM     44  H   UNL A   1      40.251  29.859  32.096  1.00  0.00     0.167 HD
ATOM     45  C   UNL A   1      42.208  27.292  29.203  1.00  0.00     0.037 A 
ATOM     46  C   UNL A   1      40.025  31.137  34.581  1.00  0.00     0.037 A 
ATOM     47  C   UNL A   1      42.964  27.117  30.416  1.00  0.00     0.049 A 
ATOM     48  C   UNL A   1      41.208  30.217  34.704  1.00  0.00     0.074 A 
ATOM     49  C   UNL A   1      44.082  26.328  30.629  1.00  0.00     0.029 A 
ATOM     50  N   UNL A   1      42.695  27.758  31.614  1.00  0.00    -0.354 N 
ATOM     51  N   UNL A   1      41.756  29.451  33.793  1.00  0.00    -0.248 NA
ATOM     52  C   UNL A   1      41.845  30.130  36.026  1.00  0.00     0.031 C 
ATOM     53  C   UNL A   1      44.465  26.462  31.967  1.00  0.00     0.029 A 
ATOM     54  C   UNL A   1      43.615  27.370  32.576  1.00  0.00     0.049 A 
ATOM     55  H   UNL A   1      41.958  28.394  31.762  1.00  0.00     0.167 HD
ATOM     56  C   UNL A   1      42.793  28.786  34.432  1.00  0.00     0.074 A 
ATOM     57  C   UNL A   1      42.824  29.266  35.797  1.00  0.00     0.031 C 
ATOM     58  C   UNL A   1      43.634  27.847  33.934  1.00  0.00     0.037 A 
BRANCH  45  59
ATOM     59  C   UNL A   1      42.656  26.531  27.990  1.00  0.00     0.064 A 
ATOM     60  C   UNL A   1      43.523  27.135  27.066  1.00  0.00     0.173 A 
ATOM     61  C   UNL A   1      42.184  25.243  27.704  1.00  0.00     0.173 A 
ATOM     62  F   UNL A   1      43.997  28.370  27.293  1.00  0.00    -0.203 F 
ATOM     63  C   UNL A   1      43.891  26.482  25.894  1.00  0.00     0.198 A 
ATOM     64  C   UNL A   1      42.573  24.583  26.542  1.00  0.00     0.198 A 
ATOM     65  F   UNL A   1      41.364  24.619  28.563  1.00  0.00    -0.203 F 
ATOM     66  F   UNL A   1      44.696  27.092  25.014  1.00  0.00    -0.200 F 
ATOM     67  C   UNL A   1      43.418  25.205  25.634  1.00  0.00     0.200 A 
ATOM     68  F   UNL A   1      42.134  23.340  26.299  1.00  0.00    -0.200 F 
ATOM     69  F   UNL A   1      43.779  24.574  24.508  1.00  0.00    -0.200 F 
ENDBRANCH  45  59
BRANCH  46  70
ATOM     70  C   UNL A   1      39.604  31.987  35.728  1.00  0.00     0.064 A 
ATOM     71  C   UNL A   1      38.613  31.564  36.626  1.00  0.00     0.173 A 
ATOM     72  C   UNL A   1      40.189  33.241  35.948  1.00  0.00     0.173 A 
ATOM     73  F   UNL A   1      38.026  30.369  36.464  1.00  0.00    -0.203 F 
ATOM     74  C   UNL A   1      38.200  32.376  37.680  1.00  0.00     0.198 A 
ATOM     75  C   UNL A   1      39.800  34.038  37.024  1.00  0.00     0.198 A 
ATOM     76  F   UNL A   1      41.160  33.678  35.134  1.00  0.00    -0.203 F 
ATOM     77  F   UNL A   1      37.218  31.963  38.494  1.00  0.00    -0.200 F 
ATOM     78  C   UNL A   1      38.798  33.610  37.882  1.00  0.00     0.200 A 
ATOM     79  F   UNL A   1      40.401  35.217  37.234  1.00  0.00    -0.200 F 
ATOM     80  F   UNL A   1      38.411  34.383  38.905  1.00  0.00    -0.200 F 
ENDBRANCH  46  70
BRANCH  58  81
ATOM     81  C   UNL A   1      44.660  27.271  34.864  1.00  0.00     0.064 A 
ATOM     82  C   UNL A   1      44.380  26.121  35.617  1.00  0.00     0.173 A 
ATOM     83  C   UNL A   1      45.903  27.894  35.052  1.00  0.00     0.173 A 
ATOM     84  F   UNL A   1      43.203  25.492  35.477  1.00  0.00    -0.203 F 
ATOM     85  C   UNL A   1      45.302  25.623  36.532  1.00  0.00     0.198 A 
ATOM     86  C   UNL A   1      46.833  27.378  35.950  1.00  0.00     0.198 A 
ATOM     87  F   UNL A   1      46.224  28.987  34.343  1.00  0.00    -0.203 F 
ATOM     88  F   UNL A   1      45.001  24.538  37.260  1.00  0.00    -0.200 F 
ATOM     89  C   UNL A   1      46.529  26.248  36.696  1.00  0.00     0.200 A 
ATOM     90  F   UNL A   1      48.028  27.969  36.088  1.00  0.00    -0.200 F 
ATOM     91  F   UNL A   1      47.421  25.760  37.568  1.00  0.00    -0.200 F 
ENDBRANCH  58  81
ENDBRANCH  32  33
ENDBRANCH  25  27
ENDBRANCH  24  25
ENDBRANCH  23  24
ENDBRANCH  22  23
ENDBRANCH   1  22
TORSDOF 16
ENDMDL
