MODEL 1
REMARK VINA RESULT:     -12.0      0.000      0.000
REMARK SMILES CCOC(=O)c1sc(NC(=O)CCC(=O)OCCOC(=O)c2ccc(-c3c4nc(c(-c5c(F)c(F)c(F)c(F)c5F)c5ccc([nH]5)c(-c5c(F)c(F)c(F)c(F)c5F)c5nc(c(-c6c(F)c(F)c(F)c(F)c6F)c6ccc3[nH]6)C=C5)C=C4)cc2)c(C#N)c1C
REMARK SMILES IDX 14 1 15 2 13 3 12 4 10 5 9 6 11 8 8 9 6 10 7 11 88 12 85 13
REMARK SMILES IDX 89 14 4 15 5 16 3 17 2 18 1 19 86 20 87 21 16 22 17 23 18 24
REMARK SMILES IDX 19 25 20 26 21 27 22 28 23 29 84 30 24 31 83 32 25 33 26 34
REMARK SMILES IDX 27 35 77 36 28 37 82 38 76 39 78 40 29 41 81 42 75 43 74 44
REMARK SMILES IDX 30 46 62 47 42 48 61 49 43 50 46 51 60 52 79 53 44 54 45 55
REMARK SMILES IDX 59 57 80 58 47 59 31 60 32 61 40 62 33 63 34 64 38 65 41 66
REMARK SMILES IDX 35 67 36 68 39 69 37 70 63 71 64 72 72 73 65 74 66 75 70 76
REMARK SMILES IDX 73 77 67 78 68 79 71 80 69 81 48 82 49 83 57 84 50 85 51 86
REMARK SMILES IDX 55 87 58 88 52 89 53 90 56 91 54 92
REMARK H PARENT 9 7 78 45 46 56
REMARK Flexibility Score: inf
ROOT
ATOM      1  C   UNL A   1      32.639  20.986  25.368  1.00  0.00     0.306 C 
ATOM      2  O   UNL A   1      31.768  20.210  24.985  1.00  0.00    -0.252 OA
ENDROOT
BRANCH   1   3
ATOM      3  C   UNL A   1      32.477  22.492  25.388  1.00  0.00     0.132 C 
BRANCH   3   4
ATOM      4  C   UNL A   1      32.021  23.219  26.695  1.00  0.00     0.112 C 
BRANCH   4   5
ATOM      5  C   UNL A   1      30.673  23.899  26.687  1.00  0.00     0.225 C 
ATOM      6  N   UNL A   1      30.205  25.016  26.073  1.00  0.00    -0.317 N 
ATOM      7  H   UNL A   1      29.286  25.167  26.393  1.00  0.00     0.170 HD
ATOM      8  O   UNL A   1      29.791  23.321  27.355  1.00  0.00    -0.275 OA
BRANCH   6   9
ATOM      9  C   UNL A   1      30.507  26.041  25.166  1.00  0.00     0.114 A 
ATOM     10  C   UNL A   1      30.396  27.812  23.383  1.00  0.00     0.118 A 
ATOM     11  S   UNL A   1      30.304  26.058  23.464  1.00  0.00    -0.109 S 
ATOM     12  C   UNL A   1      30.942  28.300  24.561  1.00  0.00    -0.006 A 
ATOM     13  C   UNL A   1      31.059  27.264  25.556  1.00  0.00     0.091 A 
ATOM     14  C   UNL A   1      31.078  29.773  24.840  1.00  0.00     0.048 C 
BRANCH  10  15
ATOM     15  C   UNL A   1      29.555  28.698  22.551  1.00  0.00     0.348 C 
ATOM     16  O   UNL A   1      30.046  29.330  21.620  1.00  0.00    -0.245 OA
BRANCH  15  17
ATOM     17  O   UNL A   1      28.208  28.726  22.805  1.00  0.00    -0.462 OA
BRANCH  17  18
ATOM     18  C   UNL A   1      27.582  30.013  22.488  1.00  0.00     0.230 C 
ATOM     19  C   UNL A   1      27.793  31.071  23.553  1.00  0.00     0.049 C 
ENDBRANCH  17  18
ENDBRANCH  15  17
ENDBRANCH  10  15
BRANCH  13  20
ATOM     20  C   UNL A   1      31.435  27.551  26.905  1.00  0.00     0.103 C 
ATOM     21  N   UNL A   1      31.768  27.813  27.995  1.00  0.00    -0.192 NA
ENDBRANCH  13  20
ENDBRANCH   6   9
ENDBRANCH   4   5
ENDBRANCH   3   4
ENDBRANCH   1   3
BRANCH   1  22
ATOM     22  O   UNL A   1      33.836  20.596  25.857  1.00  0.00    -0.462 OA
BRANCH  22  23
ATOM     23  C   UNL A   1      34.463  19.583  25.068  1.00  0.00     0.274 C 
BRANCH  23  24
ATOM     24  C   UNL A   1      35.934  19.925  24.817  1.00  0.00     0.275 C 
BRANCH  24  25
ATOM     25  O   UNL A   1      36.431  21.276  24.551  1.00  0.00    -0.458 OA
BRANCH  25  26
ATOM     26  C   UNL A   1      36.744  22.065  25.621  1.00  0.00     0.338 C 
ATOM     27  O   UNL A   1      35.932  22.655  26.297  1.00  0.00    -0.246 OA
BRANCH  26  28
ATOM     28  C   UNL A   1      38.114  22.594  25.772  1.00  0.00     0.060 A 
ATOM     29  C   UNL A   1      39.182  21.833  26.285  1.00  0.00     0.016 A 
ATOM     30  C   UNL A   1      38.153  23.922  26.051  1.00  0.00     0.016 A 
ATOM     31  C   UNL A   1      40.126  22.416  27.189  1.00  0.00     0.010 A 
ATOM     32  C   UNL A   1      39.268  24.492  26.616  1.00  0.00     0.010 A 
ATOM     33  C   UNL A   1      40.064  23.779  27.494  1.00  0.00    -0.014 A 
BRANCH  33  34
ATOM     34  C   UNL A   1      41.100  24.595  28.193  1.00  0.00     0.031 A 
ATOM     35  C   UNL A   1      40.577  25.986  28.417  1.00  0.00     0.074 A 
ATOM     36  C   UNL A   1      42.218  24.175  28.855  1.00  0.00     0.049 A 
ATOM     37  N   UNL A   1      40.698  26.998  27.615  1.00  0.00    -0.248 NA
ATOM     38  C   UNL A   1      39.527  26.198  29.437  1.00  0.00     0.031 C 
ATOM     39  C   UNL A   1      42.791  22.833  29.030  1.00  0.00     0.029 A 
ATOM     40  N   UNL A   1      43.119  24.946  29.569  1.00  0.00    -0.354 N 
ATOM     41  C   UNL A   1      39.892  27.987  28.176  1.00  0.00     0.074 A 
ATOM     42  C   UNL A   1      38.933  27.298  28.974  1.00  0.00     0.031 C 
ATOM     43  C   UNL A   1      43.804  22.861  29.941  1.00  0.00     0.029 A 
ATOM     44  C   UNL A   1      44.056  24.233  30.344  1.00  0.00     0.049 A 
ATOM     45  H   UNL A   1      43.106  25.931  29.538  1.00  0.00     0.167 HD
ATOM     46  C   UNL A   1      40.306  29.277  28.304  1.00  0.00     0.037 A 
ATOM     47  C   UNL A   1      44.963  24.759  31.228  1.00  0.00     0.037 A 
ATOM     48  C   UNL A   1      41.488  29.488  27.508  1.00  0.00     0.049 A 
ATOM     49  C   UNL A   1      45.117  26.197  30.875  1.00  0.00     0.074 A 
ATOM     50  C   UNL A   1      41.774  29.371  26.162  1.00  0.00     0.029 A 
ATOM     51  N   UNL A   1      42.694  29.411  28.162  1.00  0.00    -0.354 N 
ATOM     52  N   UNL A   1      45.633  26.597  29.747  1.00  0.00    -0.248 NA
ATOM     53  C   UNL A   1      44.201  27.123  31.524  1.00  0.00     0.031 C 
ATOM     54  C   UNL A   1      43.055  28.746  26.115  1.00  0.00     0.029 A 
ATOM     55  C   UNL A   1      43.539  28.629  27.417  1.00  0.00     0.049 A 
ATOM     56  H   UNL A   1      42.913  29.843  29.019  1.00  0.00     0.167 HD
ATOM     57  C   UNL A   1      44.775  27.597  29.316  1.00  0.00     0.074 A 
ATOM     58  C   UNL A   1      43.914  27.884  30.465  1.00  0.00     0.031 C 
ATOM     59  C   UNL A   1      44.626  27.870  27.988  1.00  0.00     0.037 A 
BRANCH  46  60
ATOM     60  C   UNL A   1      39.921  30.206  29.443  1.00  0.00     0.064 A 
ATOM     61  C   UNL A   1      38.830  31.074  29.247  1.00  0.00     0.173 A 
ATOM     62  C   UNL A   1      40.697  30.478  30.596  1.00  0.00     0.173 A 
ATOM     63  F   UNL A   1      38.015  30.915  28.194  1.00  0.00    -0.203 F 
ATOM     64  C   UNL A   1      38.597  32.175  30.078  1.00  0.00     0.198 A 
ATOM     65  C   UNL A   1      40.431  31.545  31.451  1.00  0.00     0.198 A 
ATOM     66  F   UNL A   1      41.807  29.805  30.910  1.00  0.00    -0.203 F 
ATOM     67  F   UNL A   1      37.622  33.040  29.772  1.00  0.00    -0.200 F 
ATOM     68  C   UNL A   1      39.403  32.415  31.173  1.00  0.00     0.200 A 
ATOM     69  F   UNL A   1      41.237  31.762  32.501  1.00  0.00    -0.200 F 
ATOM     70  F   UNL A   1      39.222  33.502  31.934  1.00  0.00    -0.200 F 
ENDBRANCH  46  60
BRANCH  47  71
ATOM     71  C   UNL A   1      45.432  24.259  32.564  1.00  0.00     0.064 A 
ATOM     72  C   UNL A   1      46.613  24.725  33.190  1.00  0.00     0.173 A 
ATOM     73  C   UNL A   1      44.548  23.551  33.397  1.00  0.00     0.173 A 
ATOM     74  F   UNL A   1      47.494  25.467  32.505  1.00  0.00    -0.203 F 
ATOM     75  C   UNL A   1      46.876  24.501  34.555  1.00  0.00     0.198 A 
ATOM     76  C   UNL A   1      44.806  23.335  34.757  1.00  0.00     0.198 A 
ATOM     77  F   UNL A   1      43.361  23.143  32.930  1.00  0.00    -0.203 F 
ATOM     78  F   UNL A   1      47.983  25.002  35.123  1.00  0.00    -0.200 F 
ATOM     79  C   UNL A   1      45.964  23.816  35.339  1.00  0.00     0.200 A 
ATOM     80  F   UNL A   1      43.889  22.714  35.514  1.00  0.00    -0.200 F 
ATOM     81  F   UNL A   1      46.176  23.657  36.654  1.00  0.00    -0.200 F 
ENDBRANCH  47  71
BRANCH  59  82
ATOM     82  C   UNL A   1      45.563  27.195  27.019  1.00  0.00     0.064 A 
ATOM     83  C   UNL A   1      45.267  26.010  26.319  1.00  0.00     0.173 A 
ATOM     84  C   UNL A   1      46.738  27.866  26.667  1.00  0.00     0.173 A 
ATOM     85  F   UNL A   1      44.119  25.356  26.524  1.00  0.00    -0.203 F 
ATOM     86  C   UNL A   1      46.127  25.509  25.338  1.00  0.00     0.198 A 
ATOM     87  C   UNL A   1      47.577  27.386  25.666  1.00  0.00     0.198 A 
ATOM     88  F   UNL A   1      47.045  29.031  27.261  1.00  0.00    -0.203 F 
ATOM     89  F   UNL A   1      45.820  24.377  24.686  1.00  0.00    -0.200 F 
ATOM     90  C   UNL A   1      47.278  26.203  25.008  1.00  0.00     0.200 A 
ATOM     91  F   UNL A   1      48.661  28.090  25.314  1.00  0.00    -0.200 F 
ATOM     92  F   UNL A   1      48.085  25.749  24.040  1.00  0.00    -0.200 F 
ENDBRANCH  59  82
ENDBRANCH  33  34
ENDBRANCH  26  28
ENDBRANCH  25  26
ENDBRANCH  24  25
ENDBRANCH  23  24
ENDBRANCH  22  23
ENDBRANCH   1  22
TORSDOF 18
ENDMDL
MODEL 2
REMARK VINA RESULT:     -11.9      3.386      7.969
REMARK SMILES CCOC(=O)c1sc(NC(=O)CCC(=O)OCCOC(=O)c2ccc(-c3c4nc(c(-c5c(F)c(F)c(F)c(F)c5F)c5ccc([nH]5)c(-c5c(F)c(F)c(F)c(F)c5F)c5nc(c(-c6c(F)c(F)c(F)c(F)c6F)c6ccc3[nH]6)C=C5)C=C4)cc2)c(C#N)c1C
REMARK SMILES IDX 14 1 15 2 13 3 12 4 10 5 9 6 11 8 8 9 6 10 7 11 88 12 85 13
REMARK SMILES IDX 89 14 4 15 5 16 3 17 2 18 1 19 86 20 87 21 16 22 17 23 18 24
REMARK SMILES IDX 19 25 20 26 21 27 22 28 23 29 84 30 24 31 83 32 25 33 26 34
REMARK SMILES IDX 27 35 77 36 28 37 82 38 76 39 78 40 29 41 81 42 75 43 74 44
REMARK SMILES IDX 30 46 62 47 42 48 61 49 43 50 46 51 60 52 79 53 44 54 45 55
REMARK SMILES IDX 59 57 80 58 47 59 31 60 32 61 40 62 33 63 34 64 38 65 41 66
REMARK SMILES IDX 35 67 36 68 39 69 37 70 63 71 64 72 72 73 65 74 66 75 70 76
REMARK SMILES IDX 73 77 67 78 68 79 71 80 69 81 48 82 49 83 57 84 50 85 51 86
REMARK SMILES IDX 55 87 58 88 52 89 53 90 56 91 54 92
REMARK H PARENT 9 7 78 45 46 56
REMARK Flexibility Score: inf
ROOT
ATOM      1  C   UNL A   1      37.953  21.581  25.312  1.00  0.00     0.306 C 
ATOM      2  O   UNL A   1      37.537  20.483  24.953  1.00  0.00    -0.252 OA
ENDROOT
BRANCH   1   3
ATOM      3  C   UNL A   1      37.263  22.891  24.989  1.00  0.00     0.132 C 
BRANCH   3   4
ATOM      4  C   UNL A   1      36.400  23.617  26.072  1.00  0.00     0.112 C 
BRANCH   4   5
ATOM      5  C   UNL A   1      34.996  23.113  26.304  1.00  0.00     0.225 C 
ATOM      6  N   UNL A   1      33.772  23.667  26.107  1.00  0.00    -0.317 N 
ATOM      7  H   UNL A   1      33.102  23.040  26.466  1.00  0.00     0.170 HD
ATOM      8  O   UNL A   1      34.923  21.947  26.744  1.00  0.00    -0.275 OA
BRANCH   6   9
ATOM      9  C   UNL A   1      33.080  24.774  25.598  1.00  0.00     0.114 A 
ATOM     10  C   UNL A   1      32.093  26.537  24.099  1.00  0.00     0.118 A 
ATOM     11  S   UNL A   1      33.690  26.088  24.681  1.00  0.00    -0.109 S 
ATOM     12  C   UNL A   1      31.127  25.933  24.891  1.00  0.00    -0.006 A 
ATOM     13  C   UNL A   1      31.710  24.970  25.790  1.00  0.00     0.091 A 
ATOM     14  C   UNL A   1      29.655  26.052  24.602  1.00  0.00     0.048 C 
BRANCH  10  15
ATOM     15  C   UNL A   1      31.745  26.960  22.726  1.00  0.00     0.348 C 
ATOM     16  O   UNL A   1      31.600  26.128  21.835  1.00  0.00    -0.245 OA
BRANCH  15  17
ATOM     17  O   UNL A   1      31.513  28.293  22.506  1.00  0.00    -0.462 OA
BRANCH  17  18
ATOM     18  C   UNL A   1      30.090  28.639  22.468  1.00  0.00     0.230 C 
ATOM     19  C   UNL A   1      29.816  30.032  21.935  1.00  0.00     0.049 C 
ENDBRANCH  17  18
ENDBRANCH  15  17
ENDBRANCH  10  15
BRANCH  13  20
ATOM     20  C   UNL A   1      30.906  24.097  26.586  1.00  0.00     0.103 C 
ATOM     21  N   UNL A   1      30.243  23.411  27.264  1.00  0.00    -0.192 NA
ENDBRANCH  13  20
ENDBRANCH   6   9
ENDBRANCH   4   5
ENDBRANCH   3   4
ENDBRANCH   1   3
BRANCH   1  22
ATOM     22  O   UNL A   1      39.055  21.760  26.073  1.00  0.00    -0.462 OA
BRANCH  22  23
ATOM     23  C   UNL A   1      39.888  20.601  26.137  1.00  0.00     0.274 C 
BRANCH  23  24
ATOM     24  C   UNL A   1      41.354  20.997  26.331  1.00  0.00     0.275 C 
BRANCH  24  25
ATOM     25  O   UNL A   1      42.034  22.036  25.555  1.00  0.00    -0.458 OA
BRANCH  25  26
ATOM     26  C   UNL A   1      42.637  23.054  26.239  1.00  0.00     0.338 C 
ATOM     27  O   UNL A   1      43.817  23.094  26.504  1.00  0.00    -0.246 OA
BRANCH  26  28
ATOM     28  C   UNL A   1      41.827  23.968  27.067  1.00  0.00     0.060 A 
ATOM     29  C   UNL A   1      40.757  24.729  26.557  1.00  0.00     0.016 A 
ATOM     30  C   UNL A   1      42.527  24.544  28.078  1.00  0.00     0.016 A 
ATOM     31  C   UNL A   1      40.565  26.085  26.970  1.00  0.00     0.010 A 
ATOM     32  C   UNL A   1      42.078  25.694  28.681  1.00  0.00     0.010 A 
ATOM     33  C   UNL A   1      41.372  26.644  27.965  1.00  0.00    -0.014 A 
BRANCH  33  34
ATOM     34  C   UNL A   1      41.150  27.929  28.691  1.00  0.00     0.031 A 
ATOM     35  C   UNL A   1      42.192  28.929  28.272  1.00  0.00     0.074 A 
ATOM     36  C   UNL A   1      40.045  28.345  29.377  1.00  0.00     0.049 A 
ATOM     37  N   UNL A   1      43.349  29.120  28.825  1.00  0.00    -0.248 NA
ATOM     38  C   UNL A   1      42.108  29.522  26.920  1.00  0.00     0.031 C 
ATOM     39  C   UNL A   1      38.779  27.662  29.678  1.00  0.00     0.029 A 
ATOM     40  N   UNL A   1      39.832  29.578  29.971  1.00  0.00    -0.354 N 
ATOM     41  C   UNL A   1      44.004  30.002  27.967  1.00  0.00     0.074 A 
ATOM     42  C   UNL A   1      43.383  29.837  26.695  1.00  0.00     0.031 C 
ATOM     43  C   UNL A   1      37.880  28.534  30.212  1.00  0.00     0.029 A 
ATOM     44  C   UNL A   1      38.517  29.823  30.415  1.00  0.00     0.049 A 
ATOM     45  H   UNL A   1      40.553  30.240  30.076  1.00  0.00     0.167 HD
ATOM     46  C   UNL A   1      44.690  31.085  28.422  1.00  0.00     0.037 A 
ATOM     47  C   UNL A   1      38.025  31.002  30.917  1.00  0.00     0.037 A 
ATOM     48  C   UNL A   1      44.890  30.970  29.844  1.00  0.00     0.049 A 
ATOM     49  C   UNL A   1      39.201  31.801  31.355  1.00  0.00     0.074 A 
ATOM     50  C   UNL A   1      45.516  30.044  30.655  1.00  0.00     0.029 A 
ATOM     51  N   UNL A   1      44.000  31.641  30.649  1.00  0.00    -0.354 N 
ATOM     52  N   UNL A   1      39.979  31.437  32.336  1.00  0.00    -0.248 NA
ATOM     53  C   UNL A   1      39.798  32.673  30.355  1.00  0.00     0.031 C 
ATOM     54  C   UNL A   1      44.635  29.875  31.763  1.00  0.00     0.029 A 
ATOM     55  C   UNL A   1      43.589  30.788  31.641  1.00  0.00     0.049 A 
ATOM     56  H   UNL A   1      43.709  32.574  30.532  1.00  0.00     0.167 HD
ATOM     57  C   UNL A   1      41.260  31.643  31.849  1.00  0.00     0.074 A 
ATOM     58  C   UNL A   1      41.083  32.420  30.621  1.00  0.00     0.031 C 
ATOM     59  C   UNL A   1      42.310  30.899  32.302  1.00  0.00     0.037 A 
BRANCH  46  60
ATOM     60  C   UNL A   1      44.801  32.415  27.695  1.00  0.00     0.064 A 
ATOM     61  C   UNL A   1      45.926  32.629  26.878  1.00  0.00     0.173 A 
ATOM     62  C   UNL A   1      44.019  33.569  27.946  1.00  0.00     0.173 A 
ATOM     63  F   UNL A   1      46.741  31.611  26.562  1.00  0.00    -0.203 F 
ATOM     64  C   UNL A   1      46.291  33.904  26.433  1.00  0.00     0.198 A 
ATOM     65  C   UNL A   1      44.357  34.830  27.457  1.00  0.00     0.198 A 
ATOM     66  F   UNL A   1      42.954  33.576  28.751  1.00  0.00    -0.203 F 
ATOM     67  F   UNL A   1      47.440  34.069  25.766  1.00  0.00    -0.200 F 
ATOM     68  C   UNL A   1      45.512  35.004  26.732  1.00  0.00     0.200 A 
ATOM     69  F   UNL A   1      43.588  35.883  27.772  1.00  0.00    -0.200 F 
ATOM     70  F   UNL A   1      45.890  36.234  26.362  1.00  0.00    -0.200 F 
ENDBRANCH  46  60
BRANCH  47  71
ATOM     71  C   UNL A   1      36.693  31.667  30.725  1.00  0.00     0.064 A 
ATOM     72  C   UNL A   1      35.847  32.023  31.803  1.00  0.00     0.173 A 
ATOM     73  C   UNL A   1      36.376  32.261  29.491  1.00  0.00     0.173 A 
ATOM     74  F   UNL A   1      36.097  31.566  33.039  1.00  0.00    -0.203 F 
ATOM     75  C   UNL A   1      34.771  32.917  31.648  1.00  0.00     0.198 A 
ATOM     76  C   UNL A   1      35.309  33.156  29.338  1.00  0.00     0.198 A 
ATOM     77  F   UNL A   1      37.163  32.063  28.425  1.00  0.00    -0.203 F 
ATOM     78  F   UNL A   1      34.024  33.268  32.706  1.00  0.00    -0.200 F 
ATOM     79  C   UNL A   1      34.512  33.492  30.416  1.00  0.00     0.200 A 
ATOM     80  F   UNL A   1      35.104  33.743  28.150  1.00  0.00    -0.200 F 
ATOM     81  F   UNL A   1      33.530  34.395  30.275  1.00  0.00    -0.200 F 
ENDBRANCH  47  71
BRANCH  59  82
ATOM     82  C   UNL A   1      42.076  29.991  33.482  1.00  0.00     0.064 A 
ATOM     83  C   UNL A   1      41.713  28.635  33.384  1.00  0.00     0.173 A 
ATOM     84  C   UNL A   1      42.392  30.475  34.755  1.00  0.00     0.173 A 
ATOM     85  F   UNL A   1      41.488  28.065  32.195  1.00  0.00    -0.203 F 
ATOM     86  C   UNL A   1      41.640  27.817  34.513  1.00  0.00     0.198 A 
ATOM     87  C   UNL A   1      42.353  29.652  35.876  1.00  0.00     0.198 A 
ATOM     88  F   UNL A   1      42.799  31.746  34.903  1.00  0.00    -0.203 F 
ATOM     89  F   UNL A   1      41.291  26.527  34.391  1.00  0.00    -0.200 F 
ATOM     90  C   UNL A   1      41.967  28.326  35.758  1.00  0.00     0.200 A 
ATOM     91  F   UNL A   1      42.723  30.137  37.068  1.00  0.00    -0.200 F 
ATOM     92  F   UNL A   1      41.938  27.534  36.839  1.00  0.00    -0.200 F 
ENDBRANCH  59  82
ENDBRANCH  33  34
ENDBRANCH  26  28
ENDBRANCH  25  26
ENDBRANCH  24  25
ENDBRANCH  23  24
ENDBRANCH  22  23
ENDBRANCH   1  22
TORSDOF 18
ENDMDL
MODEL 3
REMARK VINA RESULT:     -11.9      2.948      7.235
REMARK SMILES CCOC(=O)c1sc(NC(=O)CCC(=O)OCCOC(=O)c2ccc(-c3c4nc(c(-c5c(F)c(F)c(F)c(F)c5F)c5ccc([nH]5)c(-c5c(F)c(F)c(F)c(F)c5F)c5nc(c(-c6c(F)c(F)c(F)c(F)c6F)c6ccc3[nH]6)C=C5)C=C4)cc2)c(C#N)c1C
REMARK SMILES IDX 14 1 15 2 13 3 12 4 10 5 9 6 11 8 8 9 6 10 7 11 88 12 85 13
REMARK SMILES IDX 89 14 4 15 5 16 3 17 2 18 1 19 86 20 87 21 16 22 17 23 18 24
REMARK SMILES IDX 19 25 20 26 21 27 22 28 23 29 84 30 24 31 83 32 25 33 26 34
REMARK SMILES IDX 27 35 77 36 28 37 82 38 76 39 78 40 29 41 81 42 75 43 74 44
REMARK SMILES IDX 30 46 62 47 42 48 61 49 43 50 46 51 60 52 79 53 44 54 45 55
REMARK SMILES IDX 59 57 80 58 47 59 31 60 32 61 40 62 33 63 34 64 38 65 41 66
REMARK SMILES IDX 35 67 36 68 39 69 37 70 63 71 64 72 72 73 65 74 66 75 70 76
REMARK SMILES IDX 73 77 67 78 68 79 71 80 69 81 48 82 49 83 57 84 50 85 51 86
REMARK SMILES IDX 55 87 58 88 52 89 53 90 56 91 54 92
REMARK H PARENT 9 7 78 45 46 56
REMARK Flexibility Score: inf
ROOT
ATOM      1  C   UNL A   1      31.722  29.150  24.579  1.00  0.00     0.306 C 
ATOM      2  O   UNL A   1      32.831  29.323  24.082  1.00  0.00    -0.252 OA
ENDROOT
BRANCH   1   3
ATOM      3  C   UNL A   1      30.575  28.464  23.865  1.00  0.00     0.132 C 
BRANCH   3   4
ATOM      4  C   UNL A   1      30.758  27.027  23.278  1.00  0.00     0.112 C 
BRANCH   4   5
ATOM      5  C   UNL A   1      29.946  25.909  23.888  1.00  0.00     0.225 C 
ATOM      6  N   UNL A   1      30.276  24.681  24.363  1.00  0.00    -0.317 N 
ATOM      7  H   UNL A   1      29.438  24.221  24.601  1.00  0.00     0.170 HD
ATOM      8  O   UNL A   1      28.728  26.153  24.010  1.00  0.00    -0.275 OA
BRANCH   6   9
ATOM      9  C   UNL A   1      31.331  23.806  24.651  1.00  0.00     0.114 A 
ATOM     10  C   UNL A   1      33.596  22.794  25.078  1.00  0.00     0.118 A 
ATOM     11  S   UNL A   1      32.717  23.452  23.704  1.00  0.00    -0.109 S 
ATOM     12  C   UNL A   1      32.705  22.518  26.105  1.00  0.00    -0.006 A 
ATOM     13  C   UNL A   1      31.395  23.048  25.822  1.00  0.00     0.091 A 
ATOM     14  C   UNL A   1      33.154  22.020  27.452  1.00  0.00     0.048 C 
BRANCH  10  15
ATOM     15  C   UNL A   1      35.023  23.010  25.393  1.00  0.00     0.348 C 
ATOM     16  O   UNL A   1      35.415  24.104  25.791  1.00  0.00    -0.245 OA
BRANCH  15  17
ATOM     17  O   UNL A   1      35.869  21.935  25.304  1.00  0.00    -0.462 OA
BRANCH  17  18
ATOM     18  C   UNL A   1      37.041  22.184  24.461  1.00  0.00     0.230 C 
ATOM     19  C   UNL A   1      36.704  22.795  23.115  1.00  0.00     0.049 C 
ENDBRANCH  17  18
ENDBRANCH  15  17
ENDBRANCH  10  15
BRANCH  13  20
ATOM     20  C   UNL A   1      30.351  23.041  26.800  1.00  0.00     0.103 C 
ATOM     21  N   UNL A   1      29.510  23.071  27.612  1.00  0.00    -0.192 NA
ENDBRANCH  13  20
ENDBRANCH   6   9
ENDBRANCH   4   5
ENDBRANCH   3   4
ENDBRANCH   1   3
BRANCH   1  22
ATOM     22  O   UNL A   1      31.393  29.513  25.838  1.00  0.00    -0.462 OA
BRANCH  22  23
ATOM     23  C   UNL A   1      31.875  30.810  26.193  1.00  0.00     0.274 C 
BRANCH  23  24
ATOM     24  C   UNL A   1      32.931  30.713  27.297  1.00  0.00     0.275 C 
BRANCH  24  25
ATOM     25  O   UNL A   1      34.372  30.630  27.052  1.00  0.00    -0.458 OA
BRANCH  25  26
ATOM     26  C   UNL A   1      35.199  31.384  27.835  1.00  0.00     0.338 C 
ATOM     27  O   UNL A   1      35.311  32.586  27.751  1.00  0.00    -0.246 OA
BRANCH  26  28
ATOM     28  C   UNL A   1      36.323  30.747  28.549  1.00  0.00     0.060 A 
ATOM     29  C   UNL A   1      37.290  31.474  29.271  1.00  0.00     0.016 A 
ATOM     30  C   UNL A   1      36.767  29.611  27.953  1.00  0.00     0.016 A 
ATOM     31  C   UNL A   1      38.672  31.113  29.205  1.00  0.00     0.010 A 
ATOM     32  C   UNL A   1      38.022  29.119  28.220  1.00  0.00     0.010 A 
ATOM     33  C   UNL A   1      39.074  29.970  28.509  1.00  0.00    -0.014 A 
BRANCH  33  34
ATOM     34  C   UNL A   1      40.411  29.309  28.553  1.00  0.00     0.031 A 
ATOM     35  C   UNL A   1      40.771  28.998  29.979  1.00  0.00     0.074 A 
ATOM     36  C   UNL A   1      41.118  28.737  27.534  1.00  0.00     0.049 A 
ATOM     37  N   UNL A   1      41.417  29.766  30.800  1.00  0.00    -0.248 NA
ATOM     38  C   UNL A   1      40.057  27.904  30.673  1.00  0.00     0.031 C 
ATOM     39  C   UNL A   1      40.839  28.652  26.093  1.00  0.00     0.029 A 
ATOM     40  N   UNL A   1      42.319  28.054  27.615  1.00  0.00    -0.354 N 
ATOM     41  C   UNL A   1      41.327  29.116  32.030  1.00  0.00     0.074 A 
ATOM     42  C   UNL A   1      40.173  28.285  31.945  1.00  0.00     0.031 C 
ATOM     43  C   UNL A   1      41.720  27.809  25.485  1.00  0.00     0.029 A 
ATOM     44  C   UNL A   1      42.714  27.370  26.447  1.00  0.00     0.049 A 
ATOM     45  H   UNL A   1      42.862  28.046  28.437  1.00  0.00     0.167 HD
ATOM     46  C   UNL A   1      42.400  28.965  32.853  1.00  0.00     0.037 A 
ATOM     47  C   UNL A   1      43.788  26.527  26.312  1.00  0.00     0.037 A 
ATOM     48  C   UNL A   1      43.469  29.827  32.418  1.00  0.00     0.049 A 
ATOM     49  C   UNL A   1      44.714  26.833  27.435  1.00  0.00     0.074 A 
ATOM     50  C   UNL A   1      43.597  31.192  32.254  1.00  0.00     0.029 A 
ATOM     51  N   UNL A   1      44.442  29.256  31.633  1.00  0.00    -0.354 N 
ATOM     52  N   UNL A   1      45.330  27.976  27.554  1.00  0.00    -0.248 NA
ATOM     53  C   UNL A   1      44.502  26.090  28.669  1.00  0.00     0.031 C 
ATOM     54  C   UNL A   1      44.299  31.347  31.022  1.00  0.00     0.029 A 
ATOM     55  C   UNL A   1      44.674  30.084  30.565  1.00  0.00     0.049 A 
ATOM     56  H   UNL A   1      44.893  28.399  31.808  1.00  0.00     0.167 HD
ATOM     57  C   UNL A   1      45.172  28.311  28.890  1.00  0.00     0.074 A 
ATOM     58  C   UNL A   1      44.660  27.099  29.531  1.00  0.00     0.031 C 
ATOM     59  C   UNL A   1      45.162  29.615  29.289  1.00  0.00     0.037 A 
BRANCH  46  60
ATOM     60  C   UNL A   1      42.643  27.768  33.757  1.00  0.00     0.064 A 
ATOM     61  C   UNL A   1      42.463  27.940  35.142  1.00  0.00     0.173 A 
ATOM     62  C   UNL A   1      43.278  26.558  33.386  1.00  0.00     0.173 A 
ATOM     63  F   UNL A   1      41.867  29.044  35.619  1.00  0.00    -0.203 F 
ATOM     64  C   UNL A   1      42.963  27.027  36.076  1.00  0.00     0.198 A 
ATOM     65  C   UNL A   1      43.728  25.625  34.318  1.00  0.00     0.198 A 
ATOM     66  F   UNL A   1      43.593  26.250  32.125  1.00  0.00    -0.203 F 
ATOM     67  F   UNL A   1      42.876  27.303  37.384  1.00  0.00    -0.200 F 
ATOM     68  C   UNL A   1      43.604  25.876  35.664  1.00  0.00     0.200 A 
ATOM     69  F   UNL A   1      44.357  24.520  33.889  1.00  0.00    -0.200 F 
ATOM     70  F   UNL A   1      44.139  25.031  36.554  1.00  0.00    -0.200 F 
ENDBRANCH  46  60
BRANCH  47  71
ATOM     71  C   UNL A   1      43.935  25.245  25.545  1.00  0.00     0.064 A 
ATOM     72  C   UNL A   1      45.157  24.829  24.965  1.00  0.00     0.173 A 
ATOM     73  C   UNL A   1      42.949  24.247  25.650  1.00  0.00     0.173 A 
ATOM     74  F   UNL A   1      46.188  25.682  24.876  1.00  0.00    -0.203 F 
ATOM     75  C   UNL A   1      45.372  23.506  24.534  1.00  0.00     0.198 A 
ATOM     76  C   UNL A   1      43.165  22.929  25.229  1.00  0.00     0.198 A 
ATOM     77  F   UNL A   1      41.788  24.509  26.264  1.00  0.00    -0.203 F 
ATOM     78  F   UNL A   1      46.562  23.140  24.037  1.00  0.00    -0.200 F 
ATOM     79  C   UNL A   1      44.377  22.555  24.679  1.00  0.00     0.200 A 
ATOM     80  F   UNL A   1      42.210  22.008  25.423  1.00  0.00    -0.200 F 
ATOM     81  F   UNL A   1      44.597  21.278  24.333  1.00  0.00    -0.200 F 
ENDBRANCH  47  71
BRANCH  59  82
ATOM     82  C   UNL A   1      45.523  30.669  28.273  1.00  0.00     0.064 A 
ATOM     83  C   UNL A   1      44.592  31.351  27.468  1.00  0.00     0.173 A 
ATOM     84  C   UNL A   1      46.847  31.115  28.235  1.00  0.00     0.173 A 
ATOM     85  F   UNL A   1      43.290  31.053  27.514  1.00  0.00    -0.203 F 
ATOM     86  C   UNL A   1      44.981  32.407  26.641  1.00  0.00     0.198 A 
ATOM     87  C   UNL A   1      47.228  32.190  27.437  1.00  0.00     0.198 A 
ATOM     88  F   UNL A   1      47.769  30.540  29.023  1.00  0.00    -0.203 F 
ATOM     89  F   UNL A   1      44.073  33.040  25.883  1.00  0.00    -0.200 F 
ATOM     90  C   UNL A   1      46.299  32.830  26.632  1.00  0.00     0.200 A 
ATOM     91  F   UNL A   1      48.494  32.628  27.475  1.00  0.00    -0.200 F 
ATOM     92  F   UNL A   1      46.669  33.869  25.872  1.00  0.00    -0.200 F 
ENDBRANCH  59  82
ENDBRANCH  33  34
ENDBRANCH  26  28
ENDBRANCH  25  26
ENDBRANCH  24  25
ENDBRANCH  23  24
ENDBRANCH  22  23
ENDBRANCH   1  22
TORSDOF 18
ENDMDL
