MODEL 1
REMARK VINA RESULT:     -12.3      0.000      0.000
REMARK SMILES C[C@H](NC(=O)NC1C(C)(C)C1(C)C)C(=O)OCCOC(=O)c1ccc(-c2c3nc(c(-c4c(F)c(F)c(F)c(F)c4F)c4ccc([nH]4)c(-c4c(F)c(F)c(F)c(F)c4F)c4nc(c(-c5c(F)c(F)c(F)c(F)c5F)c5ccc2[nH]5)C=C4)C=C3)cc1
REMARK SMILES IDX 17 1 16 2 14 3 15 4 2 5 1 6 3 7 4 8 5 10 6 11 7 13 8 14
REMARK SMILES IDX 11 15 9 16 10 17 12 18 13 19 18 20 19 21 20 22 21 23 22 24
REMARK SMILES IDX 23 25 84 26 24 27 83 28 25 29 26 30 27 31 77 32 28 33 82 34
REMARK SMILES IDX 76 35 78 36 29 37 81 38 75 39 74 40 30 42 62 43 42 44 61 45
REMARK SMILES IDX 43 46 46 47 60 48 79 49 44 50 45 51 59 53 80 54 47 55 31 56
REMARK SMILES IDX 32 57 40 58 33 59 34 60 38 61 41 62 35 63 36 64 39 65 37 66
REMARK SMILES IDX 63 67 64 68 72 69 65 70 66 71 70 72 73 73 67 74 68 75 71 76
REMARK SMILES IDX 69 77 48 78 49 79 57 80 50 81 51 82 55 83 58 84 52 85 53 86
REMARK SMILES IDX 56 87 54 88
REMARK H PARENT 3 9 6 12 78 41 46 52
REMARK Flexibility Score: inf
ROOT
ATOM      1  C   UNL A   1      31.682  27.866  25.281  1.00  0.00     0.274 C 
ENDROOT
BRANCH   1   2
ATOM      2  O   UNL A   1      30.847  27.259  24.249  1.00  0.00    -0.461 OA
BRANCH   2   3
ATOM      3  C   UNL A   1      30.615  25.918  24.422  1.00  0.00     0.328 C 
ATOM      4  O   UNL A   1      30.242  25.446  25.495  1.00  0.00    -0.250 OA
BRANCH   3   5
ATOM      5  C   UNL A   1      30.695  25.051  23.125  1.00  0.00     0.190 C 
ATOM      6  C   UNL A   1      30.720  23.564  23.488  1.00  0.00     0.043 C 
BRANCH   5   7
ATOM      7  N   UNL A   1      31.732  25.307  22.108  1.00  0.00    -0.325 N 
ATOM      8  C   UNL A   1      33.066  25.498  22.138  1.00  0.00     0.315 C 
ATOM      9  H   UNL A   1      31.365  25.346  21.196  1.00  0.00     0.166 HD
ATOM     10  O   UNL A   1      33.558  26.131  21.197  1.00  0.00    -0.249 OA
ATOM     11  N   UNL A   1      33.927  25.030  23.074  1.00  0.00    -0.334 N 
ATOM     12  H   UNL A   1      34.759  25.556  23.115  1.00  0.00     0.165 HD
BRANCH  11  13
ATOM     13  C   UNL A   1      33.917  23.942  24.027  1.00  0.00     0.096 C 
ATOM     14  C   UNL A   1      34.931  22.950  24.109  1.00  0.00    -0.007 C 
ATOM     15  C   UNL A   1      34.748  24.046  25.337  1.00  0.00    -0.007 C 
ATOM     16  C   UNL A   1      34.517  21.511  24.387  1.00  0.00     0.014 C 
ATOM     17  C   UNL A   1      36.062  23.013  23.106  1.00  0.00     0.014 C 
ATOM     18  C   UNL A   1      33.854  25.142  25.935  1.00  0.00     0.014 C 
ATOM     19  C   UNL A   1      35.356  23.253  26.493  1.00  0.00     0.014 C 
ENDBRANCH  11  13
ENDBRANCH   5   7
ENDBRANCH   3   5
ENDBRANCH   2   3
ENDBRANCH   1   2
BRANCH   1  20
ATOM     20  C   UNL A   1      31.835  29.405  25.126  1.00  0.00     0.275 C 
BRANCH  20  21
ATOM     21  O   UNL A   1      33.123  29.858  25.621  1.00  0.00    -0.458 OA
BRANCH  21  22
ATOM     22  C   UNL A   1      33.140  30.756  26.652  1.00  0.00     0.338 C 
ATOM     23  O   UNL A   1      32.210  31.465  26.990  1.00  0.00    -0.246 OA
BRANCH  22  24
ATOM     24  C   UNL A   1      34.450  30.687  27.393  1.00  0.00     0.060 A 
ATOM     25  C   UNL A   1      34.888  29.467  27.887  1.00  0.00     0.016 A 
ATOM     26  C   UNL A   1      35.226  31.808  27.698  1.00  0.00     0.016 A 
ATOM     27  C   UNL A   1      35.943  29.346  28.781  1.00  0.00     0.010 A 
ATOM     28  C   UNL A   1      36.412  31.670  28.463  1.00  0.00     0.010 A 
ATOM     29  C   UNL A   1      36.780  30.429  29.015  1.00  0.00    -0.014 A 
BRANCH  29  30
ATOM     30  C   UNL A   1      38.049  30.189  29.758  1.00  0.00     0.031 A 
ATOM     31  C   UNL A   1      39.150  29.368  29.158  1.00  0.00     0.074 A 
ATOM     32  C   UNL A   1      38.260  30.794  30.949  1.00  0.00     0.049 A 
ATOM     33  N   UNL A   1      40.203  28.852  29.737  1.00  0.00    -0.248 NA
ATOM     34  C   UNL A   1      39.076  29.121  27.711  1.00  0.00     0.031 C 
ATOM     35  C   UNL A   1      37.362  31.766  31.582  1.00  0.00     0.029 A 
ATOM     36  N   UNL A   1      39.303  30.694  31.840  1.00  0.00    -0.354 N 
ATOM     37  C   UNL A   1      40.887  28.168  28.741  1.00  0.00     0.074 A 
ATOM     38  C   UNL A   1      40.156  28.376  27.509  1.00  0.00     0.031 C 
ATOM     39  C   UNL A   1      37.900  32.187  32.735  1.00  0.00     0.029 A 
ATOM     40  C   UNL A   1      39.103  31.412  32.998  1.00  0.00     0.049 A 
ATOM     41  H   UNL A   1      40.113  30.161  31.667  1.00  0.00     0.167 HD
ATOM     42  C   UNL A   1      42.004  27.412  28.865  1.00  0.00     0.037 A 
ATOM     43  C   UNL A   1      39.751  31.378  34.178  1.00  0.00     0.037 A 
ATOM     44  C   UNL A   1      42.727  27.237  30.098  1.00  0.00     0.049 A 
ATOM     45  C   UNL A   1      40.889  30.410  34.341  1.00  0.00     0.074 A 
ATOM     46  C   UNL A   1      43.824  26.433  30.357  1.00  0.00     0.029 A 
ATOM     47  N   UNL A   1      42.424  27.892  31.284  1.00  0.00    -0.354 N 
ATOM     48  N   UNL A   1      41.450  29.638  33.443  1.00  0.00    -0.248 NA
ATOM     49  C   UNL A   1      41.452  30.271  35.691  1.00  0.00     0.031 C 
ATOM     50  C   UNL A   1      44.155  26.568  31.710  1.00  0.00     0.029 A 
ATOM     51  C   UNL A   1      43.292  27.486  32.284  1.00  0.00     0.049 A 
ATOM     52  H   UNL A   1      41.699  28.548  31.396  1.00  0.00     0.167 HD
ATOM     53  C   UNL A   1      42.424  28.916  34.118  1.00  0.00     0.074 A 
ATOM     54  C   UNL A   1      42.403  29.369  35.494  1.00  0.00     0.031 C 
ATOM     55  C   UNL A   1      43.248  27.951  33.646  1.00  0.00     0.037 A 
BRANCH  42  56
ATOM     56  C   UNL A   1      42.452  26.634  27.665  1.00  0.00     0.064 A 
ATOM     57  C   UNL A   1      43.439  27.104  26.791  1.00  0.00     0.173 A 
ATOM     58  C   UNL A   1      41.893  25.372  27.411  1.00  0.00     0.173 A 
ATOM     59  F   UNL A   1      43.992  28.312  26.982  1.00  0.00    -0.203 F 
ATOM     60  C   UNL A   1      43.843  26.342  25.696  1.00  0.00     0.198 A 
ATOM     61  C   UNL A   1      42.311  24.605  26.328  1.00  0.00     0.198 A 
ATOM     62  F   UNL A   1      40.945  24.878  28.222  1.00  0.00    -0.203 F 
ATOM     63  F   UNL A   1      44.767  26.821  24.851  1.00  0.00    -0.200 F 
ATOM     64  C   UNL A   1      43.282  25.092  25.468  1.00  0.00     0.200 A 
ATOM     65  F   UNL A   1      41.772  23.396  26.116  1.00  0.00    -0.200 F 
ATOM     66  F   UNL A   1      43.674  24.361  24.416  1.00  0.00    -0.200 F 
ENDBRANCH  42  56
BRANCH  43  67
ATOM     67  C   UNL A   1      39.248  32.168  35.338  1.00  0.00     0.064 A 
ATOM     68  C   UNL A   1      39.610  33.509  35.521  1.00  0.00     0.173 A 
ATOM     69  C   UNL A   1      38.426  31.581  36.316  1.00  0.00     0.173 A 
ATOM     70  F   UNL A   1      40.422  34.109  34.638  1.00  0.00    -0.203 F 
ATOM     71  C   UNL A   1      39.182  34.226  36.638  1.00  0.00     0.198 A 
ATOM     72  C   UNL A   1      37.966  32.309  37.410  1.00  0.00     0.198 A 
ATOM     73  F   UNL A   1      38.058  30.295  36.202  1.00  0.00    -0.203 F 
ATOM     74  F   UNL A   1      39.589  35.490  36.816  1.00  0.00    -0.200 F 
ATOM     75  C   UNL A   1      38.355  33.628  37.576  1.00  0.00     0.200 A 
ATOM     76  F   UNL A   1      37.155  31.728  38.304  1.00  0.00    -0.200 F 
ATOM     77  F   UNL A   1      37.941  34.319  38.647  1.00  0.00    -0.200 F 
ENDBRANCH  43  67
BRANCH  55  78
ATOM     78  C   UNL A   1      44.193  27.327  34.627  1.00  0.00     0.064 A 
ATOM     79  C   UNL A   1      45.440  27.907  34.902  1.00  0.00     0.173 A 
ATOM     80  C   UNL A   1      43.835  26.165  35.324  1.00  0.00     0.173 A 
ATOM     81  F   UNL A   1      45.834  29.006  34.242  1.00  0.00    -0.203 F 
ATOM     82  C   UNL A   1      46.302  27.335  35.832  1.00  0.00     0.198 A 
ATOM     83  C   UNL A   1      44.689  25.610  36.271  1.00  0.00     0.198 A 
ATOM     84  F   UNL A   1      42.652  25.576  35.093  1.00  0.00    -0.203 F 
ATOM     85  F   UNL A   1      47.506  27.883  36.053  1.00  0.00    -0.200 F 
ATOM     86  C   UNL A   1      45.923  26.192  36.521  1.00  0.00     0.200 A 
ATOM     87  F   UNL A   1      44.319  24.510  36.942  1.00  0.00    -0.200 F 
ATOM     88  F   UNL A   1      46.752  25.646  37.423  1.00  0.00    -0.200 F 
ENDBRANCH  55  78
ENDBRANCH  29  30
ENDBRANCH  22  24
ENDBRANCH  21  22
ENDBRANCH  20  21
ENDBRANCH   1  20
TORSDOF 13
ENDMDL
MODEL 2
REMARK VINA RESULT:     -12.2      1.208      2.164
REMARK SMILES C[C@H](NC(=O)NC1C(C)(C)C1(C)C)C(=O)OCCOC(=O)c1ccc(-c2c3nc(c(-c4c(F)c(F)c(F)c(F)c4F)c4ccc([nH]4)c(-c4c(F)c(F)c(F)c(F)c4F)c4nc(c(-c5c(F)c(F)c(F)c(F)c5F)c5ccc2[nH]5)C=C4)C=C3)cc1
REMARK SMILES IDX 17 1 16 2 14 3 15 4 2 5 1 6 3 7 4 8 5 10 6 11 7 13 8 14
REMARK SMILES IDX 11 15 9 16 10 17 12 18 13 19 18 20 19 21 20 22 21 23 22 24
REMARK SMILES IDX 23 25 84 26 24 27 83 28 25 29 26 30 27 31 77 32 28 33 82 34
REMARK SMILES IDX 76 35 78 36 29 37 81 38 75 39 74 40 30 42 62 43 42 44 61 45
REMARK SMILES IDX 43 46 46 47 60 48 79 49 44 50 45 51 59 53 80 54 47 55 31 56
REMARK SMILES IDX 32 57 40 58 33 59 34 60 38 61 41 62 35 63 36 64 39 65 37 66
REMARK SMILES IDX 63 67 64 68 72 69 65 70 66 71 70 72 73 73 67 74 68 75 71 76
REMARK SMILES IDX 69 77 48 78 49 79 57 80 50 81 51 82 55 83 58 84 52 85 53 86
REMARK SMILES IDX 56 87 54 88
REMARK H PARENT 3 9 6 12 78 41 46 52
REMARK Flexibility Score: inf
ROOT
ATOM      1  C   UNL A   1      31.767  28.174  26.892  1.00  0.00     0.274 C 
ENDROOT
BRANCH   1   2
ATOM      2  O   UNL A   1      32.367  26.875  26.598  1.00  0.00    -0.461 OA
BRANCH   2   3
ATOM      3  C   UNL A   1      32.062  26.378  25.356  1.00  0.00     0.328 C 
ATOM      4  O   UNL A   1      32.773  26.577  24.373  1.00  0.00    -0.250 OA
BRANCH   3   5
ATOM      5  C   UNL A   1      30.841  25.404  25.305  1.00  0.00     0.190 C 
ATOM      6  C   UNL A   1      29.602  26.142  24.791  1.00  0.00     0.043 C 
BRANCH   5   7
ATOM      7  N   UNL A   1      30.461  24.606  26.485  1.00  0.00    -0.325 N 
ATOM      8  C   UNL A   1      30.468  23.292  26.787  1.00  0.00     0.315 C 
ATOM      9  H   UNL A   1      30.125  25.162  27.224  1.00  0.00     0.166 HD
ATOM     10  O   UNL A   1      29.676  22.918  27.659  1.00  0.00    -0.249 OA
ATOM     11  N   UNL A   1      31.287  22.349  26.262  1.00  0.00    -0.334 N 
ATOM     12  H   UNL A   1      30.910  21.442  26.338  1.00  0.00     0.165 HD
BRANCH  11  13
ATOM     13  C   UNL A   1      32.582  22.355  25.617  1.00  0.00     0.096 C 
ATOM     14  C   UNL A   1      33.817  22.290  26.318  1.00  0.00    -0.007 C 
ATOM     15  C   UNL A   1      33.337  21.018  25.373  1.00  0.00    -0.007 C 
ATOM     16  C   UNL A   1      34.980  23.136  25.815  1.00  0.00     0.014 C 
ATOM     17  C   UNL A   1      33.770  22.263  27.829  1.00  0.00     0.014 C 
ATOM     18  C   UNL A   1      32.338  20.532  24.313  1.00  0.00     0.014 C 
ATOM     19  C   UNL A   1      34.696  20.394  25.058  1.00  0.00     0.014 C 
ENDBRANCH  11  13
ENDBRANCH   5   7
ENDBRANCH   3   5
ENDBRANCH   2   3
ENDBRANCH   1   2
BRANCH   1  20
ATOM     20  C   UNL A   1      31.907  29.196  25.731  1.00  0.00     0.275 C 
BRANCH  20  21
ATOM     21  O   UNL A   1      33.153  29.936  25.829  1.00  0.00    -0.458 OA
BRANCH  21  22
ATOM     22  C   UNL A   1      33.250  30.917  26.777  1.00  0.00     0.338 C 
ATOM     23  O   UNL A   1      32.378  31.718  27.058  1.00  0.00    -0.246 OA
BRANCH  22  24
ATOM     24  C   UNL A   1      34.562  30.819  27.510  1.00  0.00     0.060 A 
ATOM     25  C   UNL A   1      34.973  29.590  28.005  1.00  0.00     0.016 A 
ATOM     26  C   UNL A   1      35.367  31.922  27.805  1.00  0.00     0.016 A 
ATOM     27  C   UNL A   1      36.031  29.447  28.893  1.00  0.00     0.010 A 
ATOM     28  C   UNL A   1      36.554  31.757  28.563  1.00  0.00     0.010 A 
ATOM     29  C   UNL A   1      36.895  30.509  29.117  1.00  0.00    -0.014 A 
BRANCH  29  30
ATOM     30  C   UNL A   1      38.163  30.242  29.853  1.00  0.00     0.031 A 
ATOM     31  C   UNL A   1      39.249  29.410  29.240  1.00  0.00     0.074 A 
ATOM     32  C   UNL A   1      38.388  30.829  31.050  1.00  0.00     0.049 A 
ATOM     33  N   UNL A   1      40.296  28.871  29.809  1.00  0.00    -0.248 NA
ATOM     34  C   UNL A   1      39.166  29.181  27.790  1.00  0.00     0.031 C 
ATOM     35  C   UNL A   1      37.508  31.808  31.697  1.00  0.00     0.029 A 
ATOM     36  N   UNL A   1      39.432  30.703  31.936  1.00  0.00    -0.354 N 
ATOM     37  C   UNL A   1      40.966  28.187  28.803  1.00  0.00     0.074 A 
ATOM     38  C   UNL A   1      40.233  28.421  27.576  1.00  0.00     0.031 C 
ATOM     39  C   UNL A   1      38.055  32.208  32.852  1.00  0.00     0.029 A 
ATOM     40  C   UNL A   1      39.247  31.411  33.102  1.00  0.00     0.049 A 
ATOM     41  H   UNL A   1      40.233  30.159  31.755  1.00  0.00     0.167 HD
ATOM     42  C   UNL A   1      42.070  27.412  28.914  1.00  0.00     0.037 A 
ATOM     43  C   UNL A   1      39.898  31.353  34.280  1.00  0.00     0.037 A 
ATOM     44  C   UNL A   1      42.795  27.212  30.143  1.00  0.00     0.049 A 
ATOM     45  C   UNL A   1      41.022  30.366  34.428  1.00  0.00     0.074 A 
ATOM     46  C   UNL A   1      43.880  26.388  30.388  1.00  0.00     0.029 A 
ATOM     47  N   UNL A   1      42.506  27.858  31.337  1.00  0.00    -0.354 N 
ATOM     48  N   UNL A   1      41.568  29.595  33.520  1.00  0.00    -0.248 NA
ATOM     49  C   UNL A   1      41.587  30.202  35.774  1.00  0.00     0.031 C 
ATOM     50  C   UNL A   1      44.217  26.502  31.743  1.00  0.00     0.029 A 
ATOM     51  C   UNL A   1      43.371  27.428  32.329  1.00  0.00     0.049 A 
ATOM     52  H   UNL A   1      41.792  28.524  31.459  1.00  0.00     0.167 HD
ATOM     53  C   UNL A   1      42.532  28.850  34.183  1.00  0.00     0.074 A 
ATOM     54  C   UNL A   1      42.523  29.287  35.564  1.00  0.00     0.031 C 
ATOM     55  C   UNL A   1      43.339  27.878  33.697  1.00  0.00     0.037 A 
BRANCH  42  56
ATOM     56  C   UNL A   1      42.502  26.642  27.704  1.00  0.00     0.064 A 
ATOM     57  C   UNL A   1      43.483  27.113  26.824  1.00  0.00     0.173 A 
ATOM     58  C   UNL A   1      41.934  25.384  27.447  1.00  0.00     0.173 A 
ATOM     59  F   UNL A   1      44.044  28.316  27.018  1.00  0.00    -0.203 F 
ATOM     60  C   UNL A   1      43.871  26.357  25.719  1.00  0.00     0.198 A 
ATOM     61  C   UNL A   1      42.337  24.623  26.354  1.00  0.00     0.198 A 
ATOM     62  F   UNL A   1      40.992  24.889  28.263  1.00  0.00    -0.203 F 
ATOM     63  F   UNL A   1      44.789  26.837  24.868  1.00  0.00    -0.200 F 
ATOM     64  C   UNL A   1      43.302  25.112  25.488  1.00  0.00     0.200 A 
ATOM     65  F   UNL A   1      41.789  23.419  26.139  1.00  0.00    -0.200 F 
ATOM     66  F   UNL A   1      43.679  24.386  24.426  1.00  0.00    -0.200 F 
ENDBRANCH  42  56
BRANCH  43  67
ATOM     67  C   UNL A   1      39.412  32.138  35.451  1.00  0.00     0.064 A 
ATOM     68  C   UNL A   1      39.879  33.434  35.706  1.00  0.00     0.173 A 
ATOM     69  C   UNL A   1      38.498  31.587  36.366  1.00  0.00     0.173 A 
ATOM     70  F   UNL A   1      40.779  33.995  34.886  1.00  0.00    -0.203 F 
ATOM     71  C   UNL A   1      39.463  34.141  36.834  1.00  0.00     0.198 A 
ATOM     72  C   UNL A   1      38.052  32.309  37.470  1.00  0.00     0.198 A 
ATOM     73  F   UNL A   1      38.027  30.344  36.181  1.00  0.00    -0.203 F 
ATOM     74  F   UNL A   1      39.968  35.356  37.084  1.00  0.00    -0.200 F 
ATOM     75  C   UNL A   1      38.544  33.581  37.710  1.00  0.00     0.200 A 
ATOM     76  F   UNL A   1      37.154  31.766  38.303  1.00  0.00    -0.200 F 
ATOM     77  F   UNL A   1      38.142  34.262  38.791  1.00  0.00    -0.200 F 
ENDBRANCH  43  67
BRANCH  55  78
ATOM     78  C   UNL A   1      44.278  27.228  34.667  1.00  0.00     0.064 A 
ATOM     79  C   UNL A   1      43.926  26.048  35.339  1.00  0.00     0.173 A 
ATOM     80  C   UNL A   1      45.551  27.767  34.899  1.00  0.00     0.173 A 
ATOM     81  F   UNL A   1      42.710  25.510  35.164  1.00  0.00    -0.203 F 
ATOM     82  C   UNL A   1      44.812  25.438  36.220  1.00  0.00     0.198 A 
ATOM     83  C   UNL A   1      46.444  27.142  35.762  1.00  0.00     0.198 A 
ATOM     84  F   UNL A   1      45.931  28.895  34.279  1.00  0.00    -0.203 F 
ATOM     85  F   UNL A   1      44.443  24.332  36.880  1.00  0.00    -0.200 F 
ATOM     86  C   UNL A   1      46.072  25.981  36.425  1.00  0.00     0.200 A 
ATOM     87  F   UNL A   1      47.664  27.661  35.955  1.00  0.00    -0.200 F 
ATOM     88  F   UNL A   1      46.929  25.387  37.269  1.00  0.00    -0.200 F 
ENDBRANCH  55  78
ENDBRANCH  29  30
ENDBRANCH  22  24
ENDBRANCH  21  22
ENDBRANCH  20  21
ENDBRANCH   1  20
TORSDOF 13
ENDMDL
MODEL 3
REMARK VINA RESULT:     -12.2      1.225      1.829
REMARK SMILES C[C@H](NC(=O)NC1C(C)(C)C1(C)C)C(=O)OCCOC(=O)c1ccc(-c2c3nc(c(-c4c(F)c(F)c(F)c(F)c4F)c4ccc([nH]4)c(-c4c(F)c(F)c(F)c(F)c4F)c4nc(c(-c5c(F)c(F)c(F)c(F)c5F)c5ccc2[nH]5)C=C4)C=C3)cc1
REMARK SMILES IDX 17 1 16 2 14 3 15 4 2 5 1 6 3 7 4 8 5 10 6 11 7 13 8 14
REMARK SMILES IDX 11 15 9 16 10 17 12 18 13 19 18 20 19 21 20 22 21 23 22 24
REMARK SMILES IDX 23 25 84 26 24 27 83 28 25 29 26 30 27 31 77 32 28 33 82 34
REMARK SMILES IDX 76 35 78 36 29 37 81 38 75 39 74 40 30 42 62 43 42 44 61 45
REMARK SMILES IDX 43 46 46 47 60 48 79 49 44 50 45 51 59 53 80 54 47 55 31 56
REMARK SMILES IDX 32 57 40 58 33 59 34 60 38 61 41 62 35 63 36 64 39 65 37 66
REMARK SMILES IDX 63 67 64 68 72 69 65 70 66 71 70 72 73 73 67 74 68 75 71 76
REMARK SMILES IDX 69 77 48 78 49 79 57 80 50 81 51 82 55 83 58 84 52 85 53 86
REMARK SMILES IDX 56 87 54 88
REMARK H PARENT 3 9 6 12 78 41 46 52
REMARK Flexibility Score: inf
ROOT
ATOM      1  C   UNL A   1      31.660  28.249  26.988  1.00  0.00     0.274 C 
ENDROOT
BRANCH   1   2
ATOM      2  O   UNL A   1      32.464  27.055  26.738  1.00  0.00    -0.461 OA
BRANCH   2   3
ATOM      3  C   UNL A   1      32.296  26.508  25.492  1.00  0.00     0.328 C 
ATOM      4  O   UNL A   1      33.087  26.708  24.571  1.00  0.00    -0.250 OA
BRANCH   3   5
ATOM      5  C   UNL A   1      31.126  25.481  25.362  1.00  0.00     0.190 C 
ATOM      6  C   UNL A   1      29.894  26.163  24.761  1.00  0.00     0.043 C 
BRANCH   5   7
ATOM      7  N   UNL A   1      30.701  24.671  26.518  1.00  0.00    -0.325 N 
ATOM      8  C   UNL A   1      30.626  23.349  26.777  1.00  0.00     0.315 C 
ATOM      9  H   UNL A   1      30.403  25.222  27.277  1.00  0.00     0.166 HD
ATOM     10  O   UNL A   1      29.815  22.998  27.641  1.00  0.00    -0.249 OA
ATOM     11  N   UNL A   1      31.381  22.374  26.216  1.00  0.00    -0.334 N 
ATOM     12  H   UNL A   1      30.948  21.491  26.264  1.00  0.00     0.165 HD
BRANCH  11  13
ATOM     13  C   UNL A   1      32.671  22.320  25.564  1.00  0.00     0.096 C 
ATOM     14  C   UNL A   1      33.905  22.186  26.257  1.00  0.00    -0.007 C 
ATOM     15  C   UNL A   1      33.356  20.948  25.303  1.00  0.00    -0.007 C 
ATOM     16  C   UNL A   1      35.107  22.975  25.755  1.00  0.00     0.014 C 
ATOM     17  C   UNL A   1      33.865  22.146  27.768  1.00  0.00     0.014 C 
ATOM     18  C   UNL A   1      32.327  20.524  24.244  1.00  0.00     0.014 C 
ATOM     19  C   UNL A   1      34.679  20.258  24.975  1.00  0.00     0.014 C 
ENDBRANCH  11  13
ENDBRANCH   5   7
ENDBRANCH   3   5
ENDBRANCH   2   3
ENDBRANCH   1   2
BRANCH   1  20
ATOM     20  C   UNL A   1      31.801  29.331  25.882  1.00  0.00     0.275 C 
BRANCH  20  21
ATOM     21  O   UNL A   1      33.100  29.980  25.944  1.00  0.00    -0.458 OA
BRANCH  21  22
ATOM     22  C   UNL A   1      33.261  31.021  26.817  1.00  0.00     0.338 C 
ATOM     23  O   UNL A   1      32.437  31.887  27.047  1.00  0.00    -0.246 OA
BRANCH  22  24
ATOM     24  C   UNL A   1      34.575  30.904  27.545  1.00  0.00     0.060 A 
ATOM     25  C   UNL A   1      34.953  29.678  28.072  1.00  0.00     0.016 A 
ATOM     26  C   UNL A   1      35.414  31.990  27.804  1.00  0.00     0.016 A 
ATOM     27  C   UNL A   1      36.012  29.527  28.957  1.00  0.00     0.010 A 
ATOM     28  C   UNL A   1      36.601  31.811  28.559  1.00  0.00     0.010 A 
ATOM     29  C   UNL A   1      36.909  30.570  29.146  1.00  0.00    -0.014 A 
BRANCH  29  30
ATOM     30  C   UNL A   1      38.173  30.285  29.881  1.00  0.00     0.031 A 
ATOM     31  C   UNL A   1      39.251  29.446  29.264  1.00  0.00     0.074 A 
ATOM     32  C   UNL A   1      38.403  30.863  31.082  1.00  0.00     0.049 A 
ATOM     33  N   UNL A   1      40.292  28.893  29.831  1.00  0.00    -0.248 NA
ATOM     34  C   UNL A   1      39.167  29.227  27.812  1.00  0.00     0.031 C 
ATOM     35  C   UNL A   1      37.531  31.846  31.735  1.00  0.00     0.029 A 
ATOM     36  N   UNL A   1      39.445  30.721  31.968  1.00  0.00    -0.354 N 
ATOM     37  C   UNL A   1      40.956  28.209  28.821  1.00  0.00     0.074 A 
ATOM     38  C   UNL A   1      40.227  28.458  27.595  1.00  0.00     0.031 C 
ATOM     39  C   UNL A   1      38.082  32.234  32.893  1.00  0.00     0.029 A 
ATOM     40  C   UNL A   1      39.265  31.423  33.139  1.00  0.00     0.049 A 
ATOM     41  H   UNL A   1      40.241  30.171  31.784  1.00  0.00     0.167 HD
ATOM     42  C   UNL A   1      42.053  27.423  28.928  1.00  0.00     0.037 A 
ATOM     43  C   UNL A   1      39.915  31.352  34.317  1.00  0.00     0.037 A 
ATOM     44  C   UNL A   1      42.775  27.208  30.156  1.00  0.00     0.049 A 
ATOM     45  C   UNL A   1      41.029  30.353  34.460  1.00  0.00     0.074 A 
ATOM     46  C   UNL A   1      43.851  26.372  30.398  1.00  0.00     0.029 A 
ATOM     47  N   UNL A   1      42.491  27.850  31.354  1.00  0.00    -0.354 N 
ATOM     48  N   UNL A   1      41.568  29.582  33.547  1.00  0.00    -0.248 NA
ATOM     49  C   UNL A   1      41.591  30.175  35.805  1.00  0.00     0.031 C 
ATOM     50  C   UNL A   1      44.189  26.474  31.753  1.00  0.00     0.029 A 
ATOM     51  C   UNL A   1      43.351  27.405  32.345  1.00  0.00     0.049 A 
ATOM     52  H   UNL A   1      41.784  28.522  31.480  1.00  0.00     0.167 HD
ATOM     53  C   UNL A   1      42.524  28.824  34.206  1.00  0.00     0.074 A 
ATOM     54  C   UNL A   1      42.518  29.253  35.590  1.00  0.00     0.031 C 
ATOM     55  C   UNL A   1      43.322  27.846  33.715  1.00  0.00     0.037 A 
BRANCH  42  56
ATOM     56  C   UNL A   1      42.478  26.655  27.714  1.00  0.00     0.064 A 
ATOM     57  C   UNL A   1      43.460  27.126  26.834  1.00  0.00     0.173 A 
ATOM     58  C   UNL A   1      41.903  25.402  27.452  1.00  0.00     0.173 A 
ATOM     59  F   UNL A   1      44.028  28.325  27.032  1.00  0.00    -0.203 F 
ATOM     60  C   UNL A   1      43.842  26.373  25.724  1.00  0.00     0.198 A 
ATOM     61  C   UNL A   1      42.300  24.644  26.355  1.00  0.00     0.198 A 
ATOM     62  F   UNL A   1      40.960  24.908  28.268  1.00  0.00    -0.203 F 
ATOM     63  F   UNL A   1      44.761  26.852  24.874  1.00  0.00    -0.200 F 
ATOM     64  C   UNL A   1      43.266  25.132  25.489  1.00  0.00     0.200 A 
ATOM     65  F   UNL A   1      41.745  23.444  26.135  1.00  0.00    -0.200 F 
ATOM     66  F   UNL A   1      43.637  24.409  24.423  1.00  0.00    -0.200 F 
ENDBRANCH  42  56
BRANCH  43  67
ATOM     67  C   UNL A   1      39.436  32.134  35.492  1.00  0.00     0.064 A 
ATOM     68  C   UNL A   1      39.919  33.422  35.758  1.00  0.00     0.173 A 
ATOM     69  C   UNL A   1      38.511  31.589  36.400  1.00  0.00     0.173 A 
ATOM     70  F   UNL A   1      40.829  33.977  34.945  1.00  0.00    -0.203 F 
ATOM     71  C   UNL A   1      39.508  34.126  36.890  1.00  0.00     0.198 A 
ATOM     72  C   UNL A   1      38.072  32.308  37.508  1.00  0.00     0.198 A 
ATOM     73  F   UNL A   1      38.025  30.353  36.205  1.00  0.00    -0.203 F 
ATOM     74  F   UNL A   1      40.029  35.333  37.151  1.00  0.00    -0.200 F 
ATOM     75  C   UNL A   1      38.580  33.572  37.759  1.00  0.00     0.200 A 
ATOM     76  F   UNL A   1      37.164  31.771  38.334  1.00  0.00    -0.200 F 
ATOM     77  F   UNL A   1      38.183  34.250  38.844  1.00  0.00    -0.200 F 
ENDBRANCH  43  67
BRANCH  55  78
ATOM     78  C   UNL A   1      44.253  27.182  34.682  1.00  0.00     0.064 A 
ATOM     79  C   UNL A   1      45.525  27.711  34.946  1.00  0.00     0.173 A 
ATOM     80  C   UNL A   1      43.858  26.031  35.378  1.00  0.00     0.173 A 
ATOM     81  F   UNL A   1      45.954  28.798  34.286  1.00  0.00    -0.203 F 
ATOM     82  C   UNL A   1      46.375  27.102  35.863  1.00  0.00     0.198 A 
ATOM     83  C   UNL A   1      44.700  25.438  36.313  1.00  0.00     0.198 A 
ATOM     84  F   UNL A   1      42.650  25.490  35.158  1.00  0.00    -0.203 F 
ATOM     85  F   UNL A   1      47.600  27.601  36.073  1.00  0.00    -0.200 F 
ATOM     86  C   UNL A   1      45.959  25.971  36.551  1.00  0.00     0.200 A 
ATOM     87  F   UNL A   1      44.295  24.351  36.983  1.00  0.00    -0.200 F 
ATOM     88  F   UNL A   1      46.776  25.389  37.441  1.00  0.00    -0.200 F 
ENDBRANCH  55  78
ENDBRANCH  29  30
ENDBRANCH  22  24
ENDBRANCH  21  22
ENDBRANCH  20  21
ENDBRANCH   1  20
TORSDOF 13
ENDMDL
