MODEL 1
REMARK VINA RESULT:     -12.5      0.000      0.000
REMARK SMILES O=C(CCc1ccc(S(=O)(=O)Nc2cccc(I)c2)cc1)OCCOC(=O)c1ccc(-c2c3nc(c(-c4c(F)c(F)c(F)c(F)c4F)c4ccc([nH]4)c(-c4c(F)c(F)c(F)c(F)c4F)c4nc(c(-c5c(F)c(F)c(F)c(F)c5F)c5ccc2[nH]5)C=C4)C=C3)cc1
REMARK SMILES IDX 22 1 2 2 1 3 3 4 4 5 5 6 6 7 21 8 7 9 20 10 8 11 9 12 10 13
REMARK SMILES IDX 11 14 12 15 13 17 14 18 19 19 15 20 17 21 16 22 18 23 23 24
REMARK SMILES IDX 24 25 25 26 26 27 27 28 28 29 29 30 90 31 30 32 89 33 31 34
REMARK SMILES IDX 32 35 33 36 83 37 34 38 88 39 82 40 84 41 35 42 87 43 81 44
REMARK SMILES IDX 80 45 36 47 68 48 48 49 67 50 49 51 52 52 66 53 85 54 50 55
REMARK SMILES IDX 51 56 65 58 86 59 53 60 37 61 38 62 46 63 39 64 40 65 44 66
REMARK SMILES IDX 47 67 41 68 42 69 45 70 43 71 69 72 70 73 78 74 71 75 72 76
REMARK SMILES IDX 76 77 79 78 73 79 74 80 77 81 75 82 54 83 55 84 63 85 56 86
REMARK SMILES IDX 57 87 61 88 64 89 58 90 59 91 62 92 60 93
REMARK H PARENT 12 16 84 46 52 57
REMARK Flexibility Score: inf
ROOT
ATOM      1  O   UNL A   1      43.700  20.489  25.024  1.00  0.00    -0.462 OA
ENDROOT
BRANCH   1   2
ATOM      2  C   UNL A   1      43.838  19.174  25.340  1.00  0.00     0.306 C 
ATOM      3  O   UNL A   1      44.719  18.487  24.831  1.00  0.00    -0.252 OA
BRANCH   2   4
ATOM      4  C   UNL A   1      42.737  18.558  26.176  1.00  0.00     0.127 C 
BRANCH   4   5
ATOM      5  C   UNL A   1      42.079  19.533  27.154  1.00  0.00     0.047 C 
BRANCH   5   6
ATOM      6  C   UNL A   1      40.893  20.264  26.565  1.00  0.00    -0.047 A 
ATOM      7  C   UNL A   1      39.950  19.577  25.791  1.00  0.00     0.005 A 
ATOM      8  C   UNL A   1      40.701  21.635  26.803  1.00  0.00     0.005 A 
ATOM      9  C   UNL A   1      38.771  20.210  25.379  1.00  0.00     0.022 A 
ATOM     10  C   UNL A   1      39.527  22.267  26.396  1.00  0.00     0.022 A 
ATOM     11  C   UNL A   1      38.533  21.539  25.741  1.00  0.00     0.087 A 
BRANCH  11  12
ATOM     12  S   UNL A   1      37.006  22.333  25.278  1.00  0.00     0.261 S 
ATOM     13  O   UNL A   1      37.029  23.679  25.806  1.00  0.00    -0.201 OA
ATOM     14  O   UNL A   1      36.810  22.094  23.862  1.00  0.00    -0.201 OA
BRANCH  12  15
ATOM     15  N   UNL A   1      35.809  21.436  26.037  1.00  0.00    -0.280 N 
ATOM     16  H   UNL A   1      35.881  21.345  27.015  1.00  0.00     0.180 HD
BRANCH  15  17
ATOM     17  C   UNL A   1      34.699  20.794  25.419  1.00  0.00     0.050 A 
ATOM     18  C   UNL A   1      33.515  21.533  25.299  1.00  0.00     0.027 A 
ATOM     19  C   UNL A   1      34.706  19.468  24.987  1.00  0.00     0.041 A 
ATOM     20  C   UNL A   1      32.383  20.981  24.689  1.00  0.00     0.003 A 
ATOM     21  C   UNL A   1      33.590  18.933  24.339  1.00  0.00     0.015 A 
ATOM     22  C   UNL A   1      32.426  19.683  24.187  1.00  0.00     0.015 A 
ATOM     23  I   UNL A   1      33.690  17.015  23.539  1.00  0.00    -0.044 I 
ENDBRANCH  15  17
ENDBRANCH  12  15
ENDBRANCH  11  12
ENDBRANCH   5   6
ENDBRANCH   4   5
ENDBRANCH   2   4
ENDBRANCH   1   2
BRANCH   1  24
ATOM     24  C   UNL A   1      44.879  21.264  24.746  1.00  0.00     0.274 C 
BRANCH  24  25
ATOM     25  C   UNL A   1      44.609  22.508  23.894  1.00  0.00     0.275 C 
BRANCH  25  26
ATOM     26  O   UNL A   1      43.778  23.456  24.577  1.00  0.00    -0.458 OA
BRANCH  26  27
ATOM     27  C   UNL A   1      44.456  24.541  25.027  1.00  0.00     0.338 C 
ATOM     28  O   UNL A   1      45.534  24.951  24.627  1.00  0.00    -0.246 OA
BRANCH  27  29
ATOM     29  C   UNL A   1      43.608  25.297  25.968  1.00  0.00     0.060 A 
ATOM     30  C   UNL A   1      43.957  26.630  26.211  1.00  0.00     0.016 A 
ATOM     31  C   UNL A   1      42.517  24.718  26.621  1.00  0.00     0.016 A 
ATOM     32  C   UNL A   1      43.261  27.367  27.165  1.00  0.00     0.010 A 
ATOM     33  C   UNL A   1      41.815  25.462  27.576  1.00  0.00     0.010 A 
ATOM     34  C   UNL A   1      42.216  26.773  27.886  1.00  0.00    -0.014 A 
BRANCH  34  35
ATOM     35  C   UNL A   1      41.683  27.480  29.078  1.00  0.00     0.031 A 
ATOM     36  C   UNL A   1      42.414  27.348  30.387  1.00  0.00     0.074 A 
ATOM     37  C   UNL A   1      40.615  28.292  28.982  1.00  0.00     0.049 A 
ATOM     38  N   UNL A   1      42.200  27.958  31.525  1.00  0.00    -0.248 NA
ATOM     39  C   UNL A   1      43.543  26.404  30.413  1.00  0.00     0.031 C 
ATOM     40  C   UNL A   1      39.837  28.525  27.768  1.00  0.00     0.029 A 
ATOM     41  N   UNL A   1      40.015  29.086  29.927  1.00  0.00    -0.354 N 
ATOM     42  C   UNL A   1      43.172  27.481  32.396  1.00  0.00     0.074 A 
ATOM     43  C   UNL A   1      43.943  26.495  31.672  1.00  0.00     0.031 C 
ATOM     44  C   UNL A   1      38.867  29.416  28.038  1.00  0.00     0.029 A 
ATOM     45  C   UNL A   1      38.947  29.802  29.447  1.00  0.00     0.049 A 
ATOM     46  H   UNL A   1      40.320  29.137  30.862  1.00  0.00     0.167 HD
ATOM     47  C   UNL A   1      43.414  27.847  33.678  1.00  0.00     0.037 A 
ATOM     48  C   UNL A   1      38.132  30.674  30.073  1.00  0.00     0.037 A 
ATOM     49  C   UNL A   1      42.646  28.824  34.402  1.00  0.00     0.049 A 
ATOM     50  C   UNL A   1      38.379  31.009  31.523  1.00  0.00     0.074 A 
ATOM     51  C   UNL A   1      42.826  29.279  35.695  1.00  0.00     0.029 A 
ATOM     52  N   UNL A   1      41.537  29.487  33.896  1.00  0.00    -0.354 N 
ATOM     53  N   UNL A   1      39.336  30.600  32.319  1.00  0.00    -0.248 NA
ATOM     54  C   UNL A   1      37.433  31.939  32.155  1.00  0.00     0.031 C 
ATOM     55  C   UNL A   1      41.793  30.174  35.993  1.00  0.00     0.029 A 
ATOM     56  C   UNL A   1      41.004  30.323  34.864  1.00  0.00     0.049 A 
ATOM     57  H   UNL A   1      41.181  29.379  32.984  1.00  0.00     0.167 HD
ATOM     58  C   UNL A   1      39.131  31.250  33.531  1.00  0.00     0.074 A 
ATOM     59  C   UNL A   1      37.964  32.090  33.360  1.00  0.00     0.031 C 
ATOM     60  C   UNL A   1      39.847  31.163  34.678  1.00  0.00     0.037 A 
BRANCH  47  61
ATOM     61  C   UNL A   1      44.549  27.164  34.385  1.00  0.00     0.064 A 
ATOM     62  C   UNL A   1      45.849  27.694  34.377  1.00  0.00     0.173 A 
ATOM     63  C   UNL A   1      44.331  25.973  35.092  1.00  0.00     0.173 A 
ATOM     64  F   UNL A   1      46.114  28.823  33.702  1.00  0.00    -0.203 F 
ATOM     65  C   UNL A   1      46.894  27.038  35.023  1.00  0.00     0.198 A 
ATOM     66  C   UNL A   1      45.372  25.337  35.764  1.00  0.00     0.198 A 
ATOM     67  F   UNL A   1      43.107  25.426  35.135  1.00  0.00    -0.203 F 
ATOM     68  F   UNL A   1      48.138  27.533  34.955  1.00  0.00    -0.200 F 
ATOM     69  C   UNL A   1      46.654  25.864  35.721  1.00  0.00     0.200 A 
ATOM     70  F   UNL A   1      45.135  24.209  36.447  1.00  0.00    -0.200 F 
ATOM     71  F   UNL A   1      47.659  25.235  36.344  1.00  0.00    -0.200 F 
ENDBRANCH  47  61
BRANCH  48  72
ATOM     72  C   UNL A   1      37.013  31.314  29.331  1.00  0.00     0.064 A 
ATOM     73  C   UNL A   1      37.053  32.675  28.994  1.00  0.00     0.173 A 
ATOM     74  C   UNL A   1      35.868  30.587  28.975  1.00  0.00     0.173 A 
ATOM     75  F   UNL A   1      38.115  33.418  29.337  1.00  0.00    -0.203 F 
ATOM     76  C   UNL A   1      35.981  33.288  28.350  1.00  0.00     0.198 A 
ATOM     77  C   UNL A   1      34.809  31.195  28.305  1.00  0.00     0.198 A 
ATOM     78  F   UNL A   1      35.779  29.283  29.278  1.00  0.00    -0.203 F 
ATOM     79  F   UNL A   1      36.023  34.602  28.088  1.00  0.00    -0.200 F 
ATOM     80  C   UNL A   1      34.861  32.547  28.002  1.00  0.00     0.200 A 
ATOM     81  F   UNL A   1      33.733  30.474  27.962  1.00  0.00    -0.200 F 
ATOM     82  F   UNL A   1      33.829  33.138  27.385  1.00  0.00    -0.200 F 
ENDBRANCH  48  72
BRANCH  60  83
ATOM     83  C   UNL A   1      39.418  32.030  35.830  1.00  0.00     0.064 A 
ATOM     84  C   UNL A   1      39.962  33.306  36.039  1.00  0.00     0.173 A 
ATOM     85  C   UNL A   1      38.423  31.589  36.716  1.00  0.00     0.173 A 
ATOM     86  F   UNL A   1      40.925  33.771  35.228  1.00  0.00    -0.203 F 
ATOM     87  C   UNL A   1      39.548  34.094  37.110  1.00  0.00     0.198 A 
ATOM     88  C   UNL A   1      37.988  32.393  37.766  1.00  0.00     0.198 A 
ATOM     89  F   UNL A   1      37.862  30.381  36.558  1.00  0.00    -0.203 F 
ATOM     90  F   UNL A   1      40.120  35.288  37.321  1.00  0.00    -0.200 F 
ATOM     91  C   UNL A   1      38.557  33.641  37.968  1.00  0.00     0.200 A 
ATOM     92  F   UNL A   1      37.018  31.959  38.584  1.00  0.00    -0.200 F 
ATOM     93  F   UNL A   1      38.157  34.404  38.994  1.00  0.00    -0.200 F 
ENDBRANCH  60  83
ENDBRANCH  34  35
ENDBRANCH  27  29
ENDBRANCH  26  27
ENDBRANCH  25  26
ENDBRANCH  24  25
ENDBRANCH   1  24
TORSDOF 16
ENDMDL
MODEL 2
REMARK VINA RESULT:     -12.3      0.292      1.617
REMARK SMILES O=C(CCc1ccc(S(=O)(=O)Nc2cccc(I)c2)cc1)OCCOC(=O)c1ccc(-c2c3nc(c(-c4c(F)c(F)c(F)c(F)c4F)c4ccc([nH]4)c(-c4c(F)c(F)c(F)c(F)c4F)c4nc(c(-c5c(F)c(F)c(F)c(F)c5F)c5ccc2[nH]5)C=C4)C=C3)cc1
REMARK SMILES IDX 22 1 2 2 1 3 3 4 4 5 5 6 6 7 21 8 7 9 20 10 8 11 9 12 10 13
REMARK SMILES IDX 11 14 12 15 13 17 14 18 19 19 15 20 17 21 16 22 18 23 23 24
REMARK SMILES IDX 24 25 25 26 26 27 27 28 28 29 29 30 90 31 30 32 89 33 31 34
REMARK SMILES IDX 32 35 33 36 83 37 34 38 88 39 82 40 84 41 35 42 87 43 81 44
REMARK SMILES IDX 80 45 36 47 68 48 48 49 67 50 49 51 52 52 66 53 85 54 50 55
REMARK SMILES IDX 51 56 65 58 86 59 53 60 37 61 38 62 46 63 39 64 40 65 44 66
REMARK SMILES IDX 47 67 41 68 42 69 45 70 43 71 69 72 70 73 78 74 71 75 72 76
REMARK SMILES IDX 76 77 79 78 73 79 74 80 77 81 75 82 54 83 55 84 63 85 56 86
REMARK SMILES IDX 57 87 61 88 64 89 58 90 59 91 62 92 60 93
REMARK H PARENT 12 16 84 46 52 57
REMARK Flexibility Score: inf
ROOT
ATOM      1  O   UNL A   1      43.675  20.511  25.000  1.00  0.00    -0.462 OA
ENDROOT
BRANCH   1   2
ATOM      2  C   UNL A   1      43.844  19.186  25.254  1.00  0.00     0.306 C 
ATOM      3  O   UNL A   1      44.715  18.536  24.684  1.00  0.00    -0.252 OA
BRANCH   2   4
ATOM      4  C   UNL A   1      42.784  18.517  26.103  1.00  0.00     0.127 C 
BRANCH   4   5
ATOM      5  C   UNL A   1      42.148  19.440  27.144  1.00  0.00     0.047 C 
BRANCH   5   6
ATOM      6  C   UNL A   1      40.991  20.249  26.601  1.00  0.00    -0.047 A 
ATOM      7  C   UNL A   1      40.048  19.655  25.752  1.00  0.00     0.005 A 
ATOM      8  C   UNL A   1      40.826  21.597  26.955  1.00  0.00     0.005 A 
ATOM      9  C   UNL A   1      38.893  20.351  25.375  1.00  0.00     0.022 A 
ATOM     10  C   UNL A   1      39.674  22.291  26.584  1.00  0.00     0.022 A 
ATOM     11  C   UNL A   1      38.678  21.648  25.849  1.00  0.00     0.087 A 
BRANCH  11  12
ATOM     12  S   UNL A   1      37.180  22.517  25.431  1.00  0.00     0.261 S 
ATOM     13  O   UNL A   1      37.245  23.829  26.035  1.00  0.00    -0.201 OA
ATOM     14  O   UNL A   1      36.980  22.366  24.003  1.00  0.00    -0.201 OA
BRANCH  12  15
ATOM     15  N   UNL A   1      35.951  21.618  26.136  1.00  0.00    -0.280 N 
ATOM     16  H   UNL A   1      36.124  21.270  27.040  1.00  0.00     0.180 HD
BRANCH  15  17
ATOM     17  C   UNL A   1      34.684  21.306  25.566  1.00  0.00     0.050 A 
ATOM     18  C   UNL A   1      33.688  22.288  25.639  1.00  0.00     0.027 A 
ATOM     19  C   UNL A   1      34.366  20.072  25.001  1.00  0.00     0.041 A 
ATOM     20  C   UNL A   1      32.420  22.067  25.089  1.00  0.00     0.003 A 
ATOM     21  C   UNL A   1      33.114  19.867  24.414  1.00  0.00     0.015 A 
ATOM     22  C   UNL A   1      32.138  20.860  24.454  1.00  0.00     0.015 A 
ATOM     23  I   UNL A   1      32.728  18.084  23.415  1.00  0.00    -0.044 I 
ENDBRANCH  15  17
ENDBRANCH  12  15
ENDBRANCH  11  12
ENDBRANCH   5   6
ENDBRANCH   4   5
ENDBRANCH   2   4
ENDBRANCH   1   2
BRANCH   1  24
ATOM     24  C   UNL A   1      44.833  21.320  24.730  1.00  0.00     0.274 C 
BRANCH  24  25
ATOM     25  C   UNL A   1      44.529  22.565  23.890  1.00  0.00     0.275 C 
BRANCH  25  26
ATOM     26  O   UNL A   1      43.700  23.498  24.594  1.00  0.00    -0.458 OA
BRANCH  26  27
ATOM     27  C   UNL A   1      44.370  24.596  25.023  1.00  0.00     0.338 C 
ATOM     28  O   UNL A   1      45.441  25.010  24.611  1.00  0.00    -0.246 OA
BRANCH  27  29
ATOM     29  C   UNL A   1      43.519  25.359  25.956  1.00  0.00     0.060 A 
ATOM     30  C   UNL A   1      43.886  26.685  26.214  1.00  0.00     0.016 A 
ATOM     31  C   UNL A   1      42.409  24.793  26.589  1.00  0.00     0.016 A 
ATOM     32  C   UNL A   1      43.187  27.426  27.163  1.00  0.00     0.010 A 
ATOM     33  C   UNL A   1      41.705  25.541  27.538  1.00  0.00     0.010 A 
ATOM     34  C   UNL A   1      42.122  26.844  27.864  1.00  0.00    -0.014 A 
BRANCH  34  35
ATOM     35  C   UNL A   1      41.581  27.550  29.052  1.00  0.00     0.031 A 
ATOM     36  C   UNL A   1      42.310  27.425  30.364  1.00  0.00     0.074 A 
ATOM     37  C   UNL A   1      40.509  28.356  28.953  1.00  0.00     0.049 A 
ATOM     38  N   UNL A   1      42.089  28.037  31.500  1.00  0.00    -0.248 NA
ATOM     39  C   UNL A   1      43.444  26.488  30.396  1.00  0.00     0.031 C 
ATOM     40  C   UNL A   1      39.733  28.582  27.736  1.00  0.00     0.029 A 
ATOM     41  N   UNL A   1      39.902  29.149  29.894  1.00  0.00    -0.354 N 
ATOM     42  C   UNL A   1      43.062  27.567  32.375  1.00  0.00     0.074 A 
ATOM     43  C   UNL A   1      43.840  26.584  31.655  1.00  0.00     0.031 C 
ATOM     44  C   UNL A   1      38.757  29.468  28.001  1.00  0.00     0.029 A 
ATOM     45  C   UNL A   1      38.832  29.858  29.409  1.00  0.00     0.049 A 
ATOM     46  H   UNL A   1      40.205  29.204  30.829  1.00  0.00     0.167 HD
ATOM     47  C   UNL A   1      43.298  27.937  33.656  1.00  0.00     0.037 A 
ATOM     48  C   UNL A   1      38.011  30.727  30.031  1.00  0.00     0.037 A 
ATOM     49  C   UNL A   1      42.523  28.912  34.376  1.00  0.00     0.049 A 
ATOM     50  C   UNL A   1      38.252  31.066  31.481  1.00  0.00     0.074 A 
ATOM     51  C   UNL A   1      42.697  29.371  35.669  1.00  0.00     0.029 A 
ATOM     52  N   UNL A   1      41.411  29.568  33.866  1.00  0.00    -0.354 N 
ATOM     53  N   UNL A   1      39.208  30.665  32.281  1.00  0.00    -0.248 NA
ATOM     54  C   UNL A   1      37.299  31.993  32.108  1.00  0.00     0.031 C 
ATOM     55  C   UNL A   1      41.659  30.261  35.962  1.00  0.00     0.029 A 
ATOM     56  C   UNL A   1      40.871  30.403  34.831  1.00  0.00     0.049 A 
ATOM     57  H   UNL A   1      41.059  29.456  32.953  1.00  0.00     0.167 HD
ATOM     58  C   UNL A   1      38.997  31.317  33.490  1.00  0.00     0.074 A 
ATOM     59  C   UNL A   1      37.826  32.150  33.314  1.00  0.00     0.031 C 
ATOM     60  C   UNL A   1      39.711  31.236  34.640  1.00  0.00     0.037 A 
BRANCH  47  61
ATOM     61  C   UNL A   1      44.435  27.263  34.368  1.00  0.00     0.064 A 
ATOM     62  C   UNL A   1      44.257  26.060  35.071  1.00  0.00     0.173 A 
ATOM     63  C   UNL A   1      45.722  27.818  34.335  1.00  0.00     0.173 A 
ATOM     64  F   UNL A   1      43.043  25.495  35.146  1.00  0.00    -0.203 F 
ATOM     65  C   UNL A   1      45.319  25.458  35.740  1.00  0.00     0.198 A 
ATOM     66  C   UNL A   1      46.789  27.197  34.979  1.00  0.00     0.198 A 
ATOM     67  F   UNL A   1      45.948  28.964  33.675  1.00  0.00    -0.203 F 
ATOM     68  F   UNL A   1      45.115  24.340  36.451  1.00  0.00    -0.200 F 
ATOM     69  C   UNL A   1      46.585  26.023  35.689  1.00  0.00     0.200 A 
ATOM     70  F   UNL A   1      48.013  27.737  34.919  1.00  0.00    -0.200 F 
ATOM     71  F   UNL A   1      47.607  25.442  36.332  1.00  0.00    -0.200 F 
ENDBRANCH  47  61
BRANCH  48  72
ATOM     72  C   UNL A   1      36.890  31.359  29.285  1.00  0.00     0.064 A 
ATOM     73  C   UNL A   1      36.927  32.718  28.939  1.00  0.00     0.173 A 
ATOM     74  C   UNL A   1      35.747  30.627  28.933  1.00  0.00     0.173 A 
ATOM     75  F   UNL A   1      37.986  33.466  29.278  1.00  0.00    -0.203 F 
ATOM     76  C   UNL A   1      35.853  33.324  28.291  1.00  0.00     0.198 A 
ATOM     77  C   UNL A   1      34.686  31.228  28.259  1.00  0.00     0.198 A 
ATOM     78  F   UNL A   1      35.661  29.325  29.244  1.00  0.00    -0.203 F 
ATOM     79  F   UNL A   1      35.891  34.636  28.021  1.00  0.00    -0.200 F 
ATOM     80  C   UNL A   1      34.735  32.578  27.947  1.00  0.00     0.200 A 
ATOM     81  F   UNL A   1      33.613  30.501  27.920  1.00  0.00    -0.200 F 
ATOM     82  F   UNL A   1      33.702  33.162  27.326  1.00  0.00    -0.200 F 
ENDBRANCH  48  72
BRANCH  60  83
ATOM     83  C   UNL A   1      39.274  32.103  35.788  1.00  0.00     0.064 A 
ATOM     84  C   UNL A   1      38.346  31.658  36.741  1.00  0.00     0.173 A 
ATOM     85  C   UNL A   1      39.822  33.385  35.956  1.00  0.00     0.173 A 
ATOM     86  F   UNL A   1      37.783  30.446  36.621  1.00  0.00    -0.203 F 
ATOM     87  C   UNL A   1      37.959  32.476  37.800  1.00  0.00     0.198 A 
ATOM     88  C   UNL A   1      39.457  34.186  37.035  1.00  0.00     0.198 A 
ATOM     89  F   UNL A   1      40.721  33.857  35.080  1.00  0.00    -0.203 F 
ATOM     90  F   UNL A   1      37.030  32.049  38.668  1.00  0.00    -0.200 F 
ATOM     91  C   UNL A   1      38.519  33.735  37.950  1.00  0.00     0.200 A 
ATOM     92  F   UNL A   1      40.013  35.397  37.187  1.00  0.00    -0.200 F 
ATOM     93  F   UNL A   1      38.149  34.517  38.973  1.00  0.00    -0.200 F 
ENDBRANCH  60  83
ENDBRANCH  34  35
ENDBRANCH  27  29
ENDBRANCH  26  27
ENDBRANCH  25  26
ENDBRANCH  24  25
ENDBRANCH   1  24
TORSDOF 16
ENDMDL
MODEL 3
REMARK VINA RESULT:     -12.1      3.955      9.170
REMARK SMILES O=C(CCc1ccc(S(=O)(=O)Nc2cccc(I)c2)cc1)OCCOC(=O)c1ccc(-c2c3nc(c(-c4c(F)c(F)c(F)c(F)c4F)c4ccc([nH]4)c(-c4c(F)c(F)c(F)c(F)c4F)c4nc(c(-c5c(F)c(F)c(F)c(F)c5F)c5ccc2[nH]5)C=C4)C=C3)cc1
REMARK SMILES IDX 22 1 2 2 1 3 3 4 4 5 5 6 6 7 21 8 7 9 20 10 8 11 9 12 10 13
REMARK SMILES IDX 11 14 12 15 13 17 14 18 19 19 15 20 17 21 16 22 18 23 23 24
REMARK SMILES IDX 24 25 25 26 26 27 27 28 28 29 29 30 90 31 30 32 89 33 31 34
REMARK SMILES IDX 32 35 33 36 83 37 34 38 88 39 82 40 84 41 35 42 87 43 81 44
REMARK SMILES IDX 80 45 36 47 68 48 48 49 67 50 49 51 52 52 66 53 85 54 50 55
REMARK SMILES IDX 51 56 65 58 86 59 53 60 37 61 38 62 46 63 39 64 40 65 44 66
REMARK SMILES IDX 47 67 41 68 42 69 45 70 43 71 69 72 70 73 78 74 71 75 72 76
REMARK SMILES IDX 76 77 79 78 73 79 74 80 77 81 75 82 54 83 55 84 63 85 56 86
REMARK SMILES IDX 57 87 61 88 64 89 58 90 59 91 62 92 60 93
REMARK H PARENT 12 16 84 46 52 57
REMARK Flexibility Score: inf
ROOT
ATOM      1  O   UNL A   1      31.357  29.698  24.321  1.00  0.00    -0.462 OA
ENDROOT
BRANCH   1   2
ATOM      2  C   UNL A   1      31.712  28.960  23.236  1.00  0.00     0.306 C 
ATOM      3  O   UNL A   1      32.884  28.874  22.882  1.00  0.00    -0.252 OA
BRANCH   2   4
ATOM      4  C   UNL A   1      30.584  28.432  22.376  1.00  0.00     0.127 C 
BRANCH   4   5
ATOM      5  C   UNL A   1      29.544  27.617  23.146  1.00  0.00     0.047 C 
BRANCH   5   6
ATOM      6  C   UNL A   1      30.138  26.450  23.903  1.00  0.00    -0.047 A 
ATOM      7  C   UNL A   1      30.242  26.491  25.299  1.00  0.00     0.005 A 
ATOM      8  C   UNL A   1      30.572  25.299  23.228  1.00  0.00     0.005 A 
ATOM      9  C   UNL A   1      30.641  25.356  26.016  1.00  0.00     0.022 A 
ATOM     10  C   UNL A   1      30.967  24.165  23.939  1.00  0.00     0.022 A 
ATOM     11  C   UNL A   1      30.939  24.173  25.334  1.00  0.00     0.087 A 
BRANCH  11  12
ATOM     12  S   UNL A   1      31.383  22.704  26.240  1.00  0.00     0.261 S 
ATOM     13  O   UNL A   1      31.874  23.115  27.537  1.00  0.00    -0.201 OA
ATOM     14  O   UNL A   1      30.275  21.778  26.126  1.00  0.00    -0.201 OA
BRANCH  12  15
ATOM     15  N   UNL A   1      32.622  22.008  25.349  1.00  0.00    -0.280 N 
ATOM     16  H   UNL A   1      33.478  22.493  25.332  1.00  0.00     0.180 HD
BRANCH  15  17
ATOM     17  C   UNL A   1      32.567  20.789  24.615  1.00  0.00     0.050 A 
ATOM     18  C   UNL A   1      32.213  20.869  23.263  1.00  0.00     0.027 A 
ATOM     19  C   UNL A   1      32.785  19.531  25.176  1.00  0.00     0.041 A 
ATOM     20  C   UNL A   1      32.152  19.719  22.467  1.00  0.00     0.003 A 
ATOM     21  C   UNL A   1      32.767  18.388  24.372  1.00  0.00     0.015 A 
ATOM     22  C   UNL A   1      32.452  18.476  23.018  1.00  0.00     0.015 A 
ATOM     23  I   UNL A   1      33.278  16.547  25.194  1.00  0.00    -0.044 I 
ENDBRANCH  15  17
ENDBRANCH  12  15
ENDBRANCH  11  12
ENDBRANCH   5   6
ENDBRANCH   4   5
ENDBRANCH   2   4
ENDBRANCH   1   2
BRANCH   1  24
ATOM     24  C   UNL A   1      32.237  29.729  25.458  1.00  0.00     0.274 C 
BRANCH  24  25
ATOM     25  C   UNL A   1      31.951  30.882  26.425  1.00  0.00     0.275 C 
BRANCH  25  26
ATOM     26  O   UNL A   1      32.818  30.853  27.566  1.00  0.00    -0.458 OA
BRANCH  26  27
ATOM     27  C   UNL A   1      33.618  31.944  27.662  1.00  0.00     0.338 C 
ATOM     28  O   UNL A   1      33.274  33.114  27.617  1.00  0.00    -0.246 OA
BRANCH  27  29
ATOM     29  C   UNL A   1      34.985  31.523  28.025  1.00  0.00     0.060 A 
ATOM     30  C   UNL A   1      35.201  30.153  28.212  1.00  0.00     0.016 A 
ATOM     31  C   UNL A   1      36.025  32.438  28.209  1.00  0.00     0.016 A 
ATOM     32  C   UNL A   1      36.440  29.700  28.657  1.00  0.00     0.010 A 
ATOM     33  C   UNL A   1      37.271  31.981  28.651  1.00  0.00     0.010 A 
ATOM     34  C   UNL A   1      37.468  30.615  28.923  1.00  0.00    -0.014 A 
BRANCH  34  35
ATOM     35  C   UNL A   1      38.671  30.142  29.653  1.00  0.00     0.031 A 
ATOM     36  C   UNL A   1      38.885  30.599  31.071  1.00  0.00     0.074 A 
ATOM     37  C   UNL A   1      39.515  29.255  29.098  1.00  0.00     0.049 A 
ATOM     38  N   UNL A   1      39.795  30.232  31.936  1.00  0.00    -0.248 NA
ATOM     39  C   UNL A   1      37.940  31.605  31.584  1.00  0.00     0.031 C 
ATOM     40  C   UNL A   1      39.404  28.716  27.745  1.00  0.00     0.029 A 
ATOM     41  N   UNL A   1      40.627  28.639  29.618  1.00  0.00    -0.354 N 
ATOM     42  C   UNL A   1      39.527  30.949  33.095  1.00  0.00     0.074 A 
ATOM     43  C   UNL A   1      38.401  31.811  32.807  1.00  0.00     0.031 C 
ATOM     44  C   UNL A   1      40.401  27.837  27.544  1.00  0.00     0.029 A 
ATOM     45  C   UNL A   1      41.229  27.764  28.748  1.00  0.00     0.049 A 
ATOM     46  H   UNL A   1      40.961  28.809  30.528  1.00  0.00     0.167 HD
ATOM     47  C   UNL A   1      40.147  30.882  34.297  1.00  0.00     0.037 A 
ATOM     48  C   UNL A   1      42.320  26.990  28.910  1.00  0.00     0.037 A 
ATOM     49  C   UNL A   1      41.269  30.030  34.585  1.00  0.00     0.049 A 
ATOM     50  C   UNL A   1      43.037  26.989  30.237  1.00  0.00     0.074 A 
ATOM     51  C   UNL A   1      41.952  29.873  35.777  1.00  0.00     0.029 A 
ATOM     52  N   UNL A   1      41.884  29.198  33.659  1.00  0.00    -0.354 N 
ATOM     53  N   UNL A   1      42.739  27.624  31.344  1.00  0.00    -0.248 NA
ATOM     54  C   UNL A   1      44.240  26.149  30.335  1.00  0.00     0.031 C 
ATOM     55  C   UNL A   1      43.016  28.991  35.560  1.00  0.00     0.029 A 
ATOM     56  C   UNL A   1      42.960  28.551  34.247  1.00  0.00     0.049 A 
ATOM     57  H   UNL A   1      41.598  29.084  32.724  1.00  0.00     0.167 HD
ATOM     58  C   UNL A   1      43.691  27.233  32.279  1.00  0.00     0.074 A 
ATOM     59  C   UNL A   1      44.569  26.296  31.612  1.00  0.00     0.031 C 
ATOM     60  C   UNL A   1      43.821  27.611  33.574  1.00  0.00     0.037 A 
BRANCH  47  61
ATOM     61  C   UNL A   1      39.633  31.777  35.388  1.00  0.00     0.064 A 
ATOM     62  C   UNL A   1      40.108  33.088  35.552  1.00  0.00     0.173 A 
ATOM     63  C   UNL A   1      38.642  31.323  36.270  1.00  0.00     0.173 A 
ATOM     64  F   UNL A   1      41.066  33.566  34.744  1.00  0.00    -0.203 F 
ATOM     65  C   UNL A   1      39.633  33.898  36.580  1.00  0.00     0.198 A 
ATOM     66  C   UNL A   1      38.147  32.147  37.278  1.00  0.00     0.198 A 
ATOM     67  F   UNL A   1      38.151  30.080  36.154  1.00  0.00    -0.203 F 
ATOM     68  F   UNL A   1      40.141  35.126  36.754  1.00  0.00    -0.200 F 
ATOM     69  C   UNL A   1      38.648  33.430  37.438  1.00  0.00     0.200 A 
ATOM     70  F   UNL A   1      37.188  31.697  38.098  1.00  0.00    -0.200 F 
ATOM     71  F   UNL A   1      38.191  34.210  38.426  1.00  0.00    -0.200 F 
ENDBRANCH  47  61
BRANCH  48  72
ATOM     72  C   UNL A   1      42.797  26.130  27.795  1.00  0.00     0.064 A 
ATOM     73  C   UNL A   1      43.764  26.590  26.889  1.00  0.00     0.173 A 
ATOM     74  C   UNL A   1      42.271  24.847  27.591  1.00  0.00     0.173 A 
ATOM     75  F   UNL A   1      44.277  27.821  27.026  1.00  0.00    -0.203 F 
ATOM     76  C   UNL A   1      44.169  25.807  25.810  1.00  0.00     0.198 A 
ATOM     77  C   UNL A   1      42.698  24.054  26.528  1.00  0.00     0.198 A 
ATOM     78  F   UNL A   1      41.341  24.362  28.427  1.00  0.00    -0.203 F 
ATOM     79  F   UNL A   1      45.055  26.293  24.929  1.00  0.00    -0.200 F 
ATOM     80  C   UNL A   1      43.640  24.538  25.633  1.00  0.00     0.200 A 
ATOM     81  F   UNL A   1      42.191  22.824  26.367  1.00  0.00    -0.200 F 
ATOM     82  F   UNL A   1      44.028  23.786  24.594  1.00  0.00    -0.200 F 
ENDBRANCH  48  72
BRANCH  60  83
ATOM     83  C   UNL A   1      44.929  26.981  34.372  1.00  0.00     0.064 A 
ATOM     84  C   UNL A   1      46.211  27.547  34.434  1.00  0.00     0.173 A 
ATOM     85  C   UNL A   1      44.691  25.813  35.114  1.00  0.00     0.173 A 
ATOM     86  F   UNL A   1      46.494  28.656  33.735  1.00  0.00    -0.203 F 
ATOM     87  C   UNL A   1      47.222  26.949  35.183  1.00  0.00     0.198 A 
ATOM     88  C   UNL A   1      45.695  25.237  35.887  1.00  0.00     0.198 A 
ATOM     89  F   UNL A   1      43.481  25.235  35.098  1.00  0.00    -0.203 F 
ATOM     90  F   UNL A   1      48.453  27.478  35.185  1.00  0.00    -0.200 F 
ATOM     91  C   UNL A   1      46.962  25.800  35.914  1.00  0.00     0.200 A 
ATOM     92  F   UNL A   1      45.437  24.135  36.607  1.00  0.00    -0.200 F 
ATOM     93  F   UNL A   1      47.935  25.230  36.639  1.00  0.00    -0.200 F 
ENDBRANCH  60  83
ENDBRANCH  34  35
ENDBRANCH  27  29
ENDBRANCH  26  27
ENDBRANCH  25  26
ENDBRANCH  24  25
ENDBRANCH   1  24
TORSDOF 16
ENDMDL
