MODEL 1
REMARK VINA RESULT:      -9.4      0.000      0.000
REMARK SMILES COc1cc(/C=C2/SC(=S)N(c3ccc(C)cc3C)C2=O)ccc1O[C@@H](C)C(=O)OCCOC(=O)c1ccc(-c2c3nc(c(-c4c(F)c(F)c(F)c(F)c4F)c4ccc([nH]4)c(-c4c(F)c(F)c(F)c(F)c4F)c4nc(c(-c5c(F)c(F)c(F)c(F)c5F)c5ccc2[nH]5)C=C4)C=C3)cc1
REMARK SMILES IDX 31 1 30 2 28 3 29 4 26 5 27 6 25 7 24 8 3 9 4 10 5 11 23 12
REMARK SMILES IDX 22 13 2 14 1 15 6 16 7 17 8 18 20 19 9 20 11 21 21 22 10 23
REMARK SMILES IDX 12 24 13 25 18 26 14 27 17 28 19 29 15 30 16 31 32 32 33 33
REMARK SMILES IDX 34 34 35 35 36 36 37 37 98 38 38 39 97 40 39 41 40 42 41 43
REMARK SMILES IDX 91 44 42 45 96 46 90 47 92 48 43 49 95 50 89 51 88 52 44 54
REMARK SMILES IDX 76 55 56 56 75 57 57 58 60 59 74 60 93 61 58 62 59 63 73 65
REMARK SMILES IDX 94 66 61 67 45 68 46 69 54 70 47 71 48 72 52 73 55 74 49 75
REMARK SMILES IDX 50 76 53 77 51 78 77 79 78 80 86 81 79 82 80 83 84 84 87 85
REMARK SMILES IDX 81 86 82 87 85 88 83 89 62 90 63 91 71 92 64 93 65 94 69 95
REMARK SMILES IDX 72 96 66 97 67 98 70 99 68 100
REMARK H PARENT 92 53 60 64
REMARK Flexibility Score: inf
ROOT
ATOM      1  C   UNL A   1      42.034  20.340  26.685  1.00  0.00     0.274 C 
ENDROOT
BRANCH   1   2
ATOM      2  O   UNL A   1      42.520  20.694  25.376  1.00  0.00    -0.459 OA
BRANCH   2   3
ATOM      3  C   UNL A   1      43.804  21.135  25.288  1.00  0.00     0.347 C 
ATOM      4  O   UNL A   1      44.795  20.422  25.418  1.00  0.00    -0.248 OA
BRANCH   3   5
ATOM      5  C   UNL A   1      43.862  22.637  24.902  1.00  0.00     0.279 C 
ATOM      6  C   UNL A   1      44.959  22.929  23.876  1.00  0.00     0.066 C 
BRANCH   5   7
ATOM      7  O   UNL A   1      43.806  23.748  25.767  1.00  0.00    -0.475 OA
BRANCH   7   8
ATOM      8  C   UNL A   1      44.031  23.695  27.104  1.00  0.00     0.162 A 
ATOM      9  C   UNL A   1      45.235  23.644  27.808  1.00  0.00     0.161 A 
ATOM     10  C   UNL A   1      45.229  23.445  29.195  1.00  0.00     0.058 A 
ATOM     11  C   UNL A   1      44.020  23.344  29.892  1.00  0.00    -0.020 A 
ATOM     12  C   UNL A   1      42.829  23.685  27.825  1.00  0.00     0.051 A 
ATOM     13  C   UNL A   1      42.818  23.520  29.207  1.00  0.00     0.012 A 
BRANCH   9  14
ATOM     14  O   UNL A   1      46.450  23.618  27.185  1.00  0.00    -0.493 OA
ATOM     15  C   UNL A   1      47.148  24.856  27.251  1.00  0.00     0.278 C 
ENDBRANCH   9  14
BRANCH  11  16
ATOM     16  C   UNL A   1      44.009  22.972  31.309  1.00  0.00     0.029 C 
ATOM     17  C   UNL A   1      44.152  23.845  32.320  1.00  0.00     0.081 C 
ATOM     18  S   UNL A   1      44.180  23.354  33.972  1.00  0.00    -0.054 SA
ATOM     19  C   UNL A   1      44.330  25.328  32.230  1.00  0.00     0.270 C 
ATOM     20  C   UNL A   1      44.439  24.997  34.562  1.00  0.00     0.152 C 
ATOM     21  N   UNL A   1      44.596  25.857  33.489  1.00  0.00    -0.261 N 
ATOM     22  O   UNL A   1      44.238  25.956  31.183  1.00  0.00    -0.268 OA
ATOM     23  S   UNL A   1      44.377  25.337  36.200  1.00  0.00    -0.051 S 
BRANCH  21  24
ATOM     24  C   UNL A   1      44.923  27.241  33.610  1.00  0.00     0.054 A 
ATOM     25  C   UNL A   1      46.263  27.602  33.827  1.00  0.00     0.027 A 
ATOM     26  C   UNL A   1      43.940  28.253  33.585  1.00  0.00    -0.027 A 
ATOM     27  C   UNL A   1      46.639  28.941  33.957  1.00  0.00     0.005 A 
ATOM     28  C   UNL A   1      44.340  29.599  33.695  1.00  0.00     0.009 A 
ATOM     29  C   UNL A   1      42.459  27.988  33.516  1.00  0.00     0.046 C 
ATOM     30  C   UNL A   1      45.682  29.951  33.880  1.00  0.00    -0.051 A 
ATOM     31  C   UNL A   1      46.092  31.386  34.031  1.00  0.00     0.044 C 
ENDBRANCH  21  24
ENDBRANCH  11  16
ENDBRANCH   7   8
ENDBRANCH   5   7
ENDBRANCH   3   5
ENDBRANCH   2   3
ENDBRANCH   1   2
BRANCH   1  32
ATOM     32  C   UNL A   1      40.619  20.884  26.871  1.00  0.00     0.275 C 
BRANCH  32  33
ATOM     33  O   UNL A   1      40.488  22.119  26.145  1.00  0.00    -0.458 OA
BRANCH  33  34
ATOM     34  C   UNL A   1      39.294  22.729  26.293  1.00  0.00     0.338 C 
ATOM     35  O   UNL A   1      38.173  22.245  26.197  1.00  0.00    -0.246 OA
BRANCH  34  36
ATOM     36  C   UNL A   1      39.522  24.089  26.773  1.00  0.00     0.060 A 
ATOM     37  C   UNL A   1      40.068  25.015  25.881  1.00  0.00     0.016 A 
ATOM     38  C   UNL A   1      39.291  24.422  28.104  1.00  0.00     0.016 A 
ATOM     39  C   UNL A   1      40.437  26.276  26.323  1.00  0.00     0.010 A 
ATOM     40  C   UNL A   1      39.641  25.698  28.547  1.00  0.00     0.010 A 
ATOM     41  C   UNL A   1      40.240  26.617  27.664  1.00  0.00    -0.014 A 
BRANCH  41  42
ATOM     42  C   UNL A   1      40.753  27.903  28.176  1.00  0.00     0.031 A 
ATOM     43  C   UNL A   1      42.234  28.114  28.251  1.00  0.00     0.074 A 
ATOM     44  C   UNL A   1      39.895  28.867  28.550  1.00  0.00     0.049 A 
ATOM     45  N   UNL A   1      42.907  29.077  28.824  1.00  0.00    -0.248 NA
ATOM     46  C   UNL A   1      43.072  27.096  27.596  1.00  0.00     0.031 C 
ATOM     47  C   UNL A   1      38.438  28.793  28.437  1.00  0.00     0.029 A 
ATOM     48  N   UNL A   1      40.128  30.096  29.108  1.00  0.00    -0.354 N 
ATOM     49  C   UNL A   1      44.244  28.763  28.633  1.00  0.00     0.074 A 
ATOM     50  C   UNL A   1      44.291  27.519  27.896  1.00  0.00     0.031 C 
ATOM     51  C   UNL A   1      37.905  29.929  28.914  1.00  0.00     0.029 A 
ATOM     52  C   UNL A   1      38.979  30.777  29.423  1.00  0.00     0.049 A 
ATOM     53  H   UNL A   1      41.031  30.455  29.269  1.00  0.00     0.167 HD
ATOM     54  C   UNL A   1      45.332  29.455  29.045  1.00  0.00     0.037 A 
ATOM     55  C   UNL A   1      38.819  31.936  30.088  1.00  0.00     0.037 A 
ATOM     56  C   UNL A   1      45.262  30.702  29.759  1.00  0.00     0.049 A 
ATOM     57  C   UNL A   1      40.040  32.654  30.594  1.00  0.00     0.074 A 
ATOM     58  C   UNL A   1      46.294  31.485  30.242  1.00  0.00     0.029 A 
ATOM     59  N   UNL A   1      44.079  31.351  30.087  1.00  0.00    -0.354 N 
ATOM     60  N   UNL A   1      41.303  32.328  30.463  1.00  0.00    -0.248 NA
ATOM     61  C   UNL A   1      39.811  33.890  31.353  1.00  0.00     0.031 C 
ATOM     62  C   UNL A   1      45.734  32.593  30.889  1.00  0.00     0.029 A 
ATOM     63  C   UNL A   1      44.355  32.521  30.774  1.00  0.00     0.049 A 
ATOM     64  H   UNL A   1      43.176  31.028  29.863  1.00  0.00     0.167 HD
ATOM     65  C   UNL A   1      42.023  33.327  31.103  1.00  0.00     0.074 A 
ATOM     66  C   UNL A   1      41.053  34.276  31.612  1.00  0.00     0.031 C 
ATOM     67  C   UNL A   1      43.365  33.450  31.258  1.00  0.00     0.037 A 
BRANCH  54  68
ATOM     68  C   UNL A   1      46.678  28.854  28.768  1.00  0.00     0.064 A 
ATOM     69  C   UNL A   1      47.304  27.989  29.676  1.00  0.00     0.173 A 
ATOM     70  C   UNL A   1      47.349  29.148  27.571  1.00  0.00     0.173 A 
ATOM     71  F   UNL A   1      46.714  27.693  30.844  1.00  0.00    -0.203 F 
ATOM     72  C   UNL A   1      48.565  27.460  29.408  1.00  0.00     0.198 A 
ATOM     73  C   UNL A   1      48.597  28.598  27.294  1.00  0.00     0.198 A 
ATOM     74  F   UNL A   1      46.793  29.971  26.668  1.00  0.00    -0.203 F 
ATOM     75  F   UNL A   1      49.168  26.675  30.312  1.00  0.00    -0.200 F 
ATOM     76  C   UNL A   1      49.209  27.761  28.215  1.00  0.00     0.200 A 
ATOM     77  F   UNL A   1      49.213  28.883  26.139  1.00  0.00    -0.200 F 
ATOM     78  F   UNL A   1      50.421  27.252  27.960  1.00  0.00    -0.200 F 
ENDBRANCH  54  68
BRANCH  55  79
ATOM     79  C   UNL A   1      37.453  32.466  30.333  1.00  0.00     0.064 A 
ATOM     80  C   UNL A   1      36.767  32.163  31.516  1.00  0.00     0.173 A 
ATOM     81  C   UNL A   1      36.812  33.294  29.398  1.00  0.00     0.173 A 
ATOM     82  F   UNL A   1      37.330  31.357  32.429  1.00  0.00    -0.203 F 
ATOM     83  C   UNL A   1      35.487  32.661  31.752  1.00  0.00     0.198 A 
ATOM     84  C   UNL A   1      35.544  33.812  29.647  1.00  0.00     0.198 A 
ATOM     85  F   UNL A   1      37.427  33.612  28.250  1.00  0.00    -0.203 F 
ATOM     86  F   UNL A   1      34.838  32.328  32.876  1.00  0.00    -0.200 F 
ATOM     87  C   UNL A   1      34.880  33.491  30.821  1.00  0.00     0.200 A 
ATOM     88  F   UNL A   1      34.966  34.623  28.750  1.00  0.00    -0.200 F 
ATOM     89  F   UNL A   1      33.653  33.976  31.053  1.00  0.00    -0.200 F 
ENDBRANCH  55  79
BRANCH  67  90
ATOM     90  C   UNL A   1      43.857  34.673  31.971  1.00  0.00     0.064 A 
ATOM     91  C   UNL A   1      44.040  34.687  33.360  1.00  0.00     0.173 A 
ATOM     92  C   UNL A   1      44.185  35.829  31.247  1.00  0.00     0.173 A 
ATOM     93  F   UNL A   1      43.724  33.609  34.095  1.00  0.00    -0.203 F 
ATOM     94  C   UNL A   1      44.518  35.825  34.003  1.00  0.00     0.198 A 
ATOM     95  C   UNL A   1      44.686  36.955  31.890  1.00  0.00     0.198 A 
ATOM     96  F   UNL A   1      44.030  35.859  29.915  1.00  0.00    -0.203 F 
ATOM     97  F   UNL A   1      44.649  35.833  35.337  1.00  0.00    -0.200 F 
ATOM     98  C   UNL A   1      44.847  36.955  33.268  1.00  0.00     0.200 A 
ATOM     99  F   UNL A   1      45.012  38.042  31.178  1.00  0.00    -0.200 F 
ATOM    100  F   UNL A   1      45.312  38.047  33.889  1.00  0.00    -0.200 F 
ENDBRANCH  67  90
ENDBRANCH  41  42
ENDBRANCH  34  36
ENDBRANCH  33  34
ENDBRANCH  32  33
ENDBRANCH   1  32
TORSDOF 16
ENDMDL
MODEL 2
REMARK VINA RESULT:      -9.2      6.163     11.970
REMARK SMILES COc1cc(/C=C2/SC(=S)N(c3ccc(C)cc3C)C2=O)ccc1O[C@@H](C)C(=O)OCCOC(=O)c1ccc(-c2c3nc(c(-c4c(F)c(F)c(F)c(F)c4F)c4ccc([nH]4)c(-c4c(F)c(F)c(F)c(F)c4F)c4nc(c(-c5c(F)c(F)c(F)c(F)c5F)c5ccc2[nH]5)C=C4)C=C3)cc1
REMARK SMILES IDX 31 1 30 2 28 3 29 4 26 5 27 6 25 7 24 8 3 9 4 10 5 11 23 12
REMARK SMILES IDX 22 13 2 14 1 15 6 16 7 17 8 18 20 19 9 20 11 21 21 22 10 23
REMARK SMILES IDX 12 24 13 25 18 26 14 27 17 28 19 29 15 30 16 31 32 32 33 33
REMARK SMILES IDX 34 34 35 35 36 36 37 37 98 38 38 39 97 40 39 41 40 42 41 43
REMARK SMILES IDX 91 44 42 45 96 46 90 47 92 48 43 49 95 50 89 51 88 52 44 54
REMARK SMILES IDX 76 55 56 56 75 57 57 58 60 59 74 60 93 61 58 62 59 63 73 65
REMARK SMILES IDX 94 66 61 67 45 68 46 69 54 70 47 71 48 72 52 73 55 74 49 75
REMARK SMILES IDX 50 76 53 77 51 78 77 79 78 80 86 81 79 82 80 83 84 84 87 85
REMARK SMILES IDX 81 86 82 87 85 88 83 89 62 90 63 91 71 92 64 93 65 94 69 95
REMARK SMILES IDX 72 96 66 97 67 98 70 99 68 100
REMARK H PARENT 92 53 60 64
REMARK Flexibility Score: inf
ROOT
ATOM      1  C   UNL A   1      33.285  33.772  28.008  1.00  0.00     0.274 C 
ENDROOT
BRANCH   1   2
ATOM      2  O   UNL A   1      33.877  32.631  28.659  1.00  0.00    -0.459 OA
BRANCH   2   3
ATOM      3  C   UNL A   1      34.788  31.912  27.949  1.00  0.00     0.347 C 
ATOM      4  O   UNL A   1      35.988  32.163  27.903  1.00  0.00    -0.248 OA
BRANCH   3   5
ATOM      5  C   UNL A   1      34.134  30.674  27.279  1.00  0.00     0.279 C 
ATOM      6  C   UNL A   1      34.981  29.410  27.448  1.00  0.00     0.066 C 
BRANCH   5   7
ATOM      7  O   UNL A   1      33.543  30.600  26.002  1.00  0.00    -0.475 OA
BRANCH   7   8
ATOM      8  C   UNL A   1      32.750  29.585  25.578  1.00  0.00     0.162 A 
ATOM      9  C   UNL A   1      31.781  28.856  26.270  1.00  0.00     0.161 A 
ATOM     10  C   UNL A   1      31.179  27.742  25.670  1.00  0.00     0.058 A 
ATOM     11  C   UNL A   1      31.506  27.380  24.358  1.00  0.00    -0.020 A 
ATOM     12  C   UNL A   1      32.999  29.267  24.236  1.00  0.00     0.051 A 
ATOM     13  C   UNL A   1      32.380  28.181  23.624  1.00  0.00     0.012 A 
BRANCH   9  14
ATOM     14  O   UNL A   1      31.496  29.079  27.587  1.00  0.00    -0.493 OA
ATOM     15  C   UNL A   1      31.403  27.887  28.358  1.00  0.00     0.278 C 
ENDBRANCH   9  14
BRANCH  11  16
ATOM     16  C   UNL A   1      31.005  26.127  23.788  1.00  0.00     0.029 C 
ATOM     17  C   UNL A   1      31.658  24.954  23.852  1.00  0.00     0.081 C 
ATOM     18  S   UNL A   1      31.050  23.515  23.125  1.00  0.00    -0.054 SA
ATOM     19  C   UNL A   1      32.975  24.675  24.506  1.00  0.00     0.270 C 
ATOM     20  C   UNL A   1      32.451  22.556  23.611  1.00  0.00     0.152 C 
ATOM     21  N   UNL A   1      33.384  23.375  24.224  1.00  0.00    -0.261 N 
ATOM     22  O   UNL A   1      33.574  25.492  25.193  1.00  0.00    -0.268 OA
ATOM     23  S   UNL A   1      32.469  20.897  23.393  1.00  0.00    -0.051 S 
BRANCH  21  24
ATOM     24  C   UNL A   1      34.676  22.943  24.648  1.00  0.00     0.054 A 
ATOM     25  C   UNL A   1      35.743  23.007  23.736  1.00  0.00     0.027 A 
ATOM     26  C   UNL A   1      34.905  22.393  25.927  1.00  0.00    -0.027 A 
ATOM     27  C   UNL A   1      37.027  22.593  24.095  1.00  0.00     0.005 A 
ATOM     28  C   UNL A   1      36.212  22.002  26.280  1.00  0.00     0.009 A 
ATOM     29  C   UNL A   1      33.820  22.126  26.937  1.00  0.00     0.046 C 
ATOM     30  C   UNL A   1      37.275  22.099  25.375  1.00  0.00    -0.051 A 
ATOM     31  C   UNL A   1      38.655  21.646  25.751  1.00  0.00     0.044 C 
ENDBRANCH  21  24
ENDBRANCH  11  16
ENDBRANCH   7   8
ENDBRANCH   5   7
ENDBRANCH   3   5
ENDBRANCH   2   3
ENDBRANCH   1   2
BRANCH   1  32
ATOM     32  C   UNL A   1      33.458  35.009  28.886  1.00  0.00     0.275 C 
BRANCH  32  33
ATOM     33  O   UNL A   1      32.514  34.958  29.969  1.00  0.00    -0.458 OA
BRANCH  33  34
ATOM     34  C   UNL A   1      32.877  35.665  31.059  1.00  0.00     0.338 C 
ATOM     35  O   UNL A   1      32.360  36.675  31.520  1.00  0.00    -0.246 OA
BRANCH  34  36
ATOM     36  C   UNL A   1      33.931  34.936  31.757  1.00  0.00     0.060 A 
ATOM     37  C   UNL A   1      35.206  35.506  31.796  1.00  0.00     0.016 A 
ATOM     38  C   UNL A   1      33.693  33.670  32.284  1.00  0.00     0.016 A 
ATOM     39  C   UNL A   1      36.273  34.793  32.319  1.00  0.00     0.010 A 
ATOM     40  C   UNL A   1      34.761  32.959  32.831  1.00  0.00     0.010 A 
ATOM     41  C   UNL A   1      36.058  33.508  32.824  1.00  0.00    -0.014 A 
BRANCH  41  42
ATOM     42  C   UNL A   1      37.207  32.688  33.257  1.00  0.00     0.031 A 
ATOM     43  C   UNL A   1      37.818  32.950  34.599  1.00  0.00     0.074 A 
ATOM     44  C   UNL A   1      37.677  31.715  32.459  1.00  0.00     0.049 A 
ATOM     45  N   UNL A   1      38.927  32.485  35.111  1.00  0.00    -0.248 NA
ATOM     46  C   UNL A   1      37.080  33.866  35.485  1.00  0.00     0.031 C 
ATOM     47  C   UNL A   1      37.100  31.325  31.173  1.00  0.00     0.029 A 
ATOM     48  N   UNL A   1      38.754  30.883  32.613  1.00  0.00    -0.354 N 
ATOM     49  C   UNL A   1      39.042  33.081  36.359  1.00  0.00     0.074 A 
ATOM     50  C   UNL A   1      37.893  33.944  36.529  1.00  0.00     0.031 C 
ATOM     51  C   UNL A   1      37.833  30.328  30.651  1.00  0.00     0.029 A 
ATOM     52  C   UNL A   1      38.962  30.058  31.536  1.00  0.00     0.049 A 
ATOM     53  H   UNL A   1      39.323  30.877  33.416  1.00  0.00     0.167 HD
ATOM     54  C   UNL A   1      40.026  32.920  37.275  1.00  0.00     0.037 A 
ATOM     55  C   UNL A   1      39.978  29.213  31.281  1.00  0.00     0.037 A 
ATOM     56  C   UNL A   1      41.149  32.040  37.093  1.00  0.00     0.049 A 
ATOM     57  C   UNL A   1      41.094  29.101  32.283  1.00  0.00     0.074 A 
ATOM     58  C   UNL A   1      42.215  31.807  37.942  1.00  0.00     0.029 A 
ATOM     59  N   UNL A   1      41.343  31.239  35.976  1.00  0.00    -0.354 N 
ATOM     60  N   UNL A   1      41.231  29.706  33.438  1.00  0.00    -0.248 NA
ATOM     61  C   UNL A   1      42.202  28.202  31.939  1.00  0.00     0.031 C 
ATOM     62  C   UNL A   1      43.071  30.887  37.325  1.00  0.00     0.029 A 
ATOM     63  C   UNL A   1      42.517  30.517  36.109  1.00  0.00     0.049 A 
ATOM     64  H   UNL A   1      40.736  31.190  35.203  1.00  0.00     0.167 HD
ATOM     65  C   UNL A   1      42.427  29.247  33.970  1.00  0.00     0.074 A 
ATOM     66  C   UNL A   1      42.971  28.304  33.014  1.00  0.00     0.031 C 
ATOM     67  C   UNL A   1      43.024  29.576  35.142  1.00  0.00     0.037 A 
BRANCH  54  68
ATOM     68  C   UNL A   1      39.945  33.743  38.525  1.00  0.00     0.064 A 
ATOM     69  C   UNL A   1      40.641  34.952  38.663  1.00  0.00     0.173 A 
ATOM     70  C   UNL A   1      39.154  33.314  39.602  1.00  0.00     0.173 A 
ATOM     71  F   UNL A   1      41.427  35.396  37.671  1.00  0.00    -0.203 F 
ATOM     72  C   UNL A   1      40.570  35.689  39.844  1.00  0.00     0.198 A 
ATOM     73  C   UNL A   1      39.063  34.065  40.771  1.00  0.00     0.198 A 
ATOM     74  F   UNL A   1      38.468  32.164  39.522  1.00  0.00    -0.203 F 
ATOM     75  F   UNL A   1      41.283  36.816  39.973  1.00  0.00    -0.200 F 
ATOM     76  C   UNL A   1      39.777  35.248  40.895  1.00  0.00     0.200 A 
ATOM     77  F   UNL A   1      38.292  33.642  41.781  1.00  0.00    -0.200 F 
ATOM     78  F   UNL A   1      39.711  35.958  42.029  1.00  0.00    -0.200 F 
ENDBRANCH  54  68
BRANCH  55  79
ATOM     79  C   UNL A   1      39.994  28.437  30.015  1.00  0.00     0.064 A 
ATOM     80  C   UNL A   1      40.614  28.947  28.868  1.00  0.00     0.173 A 
ATOM     81  C   UNL A   1      39.404  27.167  29.930  1.00  0.00     0.173 A 
ATOM     82  F   UNL A   1      41.172  30.167  28.894  1.00  0.00    -0.203 F 
ATOM     83  C   UNL A   1      40.636  28.221  27.678  1.00  0.00     0.198 A 
ATOM     84  C   UNL A   1      39.449  26.430  28.748  1.00  0.00     0.198 A 
ATOM     85  F   UNL A   1      38.798  26.634  31.000  1.00  0.00    -0.203 F 
ATOM     86  F   UNL A   1      41.204  28.746  26.584  1.00  0.00    -0.200 F 
ATOM     87  C   UNL A   1      40.060  26.960  27.622  1.00  0.00     0.200 A 
ATOM     88  F   UNL A   1      38.902  25.208  28.702  1.00  0.00    -0.200 F 
ATOM     89  F   UNL A   1      40.089  26.259  26.481  1.00  0.00    -0.200 F 
ENDBRANCH  55  79
BRANCH  67  90
ATOM     90  C   UNL A   1      44.310  28.878  35.468  1.00  0.00     0.064 A 
ATOM     91  C   UNL A   1      45.548  29.391  35.057  1.00  0.00     0.173 A 
ATOM     92  C   UNL A   1      44.301  27.704  36.236  1.00  0.00     0.173 A 
ATOM     93  F   UNL A   1      45.603  30.502  34.307  1.00  0.00    -0.203 F 
ATOM     94  C   UNL A   1      46.733  28.740  35.387  1.00  0.00     0.198 A 
ATOM     95  C   UNL A   1      45.490  27.071  36.585  1.00  0.00     0.198 A 
ATOM     96  F   UNL A   1      43.140  27.179  36.656  1.00  0.00    -0.203 F 
ATOM     97  F   UNL A   1      47.904  29.224  34.949  1.00  0.00    -0.200 F 
ATOM     98  C   UNL A   1      46.704  27.585  36.155  1.00  0.00     0.200 A 
ATOM     99  F   UNL A   1      45.460  25.961  37.335  1.00  0.00    -0.200 F 
ATOM    100  F   UNL A   1      47.846  26.964  36.476  1.00  0.00    -0.200 F 
ENDBRANCH  67  90
ENDBRANCH  41  42
ENDBRANCH  34  36
ENDBRANCH  33  34
ENDBRANCH  32  33
ENDBRANCH   1  32
TORSDOF 16
ENDMDL
MODEL 3
REMARK VINA RESULT:      -8.8      0.914      7.053
REMARK SMILES COc1cc(/C=C2/SC(=S)N(c3ccc(C)cc3C)C2=O)ccc1O[C@@H](C)C(=O)OCCOC(=O)c1ccc(-c2c3nc(c(-c4c(F)c(F)c(F)c(F)c4F)c4ccc([nH]4)c(-c4c(F)c(F)c(F)c(F)c4F)c4nc(c(-c5c(F)c(F)c(F)c(F)c5F)c5ccc2[nH]5)C=C4)C=C3)cc1
REMARK SMILES IDX 31 1 30 2 28 3 29 4 26 5 27 6 25 7 24 8 3 9 4 10 5 11 23 12
REMARK SMILES IDX 22 13 2 14 1 15 6 16 7 17 8 18 20 19 9 20 11 21 21 22 10 23
REMARK SMILES IDX 12 24 13 25 18 26 14 27 17 28 19 29 15 30 16 31 32 32 33 33
REMARK SMILES IDX 34 34 35 35 36 36 37 37 98 38 38 39 97 40 39 41 40 42 41 43
REMARK SMILES IDX 91 44 42 45 96 46 90 47 92 48 43 49 95 50 89 51 88 52 44 54
REMARK SMILES IDX 76 55 56 56 75 57 57 58 60 59 74 60 93 61 58 62 59 63 73 65
REMARK SMILES IDX 94 66 61 67 45 68 46 69 54 70 47 71 48 72 52 73 55 74 49 75
REMARK SMILES IDX 50 76 53 77 51 78 77 79 78 80 86 81 79 82 80 83 84 84 87 85
REMARK SMILES IDX 81 86 82 87 85 88 83 89 62 90 63 91 71 92 64 93 65 94 69 95
REMARK SMILES IDX 72 96 66 97 67 98 70 99 68 100
REMARK H PARENT 92 53 60 64
REMARK Flexibility Score: inf
ROOT
ATOM      1  C   UNL A   1      41.563  20.252  26.424  1.00  0.00     0.274 C 
ENDROOT
BRANCH   1   2
ATOM      2  O   UNL A   1      42.256  20.984  25.396  1.00  0.00    -0.459 OA
BRANCH   2   3
ATOM      3  C   UNL A   1      43.612  20.870  25.357  1.00  0.00     0.347 C 
ATOM      4  O   UNL A   1      44.224  19.814  25.487  1.00  0.00    -0.248 OA
BRANCH   3   5
ATOM      5  C   UNL A   1      44.286  22.229  25.029  1.00  0.00     0.279 C 
ATOM      6  C   UNL A   1      45.766  22.069  24.675  1.00  0.00     0.066 C 
BRANCH   5   7
ATOM      7  O   UNL A   1      44.164  23.440  25.738  1.00  0.00    -0.475 OA
BRANCH   7   8
ATOM      8  C   UNL A   1      44.297  23.562  27.083  1.00  0.00     0.162 A 
ATOM      9  C   UNL A   1      45.448  23.698  27.861  1.00  0.00     0.161 A 
ATOM     10  C   UNL A   1      45.358  23.662  29.259  1.00  0.00     0.058 A 
ATOM     11  C   UNL A   1      44.113  23.537  29.887  1.00  0.00    -0.020 A 
ATOM     12  C   UNL A   1      43.051  23.531  27.724  1.00  0.00     0.051 A 
ATOM     13  C   UNL A   1      42.953  23.527  29.113  1.00  0.00     0.012 A 
BRANCH   9  14
ATOM     14  O   UNL A   1      46.702  23.707  27.321  1.00  0.00    -0.493 OA
ATOM     15  C   UNL A   1      47.104  24.983  26.838  1.00  0.00     0.278 C 
ENDBRANCH   9  14
BRANCH  11  16
ATOM     16  C   UNL A   1      44.030  23.332  31.335  1.00  0.00     0.029 C 
ATOM     17  C   UNL A   1      44.156  24.313  32.245  1.00  0.00     0.081 C 
ATOM     18  S   UNL A   1      44.097  24.016  33.941  1.00  0.00    -0.054 SA
ATOM     19  C   UNL A   1      44.382  25.771  31.993  1.00  0.00     0.270 C 
ATOM     20  C   UNL A   1      44.380  25.710  34.351  1.00  0.00     0.152 C 
ATOM     21  N   UNL A   1      44.608  26.436  33.194  1.00  0.00    -0.261 N 
ATOM     22  O   UNL A   1      44.353  26.276  30.878  1.00  0.00    -0.268 OA
ATOM     23  S   UNL A   1      44.257  26.239  35.934  1.00  0.00    -0.051 S 
BRANCH  21  24
ATOM     24  C   UNL A   1      44.971  27.816  33.171  1.00  0.00     0.054 A 
ATOM     25  C   UNL A   1      46.324  28.161  33.321  1.00  0.00     0.027 A 
ATOM     26  C   UNL A   1      44.011  28.845  33.068  1.00  0.00    -0.027 A 
ATOM     27  C   UNL A   1      46.735  29.496  33.311  1.00  0.00     0.005 A 
ATOM     28  C   UNL A   1      44.447  30.185  33.036  1.00  0.00     0.009 A 
ATOM     29  C   UNL A   1      42.524  28.614  33.058  1.00  0.00     0.046 C 
ATOM     30  C   UNL A   1      45.800  30.519  33.155  1.00  0.00    -0.051 A 
ATOM     31  C   UNL A   1      46.248  31.951  33.154  1.00  0.00     0.044 C 
ENDBRANCH  21  24
ENDBRANCH  11  16
ENDBRANCH   7   8
ENDBRANCH   5   7
ENDBRANCH   3   5
ENDBRANCH   2   3
ENDBRANCH   1   2
BRANCH   1  32
ATOM     32  C   UNL A   1      40.398  21.087  26.951  1.00  0.00     0.275 C 
BRANCH  32  33
ATOM     33  O   UNL A   1      40.223  22.239  26.109  1.00  0.00    -0.458 OA
BRANCH  33  34
ATOM     34  C   UNL A   1      39.100  22.946  26.356  1.00  0.00     0.338 C 
ATOM     35  O   UNL A   1      37.936  22.569  26.312  1.00  0.00    -0.246 OA
BRANCH  34  36
ATOM     36  C   UNL A   1      39.480  24.257  26.874  1.00  0.00     0.060 A 
ATOM     37  C   UNL A   1      40.041  25.175  25.984  1.00  0.00     0.016 A 
ATOM     38  C   UNL A   1      39.373  24.544  28.232  1.00  0.00     0.016 A 
ATOM     39  C   UNL A   1      40.549  26.378  26.450  1.00  0.00     0.010 A 
ATOM     40  C   UNL A   1      39.864  25.763  28.700  1.00  0.00     0.010 A 
ATOM     41  C   UNL A   1      40.478  26.669  27.815  1.00  0.00    -0.014 A 
BRANCH  41  42
ATOM     42  C   UNL A   1      41.136  27.881  28.342  1.00  0.00     0.031 A 
ATOM     43  C   UNL A   1      40.288  28.971  28.923  1.00  0.00     0.074 A 
ATOM     44  C   UNL A   1      42.475  27.987  28.309  1.00  0.00     0.049 A 
ATOM     45  N   UNL A   1      40.623  30.184  29.278  1.00  0.00    -0.248 NA
ATOM     46  C   UNL A   1      38.866  28.652  29.129  1.00  0.00     0.031 C 
ATOM     47  C   UNL A   1      43.393  26.949  27.842  1.00  0.00     0.029 A 
ATOM     48  N   UNL A   1      43.293  29.024  28.671  1.00  0.00    -0.354 N 
ATOM     49  C   UNL A   1      39.450  30.785  29.710  1.00  0.00     0.074 A 
ATOM     50  C   UNL A   1      38.392  29.807  29.571  1.00  0.00     0.031 C 
ATOM     51  C   UNL A   1      44.653  27.403  27.943  1.00  0.00     0.029 A 
ATOM     52  C   UNL A   1      44.620  28.782  28.420  1.00  0.00     0.049 A 
ATOM     53  H   UNL A   1      42.962  29.861  29.071  1.00  0.00     0.167 HD
ATOM     54  C   UNL A   1      39.278  32.044  30.175  1.00  0.00     0.037 A 
ATOM     55  C   UNL A   1      45.681  29.604  28.525  1.00  0.00     0.037 A 
ATOM     56  C   UNL A   1      40.350  32.993  30.324  1.00  0.00     0.049 A 
ATOM     57  C   UNL A   1      45.456  31.020  28.981  1.00  0.00     0.074 A 
ATOM     58  C   UNL A   1      40.295  34.301  30.770  1.00  0.00     0.029 A 
ATOM     59  N   UNL A   1      41.680  32.723  30.034  1.00  0.00    -0.354 N 
ATOM     60  N   UNL A   1      44.338  31.606  29.336  1.00  0.00    -0.248 NA
ATOM     61  C   UNL A   1      46.637  31.891  29.035  1.00  0.00     0.031 C 
ATOM     62  C   UNL A   1      41.588  34.833  30.719  1.00  0.00     0.029 A 
ATOM     63  C   UNL A   1      42.456  33.844  30.281  1.00  0.00     0.049 A 
ATOM     64  H   UNL A   1      42.024  31.862  29.702  1.00  0.00     0.167 HD
ATOM     65  C   UNL A   1      44.681  32.906  29.677  1.00  0.00     0.074 A 
ATOM     66  C   UNL A   1      46.114  33.019  29.495  1.00  0.00     0.031 C 
ATOM     67  C   UNL A   1      43.883  33.918  30.100  1.00  0.00     0.037 A 
BRANCH  54  68
ATOM     68  C   UNL A   1      37.881  32.470  30.512  1.00  0.00     0.064 A 
ATOM     69  C   UNL A   1      37.067  33.140  29.587  1.00  0.00     0.173 A 
ATOM     70  C   UNL A   1      37.348  32.200  31.782  1.00  0.00     0.173 A 
ATOM     71  F   UNL A   1      37.537  33.440  28.367  1.00  0.00    -0.203 F 
ATOM     72  C   UNL A   1      35.780  33.547  29.930  1.00  0.00     0.198 A 
ATOM     73  C   UNL A   1      36.051  32.586  32.113  1.00  0.00     0.198 A 
ATOM     74  F   UNL A   1      38.085  31.563  32.704  1.00  0.00    -0.203 F 
ATOM     75  F   UNL A   1      35.037  34.230  29.047  1.00  0.00    -0.200 F 
ATOM     76  C   UNL A   1      35.271  33.266  31.190  1.00  0.00     0.200 A 
ATOM     77  F   UNL A   1      35.559  32.306  33.327  1.00  0.00    -0.200 F 
ATOM     78  F   UNL A   1      34.033  33.659  31.517  1.00  0.00    -0.200 F 
ENDBRANCH  54  68
BRANCH  55  79
ATOM     79  C   UNL A   1      47.035  29.114  28.165  1.00  0.00     0.064 A 
ATOM     80  C   UNL A   1      47.930  28.685  29.154  1.00  0.00     0.173 A 
ATOM     81  C   UNL A   1      47.459  29.051  26.828  1.00  0.00     0.173 A 
ATOM     82  F   UNL A   1      47.580  28.747  30.447  1.00  0.00    -0.203 F 
ATOM     83  C   UNL A   1      49.202  28.220  28.821  1.00  0.00     0.198 A 
ATOM     84  C   UNL A   1      48.719  28.562  26.495  1.00  0.00     0.198 A 
ATOM     85  F   UNL A   1      46.639  29.451  25.845  1.00  0.00    -0.203 F 
ATOM     86  F   UNL A   1      50.052  27.850  29.788  1.00  0.00    -0.200 F 
ATOM     87  C   UNL A   1      49.592  28.152  27.491  1.00  0.00     0.200 A 
ATOM     88  F   UNL A   1      49.088  28.487  25.208  1.00  0.00    -0.200 F 
ATOM     89  F   UNL A   1      50.811  27.698  27.172  1.00  0.00    -0.200 F 
ENDBRANCH  55  79
BRANCH  67  90
ATOM     90  C   UNL A   1      44.554  35.217  30.434  1.00  0.00     0.064 A 
ATOM     91  C   UNL A   1      44.984  35.506  31.736  1.00  0.00     0.173 A 
ATOM     92  C   UNL A   1      44.803  36.162  29.428  1.00  0.00     0.173 A 
ATOM     93  F   UNL A   1      44.752  34.638  32.733  1.00  0.00    -0.203 F 
ATOM     94  C   UNL A   1      45.624  36.708  32.023  1.00  0.00     0.198 A 
ATOM     95  C   UNL A   1      45.465  37.351  29.714  1.00  0.00     0.198 A 
ATOM     96  F   UNL A   1      44.413  35.926  28.166  1.00  0.00    -0.203 F 
ATOM     97  F   UNL A   1      45.991  36.984  33.282  1.00  0.00    -0.200 F 
ATOM     98  C   UNL A   1      45.869  37.626  31.012  1.00  0.00     0.200 A 
ATOM     99  F   UNL A   1      45.710  38.232  28.735  1.00  0.00    -0.200 F 
ATOM    100  F   UNL A   1      46.491  38.780  31.290  1.00  0.00    -0.200 F 
ENDBRANCH  67  90
ENDBRANCH  41  42
ENDBRANCH  34  36
ENDBRANCH  33  34
ENDBRANCH  32  33
ENDBRANCH   1  32
TORSDOF 16
ENDMDL
