MODEL 1
REMARK VINA RESULT:     -11.9      0.000      0.000
REMARK SMILES CCCC[C@@H](C(=O)OCCOC(=O)c1ccc(-c2c3nc(c(-c4c(F)c(F)c(F)c(F)c4F)c4ccc([nH]4)c(-c4c(F)c(F)c(F)c(F)c4F)c4nc(c(-c5c(F)c(F)c(F)c(F)c5F)c5ccc2[nH]5)C=C4)C=C3)cc1)C1(O)Cc2ccccc2C1
REMARK SMILES IDX 9 1 8 2 6 3 7 4 5 5 4 6 3 7 2 8 1 9 77 10 79 11 86 12 80 13
REMARK SMILES IDX 85 14 81 15 84 16 82 17 83 18 78 19 10 21 11 22 12 23 13 24
REMARK SMILES IDX 14 25 15 26 76 27 16 28 75 29 17 30 18 31 19 32 69 33 20 34
REMARK SMILES IDX 74 35 68 36 70 37 21 38 73 39 67 40 66 41 22 43 54 44 34 45
REMARK SMILES IDX 53 46 35 47 38 48 52 49 71 50 36 51 37 52 51 54 72 55 39 56
REMARK SMILES IDX 23 57 24 58 32 59 25 60 26 61 30 62 33 63 27 64 28 65 31 66
REMARK SMILES IDX 29 67 55 68 56 69 64 70 57 71 58 72 62 73 65 74 59 75 60 76
REMARK SMILES IDX 63 77 61 78 40 79 41 80 49 81 42 82 43 83 47 84 50 85 44 86
REMARK SMILES IDX 45 87 48 88 46 89
REMARK H PARENT 78 20 70 42 38 53
REMARK Flexibility Score: inf
ROOT
ATOM      1  C   UNL A   1      31.168  27.732  24.297  1.00  0.00     0.274 C 
ENDROOT
BRANCH   1   2
ATOM      2  O   UNL A   1      32.158  26.972  25.069  1.00  0.00    -0.462 OA
BRANCH   2   3
ATOM      3  C   UNL A   1      31.898  25.771  25.690  1.00  0.00     0.312 C 
ATOM      4  O   UNL A   1      31.060  25.608  26.571  1.00  0.00    -0.252 OA
BRANCH   3   5
ATOM      5  C   UNL A   1      32.748  24.632  25.099  1.00  0.00     0.131 C 
BRANCH   5   6
ATOM      6  C   UNL A   1      34.258  25.094  25.410  1.00  0.00     0.018 C 
BRANCH   6   7
ATOM      7  C   UNL A   1      35.391  24.083  25.620  1.00  0.00     0.001 C 
BRANCH   7   8
ATOM      8  C   UNL A   1      36.076  23.597  24.370  1.00  0.00    -0.003 C 
ATOM      9  C   UNL A   1      36.143  22.083  24.344  1.00  0.00     0.004 C 
ENDBRANCH   7   8
ENDBRANCH   6   7
ENDBRANCH   5   6
BRANCH   5  10
ATOM     10  C   UNL A   1      32.659  24.029  23.529  1.00  0.00     0.086 C 
ATOM     11  C   UNL A   1      33.071  22.742  22.392  1.00  0.00     0.072 C 
ATOM     12  C   UNL A   1      31.322  23.436  23.559  1.00  0.00     0.072 C 
ATOM     13  C   UNL A   1      31.893  21.236  22.431  1.00  0.00    -0.042 A 
ATOM     14  C   UNL A   1      31.897  22.098  23.945  1.00  0.00    -0.042 A 
ATOM     15  C   UNL A   1      32.278  19.231  22.513  1.00  0.00     0.004 A 
ATOM     16  C   UNL A   1      32.676  21.271  25.298  1.00  0.00     0.004 A 
ATOM     17  C   UNL A   1      32.819  18.476  24.033  1.00  0.00     0.000 A 
ATOM     18  C   UNL A   1      33.047  19.519  25.377  1.00  0.00     0.000 A 
BRANCH  10  19
ATOM     19  O   UNL A   1      32.934  25.183  22.724  1.00  0.00    -0.388 OA
ATOM     20  H   UNL A   1      32.112  25.675  22.571  1.00  0.00     0.211 HD
ENDBRANCH  10  19
ENDBRANCH   5  10
ENDBRANCH   3   5
ENDBRANCH   2   3
ENDBRANCH   1   2
BRANCH   1  21
ATOM     21  C   UNL A   1      31.357  29.257  24.611  1.00  0.00     0.275 C 
BRANCH  21  22
ATOM     22  O   UNL A   1      31.841  29.505  25.973  1.00  0.00    -0.458 OA
BRANCH  22  23
ATOM     23  C   UNL A   1      32.125  30.790  26.377  1.00  0.00     0.338 C 
ATOM     24  O   UNL A   1      31.361  31.723  26.136  1.00  0.00    -0.246 OA
BRANCH  23  25
ATOM     25  C   UNL A   1      33.451  31.034  27.381  1.00  0.00     0.060 A 
ATOM     26  C   UNL A   1      34.705  32.582  27.831  1.00  0.00     0.016 A 
ATOM     27  C   UNL A   1      34.083  29.385  27.665  1.00  0.00     0.016 A 
ATOM     28  C   UNL A   1      36.317  32.205  28.550  1.00  0.00     0.010 A 
ATOM     29  C   UNL A   1      35.687  29.188  28.340  1.00  0.00     0.010 A 
ATOM     30  C   UNL A   1      36.774  30.522  28.792  1.00  0.00    -0.014 A 
BRANCH  30  31
ATOM     31  C   UNL A   1      38.039  30.248  29.575  1.00  0.00     0.031 A 
ATOM     32  C   UNL A   1      39.186  29.481  28.971  1.00  0.00     0.074 A 
ATOM     33  C   UNL A   1      38.160  30.637  30.866  1.00  0.00     0.049 A 
ATOM     34  N   UNL A   1      40.133  28.815  29.585  1.00  0.00    -0.248 NA
ATOM     35  C   UNL A   1      39.222  29.340  27.513  1.00  0.00     0.031 C 
ATOM     36  C   UNL A   1      37.117  31.248  31.684  1.00  0.00     0.029 A 
ATOM     37  N   UNL A   1      39.235  30.633  31.725  1.00  0.00    -0.354 N 
ATOM     38  C   UNL A   1      40.750  28.046  28.606  1.00  0.00     0.074 A 
ATOM     39  C   UNL A   1      40.057  28.320  27.366  1.00  0.00     0.031 C 
ATOM     40  C   UNL A   1      37.651  31.827  32.761  1.00  0.00     0.029 A 
ATOM     41  C   UNL A   1      39.001  31.320  32.896  1.00  0.00     0.049 A 
ATOM     42  H   UNL A   1      40.086  30.182  31.522  1.00  0.00     0.167 HD
ATOM     43  C   UNL A   1      41.803  27.202  28.746  1.00  0.00     0.037 A 
ATOM     44  C   UNL A   1      39.724  31.435  34.025  1.00  0.00     0.037 A 
ATOM     45  C   UNL A   1      42.590  27.129  29.953  1.00  0.00     0.049 A 
ATOM     46  C   UNL A   1      40.961  30.601  34.120  1.00  0.00     0.074 A 
ATOM     47  C   UNL A   1      43.740  26.401  30.196  1.00  0.00     0.029 A 
ATOM     48  N   UNL A   1      42.338  27.873  31.103  1.00  0.00    -0.354 N 
ATOM     49  N   UNL A   1      41.467  29.782  33.231  1.00  0.00    -0.248 NA
ATOM     50  C   UNL A   1      41.691  30.650  35.389  1.00  0.00     0.031 C 
ATOM     51  C   UNL A   1      44.176  26.692  31.494  1.00  0.00     0.029 A 
ATOM     52  C   UNL A   1      43.325  27.639  32.046  1.00  0.00     0.049 A 
ATOM     53  H   UNL A   1      41.571  28.476  31.227  1.00  0.00     0.167 HD
ATOM     54  C   UNL A   1      42.578  29.216  33.827  1.00  0.00     0.074 A 
ATOM     55  C   UNL A   1      42.689  29.812  35.145  1.00  0.00     0.031 C 
ATOM     56  C   UNL A   1      43.421  28.276  33.337  1.00  0.00     0.037 A 
BRANCH  43  57
ATOM     57  C   UNL A   1      42.159  26.304  27.588  1.00  0.00     0.064 A 
ATOM     58  C   UNL A   1      41.507  25.088  27.338  1.00  0.00     0.173 A 
ATOM     59  C   UNL A   1      43.187  26.677  26.701  1.00  0.00     0.173 A 
ATOM     60  F   UNL A   1      40.510  24.679  28.138  1.00  0.00    -0.203 F 
ATOM     61  C   UNL A   1      41.909  24.251  26.297  1.00  0.00     0.198 A 
ATOM     62  C   UNL A   1      43.553  25.860  25.631  1.00  0.00     0.198 A 
ATOM     63  F   UNL A   1      43.839  27.836  26.867  1.00  0.00    -0.203 F 
ATOM     64  F   UNL A   1      41.324  23.055  26.140  1.00  0.00    -0.200 F 
ATOM     65  C   UNL A   1      42.927  24.640  25.442  1.00  0.00     0.200 A 
ATOM     66  F   UNL A   1      44.521  26.253  24.791  1.00  0.00    -0.200 F 
ATOM     67  F   UNL A   1      43.311  23.834  24.441  1.00  0.00    -0.200 F 
ENDBRANCH  43  57
BRANCH  44  68
ATOM     68  C   UNL A   1      39.239  32.268  35.164  1.00  0.00     0.064 A 
ATOM     69  C   UNL A   1      38.490  31.693  36.200  1.00  0.00     0.173 A 
ATOM     70  C   UNL A   1      39.540  33.636  35.272  1.00  0.00     0.173 A 
ATOM     71  F   UNL A   1      38.150  30.396  36.140  1.00  0.00    -0.203 F 
ATOM     72  C   UNL A   1      38.065  32.450  37.292  1.00  0.00     0.198 A 
ATOM     73  C   UNL A   1      39.161  34.378  36.388  1.00  0.00     0.198 A 
ATOM     74  F   UNL A   1      40.252  34.248  34.314  1.00  0.00    -0.203 F 
ATOM     75  F   UNL A   1      37.313  31.881  38.245  1.00  0.00    -0.200 F 
ATOM     76  C   UNL A   1      38.413  33.787  37.393  1.00  0.00     0.200 A 
ATOM     77  F   UNL A   1      39.533  35.661  36.495  1.00  0.00    -0.200 F 
ATOM     78  F   UNL A   1      38.028  34.507  38.455  1.00  0.00    -0.200 F 
ENDBRANCH  44  68
BRANCH  56  79
ATOM     79  C   UNL A   1      44.581  27.909  34.207  1.00  0.00     0.064 A 
ATOM     80  C   UNL A   1      44.522  26.839  35.109  1.00  0.00     0.173 A 
ATOM     81  C   UNL A   1      45.774  28.640  34.119  1.00  0.00     0.173 A 
ATOM     82  F   UNL A   1      43.390  26.132  35.245  1.00  0.00    -0.203 F 
ATOM     83  C   UNL A   1      45.612  26.529  35.914  1.00  0.00     0.198 A 
ATOM     84  C   UNL A   1      46.874  28.304  34.899  1.00  0.00     0.198 A 
ATOM     85  F   UNL A   1      45.874  29.675  33.271  1.00  0.00    -0.203 F 
ATOM     86  F   UNL A   1      45.517  25.540  36.813  1.00  0.00    -0.200 F 
ATOM     87  C   UNL A   1      46.789  27.254  35.801  1.00  0.00     0.200 A 
ATOM     88  F   UNL A   1      48.013  28.999  34.780  1.00  0.00    -0.200 F 
ATOM     89  F   UNL A   1      47.841  26.948  36.573  1.00  0.00    -0.200 F 
ENDBRANCH  56  79
ENDBRANCH  30  31
ENDBRANCH  23  25
ENDBRANCH  22  23
ENDBRANCH  21  22
ENDBRANCH   1  21
TORSDOF 16
ENDMDL
MODEL 2
REMARK VINA RESULT:     -11.8      0.844      1.614
REMARK SMILES CCCC[C@@H](C(=O)OCCOC(=O)c1ccc(-c2c3nc(c(-c4c(F)c(F)c(F)c(F)c4F)c4ccc([nH]4)c(-c4c(F)c(F)c(F)c(F)c4F)c4nc(c(-c5c(F)c(F)c(F)c(F)c5F)c5ccc2[nH]5)C=C4)C=C3)cc1)C1(O)Cc2ccccc2C1
REMARK SMILES IDX 9 1 8 2 6 3 7 4 5 5 4 6 3 7 2 8 1 9 77 10 79 11 86 12 80 13
REMARK SMILES IDX 85 14 81 15 84 16 82 17 83 18 78 19 10 21 11 22 12 23 13 24
REMARK SMILES IDX 14 25 15 26 76 27 16 28 75 29 17 30 18 31 19 32 69 33 20 34
REMARK SMILES IDX 74 35 68 36 70 37 21 38 73 39 67 40 66 41 22 43 54 44 34 45
REMARK SMILES IDX 53 46 35 47 38 48 52 49 71 50 36 51 37 52 51 54 72 55 39 56
REMARK SMILES IDX 23 57 24 58 32 59 25 60 26 61 30 62 33 63 27 64 28 65 31 66
REMARK SMILES IDX 29 67 55 68 56 69 64 70 57 71 58 72 62 73 65 74 59 75 60 76
REMARK SMILES IDX 63 77 61 78 40 79 41 80 49 81 42 82 43 83 47 84 50 85 44 86
REMARK SMILES IDX 45 87 48 88 46 89
REMARK H PARENT 78 20 70 42 38 53
REMARK Flexibility Score: inf
ROOT
ATOM      1  C   UNL A   1      31.423  28.759  23.383  1.00  0.00     0.274 C 
ENDROOT
BRANCH   1   2
ATOM      2  O   UNL A   1      30.782  27.446  23.246  1.00  0.00    -0.462 OA
BRANCH   2   3
ATOM      3  C   UNL A   1      31.280  26.419  22.474  1.00  0.00     0.312 C 
ATOM      4  O   UNL A   1      31.357  26.441  21.251  1.00  0.00    -0.252 OA
BRANCH   3   5
ATOM      5  C   UNL A   1      31.791  25.255  23.342  1.00  0.00     0.131 C 
BRANCH   5   6
ATOM      6  C   UNL A   1      30.686  25.146  24.507  1.00  0.00     0.018 C 
BRANCH   6   7
ATOM      7  C   UNL A   1      31.070  24.906  25.971  1.00  0.00     0.001 C 
BRANCH   7   8
ATOM      8  C   UNL A   1      30.765  23.534  26.513  1.00  0.00    -0.003 C 
ATOM      9  C   UNL A   1      31.969  22.955  27.227  1.00  0.00     0.004 C 
ENDBRANCH   7   8
ENDBRANCH   6   7
ENDBRANCH   5   6
BRANCH   5  10
ATOM     10  C   UNL A   1      33.328  25.108  24.012  1.00  0.00     0.086 C 
ATOM     11  C   UNL A   1      34.428  24.204  25.057  1.00  0.00     0.072 C 
ATOM     12  C   UNL A   1      34.034  24.479  22.895  1.00  0.00     0.072 C 
ATOM     13  C   UNL A   1      35.268  22.702  24.223  1.00  0.00    -0.042 A 
ATOM     14  C   UNL A   1      33.756  23.110  23.459  1.00  0.00    -0.042 A 
ATOM     15  C   UNL A   1      35.490  20.769  24.848  1.00  0.00     0.004 A 
ATOM     16  C   UNL A   1      32.431  21.970  23.721  1.00  0.00     0.004 A 
ATOM     17  C   UNL A   1      34.110  19.643  24.815  1.00  0.00     0.000 A 
ATOM     18  C   UNL A   1      32.603  20.281  24.295  1.00  0.00     0.000 A 
BRANCH  10  19
ATOM     19  O   UNL A   1      33.636  26.449  24.413  1.00  0.00    -0.388 OA
ATOM     20  H   UNL A   1      32.862  26.844  24.846  1.00  0.00     0.211 HD
ENDBRANCH  10  19
ENDBRANCH   5  10
ENDBRANCH   3   5
ENDBRANCH   2   3
ENDBRANCH   1   2
BRANCH   1  21
ATOM     21  C   UNL A   1      31.463  29.135  24.905  1.00  0.00     0.275 C 
BRANCH  21  22
ATOM     22  O   UNL A   1      32.538  30.076  25.233  1.00  0.00    -0.458 OA
BRANCH  22  23
ATOM     23  C   UNL A   1      32.393  30.942  26.293  1.00  0.00     0.338 C 
ATOM     24  O   UNL A   1      31.307  31.450  26.564  1.00  0.00    -0.246 OA
BRANCH  23  25
ATOM     25  C   UNL A   1      33.695  31.146  27.339  1.00  0.00     0.060 A 
ATOM     26  C   UNL A   1      34.945  32.672  27.870  1.00  0.00     0.016 A 
ATOM     27  C   UNL A   1      34.311  29.486  27.586  1.00  0.00     0.016 A 
ATOM     28  C   UNL A   1      36.535  32.264  28.617  1.00  0.00     0.010 A 
ATOM     29  C   UNL A   1      35.896  29.259  28.295  1.00  0.00     0.010 A 
ATOM     30  C   UNL A   1      36.977  30.571  28.817  1.00  0.00    -0.014 A 
BRANCH  30  31
ATOM     31  C   UNL A   1      38.221  30.265  29.623  1.00  0.00     0.031 A 
ATOM     32  C   UNL A   1      39.370  29.493  29.031  1.00  0.00     0.074 A 
ATOM     33  C   UNL A   1      38.318  30.629  30.923  1.00  0.00     0.049 A 
ATOM     34  N   UNL A   1      40.294  28.802  29.654  1.00  0.00    -0.248 NA
ATOM     35  C   UNL A   1      39.437  29.377  27.572  1.00  0.00     0.031 C 
ATOM     36  C   UNL A   1      37.265  31.240  31.728  1.00  0.00     0.029 A 
ATOM     37  N   UNL A   1      39.373  30.594  31.806  1.00  0.00    -0.354 N 
ATOM     38  C   UNL A   1      40.922  28.042  28.675  1.00  0.00     0.074 A 
ATOM     39  C   UNL A   1      40.261  28.348  27.425  1.00  0.00     0.031 C 
ATOM     40  C   UNL A   1      37.783  31.791  32.827  1.00  0.00     0.029 A 
ATOM     41  C   UNL A   1      39.122  31.263  32.984  1.00  0.00     0.049 A 
ATOM     42  H   UNL A   1      40.222  30.134  31.614  1.00  0.00     0.167 HD
ATOM     43  C   UNL A   1      41.959  27.181  28.823  1.00  0.00     0.037 A 
ATOM     44  C   UNL A   1      39.821  31.348  34.131  1.00  0.00     0.037 A 
ATOM     45  C   UNL A   1      42.718  27.075  30.046  1.00  0.00     0.049 A 
ATOM     46  C   UNL A   1      41.044  30.495  34.237  1.00  0.00     0.074 A 
ATOM     47  C   UNL A   1      43.853  26.326  30.301  1.00  0.00     0.029 A 
ATOM     48  N   UNL A   1      42.450  27.802  31.203  1.00  0.00    -0.354 N 
ATOM     49  N   UNL A   1      41.558  29.685  33.345  1.00  0.00    -0.248 NA
ATOM     50  C   UNL A   1      41.746  30.510  35.523  1.00  0.00     0.031 C 
ATOM     51  C   UNL A   1      44.263  26.588  31.614  1.00  0.00     0.029 A 
ATOM     52  C   UNL A   1      43.413  27.536  32.163  1.00  0.00     0.049 A 
ATOM     53  H   UNL A   1      41.689  28.413  31.321  1.00  0.00     0.167 HD
ATOM     54  C   UNL A   1      42.648  29.092  33.955  1.00  0.00     0.074 A 
ATOM     55  C   UNL A   1      42.737  29.663  35.287  1.00  0.00     0.031 C 
ATOM     56  C   UNL A   1      43.488  28.149  33.467  1.00  0.00     0.037 A 
BRANCH  43  57
ATOM     57  C   UNL A   1      42.330  26.299  27.657  1.00  0.00     0.064 A 
ATOM     58  C   UNL A   1      41.705  25.068  27.404  1.00  0.00     0.173 A 
ATOM     59  C   UNL A   1      43.341  26.702  26.764  1.00  0.00     0.173 A 
ATOM     60  F   UNL A   1      40.726  24.629  28.209  1.00  0.00    -0.203 F 
ATOM     61  C   UNL A   1      42.121  24.247  26.356  1.00  0.00     0.198 A 
ATOM     62  C   UNL A   1      43.719  25.901  25.687  1.00  0.00     0.198 A 
ATOM     63  F   UNL A   1      43.965  27.876  26.933  1.00  0.00    -0.203 F 
ATOM     64  F   UNL A   1      41.564  23.038  26.196  1.00  0.00    -0.200 F 
ATOM     65  C   UNL A   1      43.123  24.666  25.496  1.00  0.00     0.200 A 
ATOM     66  F   UNL A   1      44.671  26.322  24.842  1.00  0.00    -0.200 F 
ATOM     67  F   UNL A   1      43.518  23.876  24.487  1.00  0.00    -0.200 F 
ENDBRANCH  43  57
BRANCH  44  68
ATOM     68  C   UNL A   1      39.322  32.167  35.273  1.00  0.00     0.064 A 
ATOM     69  C   UNL A   1      38.564  31.578  36.295  1.00  0.00     0.173 A 
ATOM     70  C   UNL A   1      39.619  33.534  35.400  1.00  0.00     0.173 A 
ATOM     71  F   UNL A   1      38.227  30.282  36.218  1.00  0.00    -0.203 F 
ATOM     72  C   UNL A   1      38.125  32.322  37.391  1.00  0.00     0.198 A 
ATOM     73  C   UNL A   1      39.226  34.263  36.520  1.00  0.00     0.198 A 
ATOM     74  F   UNL A   1      40.339  34.158  34.456  1.00  0.00    -0.203 F 
ATOM     75  F   UNL A   1      37.365  31.742  38.329  1.00  0.00    -0.200 F 
ATOM     76  C   UNL A   1      38.469  33.659  37.510  1.00  0.00     0.200 A 
ATOM     77  F   UNL A   1      39.594  35.546  36.645  1.00  0.00    -0.200 F 
ATOM     78  F   UNL A   1      38.071  34.366  38.576  1.00  0.00    -0.200 F 
ENDBRANCH  44  68
BRANCH  56  79
ATOM     79  C   UNL A   1      44.623  27.750  34.356  1.00  0.00     0.064 A 
ATOM     80  C   UNL A   1      44.524  26.674  35.247  1.00  0.00     0.173 A 
ATOM     81  C   UNL A   1      45.832  28.456  34.298  1.00  0.00     0.173 A 
ATOM     82  F   UNL A   1      43.375  25.990  35.355  1.00  0.00    -0.203 F 
ATOM     83  C   UNL A   1      45.591  26.333  36.070  1.00  0.00     0.198 A 
ATOM     84  C   UNL A   1      46.910  28.091  35.097  1.00  0.00     0.198 A 
ATOM     85  F   UNL A   1      45.971  29.496  33.462  1.00  0.00    -0.203 F 
ATOM     86  F   UNL A   1      45.458  25.338  36.958  1.00  0.00    -0.200 F 
ATOM     87  C   UNL A   1      46.786  27.035  35.987  1.00  0.00     0.200 A 
ATOM     88  F   UNL A   1      48.066  28.762  35.006  1.00  0.00    -0.200 F 
ATOM     89  F   UNL A   1      47.815  26.700  36.776  1.00  0.00    -0.200 F 
ENDBRANCH  56  79
ENDBRANCH  30  31
ENDBRANCH  23  25
ENDBRANCH  22  23
ENDBRANCH  21  22
ENDBRANCH   1  21
TORSDOF 16
ENDMDL
MODEL 3
REMARK VINA RESULT:     -11.8      1.037      2.451
REMARK SMILES CCCC[C@@H](C(=O)OCCOC(=O)c1ccc(-c2c3nc(c(-c4c(F)c(F)c(F)c(F)c4F)c4ccc([nH]4)c(-c4c(F)c(F)c(F)c(F)c4F)c4nc(c(-c5c(F)c(F)c(F)c(F)c5F)c5ccc2[nH]5)C=C4)C=C3)cc1)C1(O)Cc2ccccc2C1
REMARK SMILES IDX 9 1 8 2 6 3 7 4 5 5 4 6 3 7 2 8 1 9 77 10 79 11 86 12 80 13
REMARK SMILES IDX 85 14 81 15 84 16 82 17 83 18 78 19 10 21 11 22 12 23 13 24
REMARK SMILES IDX 14 25 15 26 76 27 16 28 75 29 17 30 18 31 19 32 69 33 20 34
REMARK SMILES IDX 74 35 68 36 70 37 21 38 73 39 67 40 66 41 22 43 54 44 34 45
REMARK SMILES IDX 53 46 35 47 38 48 52 49 71 50 36 51 37 52 51 54 72 55 39 56
REMARK SMILES IDX 23 57 24 58 32 59 25 60 26 61 30 62 33 63 27 64 28 65 31 66
REMARK SMILES IDX 29 67 55 68 56 69 64 70 57 71 58 72 62 73 65 74 59 75 60 76
REMARK SMILES IDX 63 77 61 78 40 79 41 80 49 81 42 82 43 83 47 84 50 85 44 86
REMARK SMILES IDX 45 87 48 88 46 89
REMARK H PARENT 78 20 70 42 38 53
REMARK Flexibility Score: inf
ROOT
ATOM      1  C   UNL A   1      31.694  27.544  25.609  1.00  0.00     0.274 C 
ENDROOT
BRANCH   1   2
ATOM      2  O   UNL A   1      30.498  26.727  25.373  1.00  0.00    -0.462 OA
BRANCH   2   3
ATOM      3  C   UNL A   1      30.319  25.457  25.873  1.00  0.00     0.312 C 
ATOM      4  O   UNL A   1      29.480  25.150  26.714  1.00  0.00    -0.252 OA
BRANCH   3   5
ATOM      5  C   UNL A   1      31.262  24.444  25.199  1.00  0.00     0.131 C 
BRANCH   5   6
ATOM      6  C   UNL A   1      30.710  24.367  23.689  1.00  0.00     0.018 C 
BRANCH   6   7
ATOM      7  C   UNL A   1      31.139  25.372  22.615  1.00  0.00     0.001 C 
BRANCH   7   8
ATOM      8  C   UNL A   1      32.543  25.217  22.094  1.00  0.00    -0.003 C 
ATOM      9  C   UNL A   1      33.274  26.544  22.104  1.00  0.00     0.004 C 
ENDBRANCH   7   8
ENDBRANCH   6   7
ENDBRANCH   5   6
BRANCH   5  10
ATOM     10  C   UNL A   1      31.616  22.891  25.745  1.00  0.00     0.086 C 
ATOM     11  C   UNL A   1      32.525  21.394  25.521  1.00  0.00     0.072 C 
ATOM     12  C   UNL A   1      32.588  23.205  26.793  1.00  0.00     0.072 C 
ATOM     13  C   UNL A   1      34.307  21.431  26.213  1.00  0.00    -0.042 A 
ATOM     14  C   UNL A   1      33.728  23.027  25.824  1.00  0.00    -0.042 A 
ATOM     15  C   UNL A   1      36.086  20.869  25.377  1.00  0.00     0.004 A 
ATOM     16  C   UNL A   1      34.472  23.793  24.416  1.00  0.00     0.004 A 
ATOM     17  C   UNL A   1      36.861  21.883  24.135  1.00  0.00     0.000 A 
ATOM     18  C   UNL A   1      36.016  23.297  23.652  1.00  0.00     0.000 A 
BRANCH  10  19
ATOM     19  O   UNL A   1      30.326  22.362  26.075  1.00  0.00    -0.388 OA
ATOM     20  H   UNL A   1      30.384  21.398  26.170  1.00  0.00     0.211 HD
ENDBRANCH  10  19
ENDBRANCH   5  10
ENDBRANCH   3   5
ENDBRANCH   2   3
ENDBRANCH   1   2
BRANCH   1  21
ATOM     21  C   UNL A   1      31.450  28.969  25.001  1.00  0.00     0.275 C 
BRANCH  21  22
ATOM     22  O   UNL A   1      32.550  29.901  25.267  1.00  0.00    -0.458 OA
BRANCH  22  23
ATOM     23  C   UNL A   1      32.431  30.836  26.270  1.00  0.00     0.338 C 
ATOM     24  O   UNL A   1      31.364  31.402  26.498  1.00  0.00    -0.246 OA
BRANCH  23  25
ATOM     25  C   UNL A   1      33.732  31.053  27.314  1.00  0.00     0.060 A 
ATOM     26  C   UNL A   1      34.971  32.589  27.840  1.00  0.00     0.016 A 
ATOM     27  C   UNL A   1      34.360  29.398  27.567  1.00  0.00     0.016 A 
ATOM     28  C   UNL A   1      36.565  32.195  28.588  1.00  0.00     0.010 A 
ATOM     29  C   UNL A   1      35.947  29.185  28.277  1.00  0.00     0.010 A 
ATOM     30  C   UNL A   1      37.019  30.507  28.793  1.00  0.00    -0.014 A 
BRANCH  30  31
ATOM     31  C   UNL A   1      38.265  30.212  29.600  1.00  0.00     0.031 A 
ATOM     32  C   UNL A   1      39.407  29.420  29.020  1.00  0.00     0.074 A 
ATOM     33  C   UNL A   1      38.371  30.606  30.891  1.00  0.00     0.049 A 
ATOM     34  N   UNL A   1      40.330  28.738  29.654  1.00  0.00    -0.248 NA
ATOM     35  C   UNL A   1      39.465  29.269  27.564  1.00  0.00     0.031 C 
ATOM     36  C   UNL A   1      37.326  31.242  31.687  1.00  0.00     0.029 A 
ATOM     37  N   UNL A   1      39.430  30.585  31.769  1.00  0.00    -0.354 N 
ATOM     38  C   UNL A   1      40.949  27.952  28.690  1.00  0.00     0.074 A 
ATOM     39  C   UNL A   1      40.283  28.233  27.437  1.00  0.00     0.031 C 
ATOM     40  C   UNL A   1      37.852  31.815  32.770  1.00  0.00     0.029 A 
ATOM     41  C   UNL A   1      39.189  31.283  32.932  1.00  0.00     0.049 A 
ATOM     42  H   UNL A   1      40.276  30.117  31.584  1.00  0.00     0.167 HD
ATOM     43  C   UNL A   1      41.982  27.089  28.853  1.00  0.00     0.037 A 
ATOM     44  C   UNL A   1      39.895  31.391  34.073  1.00  0.00     0.037 A 
ATOM     45  C   UNL A   1      42.746  27.008  30.074  1.00  0.00     0.049 A 
ATOM     46  C   UNL A   1      41.113  30.534  34.193  1.00  0.00     0.074 A 
ATOM     47  C   UNL A   1      43.878  26.258  30.341  1.00  0.00     0.029 A 
ATOM     48  N   UNL A   1      42.489  27.762  31.216  1.00  0.00    -0.354 N 
ATOM     49  N   UNL A   1      41.619  29.700  33.318  1.00  0.00    -0.248 NA
ATOM     50  C   UNL A   1      41.822  30.575  35.475  1.00  0.00     0.031 C 
ATOM     51  C   UNL A   1      44.296  26.548  31.645  1.00  0.00     0.029 A 
ATOM     52  C   UNL A   1      43.455  27.514  32.177  1.00  0.00     0.049 A 
ATOM     53  H   UNL A   1      41.732  28.381  31.323  1.00  0.00     0.167 HD
ATOM     54  C   UNL A   1      42.708  29.116  33.936  1.00  0.00     0.074 A 
ATOM     55  C   UNL A   1      42.807  29.717  35.253  1.00  0.00     0.031 C 
ATOM     56  C   UNL A   1      43.540  28.156  33.466  1.00  0.00     0.037 A 
BRANCH  43  57
ATOM     57  C   UNL A   1      42.341  26.178  27.706  1.00  0.00     0.064 A 
ATOM     58  C   UNL A   1      43.349  26.483  26.779  1.00  0.00     0.173 A 
ATOM     59  C   UNL A   1      41.655  24.961  27.533  1.00  0.00     0.173 A 
ATOM     60  F   UNL A   1      44.050  27.621  26.892  1.00  0.00    -0.203 F 
ATOM     61  C   UNL A   1      43.608  25.649  25.691  1.00  0.00     0.198 A 
ATOM     62  C   UNL A   1      41.951  24.106  26.472  1.00  0.00     0.198 A 
ATOM     63  F   UNL A   1      40.695  24.597  28.395  1.00  0.00    -0.203 F 
ATOM     64  F   UNL A   1      44.516  26.012  24.774  1.00  0.00    -0.200 F 
ATOM     65  C   UNL A   1      42.913  24.459  25.542  1.00  0.00     0.200 A 
ATOM     66  F   UNL A   1      41.294  22.944  26.347  1.00  0.00    -0.200 F 
ATOM     67  F   UNL A   1      43.166  23.659  24.496  1.00  0.00    -0.200 F 
ENDBRANCH  43  57
BRANCH  44  68
ATOM     68  C   UNL A   1      39.406  32.239  35.199  1.00  0.00     0.064 A 
ATOM     69  C   UNL A   1      38.616  31.687  36.217  1.00  0.00     0.173 A 
ATOM     70  C   UNL A   1      39.744  33.598  35.313  1.00  0.00     0.173 A 
ATOM     71  F   UNL A   1      38.240  30.401  36.150  1.00  0.00    -0.203 F 
ATOM     72  C   UNL A   1      38.186  32.458  37.297  1.00  0.00     0.198 A 
ATOM     73  C   UNL A   1      39.359  34.353  36.419  1.00  0.00     0.198 A 
ATOM     74  F   UNL A   1      40.496  34.187  34.372  1.00  0.00    -0.203 F 
ATOM     75  F   UNL A   1      37.395  31.913  38.232  1.00  0.00    -0.200 F 
ATOM     76  C   UNL A   1      38.571  33.785  37.406  1.00  0.00     0.200 A 
ATOM     77  F   UNL A   1      39.766  35.625  36.534  1.00  0.00    -0.200 F 
ATOM     78  F   UNL A   1      38.181  34.517  38.457  1.00  0.00    -0.200 F 
ENDBRANCH  44  68
BRANCH  56  79
ATOM     79  C   UNL A   1      44.678  27.772  34.358  1.00  0.00     0.064 A 
ATOM     80  C   UNL A   1      45.903  28.450  34.331  1.00  0.00     0.173 A 
ATOM     81  C   UNL A   1      44.524  26.712  35.262  1.00  0.00     0.173 A 
ATOM     82  F   UNL A   1      46.102  29.452  33.461  1.00  0.00    -0.203 F 
ATOM     83  C   UNL A   1      46.947  28.064  35.164  1.00  0.00     0.198 A 
ATOM     84  C   UNL A   1      45.557  26.351  36.119  1.00  0.00     0.198 A 
ATOM     85  F   UNL A   1      43.369  26.032  35.320  1.00  0.00    -0.203 F 
ATOM     86  F   UNL A   1      48.130  28.686  35.083  1.00  0.00    -0.200 F 
ATOM     87  C   UNL A   1      46.770  27.021  36.063  1.00  0.00     0.200 A 
ATOM     88  F   UNL A   1      45.381  25.352  36.994  1.00  0.00    -0.200 F 
ATOM     89  F   UNL A   1      47.775  26.655  36.869  1.00  0.00    -0.200 F 
ENDBRANCH  56  79
ENDBRANCH  30  31
ENDBRANCH  23  25
ENDBRANCH  22  23
ENDBRANCH  21  22
ENDBRANCH   1  21
TORSDOF 16
ENDMDL
