MODEL 1
REMARK VINA RESULT:     -11.7      0.000      0.000
REMARK SMILES O=C(OCCOC(=O)c1ccc(S(=O)(=O)Cc2cccs2)c(F)c1)c1ccc(-c2c3nc(c(-c4c(F)c(F)c(F)c(F)c4F)c4ccc([nH]4)c(-c4c(F)c(F)c(F)c(F)c4F)c4nc(c(-c5c(F)c(F)c(F)c(F)c5F)c5ccc2[nH]5)C=C4)C=C3)cc1
REMARK SMILES IDX 5 1 4 2 3 3 2 4 1 5 25 6 26 7 87 8 27 9 86 10 28 11 29 12
REMARK SMILES IDX 30 13 80 14 31 15 85 16 79 17 81 18 32 19 84 20 78 21 77 22
REMARK SMILES IDX 33 24 65 25 45 26 64 27 46 28 49 29 63 30 82 31 47 32 48 33
REMARK SMILES IDX 62 35 83 36 50 37 34 38 35 39 43 40 36 41 37 42 41 43 44 44
REMARK SMILES IDX 38 45 39 46 42 47 40 48 66 49 67 50 75 51 68 52 69 53 73 54
REMARK SMILES IDX 76 55 70 56 71 57 74 58 72 59 51 60 52 61 60 62 53 63 54 64
REMARK SMILES IDX 58 65 61 66 55 67 56 68 59 69 57 70 6 71 7 72 8 73 9 74
REMARK SMILES IDX 10 75 24 76 11 77 22 78 12 79 23 80 13 81 14 82 15 83 16 84
REMARK SMILES IDX 17 85 18 86 21 87 19 88 20 89
REMARK H PARENT 81 23 49 34
REMARK Flexibility Score: inf
ROOT
ATOM      1  C   UNL A   1      42.720  21.179  26.144  1.00  0.00     0.275 C 
ENDROOT
BRANCH   1   2
ATOM      2  C   UNL A   1      43.692  21.743  25.102  1.00  0.00     0.275 C 
BRANCH   2   3
ATOM      3  O   UNL A   1      43.342  23.052  24.622  1.00  0.00    -0.458 OA
BRANCH   3   4
ATOM      4  C   UNL A   1      43.857  24.247  25.002  1.00  0.00     0.338 C 
ATOM      5  O   UNL A   1      44.970  24.574  24.596  1.00  0.00    -0.246 OA
BRANCH   4   6
ATOM      6  C   UNL A   1      43.238  25.082  26.077  1.00  0.00     0.060 A 
ATOM      7  C   UNL A   1      42.151  24.731  26.881  1.00  0.00     0.016 A 
ATOM      8  C   UNL A   1      43.821  26.344  26.280  1.00  0.00     0.016 A 
ATOM      9  C   UNL A   1      41.731  25.556  27.933  1.00  0.00     0.010 A 
ATOM     10  C   UNL A   1      43.416  27.164  27.335  1.00  0.00     0.010 A 
ATOM     11  C   UNL A   1      42.378  26.765  28.184  1.00  0.00    -0.014 A 
BRANCH  11  12
ATOM     12  C   UNL A   1      41.913  27.681  29.251  1.00  0.00     0.031 A 
ATOM     13  C   UNL A   1      42.538  27.564  30.610  1.00  0.00     0.074 A 
ATOM     14  C   UNL A   1      40.922  28.565  29.025  1.00  0.00     0.049 A 
ATOM     15  N   UNL A   1      42.231  28.184  31.718  1.00  0.00    -0.248 NA
ATOM     16  C   UNL A   1      43.684  26.645  30.731  1.00  0.00     0.031 C 
ATOM     17  C   UNL A   1      40.278  28.807  27.737  1.00  0.00     0.029 A 
ATOM     18  N   UNL A   1      40.239  29.382  29.893  1.00  0.00    -0.354 N 
ATOM     19  C   UNL A   1      43.163  27.757  32.651  1.00  0.00     0.074 A 
ATOM     20  C   UNL A   1      44.004  26.774  32.009  1.00  0.00     0.031 C 
ATOM     21  C   UNL A   1      39.225  29.623  27.916  1.00  0.00     0.029 A 
ATOM     22  C   UNL A   1      39.123  29.958  29.332  1.00  0.00     0.049 A 
ATOM     23  H   UNL A   1      40.520  29.540  30.823  1.00  0.00     0.167 HD
ATOM     24  C   UNL A   1      43.327  28.192  33.919  1.00  0.00     0.037 A 
ATOM     25  C   UNL A   1      38.112  30.639  29.910  1.00  0.00     0.037 A 
ATOM     26  C   UNL A   1      42.482  29.168  34.543  1.00  0.00     0.049 A 
ATOM     27  C   UNL A   1      38.205  30.961  31.378  1.00  0.00     0.074 A 
ATOM     28  C   UNL A   1      42.606  29.742  35.794  1.00  0.00     0.029 A 
ATOM     29  N   UNL A   1      41.339  29.698  33.963  1.00  0.00    -0.354 N 
ATOM     30  N   UNL A   1      39.152  30.648  32.228  1.00  0.00    -0.248 NA
ATOM     31  C   UNL A   1      37.118  31.760  31.963  1.00  0.00     0.031 C 
ATOM     32  C   UNL A   1      41.508  30.584  35.992  1.00  0.00     0.029 A 
ATOM     33  C   UNL A   1      40.723  30.563  34.849  1.00  0.00     0.049 A 
ATOM     34  H   UNL A   1      41.015  29.490  33.057  1.00  0.00     0.167 HD
ATOM     35  C   UNL A   1      38.807  31.253  33.427  1.00  0.00     0.074 A 
ATOM     36  C   UNL A   1      37.552  31.939  33.205  1.00  0.00     0.031 C 
ATOM     37  C   UNL A   1      39.485  31.258  34.599  1.00  0.00     0.037 A 
BRANCH  24  38
ATOM     38  C   UNL A   1      44.481  27.646  34.697  1.00  0.00     0.064 A 
ATOM     39  C   UNL A   1      44.332  26.510  35.502  1.00  0.00     0.173 A 
ATOM     40  C   UNL A   1      45.727  28.293  34.689  1.00  0.00     0.173 A 
ATOM     41  F   UNL A   1      43.160  25.857  35.540  1.00  0.00    -0.203 F 
ATOM     42  C   UNL A   1      45.387  26.046  36.284  1.00  0.00     0.198 A 
ATOM     43  C   UNL A   1      46.785  27.815  35.456  1.00  0.00     0.198 A 
ATOM     44  F   UNL A   1      45.921  29.377  33.921  1.00  0.00    -0.203 F 
ATOM     45  F   UNL A   1      45.217  24.970  37.064  1.00  0.00    -0.200 F 
ATOM     46  C   UNL A   1      46.611  26.698  36.259  1.00  0.00     0.200 A 
ATOM     47  F   UNL A   1      47.973  28.433  35.415  1.00  0.00    -0.200 F 
ATOM     48  F   UNL A   1      47.626  26.247  37.008  1.00  0.00    -0.200 F 
ENDBRANCH  24  38
BRANCH  25  49
ATOM     49  C   UNL A   1      36.922  31.036  29.110  1.00  0.00     0.064 A 
ATOM     50  C   UNL A   1      35.954  30.086  28.744  1.00  0.00     0.173 A 
ATOM     51  C   UNL A   1      36.709  32.361  28.713  1.00  0.00     0.173 A 
ATOM     52  F   UNL A   1      36.112  28.803  29.092  1.00  0.00    -0.203 F 
ATOM     53  C   UNL A   1      34.822  30.446  28.014  1.00  0.00     0.198 A 
ATOM     54  C   UNL A   1      35.567  32.726  28.000  1.00  0.00     0.198 A 
ATOM     55  F   UNL A   1      37.592  33.310  29.053  1.00  0.00    -0.203 F 
ATOM     56  F   UNL A   1      33.924  29.515  27.666  1.00  0.00    -0.200 F 
ATOM     57  C   UNL A   1      34.626  31.768  27.649  1.00  0.00     0.200 A 
ATOM     58  F   UNL A   1      35.371  34.008  27.664  1.00  0.00    -0.200 F 
ATOM     59  F   UNL A   1      33.530  32.120  26.962  1.00  0.00    -0.200 F 
ENDBRANCH  25  49
BRANCH  37  60
ATOM     60  C   UNL A   1      38.929  32.064  35.730  1.00  0.00     0.064 A 
ATOM     61  C   UNL A   1      39.290  33.413  35.876  1.00  0.00     0.173 A 
ATOM     62  C   UNL A   1      38.156  31.472  36.737  1.00  0.00     0.173 A 
ATOM     63  F   UNL A   1      40.037  34.017  34.938  1.00  0.00    -0.203 F 
ATOM     64  C   UNL A   1      38.929  34.130  37.010  1.00  0.00     0.198 A 
ATOM     65  C   UNL A   1      37.774  32.202  37.859  1.00  0.00     0.198 A 
ATOM     66  F   UNL A   1      37.776  30.191  36.632  1.00  0.00    -0.203 F 
ATOM     67  F   UNL A   1      39.333  35.399  37.156  1.00  0.00    -0.200 F 
ATOM     68  C   UNL A   1      38.174  33.523  38.002  1.00  0.00     0.200 A 
ATOM     69  F   UNL A   1      37.029  31.622  38.810  1.00  0.00    -0.200 F 
ATOM     70  F   UNL A   1      37.836  34.211  39.102  1.00  0.00    -0.200 F 
ENDBRANCH  37  60
ENDBRANCH  11  12
ENDBRANCH   4   6
ENDBRANCH   3   4
ENDBRANCH   2   3
ENDBRANCH   1   2
BRANCH   1  71
ATOM     71  O   UNL A   1      41.339  21.319  25.771  1.00  0.00    -0.458 OA
BRANCH  71  72
ATOM     72  C   UNL A   1      40.481  21.524  26.807  1.00  0.00     0.338 C 
ATOM     73  O   UNL A   1      40.719  21.457  27.994  1.00  0.00    -0.246 OA
BRANCH  72  74
ATOM     74  C   UNL A   1      39.197  21.999  26.258  1.00  0.00     0.063 A 
ATOM     75  C   UNL A   1      38.753  23.308  26.463  1.00  0.00     0.017 A 
ATOM     76  C   UNL A   1      38.395  21.075  25.588  1.00  0.00     0.056 A 
ATOM     77  C   UNL A   1      37.470  23.672  26.034  1.00  0.00     0.024 A 
ATOM     78  C   UNL A   1      37.091  21.426  25.245  1.00  0.00     0.142 A 
ATOM     79  C   UNL A   1      36.622  22.710  25.466  1.00  0.00     0.103 A 
ATOM     80  F   UNL A   1      36.276  20.451  24.830  1.00  0.00    -0.206 F 
BRANCH  79  81
ATOM     81  S   UNL A   1      34.929  23.141  25.187  1.00  0.00     0.186 S 
ATOM     82  O   UNL A   1      34.513  22.326  24.059  1.00  0.00    -0.223 OA
ATOM     83  O   UNL A   1      34.260  22.994  26.469  1.00  0.00    -0.223 OA
BRANCH  81  84
ATOM     84  C   UNL A   1      34.773  24.838  24.680  1.00  0.00     0.188 C 
BRANCH  84  85
ATOM     85  C   UNL A   1      33.499  25.466  25.144  1.00  0.00     0.020 A 
ATOM     86  C   UNL A   1      33.286  26.420  26.121  1.00  0.00     0.016 A 
ATOM     87  S   UNL A   1      32.010  24.932  24.470  1.00  0.00    -0.148 S 
ATOM     88  C   UNL A   1      31.917  26.800  26.217  1.00  0.00     0.012 A 
ATOM     89  C   UNL A   1      31.119  26.088  25.353  1.00  0.00     0.065 A 
ENDBRANCH  84  85
ENDBRANCH  81  84
ENDBRANCH  79  81
ENDBRANCH  72  74
ENDBRANCH  71  72
ENDBRANCH   1  71
TORSDOF 14
ENDMDL
MODEL 2
REMARK VINA RESULT:     -11.6      0.837      1.451
REMARK SMILES O=C(OCCOC(=O)c1ccc(S(=O)(=O)Cc2cccs2)c(F)c1)c1ccc(-c2c3nc(c(-c4c(F)c(F)c(F)c(F)c4F)c4ccc([nH]4)c(-c4c(F)c(F)c(F)c(F)c4F)c4nc(c(-c5c(F)c(F)c(F)c(F)c5F)c5ccc2[nH]5)C=C4)C=C3)cc1
REMARK SMILES IDX 5 1 4 2 3 3 2 4 1 5 25 6 26 7 87 8 27 9 86 10 28 11 29 12
REMARK SMILES IDX 30 13 80 14 31 15 85 16 79 17 81 18 32 19 84 20 78 21 77 22
REMARK SMILES IDX 33 24 65 25 45 26 64 27 46 28 49 29 63 30 82 31 47 32 48 33
REMARK SMILES IDX 62 35 83 36 50 37 34 38 35 39 43 40 36 41 37 42 41 43 44 44
REMARK SMILES IDX 38 45 39 46 42 47 40 48 66 49 67 50 75 51 68 52 69 53 73 54
REMARK SMILES IDX 76 55 70 56 71 57 74 58 72 59 51 60 52 61 60 62 53 63 54 64
REMARK SMILES IDX 58 65 61 66 55 67 56 68 59 69 57 70 6 71 7 72 8 73 9 74
REMARK SMILES IDX 10 75 24 76 11 77 22 78 12 79 23 80 13 81 14 82 15 83 16 84
REMARK SMILES IDX 17 85 18 86 21 87 19 88 20 89
REMARK H PARENT 81 23 49 34
REMARK Flexibility Score: inf
ROOT
ATOM      1  C   UNL A   1      42.374  20.659  26.062  1.00  0.00     0.275 C 
ENDROOT
BRANCH   1   2
ATOM      2  C   UNL A   1      43.512  21.514  25.495  1.00  0.00     0.275 C 
BRANCH   2   3
ATOM      3  O   UNL A   1      43.071  22.714  24.837  1.00  0.00    -0.458 OA
BRANCH   3   4
ATOM      4  C   UNL A   1      43.519  23.980  25.021  1.00  0.00     0.338 C 
ATOM      5  O   UNL A   1      44.540  24.343  24.441  1.00  0.00    -0.246 OA
BRANCH   4   6
ATOM      6  C   UNL A   1      42.962  24.882  26.076  1.00  0.00     0.060 A 
ATOM      7  C   UNL A   1      41.875  24.613  26.911  1.00  0.00     0.016 A 
ATOM      8  C   UNL A   1      43.610  26.119  26.224  1.00  0.00     0.016 A 
ATOM      9  C   UNL A   1      41.516  25.494  27.939  1.00  0.00     0.010 A 
ATOM     10  C   UNL A   1      43.266  26.995  27.255  1.00  0.00     0.010 A 
ATOM     11  C   UNL A   1      42.226  26.677  28.136  1.00  0.00    -0.014 A 
BRANCH  11  12
ATOM     12  C   UNL A   1      41.827  27.651  29.178  1.00  0.00     0.031 A 
ATOM     13  C   UNL A   1      42.507  27.582  30.513  1.00  0.00     0.074 A 
ATOM     14  C   UNL A   1      40.847  28.548  28.952  1.00  0.00     0.049 A 
ATOM     15  N   UNL A   1      42.261  28.259  31.603  1.00  0.00    -0.248 NA
ATOM     16  C   UNL A   1      43.637  26.643  30.629  1.00  0.00     0.031 C 
ATOM     17  C   UNL A   1      40.154  28.746  27.682  1.00  0.00     0.029 A 
ATOM     18  N   UNL A   1      40.219  29.419  29.809  1.00  0.00    -0.354 N 
ATOM     19  C   UNL A   1      43.222  27.853  32.516  1.00  0.00     0.074 A 
ATOM     20  C   UNL A   1      44.013  26.822  31.886  1.00  0.00     0.031 C 
ATOM     21  C   UNL A   1      39.127  29.594  27.866  1.00  0.00     0.029 A 
ATOM     22  C   UNL A   1      39.093  29.996  29.268  1.00  0.00     0.049 A 
ATOM     23  H   UNL A   1      40.543  29.613  30.718  1.00  0.00     0.167 HD
ATOM     24  C   UNL A   1      43.450  28.341  33.754  1.00  0.00     0.037 A 
ATOM     25  C   UNL A   1      38.123  30.726  29.855  1.00  0.00     0.037 A 
ATOM     26  C   UNL A   1      42.653  29.364  34.367  1.00  0.00     0.049 A 
ATOM     27  C   UNL A   1      38.286  31.113  31.301  1.00  0.00     0.074 A 
ATOM     28  C   UNL A   1      42.844  29.992  35.583  1.00  0.00     0.029 A 
ATOM     29  N   UNL A   1      41.498  29.895  33.811  1.00  0.00    -0.354 N 
ATOM     30  N   UNL A   1      39.261  30.817  32.125  1.00  0.00    -0.248 NA
ATOM     31  C   UNL A   1      37.242  31.963  31.893  1.00  0.00     0.031 C 
ATOM     32  C   UNL A   1      41.774  30.867  35.787  1.00  0.00     0.029 A 
ATOM     33  C   UNL A   1      40.940  30.813  34.680  1.00  0.00     0.049 A 
ATOM     34  H   UNL A   1      41.132  29.653  32.929  1.00  0.00     0.167 HD
ATOM     35  C   UNL A   1      38.981  31.484  33.309  1.00  0.00     0.074 A 
ATOM     36  C   UNL A   1      37.732  32.188  33.106  1.00  0.00     0.031 C 
ATOM     37  C   UNL A   1      39.708  31.525  34.450  1.00  0.00     0.037 A 
BRANCH  24  38
ATOM     38  C   UNL A   1      44.624  27.804  34.508  1.00  0.00     0.064 A 
ATOM     39  C   UNL A   1      45.897  28.368  34.352  1.00  0.00     0.173 A 
ATOM     40  C   UNL A   1      44.494  26.684  35.342  1.00  0.00     0.173 A 
ATOM     41  F   UNL A   1      46.068  29.441  33.565  1.00  0.00    -0.203 F 
ATOM     42  C   UNL A   1      47.003  27.820  34.996  1.00  0.00     0.198 A 
ATOM     43  C   UNL A   1      45.598  26.151  36.000  1.00  0.00     0.198 A 
ATOM     44  F   UNL A   1      43.291  26.119  35.534  1.00  0.00    -0.203 F 
ATOM     45  F   UNL A   1      48.215  28.361  34.816  1.00  0.00    -0.200 F 
ATOM     46  C   UNL A   1      46.852  26.715  35.820  1.00  0.00     0.200 A 
ATOM     47  F   UNL A   1      45.448  25.095  36.812  1.00  0.00    -0.200 F 
ATOM     48  F   UNL A   1      47.918  26.192  36.442  1.00  0.00    -0.200 F 
ENDBRANCH  24  38
BRANCH  25  49
ATOM     49  C   UNL A   1      36.909  31.114  29.088  1.00  0.00     0.064 A 
ATOM     50  C   UNL A   1      35.916  30.167  28.787  1.00  0.00     0.173 A 
ATOM     51  C   UNL A   1      36.698  32.430  28.659  1.00  0.00     0.173 A 
ATOM     52  F   UNL A   1      36.071  28.893  29.169  1.00  0.00    -0.203 F 
ATOM     53  C   UNL A   1      34.763  30.520  28.089  1.00  0.00     0.198 A 
ATOM     54  C   UNL A   1      35.534  32.787  27.977  1.00  0.00     0.198 A 
ATOM     55  F   UNL A   1      37.604  33.377  28.936  1.00  0.00    -0.203 F 
ATOM     56  F   UNL A   1      33.841  29.591  27.804  1.00  0.00    -0.200 F 
ATOM     57  C   UNL A   1      34.570  31.832  27.691  1.00  0.00     0.200 A 
ATOM     58  F   UNL A   1      35.341  34.061  27.609  1.00  0.00    -0.200 F 
ATOM     59  F   UNL A   1      33.453  32.178  27.035  1.00  0.00    -0.200 F 
ENDBRANCH  25  49
BRANCH  37  60
ATOM     60  C   UNL A   1      39.218  32.395  35.564  1.00  0.00     0.064 A 
ATOM     61  C   UNL A   1      39.657  33.725  35.662  1.00  0.00     0.173 A 
ATOM     62  C   UNL A   1      38.432  31.879  36.601  1.00  0.00     0.173 A 
ATOM     63  F   UNL A   1      40.421  34.258  34.695  1.00  0.00    -0.203 F 
ATOM     64  C   UNL A   1      39.358  34.495  36.780  1.00  0.00     0.198 A 
ATOM     65  C   UNL A   1      38.111  32.662  37.706  1.00  0.00     0.198 A 
ATOM     66  F   UNL A   1      37.977  30.618  36.541  1.00  0.00    -0.203 F 
ATOM     67  F   UNL A   1      39.835  35.743  36.880  1.00  0.00    -0.200 F 
ATOM     68  C   UNL A   1      38.587  33.962  37.802  1.00  0.00     0.200 A 
ATOM     69  F   UNL A   1      37.351  32.154  38.686  1.00  0.00    -0.200 F 
ATOM     70  F   UNL A   1      38.308  34.700  38.885  1.00  0.00    -0.200 F 
ENDBRANCH  37  60
ENDBRANCH  11  12
ENDBRANCH   4   6
ENDBRANCH   3   4
ENDBRANCH   2   3
ENDBRANCH   1   2
BRANCH   1  71
ATOM     71  O   UNL A   1      41.068  21.119  25.678  1.00  0.00    -0.458 OA
BRANCH  71  72
ATOM     72  C   UNL A   1      40.260  21.484  26.711  1.00  0.00     0.338 C 
ATOM     73  O   UNL A   1      40.512  21.461  27.896  1.00  0.00    -0.246 OA
BRANCH  72  74
ATOM     74  C   UNL A   1      39.028  22.070  26.150  1.00  0.00     0.063 A 
ATOM     75  C   UNL A   1      38.659  23.391  26.417  1.00  0.00     0.017 A 
ATOM     76  C   UNL A   1      38.194  21.238  25.402  1.00  0.00     0.056 A 
ATOM     77  C   UNL A   1      37.417  23.860  25.969  1.00  0.00     0.024 A 
ATOM     78  C   UNL A   1      36.928  21.690  25.039  1.00  0.00     0.142 A 
ATOM     79  C   UNL A   1      36.531  22.988  25.320  1.00  0.00     0.103 A 
ATOM     80  F   UNL A   1      36.069  20.794  24.543  1.00  0.00    -0.206 F 
BRANCH  79  81
ATOM     81  S   UNL A   1      34.879  23.540  25.013  1.00  0.00     0.186 S 
ATOM     82  O   UNL A   1      34.025  22.529  25.610  1.00  0.00    -0.223 OA
ATOM     83  O   UNL A   1      34.819  24.911  25.491  1.00  0.00    -0.223 OA
BRANCH  81  84
ATOM     84  C   UNL A   1      34.520  23.553  23.271  1.00  0.00     0.188 C 
BRANCH  84  85
ATOM     85  C   UNL A   1      33.428  24.508  22.912  1.00  0.00     0.020 A 
ATOM     86  C   UNL A   1      33.478  25.671  22.167  1.00  0.00     0.016 A 
ATOM     87  S   UNL A   1      31.848  24.245  23.537  1.00  0.00    -0.148 S 
ATOM     88  C   UNL A   1      32.195  26.266  22.005  1.00  0.00     0.012 A 
ATOM     89  C   UNL A   1      31.214  25.573  22.675  1.00  0.00     0.065 A 
ENDBRANCH  84  85
ENDBRANCH  81  84
ENDBRANCH  79  81
ENDBRANCH  72  74
ENDBRANCH  71  72
ENDBRANCH   1  71
TORSDOF 14
ENDMDL
MODEL 3
REMARK VINA RESULT:     -11.3      3.480      9.147
REMARK SMILES O=C(OCCOC(=O)c1ccc(S(=O)(=O)Cc2cccs2)c(F)c1)c1ccc(-c2c3nc(c(-c4c(F)c(F)c(F)c(F)c4F)c4ccc([nH]4)c(-c4c(F)c(F)c(F)c(F)c4F)c4nc(c(-c5c(F)c(F)c(F)c(F)c5F)c5ccc2[nH]5)C=C4)C=C3)cc1
REMARK SMILES IDX 5 1 4 2 3 3 2 4 1 5 25 6 26 7 87 8 27 9 86 10 28 11 29 12
REMARK SMILES IDX 30 13 80 14 31 15 85 16 79 17 81 18 32 19 84 20 78 21 77 22
REMARK SMILES IDX 33 24 65 25 45 26 64 27 46 28 49 29 63 30 82 31 47 32 48 33
REMARK SMILES IDX 62 35 83 36 50 37 34 38 35 39 43 40 36 41 37 42 41 43 44 44
REMARK SMILES IDX 38 45 39 46 42 47 40 48 66 49 67 50 75 51 68 52 69 53 73 54
REMARK SMILES IDX 76 55 70 56 71 57 74 58 72 59 51 60 52 61 60 62 53 63 54 64
REMARK SMILES IDX 58 65 61 66 55 67 56 68 59 69 57 70 6 71 7 72 8 73 9 74
REMARK SMILES IDX 10 75 24 76 11 77 22 78 12 79 23 80 13 81 14 82 15 83 16 84
REMARK SMILES IDX 17 85 18 86 21 87 19 88 20 89
REMARK H PARENT 81 23 49 34
REMARK Flexibility Score: inf
ROOT
ATOM      1  C   UNL A   1      33.541  32.151  27.369  1.00  0.00     0.275 C 
ENDROOT
BRANCH   1   2
ATOM      2  C   UNL A   1      32.297  33.037  27.486  1.00  0.00     0.275 C 
BRANCH   2   3
ATOM      3  O   UNL A   1      32.584  34.418  27.763  1.00  0.00    -0.458 OA
BRANCH   3   4
ATOM      4  C   UNL A   1      33.017  34.964  28.925  1.00  0.00     0.338 C 
ATOM      5  O   UNL A   1      32.584  36.062  29.267  1.00  0.00    -0.246 OA
BRANCH   4   6
ATOM      6  C   UNL A   1      34.172  34.404  29.693  1.00  0.00     0.060 A 
ATOM      7  C   UNL A   1      34.119  33.800  30.951  1.00  0.00     0.016 A 
ATOM      8  C   UNL A   1      35.427  34.510  29.070  1.00  0.00     0.016 A 
ATOM      9  C   UNL A   1      35.255  33.212  31.521  1.00  0.00     0.010 A 
ATOM     10  C   UNL A   1      36.561  33.914  29.627  1.00  0.00     0.010 A 
ATOM     11  C   UNL A   1      36.478  33.242  30.851  1.00  0.00    -0.014 A 
BRANCH  11  12
ATOM     12  C   UNL A   1      37.705  32.680  31.461  1.00  0.00     0.031 A 
ATOM     13  C   UNL A   1      38.288  31.433  30.866  1.00  0.00     0.074 A 
ATOM     14  C   UNL A   1      38.260  33.245  32.551  1.00  0.00     0.049 A 
ATOM     15  N   UNL A   1      39.292  30.708  31.283  1.00  0.00    -0.248 NA
ATOM     16  C   UNL A   1      37.675  30.951  29.615  1.00  0.00     0.031 C 
ATOM     17  C   UNL A   1      37.817  34.485  33.183  1.00  0.00     0.029 A 
ATOM     18  N   UNL A   1      39.283  32.811  33.359  1.00  0.00    -0.354 N 
ATOM     19  C   UNL A   1      39.449  29.712  30.332  1.00  0.00     0.074 A 
ATOM     20  C   UNL A   1      38.400  29.875  29.352  1.00  0.00     0.031 C 
ATOM     21  C   UNL A   1      38.484  34.655  34.338  1.00  0.00     0.029 A 
ATOM     22  C   UNL A   1      39.400  33.534  34.524  1.00  0.00     0.049 A 
ATOM     23  H   UNL A   1      39.874  32.058  33.128  1.00  0.00     0.167 HD
ATOM     24  C   UNL A   1      40.421  28.777  30.262  1.00  0.00     0.037 A 
ATOM     25  C   UNL A   1      40.130  33.289  35.630  1.00  0.00     0.037 A 
ATOM     26  C   UNL A   1      41.455  28.627  31.244  1.00  0.00     0.049 A 
ATOM     27  C   UNL A   1      41.083  32.123  35.622  1.00  0.00     0.074 A 
ATOM     28  C   UNL A   1      42.538  27.768  31.231  1.00  0.00     0.029 A 
ATOM     29  N   UNL A   1      41.520  29.346  32.429  1.00  0.00    -0.354 N 
ATOM     30  N   UNL A   1      41.306  31.253  34.668  1.00  0.00    -0.248 NA
ATOM     31  C   UNL A   1      41.911  31.921  36.820  1.00  0.00     0.031 C 
ATOM     32  C   UNL A   1      43.231  27.931  32.434  1.00  0.00     0.029 A 
ATOM     33  C   UNL A   1      42.602  28.919  33.176  1.00  0.00     0.049 A 
ATOM     34  H   UNL A   1      40.889  30.053  32.696  1.00  0.00     0.167 HD
ATOM     35  C   UNL A   1      42.333  30.438  35.123  1.00  0.00     0.074 A 
ATOM     36  C   UNL A   1      42.679  30.903  36.449  1.00  0.00     0.031 C 
ATOM     37  C   UNL A   1      42.946  29.414  34.486  1.00  0.00     0.037 A 
BRANCH  24  38
ATOM     38  C   UNL A   1      40.433  27.875  29.070  1.00  0.00     0.064 A 
ATOM     39  C   UNL A   1      41.171  28.205  27.926  1.00  0.00     0.173 A 
ATOM     40  C   UNL A   1      39.657  26.706  29.043  1.00  0.00     0.173 A 
ATOM     41  F   UNL A   1      41.929  29.312  27.907  1.00  0.00    -0.203 F 
ATOM     42  C   UNL A   1      41.122  27.402  26.790  1.00  0.00     0.198 A 
ATOM     43  C   UNL A   1      39.626  25.895  27.912  1.00  0.00     0.198 A 
ATOM     44  F   UNL A   1      38.945  26.341  30.121  1.00  0.00    -0.203 F 
ATOM     45  F   UNL A   1      41.818  27.747  25.698  1.00  0.00    -0.200 F 
ATOM     46  C   UNL A   1      40.351  26.248  26.784  1.00  0.00     0.200 A 
ATOM     47  F   UNL A   1      38.898  24.770  27.916  1.00  0.00    -0.200 F 
ATOM     48  F   UNL A   1      40.309  25.475  25.691  1.00  0.00    -0.200 F 
ENDBRANCH  24  38
BRANCH  25  49
ATOM     49  C   UNL A   1      39.972  34.143  36.838  1.00  0.00     0.064 A 
ATOM     50  C   UNL A   1      39.076  33.785  37.858  1.00  0.00     0.173 A 
ATOM     51  C   UNL A   1      40.718  35.315  37.014  1.00  0.00     0.173 A 
ATOM     52  F   UNL A   1      38.334  32.678  37.737  1.00  0.00    -0.203 F 
ATOM     53  C   UNL A   1      38.933  34.564  39.006  1.00  0.00     0.198 A 
ATOM     54  C   UNL A   1      40.589  36.084  38.172  1.00  0.00     0.198 A 
ATOM     55  F   UNL A   1      41.600  35.693  36.080  1.00  0.00    -0.203 F 
ATOM     56  F   UNL A   1      38.059  34.204  39.956  1.00  0.00    -0.200 F 
ATOM     57  C   UNL A   1      39.695  35.709  39.164  1.00  0.00     0.200 A 
ATOM     58  F   UNL A   1      41.341  37.181  38.331  1.00  0.00    -0.200 F 
ATOM     59  F   UNL A   1      39.573  36.450  40.275  1.00  0.00    -0.200 F 
ENDBRANCH  25  49
BRANCH  37  60
ATOM     60  C   UNL A   1      44.093  28.743  35.174  1.00  0.00     0.064 A 
ATOM     61  C   UNL A   1      43.857  27.670  36.048  1.00  0.00     0.173 A 
ATOM     62  C   UNL A   1      45.396  29.246  35.079  1.00  0.00     0.173 A 
ATOM     63  F   UNL A   1      42.621  27.162  36.177  1.00  0.00    -0.203 F 
ATOM     64  C   UNL A   1      44.881  27.148  36.831  1.00  0.00     0.198 A 
ATOM     65  C   UNL A   1      46.424  28.704  35.845  1.00  0.00     0.198 A 
ATOM     66  F   UNL A   1      45.670  30.261  34.246  1.00  0.00    -0.203 F 
ATOM     67  F   UNL A   1      44.622  26.162  37.700  1.00  0.00    -0.200 F 
ATOM     68  C   UNL A   1      46.162  27.668  36.731  1.00  0.00     0.200 A 
ATOM     69  F   UNL A   1      47.667  29.192  35.735  1.00  0.00    -0.200 F 
ATOM     70  F   UNL A   1      47.147  27.173  37.494  1.00  0.00    -0.200 F 
ENDBRANCH  37  60
ENDBRANCH  11  12
ENDBRANCH   4   6
ENDBRANCH   3   4
ENDBRANCH   2   3
ENDBRANCH   1   2
BRANCH   1  71
ATOM     71  O   UNL A   1      33.327  30.805  27.825  1.00  0.00    -0.458 OA
BRANCH  71  72
ATOM     72  C   UNL A   1      34.204  29.885  27.335  1.00  0.00     0.338 C 
ATOM     73  O   UNL A   1      35.415  29.926  27.360  1.00  0.00    -0.246 OA
BRANCH  72  74
ATOM     74  C   UNL A   1      33.436  28.713  26.874  1.00  0.00     0.063 A 
ATOM     75  C   UNL A   1      32.139  28.464  27.327  1.00  0.00     0.017 A 
ATOM     76  C   UNL A   1      34.077  27.810  26.025  1.00  0.00     0.056 A 
ATOM     77  C   UNL A   1      31.501  27.272  26.961  1.00  0.00     0.024 A 
ATOM     78  C   UNL A   1      33.466  26.591  25.741  1.00  0.00     0.142 A 
ATOM     79  C   UNL A   1      32.190  26.312  26.205  1.00  0.00     0.103 A 
ATOM     80  F   UNL A   1      34.202  25.655  25.133  1.00  0.00    -0.206 F 
BRANCH  79  81
ATOM     81  S   UNL A   1      31.453  24.718  25.994  1.00  0.00     0.186 S 
ATOM     82  O   UNL A   1      32.548  23.775  26.131  1.00  0.00    -0.223 OA
ATOM     83  O   UNL A   1      30.335  24.667  26.920  1.00  0.00    -0.223 OA
BRANCH  81  84
ATOM     84  C   UNL A   1      30.809  24.521  24.348  1.00  0.00     0.188 C 
BRANCH  84  85
ATOM     85  C   UNL A   1      30.377  25.815  23.737  1.00  0.00     0.020 A 
ATOM     86  C   UNL A   1      29.220  26.544  23.932  1.00  0.00     0.016 A 
ATOM     87  S   UNL A   1      31.372  26.546  22.540  1.00  0.00    -0.148 S 
ATOM     88  C   UNL A   1      29.218  27.763  23.197  1.00  0.00     0.012 A 
ATOM     89  C   UNL A   1      30.345  27.903  22.421  1.00  0.00     0.065 A 
ENDBRANCH  84  85
ENDBRANCH  81  84
ENDBRANCH  79  81
ENDBRANCH  72  74
ENDBRANCH  71  72
ENDBRANCH   1  71
TORSDOF 14
ENDMDL
