MODEL 1
REMARK VINA RESULT:     -10.5      0.000      0.000
REMARK SMILES CC(C)[C@@H](CC(=O)OC(C)(C)C)C(=O)OCCOC(=O)c1ccc(-c2c3nc(c(-c4c(F)c(F)c(F)c(F)c4F)c4ccc([nH]4)c(-c4c(F)c(F)c(F)c(F)c4F)c4nc(c(-c5c(F)c(F)c(F)c(F)c5F)c5ccc2[nH]5)C=C4)C=C3)cc1
REMARK SMILES IDX 16 1 15 2 13 3 14 4 4 5 2 6 1 7 3 8 5 9 6 10 7 11 8 12 9 13
REMARK SMILES IDX 10 14 11 15 12 16 17 17 18 18 19 19 20 20 21 21 22 22 83 23
REMARK SMILES IDX 23 24 82 25 24 26 25 27 26 28 76 29 27 30 81 31 75 32 77 33
REMARK SMILES IDX 28 34 80 35 74 36 73 37 29 39 61 40 41 41 60 42 42 43 45 44
REMARK SMILES IDX 59 45 78 46 43 47 44 48 58 50 79 51 46 52 30 53 31 54 39 55
REMARK SMILES IDX 32 56 33 57 37 58 40 59 34 60 35 61 38 62 36 63 62 64 63 65
REMARK SMILES IDX 71 66 64 67 65 68 69 69 72 70 66 71 67 72 70 73 68 74 47 75
REMARK SMILES IDX 48 76 56 77 49 78 50 79 54 80 57 81 51 82 52 83 55 84 53 85
REMARK H PARENT 77 38 45 49
REMARK Flexibility Score: inf
ROOT
ATOM      1  C   UNL A   1      32.311  31.605  27.165  1.00  0.00     0.274 C 
ENDROOT
BRANCH   1   2
ATOM      2  O   UNL A   1      31.736  30.964  26.008  1.00  0.00    -0.462 OA
BRANCH   2   3
ATOM      3  C   UNL A   1      31.851  29.612  25.982  1.00  0.00     0.309 C 
ATOM      4  O   UNL A   1      31.844  28.887  26.971  1.00  0.00    -0.252 OA
BRANCH   3   5
ATOM      5  C   UNL A   1      32.078  29.047  24.587  1.00  0.00     0.113 C 
BRANCH   5   6
ATOM      6  C   UNL A   1      33.421  28.300  24.347  1.00  0.00    -0.003 C 
ATOM      7  C   UNL A   1      33.245  26.781  24.488  1.00  0.00     0.008 C 
ATOM      8  C   UNL A   1      34.009  28.578  22.957  1.00  0.00     0.008 C 
ENDBRANCH   5   6
BRANCH   5   9
ATOM      9  C   UNL A   1      30.800  28.266  24.233  1.00  0.00     0.138 C 
BRANCH   9  10
ATOM     10  C   UNL A   1      30.153  28.749  22.958  1.00  0.00     0.307 C 
ATOM     11  O   UNL A   1      30.238  28.165  21.889  1.00  0.00    -0.252 OA
BRANCH  10  12
ATOM     12  O   UNL A   1      29.503  29.916  23.186  1.00  0.00    -0.460 OA
BRANCH  12  13
ATOM     13  C   UNL A   1      28.134  30.114  22.758  1.00  0.00     0.104 C 
ATOM     14  C   UNL A   1      28.049  30.454  21.266  1.00  0.00     0.056 C 
ATOM     15  C   UNL A   1      27.276  28.902  23.123  1.00  0.00     0.056 C 
ATOM     16  C   UNL A   1      27.659  31.333  23.561  1.00  0.00     0.056 C 
ENDBRANCH  12  13
ENDBRANCH  10  12
ENDBRANCH   9  10
ENDBRANCH   5   9
ENDBRANCH   3   5
ENDBRANCH   2   3
ENDBRANCH   1   2
BRANCH   1  17
ATOM     17  C   UNL A   1      31.891  33.071  27.260  1.00  0.00     0.275 C 
BRANCH  17  18
ATOM     18  O   UNL A   1      33.055  33.914  27.293  1.00  0.00    -0.458 OA
BRANCH  18  19
ATOM     19  C   UNL A   1      33.211  34.660  28.408  1.00  0.00     0.338 C 
ATOM     20  O   UNL A   1      32.565  35.634  28.752  1.00  0.00    -0.246 OA
BRANCH  19  21
ATOM     21  C   UNL A   1      34.306  34.108  29.222  1.00  0.00     0.060 A 
ATOM     22  C   UNL A   1      35.627  34.461  28.942  1.00  0.00     0.016 A 
ATOM     23  C   UNL A   1      34.028  33.129  30.174  1.00  0.00     0.016 A 
ATOM     24  C   UNL A   1      36.678  33.796  29.564  1.00  0.00     0.010 A 
ATOM     25  C   UNL A   1      35.082  32.505  30.848  1.00  0.00     0.010 A 
ATOM     26  C   UNL A   1      36.416  32.808  30.522  1.00  0.00    -0.014 A 
BRANCH  26  27
ATOM     27  C   UNL A   1      37.540  32.058  31.133  1.00  0.00     0.031 A 
ATOM     28  C   UNL A   1      37.942  32.332  32.555  1.00  0.00     0.074 A 
ATOM     29  C   UNL A   1      38.180  31.111  30.421  1.00  0.00     0.049 A 
ATOM     30  N   UNL A   1      38.941  31.840  33.245  1.00  0.00    -0.248 NA
ATOM     31  C   UNL A   1      37.113  33.292  33.301  1.00  0.00     0.031 C 
ATOM     32  C   UNL A   1      37.859  30.730  29.046  1.00  0.00     0.029 A 
ATOM     33  N   UNL A   1      39.228  30.295  30.761  1.00  0.00    -0.354 N 
ATOM     34  C   UNL A   1      38.880  32.454  34.490  1.00  0.00     0.074 A 
ATOM     35  C   UNL A   1      37.755  33.363  34.458  1.00  0.00     0.031 C 
ATOM     36  C   UNL A   1      38.680  29.739  28.664  1.00  0.00     0.029 A 
ATOM     37  C   UNL A   1      39.616  29.453  29.748  1.00  0.00     0.049 A 
ATOM     38  H   UNL A   1      39.660  30.309  31.645  1.00  0.00     0.167 HD
ATOM     39  C   UNL A   1      39.690  32.272  35.560  1.00  0.00     0.037 A 
ATOM     40  C   UNL A   1      40.628  28.567  29.692  1.00  0.00     0.037 A 
ATOM     41  C   UNL A   1      40.791  31.344  35.597  1.00  0.00     0.049 A 
ATOM     42  C   UNL A   1      41.520  28.394  30.889  1.00  0.00     0.074 A 
ATOM     43  C   UNL A   1      41.667  31.082  36.636  1.00  0.00     0.029 A 
ATOM     44  N   UNL A   1      41.160  30.516  34.547  1.00  0.00    -0.354 N 
ATOM     45  N   UNL A   1      41.467  28.995  32.052  1.00  0.00    -0.248 NA
ATOM     46  C   UNL A   1      42.613  27.421  30.763  1.00  0.00     0.031 C 
ATOM     47  C   UNL A   1      42.585  30.119  36.203  1.00  0.00     0.029 A 
ATOM     48  C   UNL A   1      42.256  29.749  34.910  1.00  0.00     0.049 A 
ATOM     49  H   UNL A   1      40.709  30.479  33.671  1.00  0.00     0.167 HD
ATOM     50  C   UNL A   1      42.507  28.464  32.803  1.00  0.00     0.074 A 
ATOM     51  C   UNL A   1      43.161  27.475  31.969  1.00  0.00     0.031 C 
ATOM     52  C   UNL A   1      42.889  28.769  34.067  1.00  0.00     0.037 A 
BRANCH  39  53
ATOM     53  C   UNL A   1      39.432  33.114  36.774  1.00  0.00     0.064 A 
ATOM     54  C   UNL A   1      38.535  32.715  37.775  1.00  0.00     0.173 A 
ATOM     55  C   UNL A   1      40.119  34.325  36.953  1.00  0.00     0.173 A 
ATOM     56  F   UNL A   1      37.842  31.573  37.643  1.00  0.00    -0.203 F 
ATOM     57  C   UNL A   1      38.318  33.507  38.900  1.00  0.00     0.198 A 
ATOM     58  C   UNL A   1      39.919  35.102  38.091  1.00  0.00     0.198 A 
ATOM     59  F   UNL A   1      40.991  34.751  36.026  1.00  0.00    -0.203 F 
ATOM     60  F   UNL A   1      37.426  33.126  39.824  1.00  0.00    -0.200 F 
ATOM     61  C   UNL A   1      39.016  34.696  39.060  1.00  0.00     0.200 A 
ATOM     62  F   UNL A   1      40.601  36.246  38.248  1.00  0.00    -0.200 F 
ATOM     63  F   UNL A   1      38.810  35.453  40.146  1.00  0.00    -0.200 F 
ENDBRANCH  39  53
BRANCH  40  64
ATOM     64  C   UNL A   1      40.850  27.779  28.453  1.00  0.00     0.064 A 
ATOM     65  C   UNL A   1      41.673  28.263  27.428  1.00  0.00     0.173 A 
ATOM     66  C   UNL A   1      40.248  26.525  28.271  1.00  0.00     0.173 A 
ATOM     67  F   UNL A   1      42.251  29.468  27.546  1.00  0.00    -0.203 F 
ATOM     68  C   UNL A   1      41.878  27.527  26.263  1.00  0.00     0.198 A 
ATOM     69  C   UNL A   1      40.476  25.777  27.118  1.00  0.00     0.198 A 
ATOM     70  F   UNL A   1      39.451  26.018  29.224  1.00  0.00    -0.203 F 
ATOM     71  F   UNL A   1      42.638  28.030  25.280  1.00  0.00    -0.200 F 
ATOM     72  C   UNL A   1      41.285  26.282  26.111  1.00  0.00     0.200 A 
ATOM     73  F   UNL A   1      39.910  24.571  26.982  1.00  0.00    -0.200 F 
ATOM     74  F   UNL A   1      41.488  25.573  24.994  1.00  0.00    -0.200 F 
ENDBRANCH  40  64
BRANCH  52  75
ATOM     75  C   UNL A   1      44.049  28.000  34.629  1.00  0.00     0.064 A 
ATOM     76  C   UNL A   1      43.866  26.782  35.300  1.00  0.00     0.173 A 
ATOM     77  C   UNL A   1      45.357  28.484  34.484  1.00  0.00     0.173 A 
ATOM     78  F   UNL A   1      42.631  26.287  35.476  1.00  0.00    -0.203 F 
ATOM     79  C   UNL A   1      44.950  26.091  35.834  1.00  0.00     0.198 A 
ATOM     80  C   UNL A   1      46.441  27.776  34.996  1.00  0.00     0.198 A 
ATOM     81  F   UNL A   1      45.584  29.640  33.846  1.00  0.00    -0.203 F 
ATOM     82  F   UNL A   1      44.748  24.956  36.517  1.00  0.00    -0.200 F 
ATOM     83  C   UNL A   1      46.236  26.586  35.678  1.00  0.00     0.200 A 
ATOM     84  F   UNL A   1      47.685  28.252  34.838  1.00  0.00    -0.200 F 
ATOM     85  F   UNL A   1      47.279  25.922  36.196  1.00  0.00    -0.200 F 
ENDBRANCH  52  75
ENDBRANCH  26  27
ENDBRANCH  19  21
ENDBRANCH  18  19
ENDBRANCH  17  18
ENDBRANCH   1  17
TORSDOF 16
ENDMDL
MODEL 2
REMARK VINA RESULT:     -10.4      1.373      2.100
REMARK SMILES CC(C)[C@@H](CC(=O)OC(C)(C)C)C(=O)OCCOC(=O)c1ccc(-c2c3nc(c(-c4c(F)c(F)c(F)c(F)c4F)c4ccc([nH]4)c(-c4c(F)c(F)c(F)c(F)c4F)c4nc(c(-c5c(F)c(F)c(F)c(F)c5F)c5ccc2[nH]5)C=C4)C=C3)cc1
REMARK SMILES IDX 16 1 15 2 13 3 14 4 4 5 2 6 1 7 3 8 5 9 6 10 7 11 8 12 9 13
REMARK SMILES IDX 10 14 11 15 12 16 17 17 18 18 19 19 20 20 21 21 22 22 83 23
REMARK SMILES IDX 23 24 82 25 24 26 25 27 26 28 76 29 27 30 81 31 75 32 77 33
REMARK SMILES IDX 28 34 80 35 74 36 73 37 29 39 61 40 41 41 60 42 42 43 45 44
REMARK SMILES IDX 59 45 78 46 43 47 44 48 58 50 79 51 46 52 30 53 31 54 39 55
REMARK SMILES IDX 32 56 33 57 37 58 40 59 34 60 35 61 38 62 36 63 62 64 63 65
REMARK SMILES IDX 71 66 64 67 65 68 69 69 72 70 66 71 67 72 70 73 68 74 47 75
REMARK SMILES IDX 48 76 56 77 49 78 50 79 54 80 57 81 51 82 52 83 55 84 53 85
REMARK H PARENT 77 38 45 49
REMARK Flexibility Score: inf
ROOT
ATOM      1  C   UNL A   1      31.330  30.971  25.729  1.00  0.00     0.274 C 
ENDROOT
BRANCH   1   2
ATOM      2  O   UNL A   1      32.271  29.898  25.937  1.00  0.00    -0.462 OA
BRANCH   2   3
ATOM      3  C   UNL A   1      31.719  28.663  26.050  1.00  0.00     0.309 C 
ATOM      4  O   UNL A   1      31.287  28.179  27.091  1.00  0.00    -0.252 OA
BRANCH   3   5
ATOM      5  C   UNL A   1      31.750  27.861  24.757  1.00  0.00     0.113 C 
BRANCH   5   6
ATOM      6  C   UNL A   1      32.555  26.530  24.781  1.00  0.00    -0.003 C 
ATOM      7  C   UNL A   1      33.027  26.140  23.372  1.00  0.00     0.008 C 
ATOM      8  C   UNL A   1      33.791  26.604  25.687  1.00  0.00     0.008 C 
ENDBRANCH   5   6
BRANCH   5   9
ATOM      9  C   UNL A   1      30.289  27.757  24.287  1.00  0.00     0.138 C 
BRANCH   9  10
ATOM     10  C   UNL A   1      30.053  28.429  22.956  1.00  0.00     0.307 C 
ATOM     11  O   UNL A   1      30.326  27.920  21.880  1.00  0.00    -0.252 OA
BRANCH  10  12
ATOM     12  O   UNL A   1      29.526  29.661  23.151  1.00  0.00    -0.460 OA
BRANCH  12  13
ATOM     13  C   UNL A   1      28.167  29.972  22.760  1.00  0.00     0.104 C 
ATOM     14  C   UNL A   1      28.085  30.413  21.294  1.00  0.00     0.056 C 
ATOM     15  C   UNL A   1      27.238  28.795  23.061  1.00  0.00     0.056 C 
ATOM     16  C   UNL A   1      27.781  31.164  23.647  1.00  0.00     0.056 C 
ENDBRANCH  12  13
ENDBRANCH  10  12
ENDBRANCH   9  10
ENDBRANCH   5   9
ENDBRANCH   3   5
ENDBRANCH   2   3
ENDBRANCH   1   2
BRANCH   1  17
ATOM     17  C   UNL A   1      31.630  32.161  26.640  1.00  0.00     0.275 C 
BRANCH  17  18
ATOM     18  O   UNL A   1      32.723  31.843  27.519  1.00  0.00    -0.458 OA
BRANCH  18  19
ATOM     19  C   UNL A   1      33.676  32.791  27.641  1.00  0.00     0.338 C 
ATOM     20  O   UNL A   1      33.574  33.986  27.424  1.00  0.00    -0.246 OA
BRANCH  19  21
ATOM     21  C   UNL A   1      34.925  32.177  28.120  1.00  0.00     0.060 A 
ATOM     22  C   UNL A   1      34.945  30.827  28.473  1.00  0.00     0.016 A 
ATOM     23  C   UNL A   1      36.040  32.981  28.352  1.00  0.00     0.016 A 
ATOM     24  C   UNL A   1      36.054  30.286  29.116  1.00  0.00     0.010 A 
ATOM     25  C   UNL A   1      37.180  32.423  28.939  1.00  0.00     0.010 A 
ATOM     26  C   UNL A   1      37.183  31.081  29.358  1.00  0.00    -0.014 A 
BRANCH  26  27
ATOM     27  C   UNL A   1      38.335  30.515  30.101  1.00  0.00     0.031 A 
ATOM     28  C   UNL A   1      38.550  30.875  31.545  1.00  0.00     0.074 A 
ATOM     29  C   UNL A   1      39.171  29.657  29.488  1.00  0.00     0.049 A 
ATOM     30  N   UNL A   1      39.535  30.549  32.344  1.00  0.00    -0.248 NA
ATOM     31  C   UNL A   1      37.522  31.720  32.173  1.00  0.00     0.031 C 
ATOM     32  C   UNL A   1      39.047  29.203  28.102  1.00  0.00     0.029 A 
ATOM     33  N   UNL A   1      40.286  29.008  29.955  1.00  0.00    -0.354 N 
ATOM     34  C   UNL A   1      39.263  31.174  33.555  1.00  0.00     0.074 A 
ATOM     35  C   UNL A   1      38.028  31.909  33.383  1.00  0.00     0.031 C 
ATOM     36  C   UNL A   1      40.035  28.334  27.837  1.00  0.00     0.029 A 
ATOM     37  C   UNL A   1      40.889  28.210  29.015  1.00  0.00     0.049 A 
ATOM     38  H   UNL A   1      40.621  29.104  30.876  1.00  0.00     0.167 HD
ATOM     39  C   UNL A   1      39.979  31.134  34.703  1.00  0.00     0.037 A 
ATOM     40  C   UNL A   1      42.017  27.479  29.087  1.00  0.00     0.037 A 
ATOM     41  C   UNL A   1      41.191  30.376  34.879  1.00  0.00     0.049 A 
ATOM     42  C   UNL A   1      42.800  27.464  30.370  1.00  0.00     0.074 A 
ATOM     43  C   UNL A   1      41.988  30.266  36.006  1.00  0.00     0.029 A 
ATOM     44  N   UNL A   1      41.777  29.589  33.899  1.00  0.00    -0.354 N 
ATOM     45  N   UNL A   1      42.546  28.075  31.501  1.00  0.00    -0.248 NA
ATOM     46  C   UNL A   1      44.028  26.657  30.384  1.00  0.00     0.031 C 
ATOM     47  C   UNL A   1      43.072  29.438  35.697  1.00  0.00     0.029 A 
ATOM     48  C   UNL A   1      42.930  28.997  34.393  1.00  0.00     0.049 A 
ATOM     49  H   UNL A   1      41.426  29.468  32.986  1.00  0.00     0.167 HD
ATOM     50  C   UNL A   1      43.571  27.716  32.367  1.00  0.00     0.074 A 
ATOM     51  C   UNL A   1      44.439  26.816  31.635  1.00  0.00     0.031 C 
ATOM     52  C   UNL A   1      43.777  28.101  33.650  1.00  0.00     0.037 A 
BRANCH  39  53
ATOM     53  C   UNL A   1      39.484  31.955  35.856  1.00  0.00     0.064 A 
ATOM     54  C   UNL A   1      38.494  31.484  36.730  1.00  0.00     0.173 A 
ATOM     55  C   UNL A   1      40.032  33.222  36.108  1.00  0.00     0.173 A 
ATOM     56  F   UNL A   1      37.926  30.285  36.523  1.00  0.00    -0.203 F 
ATOM     57  C   UNL A   1      38.056  32.259  37.801  1.00  0.00     0.198 A 
ATOM     58  C   UNL A   1      39.611  33.984  37.195  1.00  0.00     0.198 A 
ATOM     59  F   UNL A   1      40.984  33.719  35.304  1.00  0.00    -0.203 F 
ATOM     60  F   UNL A   1      37.080  31.805  38.599  1.00  0.00    -0.200 F 
ATOM     61  C   UNL A   1      38.619  33.505  38.037  1.00  0.00     0.200 A 
ATOM     62  F   UNL A   1      40.163  35.183  37.426  1.00  0.00    -0.200 F 
ATOM     63  F   UNL A   1      38.201  34.246  39.072  1.00  0.00    -0.200 F 
ENDBRANCH  39  53
BRANCH  40  64
ATOM     64  C   UNL A   1      42.471  26.706  27.905  1.00  0.00     0.064 A 
ATOM     65  C   UNL A   1      42.007  25.404  27.672  1.00  0.00     0.173 A 
ATOM     66  C   UNL A   1      43.375  27.252  26.981  1.00  0.00     0.173 A 
ATOM     67  F   UNL A   1      41.161  24.830  28.540  1.00  0.00    -0.203 F 
ATOM     68  C   UNL A   1      42.437  24.675  26.566  1.00  0.00     0.198 A 
ATOM     69  C   UNL A   1      43.783  26.533  25.861  1.00  0.00     0.198 A 
ATOM     70  F   UNL A   1      43.848  28.495  27.160  1.00  0.00    -0.203 F 
ATOM     71  F   UNL A   1      42.009  23.417  26.387  1.00  0.00    -0.200 F 
ATOM     72  C   UNL A   1      43.319  25.242  25.657  1.00  0.00     0.200 A 
ATOM     73  F   UNL A   1      44.625  27.089  24.980  1.00  0.00    -0.200 F 
ATOM     74  F   UNL A   1      43.727  24.542  24.590  1.00  0.00    -0.200 F 
ENDBRANCH  40  64
BRANCH  52  75
ATOM     75  C   UNL A   1      44.972  27.520  34.348  1.00  0.00     0.064 A 
ATOM     76  C   UNL A   1      44.896  26.307  35.047  1.00  0.00     0.173 A 
ATOM     77  C   UNL A   1      46.208  28.182  34.305  1.00  0.00     0.173 A 
ATOM     78  F   UNL A   1      43.731  25.646  35.128  1.00  0.00    -0.203 F 
ATOM     79  C   UNL A   1      46.009  25.793  35.706  1.00  0.00     0.198 A 
ATOM     80  C   UNL A   1      47.325  27.650  34.944  1.00  0.00     0.198 A 
ATOM     81  F   UNL A   1      46.333  29.341  33.645  1.00  0.00    -0.203 F 
ATOM     82  F   UNL A   1      45.901  24.659  36.413  1.00  0.00    -0.200 F 
ATOM     83  C   UNL A   1      47.223  26.462  35.651  1.00  0.00     0.200 A 
ATOM     84  F   UNL A   1      48.499  28.294  34.882  1.00  0.00    -0.200 F 
ATOM     85  F   UNL A   1      48.292  25.967  36.290  1.00  0.00    -0.200 F 
ENDBRANCH  52  75
ENDBRANCH  26  27
ENDBRANCH  19  21
ENDBRANCH  18  19
ENDBRANCH  17  18
ENDBRANCH   1  17
TORSDOF 16
ENDMDL
MODEL 3
REMARK VINA RESULT:     -10.3      5.709      9.010
REMARK SMILES CC(C)[C@@H](CC(=O)OC(C)(C)C)C(=O)OCCOC(=O)c1ccc(-c2c3nc(c(-c4c(F)c(F)c(F)c(F)c4F)c4ccc([nH]4)c(-c4c(F)c(F)c(F)c(F)c4F)c4nc(c(-c5c(F)c(F)c(F)c(F)c5F)c5ccc2[nH]5)C=C4)C=C3)cc1
REMARK SMILES IDX 16 1 15 2 13 3 14 4 4 5 2 6 1 7 3 8 5 9 6 10 7 11 8 12 9 13
REMARK SMILES IDX 10 14 11 15 12 16 17 17 18 18 19 19 20 20 21 21 22 22 83 23
REMARK SMILES IDX 23 24 82 25 24 26 25 27 26 28 76 29 27 30 81 31 75 32 77 33
REMARK SMILES IDX 28 34 80 35 74 36 73 37 29 39 61 40 41 41 60 42 42 43 45 44
REMARK SMILES IDX 59 45 78 46 43 47 44 48 58 50 79 51 46 52 30 53 31 54 39 55
REMARK SMILES IDX 32 56 33 57 37 58 40 59 34 60 35 61 38 62 36 63 62 64 63 65
REMARK SMILES IDX 71 66 64 67 65 68 69 69 72 70 66 71 67 72 70 73 68 74 47 75
REMARK SMILES IDX 48 76 56 77 49 78 50 79 54 80 57 81 51 82 52 83 55 84 53 85
REMARK H PARENT 77 38 45 49
REMARK Flexibility Score: inf
ROOT
ATOM      1  C   UNL A   1      36.909  22.572  23.841  1.00  0.00     0.274 C 
ENDROOT
BRANCH   1   2
ATOM      2  O   UNL A   1      35.681  23.084  24.397  1.00  0.00    -0.462 OA
BRANCH   2   3
ATOM      3  C   UNL A   1      34.592  22.966  23.596  1.00  0.00     0.309 C 
ATOM      4  O   UNL A   1      34.565  23.242  22.401  1.00  0.00    -0.252 OA
BRANCH   3   5
ATOM      5  C   UNL A   1      33.336  22.527  24.335  1.00  0.00     0.113 C 
BRANCH   5   6
ATOM      6  C   UNL A   1      32.391  23.655  24.837  1.00  0.00    -0.003 C 
ATOM      7  C   UNL A   1      31.066  23.656  24.060  1.00  0.00     0.008 C 
ATOM      8  C   UNL A   1      32.060  23.527  26.330  1.00  0.00     0.008 C 
ENDBRANCH   5   6
BRANCH   5   9
ATOM      9  C   UNL A   1      32.686  21.442  23.459  1.00  0.00     0.138 C 
BRANCH   9  10
ATOM     10  C   UNL A   1      32.316  20.204  24.238  1.00  0.00     0.307 C 
ATOM     11  O   UNL A   1      31.788  20.226  25.339  1.00  0.00    -0.252 OA
BRANCH  10  12
ATOM     12  O   UNL A   1      32.677  19.099  23.543  1.00  0.00    -0.460 OA
BRANCH  12  13
ATOM     13  C   UNL A   1      33.457  18.043  24.154  1.00  0.00     0.104 C 
ATOM     14  C   UNL A   1      34.831  18.545  24.614  1.00  0.00     0.056 C 
ATOM     15  C   UNL A   1      32.674  17.384  25.289  1.00  0.00     0.056 C 
ATOM     16  C   UNL A   1      33.667  17.025  23.023  1.00  0.00     0.056 C 
ENDBRANCH  12  13
ENDBRANCH  10  12
ENDBRANCH   9  10
ENDBRANCH   5   9
ENDBRANCH   3   5
ENDBRANCH   2   3
ENDBRANCH   1   2
BRANCH   1  17
ATOM     17  C   UNL A   1      37.363  21.303  24.562  1.00  0.00     0.275 C 
BRANCH  17  18
ATOM     18  O   UNL A   1      37.747  21.617  25.911  1.00  0.00    -0.458 OA
BRANCH  18  19
ATOM     19  C   UNL A   1      39.053  21.447  26.206  1.00  0.00     0.338 C 
ATOM     20  O   UNL A   1      39.728  20.443  26.063  1.00  0.00    -0.246 OA
BRANCH  19  21
ATOM     21  C   UNL A   1      39.608  22.706  26.731  1.00  0.00     0.060 A 
ATOM     22  C   UNL A   1      39.136  23.928  26.249  1.00  0.00     0.016 A 
ATOM     23  C   UNL A   1      40.697  22.667  27.601  1.00  0.00     0.016 A 
ATOM     24  C   UNL A   1      39.787  25.112  26.582  1.00  0.00     0.010 A 
ATOM     25  C   UNL A   1      41.312  23.861  27.987  1.00  0.00     0.010 A 
ATOM     26  C   UNL A   1      40.884  25.090  27.453  1.00  0.00    -0.014 A 
BRANCH  26  27
ATOM     27  C   UNL A   1      41.612  26.347  27.752  1.00  0.00     0.031 A 
ATOM     28  C   UNL A   1      40.952  27.423  28.568  1.00  0.00     0.074 A 
ATOM     29  C   UNL A   1      42.875  26.509  27.316  1.00  0.00     0.049 A 
ATOM     30  N   UNL A   1      41.389  28.619  28.872  1.00  0.00    -0.248 NA
ATOM     31  C   UNL A   1      39.619  27.115  29.109  1.00  0.00     0.031 C 
ATOM     32  C   UNL A   1      43.635  25.524  26.546  1.00  0.00     0.029 A 
ATOM     33  N   UNL A   1      43.743  27.561  27.464  1.00  0.00    -0.354 N 
ATOM     34  C   UNL A   1      40.375  29.216  29.610  1.00  0.00     0.074 A 
ATOM     35  C   UNL A   1      39.295  28.257  29.697  1.00  0.00     0.031 C 
ATOM     36  C   UNL A   1      44.864  26.009  26.307  1.00  0.00     0.029 A 
ATOM     37  C   UNL A   1      44.959  27.357  26.860  1.00  0.00     0.049 A 
ATOM     38  H   UNL A   1      43.517  28.382  27.957  1.00  0.00     0.167 HD
ATOM     39  C   UNL A   1      40.351  30.451  30.164  1.00  0.00     0.037 A 
ATOM     40  C   UNL A   1      46.022  28.174  26.745  1.00  0.00     0.037 A 
ATOM     41  C   UNL A   1      41.440  31.392  30.101  1.00  0.00     0.049 A 
ATOM     42  C   UNL A   1      45.964  29.545  27.358  1.00  0.00     0.074 A 
ATOM     43  C   UNL A   1      41.516  32.667  30.636  1.00  0.00     0.029 A 
ATOM     44  N   UNL A   1      42.652  31.153  29.470  1.00  0.00    -0.354 N 
ATOM     45  N   UNL A   1      44.992  30.108  28.034  1.00  0.00    -0.248 NA
ATOM     46  C   UNL A   1      47.150  30.395  27.189  1.00  0.00     0.031 C 
ATOM     47  C   UNL A   1      42.761  33.210  30.301  1.00  0.00     0.029 A 
ATOM     48  C   UNL A   1      43.478  32.259  29.594  1.00  0.00     0.049 A 
ATOM     49  H   UNL A   1      42.890  30.319  29.002  1.00  0.00     0.167 HD
ATOM     50  C   UNL A   1      45.453  31.369  28.386  1.00  0.00     0.074 A 
ATOM     51  C   UNL A   1      46.801  31.481  27.865  1.00  0.00     0.031 C 
ATOM     52  C   UNL A   1      44.817  32.348  29.073  1.00  0.00     0.037 A 
BRANCH  39  53
ATOM     53  C   UNL A   1      39.094  30.870  30.868  1.00  0.00     0.064 A 
ATOM     54  C   UNL A   1      38.029  31.475  30.184  1.00  0.00     0.173 A 
ATOM     55  C   UNL A   1      38.941  30.633  32.242  1.00  0.00     0.173 A 
ATOM     56  F   UNL A   1      38.132  31.737  28.872  1.00  0.00    -0.203 F 
ATOM     57  C   UNL A   1      36.866  31.846  30.855  1.00  0.00     0.198 A 
ATOM     58  C   UNL A   1      37.767  30.982  32.905  1.00  0.00     0.198 A 
ATOM     59  F   UNL A   1      39.929  30.055  32.943  1.00  0.00    -0.203 F 
ATOM     60  F   UNL A   1      35.878  32.460  30.189  1.00  0.00    -0.200 F 
ATOM     61  C   UNL A   1      36.734  31.593  32.212  1.00  0.00     0.200 A 
ATOM     62  F   UNL A   1      37.637  30.729  34.215  1.00  0.00    -0.200 F 
ATOM     63  F   UNL A   1      35.611  31.946  32.854  1.00  0.00    -0.200 F 
ENDBRANCH  39  53
BRANCH  40  64
ATOM     64  C   UNL A   1      47.230  27.714  26.015  1.00  0.00     0.064 A 
ATOM     65  C   UNL A   1      48.338  27.202  26.704  1.00  0.00     0.173 A 
ATOM     66  C   UNL A   1      47.301  27.772  24.615  1.00  0.00     0.173 A 
ATOM     67  F   UNL A   1      48.327  27.150  28.044  1.00  0.00    -0.203 F 
ATOM     68  C   UNL A   1      49.475  26.775  26.021  1.00  0.00     0.198 A 
ATOM     69  C   UNL A   1      48.426  27.319  23.931  1.00  0.00     0.198 A 
ATOM     70  F   UNL A   1      46.266  28.253  23.910  1.00  0.00    -0.203 F 
ATOM     71  F   UNL A   1      50.537  26.327  26.705  1.00  0.00    -0.200 F 
ATOM     72  C   UNL A   1      49.516  26.827  24.635  1.00  0.00     0.200 A 
ATOM     73  F   UNL A   1      48.456  27.360  22.593  1.00  0.00    -0.200 F 
ATOM     74  F   UNL A   1      50.606  26.411  23.979  1.00  0.00    -0.200 F 
ENDBRANCH  40  64
BRANCH  52  75
ATOM     75  C   UNL A   1      45.588  33.610  29.326  1.00  0.00     0.064 A 
ATOM     76  C   UNL A   1      45.493  34.714  28.466  1.00  0.00     0.173 A 
ATOM     77  C   UNL A   1      46.422  33.718  30.449  1.00  0.00     0.173 A 
ATOM     78  F   UNL A   1      44.720  34.652  27.372  1.00  0.00    -0.203 F 
ATOM     79  C   UNL A   1      46.232  35.870  28.705  1.00  0.00     0.198 A 
ATOM     80  C   UNL A   1      47.138  34.885  30.697  1.00  0.00     0.198 A 
ATOM     81  F   UNL A   1      46.542  32.692  31.303  1.00  0.00    -0.203 F 
ATOM     82  F   UNL A   1      46.167  36.893  27.841  1.00  0.00    -0.200 F 
ATOM     83  C   UNL A   1      47.050  35.957  29.821  1.00  0.00     0.200 A 
ATOM     84  F   UNL A   1      47.922  34.971  31.782  1.00  0.00    -0.200 F 
ATOM     85  F   UNL A   1      47.763  37.069  30.047  1.00  0.00    -0.200 F 
ENDBRANCH  52  75
ENDBRANCH  26  27
ENDBRANCH  19  21
ENDBRANCH  18  19
ENDBRANCH  17  18
ENDBRANCH   1  17
TORSDOF 16
ENDMDL
