MODEL 1
REMARK VINA RESULT:      -9.5      0.000      0.000
REMARK SMILES N#Cc1cccc(NCCCC(=O)OCCOC(=O)c2ccc(-c3c4nc(c(-c5c(F)c(F)c(F)c(F)c5F)c5ccc([nH]5)c(-c5c(F)c(F)c(F)c(F)c5F)c5nc(c(-c6c(F)c(F)c(F)c(F)c6F)c6ccc3[nH]6)C=C5)C=C4)cc2)c1
REMARK SMILES IDX 14 1 12 2 13 3 11 4 10 5 9 6 8 7 7 9 3 10 4 11 83 12 5 13
REMARK SMILES IDX 6 14 2 15 1 16 15 17 16 18 17 19 18 20 19 21 20 22 21 23
REMARK SMILES IDX 82 24 22 25 81 26 23 27 24 28 25 29 75 30 26 31 80 32 74 33
REMARK SMILES IDX 76 34 27 35 79 36 73 37 72 38 28 40 60 41 40 42 59 43 41 44
REMARK SMILES IDX 44 45 58 46 77 47 42 48 43 49 57 51 78 52 45 53 29 54 30 55
REMARK SMILES IDX 38 56 31 57 32 58 36 59 39 60 33 61 34 62 37 63 35 64 61 65
REMARK SMILES IDX 62 66 70 67 63 68 64 69 68 70 71 71 65 72 66 73 69 74 67 75
REMARK SMILES IDX 46 76 47 77 55 78 48 79 49 80 53 81 56 82 50 83 51 84 54 85
REMARK SMILES IDX 52 86
REMARK H PARENT 8 8 76 39 44 50
REMARK Flexibility Score: inf
ROOT
ATOM      1  O   UNL A   1      32.652  34.983  30.270  1.00  0.00    -0.462 OA
ENDROOT
BRANCH   1   2
ATOM      2  C   UNL A   1      32.945  35.962  31.159  1.00  0.00     0.305 C 
ATOM      3  O   UNL A   1      32.862  37.163  30.931  1.00  0.00    -0.252 OA
BRANCH   2   4
ATOM      4  C   UNL A   1      33.448  35.421  32.478  1.00  0.00     0.124 C 
BRANCH   4   5
ATOM      5  C   UNL A   1      34.935  35.639  32.779  1.00  0.00     0.033 C 
BRANCH   5   6
ATOM      6  C   UNL A   1      35.891  34.556  32.273  1.00  0.00     0.113 C 
BRANCH   6   7
ATOM      7  N   UNL A   1      37.261  34.975  32.488  1.00  0.00    -0.385 N 
ATOM      8  H   UNL A   1      37.445  35.485  33.309  1.00  0.00     0.160 HD
BRANCH   7   9
ATOM      9  C   UNL A   1      38.333  34.733  31.659  1.00  0.00     0.035 A 
ATOM     10  C   UNL A   1      40.651  33.987  31.452  1.00  0.00     0.054 A 
ATOM     11  C   UNL A   1      40.591  34.151  30.069  1.00  0.00     0.019 A 
ATOM     12  C   UNL A   1      39.527  34.277  32.235  1.00  0.00     0.045 A 
ATOM     13  C   UNL A   1      39.407  34.584  29.478  1.00  0.00     0.003 A 
ATOM     14  C   UNL A   1      38.287  34.858  30.269  1.00  0.00     0.026 A 
BRANCH  10  15
ATOM     15  C   UNL A   1      41.854  33.520  32.077  1.00  0.00     0.099 C 
ATOM     16  N   UNL A   1      42.824  33.143  32.586  1.00  0.00    -0.192 NA
ENDBRANCH  10  15
ENDBRANCH   7   9
ENDBRANCH   6   7
ENDBRANCH   5   6
ENDBRANCH   4   5
ENDBRANCH   2   4
ENDBRANCH   1   2
BRANCH   1  17
ATOM     17  C   UNL A   1      33.538  34.842  29.143  1.00  0.00     0.274 C 
BRANCH  17  18
ATOM     18  C   UNL A   1      32.894  34.028  28.017  1.00  0.00     0.275 C 
BRANCH  18  19
ATOM     19  O   UNL A   1      33.871  33.245  27.302  1.00  0.00    -0.458 OA
BRANCH  19  20
ATOM     20  C   UNL A   1      33.804  31.913  27.526  1.00  0.00     0.338 C 
ATOM     21  O   UNL A   1      32.878  31.165  27.259  1.00  0.00    -0.246 OA
BRANCH  20  22
ATOM     22  C   UNL A   1      35.093  31.411  28.028  1.00  0.00     0.060 A 
ATOM     23  C   UNL A   1      35.127  30.118  28.551  1.00  0.00     0.016 A 
ATOM     24  C   UNL A   1      36.215  32.235  28.113  1.00  0.00     0.016 A 
ATOM     25  C   UNL A   1      36.265  29.648  29.193  1.00  0.00     0.010 A 
ATOM     26  C   UNL A   1      37.373  31.752  28.738  1.00  0.00     0.010 A 
ATOM     27  C   UNL A   1      37.398  30.463  29.304  1.00  0.00    -0.014 A 
BRANCH  27  28
ATOM     28  C   UNL A   1      38.570  29.961  30.065  1.00  0.00     0.031 A 
ATOM     29  C   UNL A   1      38.783  30.380  31.492  1.00  0.00     0.074 A 
ATOM     30  C   UNL A   1      39.404  29.074  29.490  1.00  0.00     0.049 A 
ATOM     31  N   UNL A   1      39.743  30.049  32.320  1.00  0.00    -0.248 NA
ATOM     32  C   UNL A   1      37.786  31.296  32.066  1.00  0.00     0.031 C 
ATOM     33  C   UNL A   1      39.279  28.563  28.125  1.00  0.00     0.029 A 
ATOM     34  N   UNL A   1      40.514  28.435  29.985  1.00  0.00    -0.354 N 
ATOM     35  C   UNL A   1      39.475  30.727  33.503  1.00  0.00     0.074 A 
ATOM     36  C   UNL A   1      38.282  31.513  33.275  1.00  0.00     0.031 C 
ATOM     37  C   UNL A   1      40.258  27.673  27.898  1.00  0.00     0.029 A 
ATOM     38  C   UNL A   1      41.112  27.594  29.079  1.00  0.00     0.049 A 
ATOM     39  H   UNL A   1      40.849  28.567  30.902  1.00  0.00     0.167 HD
ATOM     40  C   UNL A   1      40.159  30.687  34.673  1.00  0.00     0.037 A 
ATOM     41  C   UNL A   1      42.235  26.859  29.181  1.00  0.00     0.037 A 
ATOM     42  C   UNL A   1      41.342  29.894  34.893  1.00  0.00     0.049 A 
ATOM     43  C   UNL A   1      43.007  26.881  30.474  1.00  0.00     0.074 A 
ATOM     44  C   UNL A   1      42.099  29.775  36.046  1.00  0.00     0.029 A 
ATOM     45  N   UNL A   1      41.944  29.087  33.938  1.00  0.00    -0.354 N 
ATOM     46  N   UNL A   1      42.740  27.516  31.590  1.00  0.00    -0.248 NA
ATOM     47  C   UNL A   1      44.235  26.078  30.520  1.00  0.00     0.031 C 
ATOM     48  C   UNL A   1      43.194  28.949  35.769  1.00  0.00     0.029 A 
ATOM     49  C   UNL A   1      43.079  28.490  34.467  1.00  0.00     0.049 A 
ATOM     50  H   UNL A   1      41.614  28.957  33.020  1.00  0.00     0.167 HD
ATOM     51  C   UNL A   1      43.748  27.166  32.479  1.00  0.00     0.074 A 
ATOM     52  C   UNL A   1      44.617  26.244  31.778  1.00  0.00     0.031 C 
ATOM     53  C   UNL A   1      43.936  27.572  33.760  1.00  0.00     0.037 A 
BRANCH  40  54
ATOM     54  C   UNL A   1      39.664  31.554  35.799  1.00  0.00     0.064 A 
ATOM     55  C   UNL A   1      40.257  32.788  36.103  1.00  0.00     0.173 A 
ATOM     56  C   UNL A   1      38.557  31.156  36.565  1.00  0.00     0.173 A 
ATOM     57  F   UNL A   1      41.325  33.214  35.412  1.00  0.00    -0.203 F 
ATOM     58  C   UNL A   1      39.781  33.575  37.151  1.00  0.00     0.198 A 
ATOM     59  C   UNL A   1      38.063  31.961  37.587  1.00  0.00     0.198 A 
ATOM     60  F   UNL A   1      37.946  29.987  36.315  1.00  0.00    -0.203 F 
ATOM     61  F   UNL A   1      40.399  34.725  37.458  1.00  0.00    -0.200 F 
ATOM     62  C   UNL A   1      38.680  33.165  37.886  1.00  0.00     0.200 A 
ATOM     63  F   UNL A   1      36.987  31.569  38.286  1.00  0.00    -0.200 F 
ATOM     64  F   UNL A   1      38.219  33.926  38.888  1.00  0.00    -0.200 F 
ENDBRANCH  40  54
BRANCH  41  65
ATOM     65  C   UNL A   1      42.705  26.050  28.024  1.00  0.00     0.064 A 
ATOM     66  C   UNL A   1      43.592  26.582  27.079  1.00  0.00     0.173 A 
ATOM     67  C   UNL A   1      42.259  24.734  27.831  1.00  0.00     0.173 A 
ATOM     68  F   UNL A   1      44.029  27.844  27.205  1.00  0.00    -0.203 F 
ATOM     69  C   UNL A   1      43.996  25.839  25.971  1.00  0.00     0.198 A 
ATOM     70  C   UNL A   1      42.693  23.978  26.744  1.00  0.00     0.198 A 
ATOM     71  F   UNL A   1      41.410  24.175  28.705  1.00  0.00    -0.203 F 
ATOM     72  F   UNL A   1      44.798  26.393  25.052  1.00  0.00    -0.200 F 
ATOM     73  C   UNL A   1      43.552  24.535  25.809  1.00  0.00     0.200 A 
ATOM     74  F   UNL A   1      42.274  22.714  26.599  1.00  0.00    -0.200 F 
ATOM     75  F   UNL A   1      43.942  23.820  24.745  1.00  0.00    -0.200 F 
ENDBRANCH  41  65
BRANCH  53  76
ATOM     76  C   UNL A   1      45.104  26.979  34.500  1.00  0.00     0.064 A 
ATOM     77  C   UNL A   1      46.356  27.612  34.546  1.00  0.00     0.173 A 
ATOM     78  C   UNL A   1      44.967  25.754  35.174  1.00  0.00     0.173 A 
ATOM     79  F   UNL A   1      46.547  28.778  33.909  1.00  0.00    -0.203 F 
ATOM     80  C   UNL A   1      47.436  27.020  35.196  1.00  0.00     0.198 A 
ATOM     81  C   UNL A   1      46.038  25.186  35.858  1.00  0.00     0.198 A 
ATOM     82  F   UNL A   1      43.791  25.109  35.172  1.00  0.00    -0.203 F 
ATOM     83  F   UNL A   1      48.640  27.607  35.162  1.00  0.00    -0.200 F 
ATOM     84  C   UNL A   1      47.274  25.811  35.856  1.00  0.00     0.200 A 
ATOM     85  F   UNL A   1      45.874  24.026  36.510  1.00  0.00    -0.200 F 
ATOM     86  F   UNL A   1      48.315  25.242  36.480  1.00  0.00    -0.200 F 
ENDBRANCH  53  76
ENDBRANCH  27  28
ENDBRANCH  20  22
ENDBRANCH  19  20
ENDBRANCH  18  19
ENDBRANCH  17  18
ENDBRANCH   1  17
TORSDOF 16
ENDMDL
MODEL 2
REMARK VINA RESULT:      -9.4      3.384      6.145
REMARK SMILES N#Cc1cccc(NCCCC(=O)OCCOC(=O)c2ccc(-c3c4nc(c(-c5c(F)c(F)c(F)c(F)c5F)c5ccc([nH]5)c(-c5c(F)c(F)c(F)c(F)c5F)c5nc(c(-c6c(F)c(F)c(F)c(F)c6F)c6ccc3[nH]6)C=C5)C=C4)cc2)c1
REMARK SMILES IDX 14 1 12 2 13 3 11 4 10 5 9 6 8 7 7 9 3 10 4 11 83 12 5 13
REMARK SMILES IDX 6 14 2 15 1 16 15 17 16 18 17 19 18 20 19 21 20 22 21 23
REMARK SMILES IDX 82 24 22 25 81 26 23 27 24 28 25 29 75 30 26 31 80 32 74 33
REMARK SMILES IDX 76 34 27 35 79 36 73 37 72 38 28 40 60 41 40 42 59 43 41 44
REMARK SMILES IDX 44 45 58 46 77 47 42 48 43 49 57 51 78 52 45 53 29 54 30 55
REMARK SMILES IDX 38 56 31 57 32 58 36 59 39 60 33 61 34 62 37 63 35 64 61 65
REMARK SMILES IDX 62 66 70 67 63 68 64 69 68 70 71 71 65 72 66 73 69 74 67 75
REMARK SMILES IDX 46 76 47 77 55 78 48 79 49 80 53 81 56 82 50 83 51 84 54 85
REMARK SMILES IDX 52 86
REMARK H PARENT 8 8 76 39 44 50
REMARK Flexibility Score: inf
ROOT
ATOM      1  O   UNL A   1      31.362  28.292  25.574  1.00  0.00    -0.462 OA
ENDROOT
BRANCH   1   2
ATOM      2  C   UNL A   1      31.273  26.975  25.874  1.00  0.00     0.305 C 
ATOM      3  O   UNL A   1      31.458  26.496  26.987  1.00  0.00    -0.252 OA
BRANCH   2   4
ATOM      4  C   UNL A   1      30.971  26.120  24.664  1.00  0.00     0.124 C 
BRANCH   4   5
ATOM      5  C   UNL A   1      31.872  26.330  23.442  1.00  0.00     0.033 C 
BRANCH   5   6
ATOM      6  C   UNL A   1      31.209  26.965  22.218  1.00  0.00     0.113 C 
BRANCH   6   7
ATOM      7  N   UNL A   1      31.002  28.380  22.453  1.00  0.00    -0.385 N 
ATOM      8  H   UNL A   1      31.803  28.952  22.442  1.00  0.00     0.160 HD
BRANCH   7   9
ATOM      9  C   UNL A   1      29.800  29.006  22.692  1.00  0.00     0.035 A 
ATOM     10  C   UNL A   1      28.584  31.112  22.926  1.00  0.00     0.054 A 
ATOM     11  C   UNL A   1      27.393  30.414  23.121  1.00  0.00     0.019 A 
ATOM     12  C   UNL A   1      29.774  30.407  22.713  1.00  0.00     0.045 A 
ATOM     13  C   UNL A   1      27.396  29.022  23.084  1.00  0.00     0.003 A 
ATOM     14  C   UNL A   1      28.589  28.330  22.857  1.00  0.00     0.026 A 
BRANCH  10  15
ATOM     15  C   UNL A   1      28.596  32.546  22.938  1.00  0.00     0.099 C 
ATOM     16  N   UNL A   1      28.605  33.704  22.953  1.00  0.00    -0.192 NA
ENDBRANCH  10  15
ENDBRANCH   7   9
ENDBRANCH   6   7
ENDBRANCH   5   6
ENDBRANCH   4   5
ENDBRANCH   2   4
ENDBRANCH   1   2
BRANCH   1  17
ATOM     17  C   UNL A   1      32.611  28.945  25.873  1.00  0.00     0.274 C 
BRANCH  17  18
ATOM     18  C   UNL A   1      32.431  30.455  26.051  1.00  0.00     0.275 C 
BRANCH  18  19
ATOM     19  O   UNL A   1      32.778  30.878  27.385  1.00  0.00    -0.458 OA
BRANCH  19  20
ATOM     20  C   UNL A   1      33.640  31.918  27.444  1.00  0.00     0.338 C 
ATOM     21  O   UNL A   1      33.389  33.096  27.248  1.00  0.00    -0.246 OA
BRANCH  20  22
ATOM     22  C   UNL A   1      34.953  31.471  27.932  1.00  0.00     0.060 A 
ATOM     23  C   UNL A   1      35.058  30.164  28.410  1.00  0.00     0.016 A 
ATOM     24  C   UNL A   1      36.029  32.351  28.048  1.00  0.00     0.016 A 
ATOM     25  C   UNL A   1      36.220  29.735  29.038  1.00  0.00     0.010 A 
ATOM     26  C   UNL A   1      37.211  31.911  28.659  1.00  0.00     0.010 A 
ATOM     27  C   UNL A   1      37.306  30.607  29.181  1.00  0.00    -0.014 A 
BRANCH  27  28
ATOM     28  C   UNL A   1      38.503  30.143  29.926  1.00  0.00     0.031 A 
ATOM     29  C   UNL A   1      38.740  30.600  31.339  1.00  0.00     0.074 A 
ATOM     30  C   UNL A   1      39.340  29.257  29.355  1.00  0.00     0.049 A 
ATOM     31  N   UNL A   1      39.723  30.306  32.153  1.00  0.00    -0.248 NA
ATOM     32  C   UNL A   1      37.740  31.512  31.912  1.00  0.00     0.031 C 
ATOM     33  C   UNL A   1      39.194  28.710  28.005  1.00  0.00     0.029 A 
ATOM     34  N   UNL A   1      40.471  28.649  29.839  1.00  0.00    -0.354 N 
ATOM     35  C   UNL A   1      39.469  31.008  33.324  1.00  0.00     0.074 A 
ATOM     36  C   UNL A   1      38.258  31.767  33.105  1.00  0.00     0.031 C 
ATOM     37  C   UNL A   1      40.184  27.833  27.778  1.00  0.00     0.029 A 
ATOM     38  C   UNL A   1      41.064  27.797  28.941  1.00  0.00     0.049 A 
ATOM     39  H   UNL A   1      40.825  28.809  30.745  1.00  0.00     0.167 HD
ATOM     40  C   UNL A   1      40.179  31.007  34.479  1.00  0.00     0.037 A 
ATOM     41  C   UNL A   1      42.203  27.084  29.035  1.00  0.00     0.037 A 
ATOM     42  C   UNL A   1      41.380  30.240  34.692  1.00  0.00     0.049 A 
ATOM     43  C   UNL A   1      43.002  27.151  30.310  1.00  0.00     0.074 A 
ATOM     44  C   UNL A   1      42.165  30.162  35.831  1.00  0.00     0.029 A 
ATOM     45  N   UNL A   1      41.976  29.421  33.743  1.00  0.00    -0.354 N 
ATOM     46  N   UNL A   1      42.749  27.808  31.416  1.00  0.00    -0.248 NA
ATOM     47  C   UNL A   1      44.245  26.370  30.348  1.00  0.00     0.031 C 
ATOM     48  C   UNL A   1      43.268  29.349  35.548  1.00  0.00     0.029 A 
ATOM     49  C   UNL A   1      43.133  28.857  34.261  1.00  0.00     0.049 A 
ATOM     50  H   UNL A   1      41.628  29.264  32.836  1.00  0.00     0.167 HD
ATOM     51  C   UNL A   1      43.781  27.497  32.290  1.00  0.00     0.074 A 
ATOM     52  C   UNL A   1      44.651  26.573  31.592  1.00  0.00     0.031 C 
ATOM     53  C   UNL A   1      43.991  27.937  33.556  1.00  0.00     0.037 A 
BRANCH  40  54
ATOM     54  C   UNL A   1      39.694  31.892  35.595  1.00  0.00     0.064 A 
ATOM     55  C   UNL A   1      40.207  33.183  35.798  1.00  0.00     0.173 A 
ATOM     56  C   UNL A   1      38.676  31.453  36.456  1.00  0.00     0.173 A 
ATOM     57  F   UNL A   1      41.189  33.651  35.014  1.00  0.00    -0.203 F 
ATOM     58  C   UNL A   1      39.742  33.985  36.838  1.00  0.00     0.198 A 
ATOM     59  C   UNL A   1      38.189  32.271  37.471  1.00  0.00     0.198 A 
ATOM     60  F   UNL A   1      38.143  30.230  36.305  1.00  0.00    -0.203 F 
ATOM     61  F   UNL A   1      40.285  35.193  37.046  1.00  0.00    -0.200 F 
ATOM     62  C   UNL A   1      38.728  33.533  37.668  1.00  0.00     0.200 A 
ATOM     63  F   UNL A   1      37.196  31.836  38.262  1.00  0.00    -0.200 F 
ATOM     64  F   UNL A   1      38.276  34.309  38.663  1.00  0.00    -0.200 F 
ENDBRANCH  40  54
BRANCH  41  65
ATOM     65  C   UNL A   1      42.661  26.256  27.888  1.00  0.00     0.064 A 
ATOM     66  C   UNL A   1      42.277  24.914  27.761  1.00  0.00     0.173 A 
ATOM     67  C   UNL A   1      43.510  26.786  26.904  1.00  0.00     0.173 A 
ATOM     68  F   UNL A   1      41.487  24.353  28.689  1.00  0.00    -0.203 F 
ATOM     69  C   UNL A   1      42.744  24.127  26.710  1.00  0.00     0.198 A 
ATOM     70  C   UNL A   1      43.945  26.009  25.833  1.00  0.00     0.198 A 
ATOM     71  F   UNL A   1      43.908  28.064  26.975  1.00  0.00    -0.203 F 
ATOM     72  F   UNL A   1      42.407  22.831  26.647  1.00  0.00    -0.200 F 
ATOM     73  C   UNL A   1      43.571  24.677  25.743  1.00  0.00     0.200 A 
ATOM     74  F   UNL A   1      44.731  26.549  24.892  1.00  0.00    -0.200 F 
ATOM     75  F   UNL A   1      44.017  23.920  24.731  1.00  0.00    -0.200 F 
ENDBRANCH  41  65
BRANCH  53  76
ATOM     76  C   UNL A   1      45.185  27.382  34.284  1.00  0.00     0.064 A 
ATOM     77  C   UNL A   1      45.116  26.194  35.030  1.00  0.00     0.173 A 
ATOM     78  C   UNL A   1      46.419  28.050  34.233  1.00  0.00     0.173 A 
ATOM     79  F   UNL A   1      43.959  25.521  35.124  1.00  0.00    -0.203 F 
ATOM     80  C   UNL A   1      46.222  25.726  35.736  1.00  0.00     0.198 A 
ATOM     81  C   UNL A   1      47.533  27.556  34.906  1.00  0.00     0.198 A 
ATOM     82  F   UNL A   1      46.546  29.184  33.527  1.00  0.00    -0.203 F 
ATOM     83  F   UNL A   1      46.110  24.632  36.502  1.00  0.00    -0.200 F 
ATOM     84  C   UNL A   1      47.430  26.403  35.668  1.00  0.00     0.200 A 
ATOM     85  F   UNL A   1      48.704  28.202  34.823  1.00  0.00    -0.200 F 
ATOM     86  F   UNL A   1      48.492  25.951  36.348  1.00  0.00    -0.200 F 
ENDBRANCH  53  76
ENDBRANCH  27  28
ENDBRANCH  20  22
ENDBRANCH  19  20
ENDBRANCH  18  19
ENDBRANCH  17  18
ENDBRANCH   1  17
TORSDOF 16
ENDMDL
MODEL 3
REMARK VINA RESULT:      -9.4      4.717      7.570
REMARK SMILES N#Cc1cccc(NCCCC(=O)OCCOC(=O)c2ccc(-c3c4nc(c(-c5c(F)c(F)c(F)c(F)c5F)c5ccc([nH]5)c(-c5c(F)c(F)c(F)c(F)c5F)c5nc(c(-c6c(F)c(F)c(F)c(F)c6F)c6ccc3[nH]6)C=C5)C=C4)cc2)c1
REMARK SMILES IDX 14 1 12 2 13 3 11 4 10 5 9 6 8 7 7 9 3 10 4 11 83 12 5 13
REMARK SMILES IDX 6 14 2 15 1 16 15 17 16 18 17 19 18 20 19 21 20 22 21 23
REMARK SMILES IDX 82 24 22 25 81 26 23 27 24 28 25 29 75 30 26 31 80 32 74 33
REMARK SMILES IDX 76 34 27 35 79 36 73 37 72 38 28 40 60 41 40 42 59 43 41 44
REMARK SMILES IDX 44 45 58 46 77 47 42 48 43 49 57 51 78 52 45 53 29 54 30 55
REMARK SMILES IDX 38 56 31 57 32 58 36 59 39 60 33 61 34 62 37 63 35 64 61 65
REMARK SMILES IDX 62 66 70 67 63 68 64 69 68 70 71 71 65 72 66 73 69 74 67 75
REMARK SMILES IDX 46 76 47 77 55 78 48 79 49 80 53 81 56 82 50 83 51 84 54 85
REMARK SMILES IDX 52 86
REMARK H PARENT 8 8 76 39 44 50
REMARK Flexibility Score: inf
ROOT
ATOM      1  O   UNL A   1      35.067  35.991  33.250  1.00  0.00    -0.462 OA
ENDROOT
BRANCH   1   2
ATOM      2  C   UNL A   1      34.034  36.752  32.815  1.00  0.00     0.305 C 
ATOM      3  O   UNL A   1      33.734  37.851  33.266  1.00  0.00    -0.252 OA
BRANCH   2   4
ATOM      4  C   UNL A   1      33.231  36.076  31.726  1.00  0.00     0.124 C 
BRANCH   4   5
ATOM      5  C   UNL A   1      33.125  36.829  30.395  1.00  0.00     0.033 C 
BRANCH   5   6
ATOM      6  C   UNL A   1      32.974  35.963  29.142  1.00  0.00     0.113 C 
BRANCH   6   7
ATOM      7  N   UNL A   1      34.278  35.513  28.699  1.00  0.00    -0.385 N 
ATOM      8  H   UNL A   1      34.972  36.203  28.594  1.00  0.00     0.160 HD
BRANCH   7   9
ATOM      9  C   UNL A   1      34.645  34.218  28.408  1.00  0.00     0.035 A 
ATOM     10  C   UNL A   1      33.950  31.997  27.666  1.00  0.00     0.054 A 
ATOM     11  C   UNL A   1      35.269  31.550  27.734  1.00  0.00     0.019 A 
ATOM     12  C   UNL A   1      33.648  33.322  28.001  1.00  0.00     0.045 A 
ATOM     13  C   UNL A   1      36.276  32.432  28.118  1.00  0.00     0.003 A 
ATOM     14  C   UNL A   1      35.963  33.757  28.438  1.00  0.00     0.026 A 
BRANCH  10  15
ATOM     15  C   UNL A   1      32.903  31.109  27.251  1.00  0.00     0.099 C 
ATOM     16  N   UNL A   1      32.055  30.394  26.919  1.00  0.00    -0.192 NA
ENDBRANCH  10  15
ENDBRANCH   7   9
ENDBRANCH   6   7
ENDBRANCH   5   6
ENDBRANCH   4   5
ENDBRANCH   2   4
ENDBRANCH   1   2
BRANCH   1  17
ATOM     17  C   UNL A   1      35.253  34.716  32.606  1.00  0.00     0.274 C 
BRANCH  17  18
ATOM     18  C   UNL A   1      34.924  33.554  33.548  1.00  0.00     0.275 C 
BRANCH  18  19
ATOM     19  O   UNL A   1      35.546  32.328  33.116  1.00  0.00    -0.458 OA
BRANCH  19  20
ATOM     20  C   UNL A   1      36.739  32.062  33.696  1.00  0.00     0.338 C 
ATOM     21  O   UNL A   1      37.028  32.178  34.876  1.00  0.00    -0.246 OA
BRANCH  20  22
ATOM     22  C   UNL A   1      37.659  31.455  32.723  1.00  0.00     0.060 A 
ATOM     23  C   UNL A   1      38.741  30.725  33.218  1.00  0.00     0.016 A 
ATOM     24  C   UNL A   1      37.547  31.705  31.355  1.00  0.00     0.016 A 
ATOM     25  C   UNL A   1      39.736  30.272  32.363  1.00  0.00     0.010 A 
ATOM     26  C   UNL A   1      38.538  31.226  30.488  1.00  0.00     0.010 A 
ATOM     27  C   UNL A   1      39.653  30.527  30.989  1.00  0.00    -0.014 A 
BRANCH  27  28
ATOM     28  C   UNL A   1      40.771  30.098  30.112  1.00  0.00     0.031 A 
ATOM     29  C   UNL A   1      41.922  31.026  29.842  1.00  0.00     0.074 A 
ATOM     30  C   UNL A   1      40.783  28.846  29.614  1.00  0.00     0.049 A 
ATOM     31  N   UNL A   1      42.988  30.835  29.106  1.00  0.00    -0.248 NA
ATOM     32  C   UNL A   1      41.864  32.349  30.481  1.00  0.00     0.031 C 
ATOM     33  C   UNL A   1      39.743  27.841  29.838  1.00  0.00     0.029 A 
ATOM     34  N   UNL A   1      41.706  28.202  28.830  1.00  0.00    -0.354 N 
ATOM     35  C   UNL A   1      43.719  32.014  29.181  1.00  0.00     0.074 A 
ATOM     36  C   UNL A   1      42.958  32.928  30.006  1.00  0.00     0.031 C 
ATOM     37  C   UNL A   1      40.096  26.701  29.225  1.00  0.00     0.029 A 
ATOM     38  C   UNL A   1      41.356  26.911  28.519  1.00  0.00     0.049 A 
ATOM     39  H   UNL A   1      42.540  28.624  28.519  1.00  0.00     0.167 HD
ATOM     40  C   UNL A   1      44.918  32.302  28.620  1.00  0.00     0.037 A 
ATOM     41  C   UNL A   1      41.970  26.005  27.734  1.00  0.00     0.037 A 
ATOM     42  C   UNL A   1      45.673  31.383  27.806  1.00  0.00     0.049 A 
ATOM     43  C   UNL A   1      43.272  26.375  27.074  1.00  0.00     0.074 A 
ATOM     44  C   UNL A   1      46.905  31.575  27.202  1.00  0.00     0.029 A 
ATOM     45  N   UNL A   1      45.266  30.097  27.476  1.00  0.00    -0.354 N 
ATOM     46  N   UNL A   1      43.960  27.487  27.160  1.00  0.00    -0.248 NA
ATOM     47  C   UNL A   1      43.885  25.356  26.213  1.00  0.00     0.031 C 
ATOM     48  C   UNL A   1      47.210  30.432  26.456  1.00  0.00     0.029 A 
ATOM     49  C   UNL A   1      46.208  29.496  26.655  1.00  0.00     0.049 A 
ATOM     50  H   UNL A   1      44.431  29.675  27.781  1.00  0.00     0.167 HD
ATOM     51  C   UNL A   1      45.099  27.293  26.390  1.00  0.00     0.074 A 
ATOM     52  C   UNL A   1      45.019  25.945  25.866  1.00  0.00     0.031 C 
ATOM     53  C   UNL A   1      46.119  28.153  26.139  1.00  0.00     0.037 A 
BRANCH  40  54
ATOM     54  C   UNL A   1      45.476  33.682  28.836  1.00  0.00     0.064 A 
ATOM     55  C   UNL A   1      46.393  33.962  29.862  1.00  0.00     0.173 A 
ATOM     56  C   UNL A   1      45.111  34.736  27.983  1.00  0.00     0.173 A 
ATOM     57  F   UNL A   1      46.768  32.998  30.715  1.00  0.00    -0.203 F 
ATOM     58  C   UNL A   1      46.896  35.249  30.043  1.00  0.00     0.198 A 
ATOM     59  C   UNL A   1      45.643  36.011  28.146  1.00  0.00     0.198 A 
ATOM     60  F   UNL A   1      44.243  34.525  26.982  1.00  0.00    -0.203 F 
ATOM     61  F   UNL A   1      47.728  35.504  31.063  1.00  0.00    -0.200 F 
ATOM     62  C   UNL A   1      46.528  36.270  29.181  1.00  0.00     0.200 A 
ATOM     63  F   UNL A   1      45.298  36.993  27.300  1.00  0.00    -0.200 F 
ATOM     64  F   UNL A   1      47.019  37.505  29.352  1.00  0.00    -0.200 F 
ENDBRANCH  40  54
BRANCH  41  65
ATOM     65  C   UNL A   1      41.357  24.667  27.518  1.00  0.00     0.064 A 
ATOM     66  C   UNL A   1      41.905  23.515  28.098  1.00  0.00     0.173 A 
ATOM     67  C   UNL A   1      40.219  24.512  26.711  1.00  0.00     0.173 A 
ATOM     68  F   UNL A   1      43.006  23.606  28.857  1.00  0.00    -0.203 F 
ATOM     69  C   UNL A   1      41.355  22.257  27.858  1.00  0.00     0.198 A 
ATOM     70  C   UNL A   1      39.648  23.259  26.503  1.00  0.00     0.198 A 
ATOM     71  F   UNL A   1      39.653  25.582  26.133  1.00  0.00    -0.203 F 
ATOM     72  F   UNL A   1      41.935  21.166  28.377  1.00  0.00    -0.200 F 
ATOM     73  C   UNL A   1      40.223  22.131  27.067  1.00  0.00     0.200 A 
ATOM     74  F   UNL A   1      38.545  23.144  25.751  1.00  0.00    -0.200 F 
ATOM     75  F   UNL A   1      39.694  20.922  26.839  1.00  0.00    -0.200 F 
ENDBRANCH  41  65
BRANCH  53  76
ATOM     76  C   UNL A   1      47.255  27.639  25.297  1.00  0.00     0.064 A 
ATOM     77  C   UNL A   1      48.335  26.936  25.854  1.00  0.00     0.173 A 
ATOM     78  C   UNL A   1      47.261  27.853  23.910  1.00  0.00     0.173 A 
ATOM     79  F   UNL A   1      48.387  26.713  27.176  1.00  0.00    -0.203 F 
ATOM     80  C   UNL A   1      49.400  26.512  25.062  1.00  0.00     0.198 A 
ATOM     81  C   UNL A   1      48.307  27.392  23.115  1.00  0.00     0.198 A 
ATOM     82  F   UNL A   1      46.251  28.511  23.322  1.00  0.00    -0.203 F 
ATOM     83  F   UNL A   1      50.455  25.910  25.628  1.00  0.00    -0.200 F 
ATOM     84  C   UNL A   1      49.381  26.735  23.693  1.00  0.00     0.200 A 
ATOM     85  F   UNL A   1      48.279  27.593  21.791  1.00  0.00    -0.200 F 
ATOM     86  F   UNL A   1      50.408  26.328  22.933  1.00  0.00    -0.200 F 
ENDBRANCH  53  76
ENDBRANCH  27  28
ENDBRANCH  20  22
ENDBRANCH  19  20
ENDBRANCH  18  19
ENDBRANCH  17  18
ENDBRANCH   1  17
TORSDOF 16
ENDMDL
