MODEL 1
REMARK VINA RESULT:     -11.5      0.000      0.000
REMARK SMILES CC1C[NH+]([C@H]2COC[C@@H]2C(=O)OCCOC(=O)c2ccc(-c3c4nc(c(-c5c(F)c(F)c(F)c(F)c5F)c5ccc([nH]5)c(-c5c(F)c(F)c(F)c(F)c5F)c5nc(c(-c6c(F)c(F)c(F)c(F)c6F)c6ccc3[nH]6)C=C5)C=C4)cc2)C1
REMARK SMILES IDX 14 1 13 2 12 3 10 4 11 5 9 6 5 7 6 8 7 9 8 10 4 11 1 12 2 13
REMARK SMILES IDX 3 14 81 15 15 17 16 18 17 19 18 20 19 21 80 22 20 23 79 24
REMARK SMILES IDX 21 25 22 26 23 27 73 28 24 29 78 30 72 31 74 32 25 33 77 34
REMARK SMILES IDX 71 35 70 36 26 38 58 39 38 40 57 41 39 42 42 43 56 44 75 45
REMARK SMILES IDX 40 46 41 47 55 49 76 50 43 51 27 52 28 53 36 54 29 55 30 56
REMARK SMILES IDX 34 57 37 58 31 59 32 60 35 61 33 62 59 63 60 64 68 65 61 66
REMARK SMILES IDX 62 67 66 68 69 69 63 70 64 71 67 72 65 73 44 74 45 75 53 76
REMARK SMILES IDX 46 77 47 78 51 79 54 80 48 81 49 82 52 83 50 84
REMARK H PARENT 4 16 74 37 42 48
REMARK Flexibility Score: inf
ROOT
ATOM      1  C   UNL A   1      31.705  30.513  25.752  1.00  0.00     0.275 C 
ENDROOT
BRANCH   1   2
ATOM      2  C   UNL A   1      32.585  29.528  24.983  1.00  0.00     0.274 C 
BRANCH   2   3
ATOM      3  O   UNL A   1      32.238  28.159  25.302  1.00  0.00    -0.462 OA
BRANCH   3   4
ATOM      4  C   UNL A   1      32.474  27.253  24.313  1.00  0.00     0.317 C 
ATOM      5  O   UNL A   1      33.485  26.562  24.254  1.00  0.00    -0.252 OA
BRANCH   4   6
ATOM      6  C   UNL A   1      31.400  27.275  23.232  1.00  0.00     0.185 C 
ATOM      7  C   UNL A   1      29.994  27.614  23.734  1.00  0.00     0.227 C 
ATOM      8  C   UNL A   1      29.514  26.253  24.246  1.00  0.00     0.226 C 
ATOM      9  O   UNL A   1      30.233  25.230  23.543  1.00  0.00    -0.374 OA
ATOM     10  C   UNL A   1      31.226  25.857  22.713  1.00  0.00     0.182 C 
BRANCH   7  11
ATOM     11  N   UNL A   1      29.155  28.264  22.695  1.00  0.00    -0.329 N 
ATOM     12  C   UNL A   1      27.655  31.203  23.506  1.00  0.00     0.020 C 
ATOM     13  C   UNL A   1      28.036  30.068  22.573  1.00  0.00     0.096 C 
ATOM     14  C   UNL A   1      29.529  29.686  22.524  1.00  0.00     0.271 C 
ATOM     15  C   UNL A   1      27.796  28.650  23.121  1.00  0.00     0.271 C 
ATOM     16  H   UNL A   1      29.245  27.587  21.938  1.00  0.00     0.348 HD
ENDBRANCH   7  11
ENDBRANCH   4   6
ENDBRANCH   3   4
ENDBRANCH   2   3
ENDBRANCH   1   2
BRANCH   1  17
ATOM     17  O   UNL A   1      32.212  30.666  27.088  1.00  0.00    -0.458 OA
BRANCH  17  18
ATOM     18  C   UNL A   1      33.010  31.741  27.294  1.00  0.00     0.338 C 
ATOM     19  O   UNL A   1      32.674  32.911  27.233  1.00  0.00    -0.246 OA
BRANCH  18  20
ATOM     20  C   UNL A   1      34.370  31.310  27.719  1.00  0.00     0.060 A 
ATOM     21  C   UNL A   1      34.670  29.967  27.933  1.00  0.00     0.016 A 
ATOM     22  C   UNL A   1      35.313  32.281  28.067  1.00  0.00     0.016 A 
ATOM     23  C   UNL A   1      35.818  29.616  28.649  1.00  0.00     0.010 A 
ATOM     24  C   UNL A   1      36.523  31.910  28.674  1.00  0.00     0.010 A 
ATOM     25  C   UNL A   1      36.766  30.576  29.040  1.00  0.00    -0.014 A 
BRANCH  25  26
ATOM     26  C   UNL A   1      37.944  30.196  29.885  1.00  0.00     0.031 A 
ATOM     27  C   UNL A   1      39.097  29.408  29.300  1.00  0.00     0.074 A 
ATOM     28  C   UNL A   1      38.036  30.589  31.172  1.00  0.00     0.049 A 
ATOM     29  N   UNL A   1      40.103  28.827  29.911  1.00  0.00    -0.248 NA
ATOM     30  C   UNL A   1      39.113  29.231  27.840  1.00  0.00     0.031 C 
ATOM     31  C   UNL A   1      37.048  31.395  31.889  1.00  0.00     0.029 A 
ATOM     32  N   UNL A   1      39.032  30.393  32.102  1.00  0.00    -0.354 N 
ATOM     33  C   UNL A   1      40.806  28.139  28.928  1.00  0.00     0.074 A 
ATOM     34  C   UNL A   1      40.130  28.395  27.675  1.00  0.00     0.031 C 
ATOM     35  C   UNL A   1      37.529  31.710  33.099  1.00  0.00     0.029 A 
ATOM     36  C   UNL A   1      38.807  31.036  33.294  1.00  0.00     0.049 A 
ATOM     37  H   UNL A   1      39.831  29.843  31.927  1.00  0.00     0.167 HD
ATOM     38  C   UNL A   1      41.907  27.359  29.059  1.00  0.00     0.037 A 
ATOM     39  C   UNL A   1      39.527  31.062  34.432  1.00  0.00     0.037 A 
ATOM     40  C   UNL A   1      42.652  27.190  30.281  1.00  0.00     0.049 A 
ATOM     41  C   UNL A   1      40.770  30.232  34.547  1.00  0.00     0.074 A 
ATOM     42  C   UNL A   1      43.784  26.422  30.506  1.00  0.00     0.029 A 
ATOM     43  N   UNL A   1      42.367  27.832  31.475  1.00  0.00    -0.354 N 
ATOM     44  N   UNL A   1      41.346  29.475  33.646  1.00  0.00    -0.248 NA
ATOM     45  C   UNL A   1      41.443  30.228  35.854  1.00  0.00     0.031 C 
ATOM     46  C   UNL A   1      44.175  26.591  31.840  1.00  0.00     0.029 A 
ATOM     47  C   UNL A   1      43.305  27.487  32.436  1.00  0.00     0.049 A 
ATOM     48  H   UNL A   1      41.609  28.444  31.620  1.00  0.00     0.167 HD
ATOM     49  C   UNL A   1      42.437  28.897  34.276  1.00  0.00     0.074 A 
ATOM     50  C   UNL A   1      42.466  29.415  35.628  1.00  0.00     0.031 C 
ATOM     51  C   UNL A   1      43.324  28.001  33.780  1.00  0.00     0.037 A 
BRANCH  38  52
ATOM     52  C   UNL A   1      42.361  26.586  27.855  1.00  0.00     0.064 A 
ATOM     53  C   UNL A   1      43.325  27.080  26.965  1.00  0.00     0.173 A 
ATOM     54  C   UNL A   1      41.850  25.298  27.620  1.00  0.00     0.173 A 
ATOM     55  F   UNL A   1      43.834  28.308  27.139  1.00  0.00    -0.203 F 
ATOM     56  C   UNL A   1      43.743  26.325  25.872  1.00  0.00     0.198 A 
ATOM     57  C   UNL A   1      42.291  24.535  26.542  1.00  0.00     0.198 A 
ATOM     58  F   UNL A   1      40.932  24.774  28.447  1.00  0.00    -0.203 F 
ATOM     59  F   UNL A   1      44.636  26.833  25.011  1.00  0.00    -0.200 F 
ATOM     60  C   UNL A   1      43.232  25.051  25.665  1.00  0.00     0.200 A 
ATOM     61  F   UNL A   1      41.804  23.300  26.352  1.00  0.00    -0.200 F 
ATOM     62  F   UNL A   1      43.642  24.324  24.617  1.00  0.00    -0.200 F 
ENDBRANCH  38  52
BRANCH  39  63
ATOM     63  C   UNL A   1      39.065  31.900  35.568  1.00  0.00     0.064 A 
ATOM     64  C   UNL A   1      38.240  31.361  36.564  1.00  0.00     0.173 A 
ATOM     65  C   UNL A   1      39.464  33.238  35.702  1.00  0.00     0.173 A 
ATOM     66  F   UNL A   1      37.806  30.095  36.461  1.00  0.00    -0.203 F 
ATOM     67  C   UNL A   1      37.838  32.126  37.657  1.00  0.00     0.198 A 
ATOM     68  C   UNL A   1      39.087  33.993  36.808  1.00  0.00     0.198 A 
ATOM     69  F   UNL A   1      40.250  33.800  34.771  1.00  0.00    -0.203 F 
ATOM     70  F   UNL A   1      37.029  31.596  38.582  1.00  0.00    -0.200 F 
ATOM     71  C   UNL A   1      38.272  33.438  37.784  1.00  0.00     0.200 A 
ATOM     72  F   UNL A   1      39.519  35.255  36.935  1.00  0.00    -0.200 F 
ATOM     73  F   UNL A   1      37.903  34.167  38.845  1.00  0.00    -0.200 F 
ENDBRANCH  39  63
BRANCH  51  74
ATOM     74  C   UNL A   1      44.407  27.535  34.704  1.00  0.00     0.064 A 
ATOM     75  C   UNL A   1      45.623  28.226  34.809  1.00  0.00     0.173 A 
ATOM     76  C   UNL A   1      44.225  26.394  35.498  1.00  0.00     0.173 A 
ATOM     77  F   UNL A   1      45.849  29.314  34.057  1.00  0.00    -0.203 F 
ATOM     78  C   UNL A   1      46.631  27.773  35.657  1.00  0.00     0.198 A 
ATOM     79  C   UNL A   1      45.227  25.956  36.360  1.00  0.00     0.198 A 
ATOM     80  F   UNL A   1      43.078  25.702  35.434  1.00  0.00    -0.203 F 
ATOM     81  F   UNL A   1      47.802  28.422  35.709  1.00  0.00    -0.200 F 
ATOM     82  C   UNL A   1      46.431  26.641  36.434  1.00  0.00     0.200 A 
ATOM     83  F   UNL A   1      45.032  24.864  37.113  1.00  0.00    -0.200 F 
ATOM     84  F   UNL A   1      47.404  26.204  37.245  1.00  0.00    -0.200 F 
ENDBRANCH  51  74
ENDBRANCH  25  26
ENDBRANCH  18  20
ENDBRANCH  17  18
ENDBRANCH   1  17
TORSDOF 12
ENDMDL
MODEL 2
REMARK VINA RESULT:     -11.4      1.264      2.424
REMARK SMILES CC1C[NH+]([C@H]2COC[C@@H]2C(=O)OCCOC(=O)c2ccc(-c3c4nc(c(-c5c(F)c(F)c(F)c(F)c5F)c5ccc([nH]5)c(-c5c(F)c(F)c(F)c(F)c5F)c5nc(c(-c6c(F)c(F)c(F)c(F)c6F)c6ccc3[nH]6)C=C5)C=C4)cc2)C1
REMARK SMILES IDX 14 1 13 2 12 3 10 4 11 5 9 6 5 7 6 8 7 9 8 10 4 11 1 12 2 13
REMARK SMILES IDX 3 14 81 15 15 17 16 18 17 19 18 20 19 21 80 22 20 23 79 24
REMARK SMILES IDX 21 25 22 26 23 27 73 28 24 29 78 30 72 31 74 32 25 33 77 34
REMARK SMILES IDX 71 35 70 36 26 38 58 39 38 40 57 41 39 42 42 43 56 44 75 45
REMARK SMILES IDX 40 46 41 47 55 49 76 50 43 51 27 52 28 53 36 54 29 55 30 56
REMARK SMILES IDX 34 57 37 58 31 59 32 60 35 61 33 62 59 63 60 64 68 65 61 66
REMARK SMILES IDX 62 67 66 68 69 69 63 70 64 71 67 72 65 73 44 74 45 75 53 76
REMARK SMILES IDX 46 77 47 78 51 79 54 80 48 81 49 82 52 83 50 84
REMARK H PARENT 4 16 74 37 42 48
REMARK Flexibility Score: inf
ROOT
ATOM      1  C   UNL A   1      31.575  30.066  25.364  1.00  0.00     0.275 C 
ENDROOT
BRANCH   1   2
ATOM      2  C   UNL A   1      32.221  29.045  24.429  1.00  0.00     0.274 C 
BRANCH   2   3
ATOM      3  O   UNL A   1      31.351  27.907  24.218  1.00  0.00    -0.462 OA
BRANCH   3   4
ATOM      4  C   UNL A   1      31.158  27.555  22.917  1.00  0.00     0.317 C 
ATOM      5  O   UNL A   1      30.725  28.322  22.065  1.00  0.00    -0.252 OA
BRANCH   4   6
ATOM      6  C   UNL A   1      31.429  26.076  22.664  1.00  0.00     0.185 C 
ATOM      7  C   UNL A   1      32.529  25.470  23.539  1.00  0.00     0.227 C 
ATOM      8  C   UNL A   1      33.790  25.878  22.775  1.00  0.00     0.226 C 
ATOM      9  O   UNL A   1      33.438  26.072  21.397  1.00  0.00    -0.374 OA
ATOM     10  C   UNL A   1      32.013  25.938  21.268  1.00  0.00     0.182 C 
BRANCH   7  11
ATOM     11  N   UNL A   1      32.337  24.015  23.774  1.00  0.00    -0.329 N 
ATOM     12  C   UNL A   1      30.507  23.094  26.485  1.00  0.00     0.020 C 
ATOM     13  C   UNL A   1      31.294  22.846  25.210  1.00  0.00     0.096 C 
ATOM     14  C   UNL A   1      30.908  23.695  23.983  1.00  0.00     0.271 C 
ATOM     15  C   UNL A   1      32.666  23.540  25.132  1.00  0.00     0.271 C 
ATOM     16  H   UNL A   1      32.868  23.633  22.992  1.00  0.00     0.348 HD
ENDBRANCH   7  11
ENDBRANCH   4   6
ENDBRANCH   3   4
ENDBRANCH   2   3
ENDBRANCH   1   2
BRANCH   1  17
ATOM     17  O   UNL A   1      32.228  30.025  26.643  1.00  0.00    -0.458 OA
BRANCH  17  18
ATOM     18  C   UNL A   1      32.845  31.169  27.025  1.00  0.00     0.338 C 
ATOM     19  O   UNL A   1      32.332  32.271  27.110  1.00  0.00    -0.246 OA
BRANCH  18  20
ATOM     20  C   UNL A   1      34.247  30.894  27.443  1.00  0.00     0.060 A 
ATOM     21  C   UNL A   1      34.737  29.593  27.523  1.00  0.00     0.016 A 
ATOM     22  C   UNL A   1      35.033  31.947  27.921  1.00  0.00     0.016 A 
ATOM     23  C   UNL A   1      35.914  29.335  28.233  1.00  0.00     0.010 A 
ATOM     24  C   UNL A   1      36.275  31.689  28.522  1.00  0.00     0.010 A 
ATOM     25  C   UNL A   1      36.705  30.372  28.752  1.00  0.00    -0.014 A 
BRANCH  25  26
ATOM     26  C   UNL A   1      37.914  30.076  29.587  1.00  0.00     0.031 A 
ATOM     27  C   UNL A   1      39.086  29.310  29.012  1.00  0.00     0.074 A 
ATOM     28  C   UNL A   1      38.014  30.528  30.855  1.00  0.00     0.049 A 
ATOM     29  N   UNL A   1      40.127  28.796  29.626  1.00  0.00    -0.248 NA
ATOM     30  C   UNL A   1      39.082  29.072  27.560  1.00  0.00     0.031 C 
ATOM     31  C   UNL A   1      37.008  31.323  31.557  1.00  0.00     0.029 A 
ATOM     32  N   UNL A   1      39.035  30.411  31.770  1.00  0.00    -0.354 N 
ATOM     33  C   UNL A   1      40.838  28.095  28.658  1.00  0.00     0.074 A 
ATOM     34  C   UNL A   1      40.128  28.270  27.410  1.00  0.00     0.031 C 
ATOM     35  C   UNL A   1      37.499  31.708  32.743  1.00  0.00     0.029 A 
ATOM     36  C   UNL A   1      38.807  31.095  32.939  1.00  0.00     0.049 A 
ATOM     37  H   UNL A   1      39.852  29.886  31.603  1.00  0.00     0.167 HD
ATOM     38  C   UNL A   1      41.972  27.367  28.799  1.00  0.00     0.037 A 
ATOM     39  C   UNL A   1      39.546  31.198  34.060  1.00  0.00     0.037 A 
ATOM     40  C   UNL A   1      42.747  27.280  30.011  1.00  0.00     0.049 A 
ATOM     41  C   UNL A   1      40.824  30.424  34.184  1.00  0.00     0.074 A 
ATOM     42  C   UNL A   1      43.913  26.568  30.244  1.00  0.00     0.029 A 
ATOM     43  N   UNL A   1      42.458  27.960  31.182  1.00  0.00    -0.354 N 
ATOM     44  N   UNL A   1      41.413  29.653  33.304  1.00  0.00    -0.248 NA
ATOM     45  C   UNL A   1      41.522  30.502  35.476  1.00  0.00     0.031 C 
ATOM     46  C   UNL A   1      44.322  26.809  31.562  1.00  0.00     0.029 A 
ATOM     47  C   UNL A   1      43.428  27.695  32.137  1.00  0.00     0.049 A 
ATOM     48  H   UNL A   1      41.679  28.548  31.318  1.00  0.00     0.167 HD
ATOM     49  C   UNL A   1      42.538  29.146  33.935  1.00  0.00     0.074 A 
ATOM     50  C   UNL A   1      42.572  29.722  35.262  1.00  0.00     0.031 C 
ATOM     51  C   UNL A   1      43.452  28.266  33.458  1.00  0.00     0.037 A 
BRANCH  38  52
ATOM     52  C   UNL A   1      42.434  26.561  27.620  1.00  0.00     0.064 A 
ATOM     53  C   UNL A   1      43.414  27.026  26.731  1.00  0.00     0.173 A 
ATOM     54  C   UNL A   1      41.914  25.273  27.407  1.00  0.00     0.173 A 
ATOM     55  F   UNL A   1      43.932  28.253  26.882  1.00  0.00    -0.203 F 
ATOM     56  C   UNL A   1      43.839  26.241  25.661  1.00  0.00     0.198 A 
ATOM     57  C   UNL A   1      42.361  24.481  26.354  1.00  0.00     0.198 A 
ATOM     58  F   UNL A   1      40.981  24.777  28.234  1.00  0.00    -0.203 F 
ATOM     59  F   UNL A   1      44.747  26.721  24.800  1.00  0.00    -0.200 F 
ATOM     60  C   UNL A   1      43.318  24.968  25.477  1.00  0.00     0.200 A 
ATOM     61  F   UNL A   1      41.865  23.247  26.186  1.00  0.00    -0.200 F 
ATOM     62  F   UNL A   1      43.736  24.212  24.452  1.00  0.00    -0.200 F 
ENDBRANCH  38  52
BRANCH  39  63
ATOM     63  C   UNL A   1      39.073  32.065  35.170  1.00  0.00     0.064 A 
ATOM     64  C   UNL A   1      38.351  31.522  36.240  1.00  0.00     0.173 A 
ATOM     65  C   UNL A   1      39.360  33.438  35.201  1.00  0.00     0.173 A 
ATOM     66  F   UNL A   1      38.024  30.221  36.238  1.00  0.00    -0.203 F 
ATOM     67  C   UNL A   1      37.941  32.319  37.308  1.00  0.00     0.198 A 
ATOM     68  C   UNL A   1      38.975  34.227  36.281  1.00  0.00     0.198 A 
ATOM     69  F   UNL A   1      40.044  34.003  34.195  1.00  0.00    -0.203 F 
ATOM     70  F   UNL A   1      37.230  31.783  38.308  1.00  0.00    -0.200 F 
ATOM     71  C   UNL A   1      38.265  33.668  37.333  1.00  0.00     0.200 A 
ATOM     72  F   UNL A   1      39.301  35.526  36.308  1.00  0.00    -0.200 F 
ATOM     73  F   UNL A   1      37.888  34.430  38.368  1.00  0.00    -0.200 F 
ENDBRANCH  39  63
BRANCH  51  74
ATOM     74  C   UNL A   1      44.570  27.882  34.379  1.00  0.00     0.064 A 
ATOM     75  C   UNL A   1      44.465  26.771  35.229  1.00  0.00     0.173 A 
ATOM     76  C   UNL A   1      45.758  28.625  34.406  1.00  0.00     0.173 A 
ATOM     77  F   UNL A   1      43.341  26.040  35.249  1.00  0.00    -0.203 F 
ATOM     78  C   UNL A   1      45.503  26.433  36.094  1.00  0.00     0.198 A 
ATOM     79  C   UNL A   1      46.802  28.272  35.259  1.00  0.00     0.198 A 
ATOM     80  F   UNL A   1      45.906  29.694  33.610  1.00  0.00    -0.203 F 
ATOM     81  F   UNL A   1      45.365  25.395  36.930  1.00  0.00    -0.200 F 
ATOM     82  C   UNL A   1      46.670  27.182  36.106  1.00  0.00     0.200 A 
ATOM     83  F   UNL A   1      47.931  28.994  35.267  1.00  0.00    -0.200 F 
ATOM     84  F   UNL A   1      47.665  26.860  36.944  1.00  0.00    -0.200 F 
ENDBRANCH  51  74
ENDBRANCH  25  26
ENDBRANCH  18  20
ENDBRANCH  17  18
ENDBRANCH   1  17
TORSDOF 12
ENDMDL
MODEL 3
REMARK VINA RESULT:     -11.3      5.111     10.375
REMARK SMILES CC1C[NH+]([C@H]2COC[C@@H]2C(=O)OCCOC(=O)c2ccc(-c3c4nc(c(-c5c(F)c(F)c(F)c(F)c5F)c5ccc([nH]5)c(-c5c(F)c(F)c(F)c(F)c5F)c5nc(c(-c6c(F)c(F)c(F)c(F)c6F)c6ccc3[nH]6)C=C5)C=C4)cc2)C1
REMARK SMILES IDX 14 1 13 2 12 3 10 4 11 5 9 6 5 7 6 8 7 9 8 10 4 11 1 12 2 13
REMARK SMILES IDX 3 14 81 15 15 17 16 18 17 19 18 20 19 21 80 22 20 23 79 24
REMARK SMILES IDX 21 25 22 26 23 27 73 28 24 29 78 30 72 31 74 32 25 33 77 34
REMARK SMILES IDX 71 35 70 36 26 38 58 39 38 40 57 41 39 42 42 43 56 44 75 45
REMARK SMILES IDX 40 46 41 47 55 49 76 50 43 51 27 52 28 53 36 54 29 55 30 56
REMARK SMILES IDX 34 57 37 58 31 59 32 60 35 61 33 62 59 63 60 64 68 65 61 66
REMARK SMILES IDX 62 67 66 68 69 69 63 70 64 71 67 72 65 73 44 74 45 75 53 76
REMARK SMILES IDX 46 77 47 78 51 79 54 80 48 81 49 82 52 83 50 84
REMARK H PARENT 4 16 74 37 42 48
REMARK Flexibility Score: inf
ROOT
ATOM      1  C   UNL A   1      36.823  20.582  25.081  1.00  0.00     0.275 C 
ENDROOT
BRANCH   1   2
ATOM      2  C   UNL A   1      35.784  21.460  25.778  1.00  0.00     0.274 C 
BRANCH   2   3
ATOM      3  O   UNL A   1      35.182  22.393  24.849  1.00  0.00    -0.462 OA
BRANCH   3   4
ATOM      4  C   UNL A   1      33.983  22.909  25.236  1.00  0.00     0.317 C 
ATOM      5  O   UNL A   1      33.848  24.034  25.703  1.00  0.00    -0.252 OA
BRANCH   4   6
ATOM      6  C   UNL A   1      32.849  21.896  25.131  1.00  0.00     0.185 C 
ATOM      7  C   UNL A   1      32.888  21.021  23.876  1.00  0.00     0.227 C 
ATOM      8  C   UNL A   1      32.226  21.935  22.842  1.00  0.00     0.226 C 
ATOM      9  O   UNL A   1      31.371  22.854  23.538  1.00  0.00    -0.374 OA
ATOM     10  C   UNL A   1      31.549  22.662  24.952  1.00  0.00     0.182 C 
BRANCH   7  11
ATOM     11  N   UNL A   1      32.258  19.691  24.085  1.00  0.00    -0.329 N 
ATOM     12  C   UNL A   1      34.027  16.953  23.125  1.00  0.00     0.020 C 
ATOM     13  C   UNL A   1      32.848  17.676  23.753  1.00  0.00     0.096 C 
ATOM     14  C   UNL A   1      33.180  18.771  24.787  1.00  0.00     0.271 C 
ATOM     15  C   UNL A   1      32.235  18.804  22.905  1.00  0.00     0.271 C 
ATOM     16  H   UNL A   1      31.365  19.974  24.488  1.00  0.00     0.348 HD
ENDBRANCH   7  11
ENDBRANCH   4   6
ENDBRANCH   3   4
ENDBRANCH   2   3
ENDBRANCH   1   2
BRANCH   1  17
ATOM     17  O   UNL A   1      38.045  21.320  24.923  1.00  0.00    -0.458 OA
BRANCH  17  18
ATOM     18  C   UNL A   1      39.001  21.081  25.853  1.00  0.00     0.338 C 
ATOM     19  O   UNL A   1      39.520  20.004  26.093  1.00  0.00    -0.246 OA
BRANCH  18  20
ATOM     20  C   UNL A   1      39.433  22.349  26.499  1.00  0.00     0.060 A 
ATOM     21  C   UNL A   1      38.859  23.571  26.154  1.00  0.00     0.016 A 
ATOM     22  C   UNL A   1      40.546  22.337  27.346  1.00  0.00     0.016 A 
ATOM     23  C   UNL A   1      39.498  24.764  26.505  1.00  0.00     0.010 A 
ATOM     24  C   UNL A   1      41.108  23.542  27.798  1.00  0.00     0.010 A 
ATOM     25  C   UNL A   1      40.636  24.778  27.327  1.00  0.00    -0.014 A 
BRANCH  25  26
ATOM     26  C   UNL A   1      41.361  26.056  27.619  1.00  0.00     0.031 A 
ATOM     27  C   UNL A   1      40.747  27.109  28.516  1.00  0.00     0.074 A 
ATOM     28  C   UNL A   1      42.600  26.283  27.134  1.00  0.00     0.049 A 
ATOM     29  N   UNL A   1      41.130  28.347  28.731  1.00  0.00    -0.248 NA
ATOM     30  C   UNL A   1      39.533  26.732  29.257  1.00  0.00     0.031 C 
ATOM     31  C   UNL A   1      43.367  25.363  26.296  1.00  0.00     0.029 A 
ATOM     32  N   UNL A   1      43.450  27.350  27.310  1.00  0.00    -0.354 N 
ATOM     33  C   UNL A   1      40.155  28.917  29.543  1.00  0.00     0.074 A 
ATOM     34  C   UNL A   1      39.175  27.885  29.806  1.00  0.00     0.031 C 
ATOM     35  C   UNL A   1      44.602  25.853  26.118  1.00  0.00     0.029 A 
ATOM     36  C   UNL A   1      44.683  27.174  26.729  1.00  0.00     0.049 A 
ATOM     37  H   UNL A   1      43.199  28.164  27.805  1.00  0.00     0.167 HD
ATOM     38  C   UNL A   1      40.079  30.185  30.016  1.00  0.00     0.037 A 
ATOM     39  C   UNL A   1      45.753  27.989  26.664  1.00  0.00     0.037 A 
ATOM     40  C   UNL A   1      41.104  31.185  29.854  1.00  0.00     0.049 A 
ATOM     41  C   UNL A   1      45.671  29.373  27.235  1.00  0.00     0.074 A 
ATOM     42  C   UNL A   1      41.114  32.496  30.304  1.00  0.00     0.029 A 
ATOM     43  N   UNL A   1      42.321  30.973  29.226  1.00  0.00    -0.354 N 
ATOM     44  N   UNL A   1      44.685  29.945  27.881  1.00  0.00    -0.248 NA
ATOM     45  C   UNL A   1      46.840  30.241  27.033  1.00  0.00     0.031 C 
ATOM     46  C   UNL A   1      42.333  33.079  29.936  1.00  0.00     0.029 A 
ATOM     47  C   UNL A   1      43.093  32.123  29.286  1.00  0.00     0.049 A 
ATOM     48  H   UNL A   1      42.597  30.129  28.800  1.00  0.00     0.167 HD
ATOM     49  C   UNL A   1      45.106  31.238  28.150  1.00  0.00     0.074 A 
ATOM     50  C   UNL A   1      46.451  31.360  27.629  1.00  0.00     0.031 C 
ATOM     51  C   UNL A   1      44.427  32.240  28.760  1.00  0.00     0.037 A 
BRANCH  38  52
ATOM     52  C   UNL A   1      38.820  30.589  30.728  1.00  0.00     0.064 A 
ATOM     53  C   UNL A   1      38.699  30.540  32.123  1.00  0.00     0.173 A 
ATOM     54  C   UNL A   1      37.730  31.082  29.991  1.00  0.00     0.173 A 
ATOM     55  F   UNL A   1      39.706  30.065  32.871  1.00  0.00    -0.203 F 
ATOM     56  C   UNL A   1      37.525  30.948  32.754  1.00  0.00     0.198 A 
ATOM     57  C   UNL A   1      36.569  31.514  30.626  1.00  0.00     0.198 A 
ATOM     58  F   UNL A   1      37.798  31.158  28.653  1.00  0.00    -0.203 F 
ATOM     59  F   UNL A   1      37.416  30.854  34.086  1.00  0.00    -0.200 F 
ATOM     60  C   UNL A   1      36.464  31.440  32.007  1.00  0.00     0.200 A 
ATOM     61  F   UNL A   1      35.551  32.001  29.902  1.00  0.00    -0.200 F 
ATOM     62  F   UNL A   1      35.340  31.840  32.617  1.00  0.00    -0.200 F 
ENDBRANCH  38  52
BRANCH  39  63
ATOM     63  C   UNL A   1      46.996  27.510  26.007  1.00  0.00     0.064 A 
ATOM     64  C   UNL A   1      47.172  27.652  24.625  1.00  0.00     0.173 A 
ATOM     65  C   UNL A   1      48.041  26.938  26.747  1.00  0.00     0.173 A 
ATOM     66  F   UNL A   1      46.186  28.164  23.872  1.00  0.00    -0.203 F 
ATOM     67  C   UNL A   1      48.353  27.247  24.006  1.00  0.00     0.198 A 
ATOM     68  C   UNL A   1      49.232  26.560  26.132  1.00  0.00     0.198 A 
ATOM     69  F   UNL A   1      47.916  26.776  28.072  1.00  0.00    -0.203 F 
ATOM     70  F   UNL A   1      48.488  27.370  22.679  1.00  0.00    -0.200 F 
ATOM     71  C   UNL A   1      49.387  26.713  24.762  1.00  0.00     0.200 A 
ATOM     72  F   UNL A   1      50.233  26.057  26.867  1.00  0.00    -0.200 F 
ATOM     73  F   UNL A   1      50.530  26.342  24.171  1.00  0.00    -0.200 F 
ENDBRANCH  39  63
BRANCH  51  74
ATOM     74  C   UNL A   1      45.136  33.551  28.904  1.00  0.00     0.064 A 
ATOM     75  C   UNL A   1      45.016  34.555  27.931  1.00  0.00     0.173 A 
ATOM     76  C   UNL A   1      45.935  33.811  30.026  1.00  0.00     0.173 A 
ATOM     77  F   UNL A   1      44.276  34.345  26.832  1.00  0.00    -0.203 F 
ATOM     78  C   UNL A   1      45.694  35.764  28.065  1.00  0.00     0.198 A 
ATOM     79  C   UNL A   1      46.595  35.029  30.167  1.00  0.00     0.198 A 
ATOM     80  F   UNL A   1      46.078  32.884  30.984  1.00  0.00    -0.203 F 
ATOM     81  F   UNL A   1      45.602  36.692  27.103  1.00  0.00    -0.200 F 
ATOM     82  C   UNL A   1      46.481  36.001  29.183  1.00  0.00     0.200 A 
ATOM     83  F   UNL A   1      47.351  35.260  31.249  1.00  0.00    -0.200 F 
ATOM     84  F   UNL A   1      47.137  37.163  29.308  1.00  0.00    -0.200 F 
ENDBRANCH  51  74
ENDBRANCH  25  26
ENDBRANCH  18  20
ENDBRANCH  17  18
ENDBRANCH   1  17
TORSDOF 12
ENDMDL
