MODEL 1
REMARK VINA RESULT:     -13.3      0.000      0.000
REMARK SMILES C=C(C(=O)OCCOC(=O)c1ccc(-c2c3nc(c(-c4c(F)c(F)c(F)c(F)c4F)c4ccc([nH]4)c(-c4c(F)c(F)c(F)c(F)c4F)c4nc(c(-c5c(F)c(F)c(F)c(F)c5F)c5ccc2[nH]5)C=C4)C=C3)cc1)[C@@H]1CC[C@]2(C)C[C@@H](O)CC(=C)[C@H]2C1
REMARK SMILES IDX 6 1 5 2 3 3 4 4 2 5 1 6 74 7 75 8 86 9 76 10 85 11 77 12
REMARK SMILES IDX 83 13 78 14 79 15 82 16 84 17 80 18 81 19 7 21 8 22 9 23
REMARK SMILES IDX 10 24 11 25 12 26 73 27 13 28 72 29 14 30 15 31 16 32 66 33
REMARK SMILES IDX 17 34 71 35 65 36 67 37 18 38 70 39 64 40 63 41 19 43 51 44
REMARK SMILES IDX 31 45 50 46 32 47 35 48 49 49 68 50 33 51 34 52 48 54 69 55
REMARK SMILES IDX 36 56 20 57 21 58 29 59 22 60 23 61 27 62 30 63 24 64 25 65
REMARK SMILES IDX 28 66 26 67 52 68 53 69 61 70 54 71 55 72 59 73 62 74 56 75
REMARK SMILES IDX 57 76 60 77 58 78 37 79 38 80 46 81 39 82 40 83 44 84 47 85
REMARK SMILES IDX 41 86 42 87 45 88 43 89
REMARK H PARENT 81 20 67 42 35 53
REMARK Flexibility Score: inf
ROOT
ATOM      1  C   UNL A   1      34.201  20.042  25.083  1.00  0.00     0.275 C 
ENDROOT
BRANCH   1   2
ATOM      2  O   UNL A   1      32.994  20.808  25.314  1.00  0.00    -0.459 OA
BRANCH   2   3
ATOM      3  C   UNL A   1      33.057  21.831  26.215  1.00  0.00     0.333 C 
ATOM      4  O   UNL A   1      33.306  21.724  27.404  1.00  0.00    -0.247 OA
BRANCH   3   5
ATOM      5  C   UNL A   1      32.673  23.111  25.574  1.00  0.00     0.033 C 
ATOM      6  C   UNL A   1      32.633  24.141  26.448  1.00  0.00     0.020 C 
BRANCH   5   7
ATOM      7  C   UNL A   1      32.488  23.355  24.062  1.00  0.00     0.026 C 
ATOM      8  C   UNL A   1      33.721  24.122  23.528  1.00  0.00     0.009 C 
ATOM      9  C   UNL A   1      31.109  23.822  23.418  1.00  0.00     0.017 C 
ATOM     10  C   UNL A   1      33.613  25.653  23.492  1.00  0.00     0.008 C 
ATOM     11  C   UNL A   1      30.800  25.540  23.468  1.00  0.00     0.021 C 
ATOM     12  C   UNL A   1      32.423  26.193  22.657  1.00  0.00    -0.024 C 
ATOM     13  C   UNL A   1      29.092  26.891  23.623  1.00  0.00    -0.071 C 
ATOM     14  C   UNL A   1      32.608  25.533  21.240  1.00  0.00     0.012 C 
ATOM     15  C   UNL A   1      32.589  28.049  22.554  1.00  0.00     0.039 C 
ATOM     16  C   UNL A   1      29.472  28.736  23.293  1.00  0.00     0.062 C 
ATOM     17  C   UNL A   1      27.713  26.914  23.822  1.00  0.00     0.008 C 
ATOM     18  C   UNL A   1      31.183  29.268  22.766  1.00  0.00     0.119 C 
BRANCH  18  19
ATOM     19  O   UNL A   1      31.082  29.983  21.520  1.00  0.00    -0.393 OA
ATOM     20  H   UNL A   1      31.877  29.819  20.989  1.00  0.00     0.210 HD
ENDBRANCH  18  19
ENDBRANCH   5   7
ENDBRANCH   3   5
ENDBRANCH   2   3
ENDBRANCH   1   2
BRANCH   1  21
ATOM     21  C   UNL A   1      35.367  20.930  24.654  1.00  0.00     0.275 C 
BRANCH  21  22
ATOM     22  O   UNL A   1      36.292  21.035  25.750  1.00  0.00    -0.458 OA
BRANCH  22  23
ATOM     23  C   UNL A   1      37.542  20.765  25.345  1.00  0.00     0.338 C 
ATOM     24  O   UNL A   1      37.883  19.851  24.603  1.00  0.00    -0.246 OA
BRANCH  23  25
ATOM     25  C   UNL A   1      38.554  21.731  25.765  1.00  0.00     0.060 A 
ATOM     26  C   UNL A   1      39.983  21.476  26.755  1.00  0.00     0.016 A 
ATOM     27  C   UNL A   1      37.871  23.368  25.781  1.00  0.00     0.016 A 
ATOM     28  C   UNL A   1      40.801  22.829  27.640  1.00  0.00     0.010 A 
ATOM     29  C   UNL A   1      38.829  24.794  26.673  1.00  0.00     0.010 A 
ATOM     30  C   UNL A   1      40.286  24.531  27.577  1.00  0.00    -0.014 A 
BRANCH  30  31
ATOM     31  C   UNL A   1      41.063  25.830  27.990  1.00  0.00     0.031 A 
ATOM     32  C   UNL A   1      40.466  27.079  28.789  1.00  0.00     0.074 A 
ATOM     33  C   UNL A   1      42.317  26.018  27.524  1.00  0.00     0.049 A 
ATOM     34  N   UNL A   1      40.950  28.311  28.922  1.00  0.00    -0.248 NA
ATOM     35  C   UNL A   1      39.157  26.998  29.452  1.00  0.00     0.031 C 
ATOM     36  C   UNL A   1      43.001  25.153  26.580  1.00  0.00     0.029 A 
ATOM     37  N   UNL A   1      43.248  27.007  27.762  1.00  0.00    -0.354 N 
ATOM     38  C   UNL A   1      39.959  29.086  29.566  1.00  0.00     0.074 A 
ATOM     39  C   UNL A   1      38.820  28.243  29.721  1.00  0.00     0.031 C 
ATOM     40  C   UNL A   1      44.272  25.523  26.442  1.00  0.00     0.029 A 
ATOM     41  C   UNL A   1      44.452  26.787  27.132  1.00  0.00     0.049 A 
ATOM     42  H   UNL A   1      43.069  27.794  28.327  1.00  0.00     0.167 HD
ATOM     43  C   UNL A   1      39.969  30.347  30.075  1.00  0.00     0.037 A 
ATOM     44  C   UNL A   1      45.572  27.524  27.026  1.00  0.00     0.037 A 
ATOM     45  C   UNL A   1      41.138  31.178  30.094  1.00  0.00     0.049 A 
ATOM     46  C   UNL A   1      45.625  28.854  27.697  1.00  0.00     0.074 A 
ATOM     47  C   UNL A   1      41.312  32.421  30.678  1.00  0.00     0.029 A 
ATOM     48  N   UNL A   1      42.348  30.819  29.531  1.00  0.00    -0.354 N 
ATOM     49  N   UNL A   1      44.666  29.509  28.300  1.00  0.00    -0.248 NA
ATOM     50  C   UNL A   1      46.919  29.541  27.680  1.00  0.00     0.031 C 
ATOM     51  C   UNL A   1      42.629  32.827  30.445  1.00  0.00     0.029 A 
ATOM     52  C   UNL A   1      43.281  31.813  29.764  1.00  0.00     0.049 A 
ATOM     53  H   UNL A   1      42.520  29.984  29.040  1.00  0.00     0.167 HD
ATOM     54  C   UNL A   1      45.238  30.693  28.735  1.00  0.00     0.074 A 
ATOM     55  C   UNL A   1      46.639  30.636  28.369  1.00  0.00     0.031 C 
ATOM     56  C   UNL A   1      44.657  31.741  29.367  1.00  0.00     0.037 A 
BRANCH  43  57
ATOM     57  C   UNL A   1      38.709  30.913  30.725  1.00  0.00     0.064 A 
ATOM     58  C   UNL A   1      37.649  31.456  29.976  1.00  0.00     0.173 A 
ATOM     59  C   UNL A   1      38.515  30.817  32.116  1.00  0.00     0.173 A 
ATOM     60  F   UNL A   1      37.754  31.576  28.644  1.00  0.00    -0.203 F 
ATOM     61  C   UNL A   1      36.477  31.909  30.588  1.00  0.00     0.198 A 
ATOM     62  C   UNL A   1      37.324  31.228  32.719  1.00  0.00     0.198 A 
ATOM     63  F   UNL A   1      39.470  30.288  32.896  1.00  0.00    -0.203 F 
ATOM     64  F   UNL A   1      35.507  32.466  29.848  1.00  0.00    -0.200 F 
ATOM     65  C   UNL A   1      36.309  31.782  31.957  1.00  0.00     0.200 A 
ATOM     66  F   UNL A   1      37.152  31.073  34.041  1.00  0.00    -0.200 F 
ATOM     67  F   UNL A   1      35.170  32.186  32.538  1.00  0.00    -0.200 F 
ENDBRANCH  43  57
BRANCH  44  68
ATOM     68  C   UNL A   1      46.718  26.975  26.249  1.00  0.00     0.064 A 
ATOM     69  C   UNL A   1      46.950  27.384  24.930  1.00  0.00     0.173 A 
ATOM     70  C   UNL A   1      47.684  26.155  26.858  1.00  0.00     0.173 A 
ATOM     71  F   UNL A   1      46.052  28.156  24.301  1.00  0.00    -0.203 F 
ATOM     72  C   UNL A   1      48.110  27.010  24.255  1.00  0.00     0.198 A 
ATOM     73  C   UNL A   1      48.865  25.824  26.200  1.00  0.00     0.198 A 
ATOM     74  F   UNL A   1      47.524  25.761  28.131  1.00  0.00    -0.203 F 
ATOM     75  F   UNL A   1      48.302  27.406  22.990  1.00  0.00    -0.200 F 
ATOM     76  C   UNL A   1      49.076  26.249  24.897  1.00  0.00     0.200 A 
ATOM     77  F   UNL A   1      49.816  25.132  26.842  1.00  0.00    -0.200 F 
ATOM     78  F   UNL A   1      50.218  25.940  24.267  1.00  0.00    -0.200 F 
ENDBRANCH  44  68
BRANCH  56  79
ATOM     79  C   UNL A   1      45.554  32.885  29.706  1.00  0.00     0.064 A 
ATOM     80  C   UNL A   1      46.230  32.938  30.933  1.00  0.00     0.173 A 
ATOM     81  C   UNL A   1      45.695  33.961  28.819  1.00  0.00     0.173 A 
ATOM     82  F   UNL A   1      46.112  31.931  31.813  1.00  0.00    -0.203 F 
ATOM     83  C   UNL A   1      46.957  34.066  31.291  1.00  0.00     0.198 A 
ATOM     84  C   UNL A   1      46.455  35.071  29.167  1.00  0.00     0.198 A 
ATOM     85  F   UNL A   1      45.078  33.944  27.627  1.00  0.00    -0.203 F 
ATOM     86  F   UNL A   1      47.514  34.140  32.509  1.00  0.00    -0.200 F 
ATOM     87  C   UNL A   1      47.067  35.131  30.410  1.00  0.00     0.200 A 
ATOM     88  F   UNL A   1      46.573  36.094  28.310  1.00  0.00    -0.200 F 
ATOM     89  F   UNL A   1      47.747  36.228  30.769  1.00  0.00    -0.200 F 
ENDBRANCH  56  79
ENDBRANCH  30  31
ENDBRANCH  23  25
ENDBRANCH  22  23
ENDBRANCH  21  22
ENDBRANCH   1  21
TORSDOF 13
ENDMDL
MODEL 2
REMARK VINA RESULT:     -13.2      3.807      9.596
REMARK SMILES C=C(C(=O)OCCOC(=O)c1ccc(-c2c3nc(c(-c4c(F)c(F)c(F)c(F)c4F)c4ccc([nH]4)c(-c4c(F)c(F)c(F)c(F)c4F)c4nc(c(-c5c(F)c(F)c(F)c(F)c5F)c5ccc2[nH]5)C=C4)C=C3)cc1)[C@@H]1CC[C@]2(C)C[C@@H](O)CC(=C)[C@H]2C1
REMARK SMILES IDX 6 1 5 2 3 3 4 4 2 5 1 6 74 7 75 8 86 9 76 10 85 11 77 12
REMARK SMILES IDX 83 13 78 14 79 15 82 16 84 17 80 18 81 19 7 21 8 22 9 23
REMARK SMILES IDX 10 24 11 25 12 26 73 27 13 28 72 29 14 30 15 31 16 32 66 33
REMARK SMILES IDX 17 34 71 35 65 36 67 37 18 38 70 39 64 40 63 41 19 43 51 44
REMARK SMILES IDX 31 45 50 46 32 47 35 48 49 49 68 50 33 51 34 52 48 54 69 55
REMARK SMILES IDX 36 56 20 57 21 58 29 59 22 60 23 61 27 62 30 63 24 64 25 65
REMARK SMILES IDX 28 66 26 67 52 68 53 69 61 70 54 71 55 72 59 73 62 74 56 75
REMARK SMILES IDX 57 76 60 77 58 78 37 79 38 80 46 81 39 82 40 83 44 84 47 85
REMARK SMILES IDX 41 86 42 87 45 88 43 89
REMARK H PARENT 81 20 67 42 35 53
REMARK Flexibility Score: inf
ROOT
ATOM      1  C   UNL A   1      31.120  28.645  23.861  1.00  0.00     0.275 C 
ENDROOT
BRANCH   1   2
ATOM      2  O   UNL A   1      30.413  27.483  24.358  1.00  0.00    -0.459 OA
BRANCH   2   3
ATOM      3  C   UNL A   1      31.020  26.742  25.331  1.00  0.00     0.333 C 
ATOM      4  O   UNL A   1      30.682  26.681  26.501  1.00  0.00    -0.247 OA
BRANCH   3   5
ATOM      5  C   UNL A   1      32.236  26.083  24.797  1.00  0.00     0.033 C 
ATOM      6  C   UNL A   1      33.311  26.244  25.600  1.00  0.00     0.020 C 
BRANCH   5   7
ATOM      7  C   UNL A   1      32.308  25.163  23.561  1.00  0.00     0.026 C 
ATOM      8  C   UNL A   1      31.115  24.179  23.604  1.00  0.00     0.009 C 
ATOM      9  C   UNL A   1      33.663  24.512  23.039  1.00  0.00     0.017 C 
ATOM     10  C   UNL A   1      31.371  22.819  24.269  1.00  0.00     0.008 C 
ATOM     11  C   UNL A   1      34.145  23.036  23.840  1.00  0.00     0.021 C 
ATOM     12  C   UNL A   1      32.529  22.005  23.636  1.00  0.00    -0.024 C 
ATOM     13  C   UNL A   1      35.986  21.998  24.386  1.00  0.00    -0.071 C 
ATOM     14  C   UNL A   1      32.153  21.908  22.112  1.00  0.00     0.012 C 
ATOM     15  C   UNL A   1      32.540  20.314  24.428  1.00  0.00     0.039 C 
ATOM     16  C   UNL A   1      35.764  20.201  25.001  1.00  0.00     0.062 C 
ATOM     17  C   UNL A   1      37.373  22.135  24.398  1.00  0.00     0.008 C 
ATOM     18  C   UNL A   1      34.075  19.405  25.001  1.00  0.00     0.119 C 
BRANCH  18  19
ATOM     19  O   UNL A   1      34.134  18.192  24.227  1.00  0.00    -0.393 OA
ATOM     20  H   UNL A   1      34.922  17.687  24.479  1.00  0.00     0.210 HD
ENDBRANCH  18  19
ENDBRANCH   5   7
ENDBRANCH   3   5
ENDBRANCH   2   3
ENDBRANCH   1   2
BRANCH   1  21
ATOM     21  C   UNL A   1      31.028  29.825  24.826  1.00  0.00     0.275 C 
BRANCH  21  22
ATOM     22  O   UNL A   1      32.336  30.078  25.368  1.00  0.00    -0.458 OA
BRANCH  22  23
ATOM     23  C   UNL A   1      32.270  30.956  26.380  1.00  0.00     0.338 C 
ATOM     24  O   UNL A   1      31.304  31.650  26.677  1.00  0.00    -0.246 OA
BRANCH  23  25
ATOM     25  C   UNL A   1      33.441  30.990  27.251  1.00  0.00     0.060 A 
ATOM     26  C   UNL A   1      34.478  32.349  27.659  1.00  0.00     0.016 A 
ATOM     27  C   UNL A   1      34.184  29.381  27.344  1.00  0.00     0.016 A 
ATOM     28  C   UNL A   1      36.170  32.127  28.270  1.00  0.00     0.010 A 
ATOM     29  C   UNL A   1      35.965  29.193  28.081  1.00  0.00     0.010 A 
ATOM     30  C   UNL A   1      36.938  30.548  28.555  1.00  0.00    -0.014 A 
BRANCH  30  31
ATOM     31  C   UNL A   1      38.225  30.193  29.380  1.00  0.00     0.031 A 
ATOM     32  C   UNL A   1      39.403  29.213  28.926  1.00  0.00     0.074 A 
ATOM     33  C   UNL A   1      38.320  30.621  30.658  1.00  0.00     0.049 A 
ATOM     34  N   UNL A   1      40.357  28.638  29.654  1.00  0.00    -0.248 NA
ATOM     35  C   UNL A   1      39.505  28.746  27.537  1.00  0.00     0.031 C 
ATOM     36  C   UNL A   1      37.280  31.318  31.391  1.00  0.00     0.029 A 
ATOM     37  N   UNL A   1      39.334  30.520  31.588  1.00  0.00    -0.354 N 
ATOM     38  C   UNL A   1      41.032  27.722  28.817  1.00  0.00     0.074 A 
ATOM     39  C   UNL A   1      40.347  27.732  27.567  1.00  0.00     0.031 C 
ATOM     40  C   UNL A   1      37.737  31.737  32.569  1.00  0.00     0.029 A 
ATOM     41  C   UNL A   1      39.051  31.159  32.774  1.00  0.00     0.049 A 
ATOM     42  H   UNL A   1      40.177  30.039  31.420  1.00  0.00     0.167 HD
ATOM     43  C   UNL A   1      42.160  26.983  28.989  1.00  0.00     0.037 A 
ATOM     44  C   UNL A   1      39.706  31.233  33.946  1.00  0.00     0.037 A 
ATOM     45  C   UNL A   1      42.979  27.060  30.164  1.00  0.00     0.049 A 
ATOM     46  C   UNL A   1      41.011  30.526  34.088  1.00  0.00     0.074 A 
ATOM     47  C   UNL A   1      44.199  26.457  30.416  1.00  0.00     0.029 A 
ATOM     48  N   UNL A   1      42.669  27.828  31.271  1.00  0.00    -0.354 N 
ATOM     49  N   UNL A   1      41.594  29.701  33.256  1.00  0.00    -0.248 NA
ATOM     50  C   UNL A   1      41.752  30.769  35.328  1.00  0.00     0.031 C 
ATOM     51  C   UNL A   1      44.617  26.842  31.692  1.00  0.00     0.029 A 
ATOM     52  C   UNL A   1      43.682  27.724  32.207  1.00  0.00     0.049 A 
ATOM     53  H   UNL A   1      41.852  28.367  31.376  1.00  0.00     0.167 HD
ATOM     54  C   UNL A   1      42.774  29.320  33.872  1.00  0.00     0.074 A 
ATOM     55  C   UNL A   1      42.843  30.046  35.124  1.00  0.00     0.031 C 
ATOM     56  C   UNL A   1      43.711  28.437  33.450  1.00  0.00     0.037 A 
BRANCH  43  57
ATOM     57  C   UNL A   1      42.645  26.066  27.869  1.00  0.00     0.064 A 
ATOM     58  C   UNL A   1      42.096  24.789  27.646  1.00  0.00     0.173 A 
ATOM     59  C   UNL A   1      43.604  26.512  26.941  1.00  0.00     0.173 A 
ATOM     60  F   UNL A   1      41.172  24.294  28.483  1.00  0.00    -0.203 F 
ATOM     61  C   UNL A   1      42.510  23.992  26.575  1.00  0.00     0.198 A 
ATOM     62  C   UNL A   1      43.981  25.731  25.845  1.00  0.00     0.198 A 
ATOM     63  F   UNL A   1      44.156  27.728  27.072  1.00  0.00    -0.203 F 
ATOM     64  F   UNL A   1      42.001  22.760  26.421  1.00  0.00    -0.200 F 
ATOM     65  C   UNL A   1      43.441  24.469  25.667  1.00  0.00     0.200 A 
ATOM     66  F   UNL A   1      44.859  26.210  24.951  1.00  0.00    -0.200 F 
ATOM     67  F   UNL A   1      43.811  23.716  24.621  1.00  0.00    -0.200 F 
ENDBRANCH  43  57
BRANCH  44  68
ATOM     68  C   UNL A   1      39.104  32.027  35.053  1.00  0.00     0.064 A 
ATOM     69  C   UNL A   1      38.426  31.394  36.101  1.00  0.00     0.173 A 
ATOM     70  C   UNL A   1      39.328  33.410  35.161  1.00  0.00     0.173 A 
ATOM     71  F   UNL A   1      38.176  30.078  36.039  1.00  0.00    -0.203 F 
ATOM     72  C   UNL A   1      38.009  32.108  37.223  1.00  0.00     0.198 A 
ATOM     73  C   UNL A   1      38.955  34.113  36.304  1.00  0.00     0.198 A 
ATOM     74  F   UNL A   1      40.001  34.060  34.199  1.00  0.00    -0.203 F 
ATOM     75  F   UNL A   1      37.352  31.480  38.206  1.00  0.00    -0.200 F 
ATOM     76  C   UNL A   1      38.294  33.461  37.333  1.00  0.00     0.200 A 
ATOM     77  F   UNL A   1      39.278  35.408  36.428  1.00  0.00    -0.200 F 
ATOM     78  F   UNL A   1      37.945  34.134  38.439  1.00  0.00    -0.200 F 
ENDBRANCH  44  68
BRANCH  56  79
ATOM     79  C   UNL A   1      44.883  28.240  34.354  1.00  0.00     0.064 A 
ATOM     80  C   UNL A   1      46.036  29.028  34.229  1.00  0.00     0.173 A 
ATOM     81  C   UNL A   1      44.873  27.219  35.314  1.00  0.00     0.173 A 
ATOM     82  F   UNL A   1      46.088  30.009  33.314  1.00  0.00    -0.203 F 
ATOM     83  C   UNL A   1      47.167  28.751  34.986  1.00  0.00     0.198 A 
ATOM     84  C   UNL A   1      45.995  26.970  36.095  1.00  0.00     0.198 A 
ATOM     85  F   UNL A   1      43.785  26.451  35.477  1.00  0.00    -0.203 F 
ATOM     86  F   UNL A   1      48.292  29.451  34.782  1.00  0.00    -0.200 F 
ATOM     87  C   UNL A   1      47.146  27.722  35.916  1.00  0.00     0.200 A 
ATOM     88  F   UNL A   1      45.971  25.986  37.003  1.00  0.00    -0.200 F 
ATOM     89  F   UNL A   1      48.247  27.440  36.625  1.00  0.00    -0.200 F 
ENDBRANCH  56  79
ENDBRANCH  30  31
ENDBRANCH  23  25
ENDBRANCH  22  23
ENDBRANCH  21  22
ENDBRANCH   1  21
TORSDOF 13
ENDMDL
MODEL 3
REMARK VINA RESULT:     -13.2      3.788      9.533
REMARK SMILES C=C(C(=O)OCCOC(=O)c1ccc(-c2c3nc(c(-c4c(F)c(F)c(F)c(F)c4F)c4ccc([nH]4)c(-c4c(F)c(F)c(F)c(F)c4F)c4nc(c(-c5c(F)c(F)c(F)c(F)c5F)c5ccc2[nH]5)C=C4)C=C3)cc1)[C@@H]1CC[C@]2(C)C[C@@H](O)CC(=C)[C@H]2C1
REMARK SMILES IDX 6 1 5 2 3 3 4 4 2 5 1 6 74 7 75 8 86 9 76 10 85 11 77 12
REMARK SMILES IDX 83 13 78 14 79 15 82 16 84 17 80 18 81 19 7 21 8 22 9 23
REMARK SMILES IDX 10 24 11 25 12 26 73 27 13 28 72 29 14 30 15 31 16 32 66 33
REMARK SMILES IDX 17 34 71 35 65 36 67 37 18 38 70 39 64 40 63 41 19 43 51 44
REMARK SMILES IDX 31 45 50 46 32 47 35 48 49 49 68 50 33 51 34 52 48 54 69 55
REMARK SMILES IDX 36 56 20 57 21 58 29 59 22 60 23 61 27 62 30 63 24 64 25 65
REMARK SMILES IDX 28 66 26 67 52 68 53 69 61 70 54 71 55 72 59 73 62 74 56 75
REMARK SMILES IDX 57 76 60 77 58 78 37 79 38 80 46 81 39 82 40 83 44 84 47 85
REMARK SMILES IDX 41 86 42 87 45 88 43 89
REMARK H PARENT 81 20 67 42 35 53
REMARK Flexibility Score: inf
ROOT
ATOM      1  C   UNL A   1      31.156  28.550  23.885  1.00  0.00     0.275 C 
ENDROOT
BRANCH   1   2
ATOM      2  O   UNL A   1      30.455  27.400  24.418  1.00  0.00    -0.459 OA
BRANCH   2   3
ATOM      3  C   UNL A   1      31.069  26.687  25.406  1.00  0.00     0.333 C 
ATOM      4  O   UNL A   1      30.747  26.669  26.583  1.00  0.00    -0.247 OA
BRANCH   3   5
ATOM      5  C   UNL A   1      32.272  26.000  24.879  1.00  0.00     0.033 C 
ATOM      6  C   UNL A   1      33.342  26.121  25.696  1.00  0.00     0.020 C 
BRANCH   5   7
ATOM      7  C   UNL A   1      32.333  25.093  23.633  1.00  0.00     0.026 C 
ATOM      8  C   UNL A   1      31.135  24.115  23.671  1.00  0.00     0.009 C 
ATOM      9  C   UNL A   1      33.682  24.440  23.097  1.00  0.00     0.017 C 
ATOM     10  C   UNL A   1      31.387  22.747  24.320  1.00  0.00     0.008 C 
ATOM     11  C   UNL A   1      34.160  22.953  23.879  1.00  0.00     0.021 C 
ATOM     12  C   UNL A   1      32.538  21.933  23.673  1.00  0.00    -0.024 C 
ATOM     13  C   UNL A   1      35.998  21.900  24.405  1.00  0.00    -0.071 C 
ATOM     14  C   UNL A   1      32.153  21.855  22.149  1.00  0.00     0.012 C 
ATOM     15  C   UNL A   1      32.543  20.234  24.445  1.00  0.00     0.039 C 
ATOM     16  C   UNL A   1      35.769  20.097  25.001  1.00  0.00     0.062 C 
ATOM     17  C   UNL A   1      37.386  22.029  24.410  1.00  0.00     0.008 C 
ATOM     18  C   UNL A   1      34.076  19.310  25.001  1.00  0.00     0.119 C 
BRANCH  18  19
ATOM     19  O   UNL A   1      34.124  18.106  24.214  1.00  0.00    -0.393 OA
ATOM     20  H   UNL A   1      33.231  17.738  24.131  1.00  0.00     0.210 HD
ENDBRANCH  18  19
ENDBRANCH   5   7
ENDBRANCH   3   5
ENDBRANCH   2   3
ENDBRANCH   1   2
BRANCH   1  21
ATOM     21  C   UNL A   1      31.033  29.767  24.800  1.00  0.00     0.275 C 
BRANCH  21  22
ATOM     22  O   UNL A   1      32.335  30.078  25.327  1.00  0.00    -0.458 OA
BRANCH  22  23
ATOM     23  C   UNL A   1      32.237  30.903  26.379  1.00  0.00     0.338 C 
ATOM     24  O   UNL A   1      31.246  31.545  26.709  1.00  0.00    -0.246 OA
BRANCH  23  25
ATOM     25  C   UNL A   1      33.408  30.942  27.251  1.00  0.00     0.060 A 
ATOM     26  C   UNL A   1      34.430  32.308  27.671  1.00  0.00     0.016 A 
ATOM     27  C   UNL A   1      34.167  29.340  27.329  1.00  0.00     0.016 A 
ATOM     28  C   UNL A   1      36.124  32.098  28.280  1.00  0.00     0.010 A 
ATOM     29  C   UNL A   1      35.950  29.164  28.065  1.00  0.00     0.010 A 
ATOM     30  C   UNL A   1      36.909  30.525  28.551  1.00  0.00    -0.014 A 
BRANCH  30  31
ATOM     31  C   UNL A   1      38.200  30.176  29.373  1.00  0.00     0.031 A 
ATOM     32  C   UNL A   1      39.379  29.198  28.917  1.00  0.00     0.074 A 
ATOM     33  C   UNL A   1      38.298  30.607  30.650  1.00  0.00     0.049 A 
ATOM     34  N   UNL A   1      40.337  28.627  29.644  1.00  0.00    -0.248 NA
ATOM     35  C   UNL A   1      39.478  28.727  27.530  1.00  0.00     0.031 C 
ATOM     36  C   UNL A   1      37.257  31.303  31.384  1.00  0.00     0.029 A 
ATOM     37  N   UNL A   1      39.315  30.512  31.576  1.00  0.00    -0.354 N 
ATOM     38  C   UNL A   1      41.012  27.711  28.808  1.00  0.00     0.074 A 
ATOM     39  C   UNL A   1      40.323  27.716  27.560  1.00  0.00     0.031 C 
ATOM     40  C   UNL A   1      37.717  31.727  32.559  1.00  0.00     0.029 A 
ATOM     41  C   UNL A   1      39.034  31.153  32.762  1.00  0.00     0.049 A 
ATOM     42  H   UNL A   1      40.158  30.033  31.407  1.00  0.00     0.167 HD
ATOM     43  C   UNL A   1      42.142  26.975  28.978  1.00  0.00     0.037 A 
ATOM     44  C   UNL A   1      39.693  31.232  33.932  1.00  0.00     0.037 A 
ATOM     45  C   UNL A   1      42.965  27.058  30.151  1.00  0.00     0.049 A 
ATOM     46  C   UNL A   1      41.000  30.529  34.071  1.00  0.00     0.074 A 
ATOM     47  C   UNL A   1      44.188  26.459  30.400  1.00  0.00     0.029 A 
ATOM     48  N   UNL A   1      42.656  27.828  31.256  1.00  0.00    -0.354 N 
ATOM     49  N   UNL A   1      41.583  29.703  33.239  1.00  0.00    -0.248 NA
ATOM     50  C   UNL A   1      41.744  30.777  35.308  1.00  0.00     0.031 C 
ATOM     51  C   UNL A   1      44.609  26.849  31.674  1.00  0.00     0.029 A 
ATOM     52  C   UNL A   1      43.672  27.730  32.189  1.00  0.00     0.049 A 
ATOM     53  H   UNL A   1      41.838  28.365  31.363  1.00  0.00     0.167 HD
ATOM     54  C   UNL A   1      42.765  29.327  33.853  1.00  0.00     0.074 A 
ATOM     55  C   UNL A   1      42.836  30.058  35.102  1.00  0.00     0.031 C 
ATOM     56  C   UNL A   1      43.704  28.446  33.431  1.00  0.00     0.037 A 
BRANCH  43  57
ATOM     57  C   UNL A   1      42.626  26.056  27.859  1.00  0.00     0.064 A 
ATOM     58  C   UNL A   1      43.539  26.478  26.875  1.00  0.00     0.173 A 
ATOM     59  C   UNL A   1      42.248  24.701  27.831  1.00  0.00     0.173 A 
ATOM     60  F   UNL A   1      43.954  27.754  26.839  1.00  0.00    -0.203 F 
ATOM     61  C   UNL A   1      44.019  25.601  25.898  1.00  0.00     0.198 A 
ATOM     62  C   UNL A   1      42.765  23.817  26.881  1.00  0.00     0.198 A 
ATOM     63  F   UNL A   1      41.399  24.217  28.750  1.00  0.00    -0.203 F 
ATOM     64  F   UNL A   1      44.851  26.049  24.946  1.00  0.00    -0.200 F 
ATOM     65  C   UNL A   1      43.643  24.268  25.910  1.00  0.00     0.200 A 
ATOM     66  F   UNL A   1      42.424  22.520  26.915  1.00  0.00    -0.200 F 
ATOM     67  F   UNL A   1      44.131  23.421  24.992  1.00  0.00    -0.200 F 
ENDBRANCH  43  57
BRANCH  44  68
ATOM     68  C   UNL A   1      39.092  32.028  35.038  1.00  0.00     0.064 A 
ATOM     69  C   UNL A   1      38.418  31.395  36.090  1.00  0.00     0.173 A 
ATOM     70  C   UNL A   1      39.313  33.412  35.142  1.00  0.00     0.173 A 
ATOM     71  F   UNL A   1      38.171  30.079  36.032  1.00  0.00    -0.203 F 
ATOM     72  C   UNL A   1      38.003  32.111  37.211  1.00  0.00     0.198 A 
ATOM     73  C   UNL A   1      38.942  34.116  36.285  1.00  0.00     0.198 A 
ATOM     74  F   UNL A   1      39.981  34.060  34.176  1.00  0.00    -0.203 F 
ATOM     75  F   UNL A   1      37.350  31.484  38.198  1.00  0.00    -0.200 F 
ATOM     76  C   UNL A   1      38.284  33.465  37.317  1.00  0.00     0.200 A 
ATOM     77  F   UNL A   1      39.261  35.412  36.404  1.00  0.00    -0.200 F 
ATOM     78  F   UNL A   1      37.937  34.140  38.422  1.00  0.00    -0.200 F 
ENDBRANCH  44  68
BRANCH  56  79
ATOM     79  C   UNL A   1      44.879  28.255  34.331  1.00  0.00     0.064 A 
ATOM     80  C   UNL A   1      44.886  27.254  35.313  1.00  0.00     0.173 A 
ATOM     81  C   UNL A   1      45.983  29.114  34.245  1.00  0.00     0.173 A 
ATOM     82  F   UNL A   1      43.842  26.419  35.433  1.00  0.00    -0.203 F 
ATOM     83  C   UNL A   1      45.926  27.169  36.228  1.00  0.00     0.198 A 
ATOM     84  C   UNL A   1      47.041  28.999  35.140  1.00  0.00     0.198 A 
ATOM     85  F   UNL A   1      46.026  30.074  33.310  1.00  0.00    -0.203 F 
ATOM     86  F   UNL A   1      45.867  26.271  37.222  1.00  0.00    -0.200 F 
ATOM     87  C   UNL A   1      47.001  28.042  36.142  1.00  0.00     0.200 A 
ATOM     88  F   UNL A   1      48.085  29.833  35.049  1.00  0.00    -0.200 F 
ATOM     89  F   UNL A   1      47.991  27.975  37.043  1.00  0.00    -0.200 F 
ENDBRANCH  56  79
ENDBRANCH  30  31
ENDBRANCH  23  25
ENDBRANCH  22  23
ENDBRANCH  21  22
ENDBRANCH   1  21
TORSDOF 13
ENDMDL
