MODEL 1
REMARK VINA RESULT:     -11.7      0.000      0.000
REMARK SMILES O=C(C[C@H]1C[C@H]2CC[C@@H](C1)N2C(=O)NCCC1CC1)OCCOC(=O)c1ccc(-c2c3nc(c(-c4c(F)c(F)c(F)c(F)c4F)c4ccc([nH]4)c(-c4c(F)c(F)c(F)c(F)c4F)c4nc(c(-c5c(F)c(F)c(F)c(F)c5F)c5ccc2[nH]5)C=C4)C=C3)cc1
REMARK SMILES IDX 20 1 2 2 1 3 3 4 4 5 5 6 10 7 6 8 9 9 7 10 11 11 8 12 12 13
REMARK SMILES IDX 13 14 14 15 15 17 16 18 17 19 18 20 19 21 21 22 22 23 23 24
REMARK SMILES IDX 24 25 25 26 26 27 27 28 88 29 28 30 87 31 29 32 30 33 31 34
REMARK SMILES IDX 81 35 32 36 86 37 80 38 82 39 33 40 85 41 79 42 78 43 34 45
REMARK SMILES IDX 66 46 46 47 65 48 47 49 50 50 64 51 83 52 48 53 49 54 63 56
REMARK SMILES IDX 84 57 51 58 35 59 36 60 44 61 37 62 38 63 42 64 45 65 39 66
REMARK SMILES IDX 40 67 43 68 41 69 67 70 68 71 76 72 69 73 70 74 74 75 77 76
REMARK SMILES IDX 71 77 72 78 75 79 73 80 52 81 53 82 61 83 54 84 55 85 59 86
REMARK SMILES IDX 62 87 56 88 57 89 60 90 58 91
REMARK H PARENT 14 16 82 44 50 55
REMARK Flexibility Score: inf
ROOT
ATOM      1  O   UNL A   1      31.193  27.427  25.568  1.00  0.00    -0.462 OA
ENDROOT
BRANCH   1   2
ATOM      2  C   UNL A   1      31.871  26.754  24.611  1.00  0.00     0.306 C 
ATOM      3  O   UNL A   1      31.334  26.505  23.535  1.00  0.00    -0.252 OA
BRANCH   2   4
ATOM      4  C   UNL A   1      33.308  26.364  24.863  1.00  0.00     0.126 C 
BRANCH   4   5
ATOM      5  C   UNL A   1      33.555  25.122  25.744  1.00  0.00     0.004 C 
ATOM      6  C   UNL A   1      32.301  24.196  25.871  1.00  0.00     0.029 C 
ATOM      7  C   UNL A   1      34.861  24.333  25.456  1.00  0.00     0.029 C 
ATOM      8  C   UNL A   1      32.404  22.886  25.064  1.00  0.00     0.087 C 
ATOM      9  C   UNL A   1      34.669  23.030  24.656  1.00  0.00     0.087 C 
ATOM     10  C   UNL A   1      32.510  23.191  23.566  1.00  0.00     0.027 C 
ATOM     11  N   UNL A   1      33.688  22.277  25.394  1.00  0.00    -0.319 N 
ATOM     12  C   UNL A   1      34.011  23.163  23.288  1.00  0.00     0.027 C 
BRANCH  11  13
ATOM     13  C   UNL A   1      33.816  21.324  26.346  1.00  0.00     0.317 C 
ATOM     14  O   UNL A   1      34.517  21.508  27.345  1.00  0.00    -0.249 OA
ATOM     15  N   UNL A   1      33.203  20.124  26.262  1.00  0.00    -0.338 N 
ATOM     16  H   UNL A   1      33.250  19.627  27.110  1.00  0.00     0.165 HD
BRANCH  15  17
ATOM     17  C   UNL A   1      32.488  19.377  25.232  1.00  0.00     0.118 C 
BRANCH  17  18
ATOM     18  C   UNL A   1      33.425  18.902  24.120  1.00  0.00     0.025 C 
BRANCH  18  19
ATOM     19  C   UNL A   1      33.206  17.460  23.766  1.00  0.00    -0.009 C 
ATOM     20  C   UNL A   1      34.298  16.685  23.072  1.00  0.00     0.004 C 
ATOM     21  C   UNL A   1      33.967  16.394  24.508  1.00  0.00     0.004 C 
ENDBRANCH  18  19
ENDBRANCH  17  18
ENDBRANCH  15  17
ENDBRANCH  11  13
ENDBRANCH   4   5
ENDBRANCH   2   4
ENDBRANCH   1   2
BRANCH   1  22
ATOM     22  C   UNL A   1      31.822  28.306  26.528  1.00  0.00     0.274 C 
BRANCH  22  23
ATOM     23  C   UNL A   1      31.834  29.737  25.991  1.00  0.00     0.275 C 
BRANCH  23  24
ATOM     24  O   UNL A   1      33.177  30.252  26.056  1.00  0.00    -0.458 OA
BRANCH  24  25
ATOM     25  C   UNL A   1      33.391  31.237  26.969  1.00  0.00     0.338 C 
ATOM     26  O   UNL A   1      32.610  32.096  27.318  1.00  0.00    -0.246 OA
BRANCH  25  27
ATOM     27  C   UNL A   1      34.689  30.968  27.631  1.00  0.00     0.060 A 
ATOM     28  C   UNL A   1      35.037  29.639  27.903  1.00  0.00     0.016 A 
ATOM     29  C   UNL A   1      35.579  32.003  27.935  1.00  0.00     0.016 A 
ATOM     30  C   UNL A   1      36.274  29.338  28.473  1.00  0.00     0.010 A 
ATOM     31  C   UNL A   1      36.803  31.707  28.537  1.00  0.00     0.010 A 
ATOM     32  C   UNL A   1      37.147  30.375  28.824  1.00  0.00    -0.014 A 
BRANCH  32  33
ATOM     33  C   UNL A   1      38.323  30.098  29.678  1.00  0.00     0.031 A 
ATOM     34  C   UNL A   1      39.344  29.118  29.173  1.00  0.00     0.074 A 
ATOM     35  C   UNL A   1      38.470  30.675  30.883  1.00  0.00     0.049 A 
ATOM     36  N   UNL A   1      40.418  28.659  29.760  1.00  0.00    -0.248 NA
ATOM     37  C   UNL A   1      39.117  28.580  27.821  1.00  0.00     0.031 C 
ATOM     38  C   UNL A   1      37.568  31.663  31.469  1.00  0.00     0.029 A 
ATOM     39  N   UNL A   1      39.437  30.491  31.842  1.00  0.00    -0.354 N 
ATOM     40  C   UNL A   1      40.998  27.789  28.847  1.00  0.00     0.074 A 
ATOM     41  C   UNL A   1      40.147  27.762  27.679  1.00  0.00     0.031 C 
ATOM     42  C   UNL A   1      38.010  31.980  32.700  1.00  0.00     0.029 A 
ATOM     43  C   UNL A   1      39.211  31.199  32.995  1.00  0.00     0.049 A 
ATOM     44  H   UNL A   1      40.219  29.906  31.712  1.00  0.00     0.167 HD
ATOM     45  C   UNL A   1      42.143  27.080  28.970  1.00  0.00     0.037 A 
ATOM     46  C   UNL A   1      39.887  31.192  34.161  1.00  0.00     0.037 A 
ATOM     47  C   UNL A   1      42.978  27.085  30.139  1.00  0.00     0.049 A 
ATOM     48  C   UNL A   1      41.110  30.317  34.304  1.00  0.00     0.074 A 
ATOM     49  C   UNL A   1      44.164  26.407  30.355  1.00  0.00     0.029 A 
ATOM     50  N   UNL A   1      42.702  27.793  31.297  1.00  0.00    -0.354 N 
ATOM     51  N   UNL A   1      41.680  29.535  33.421  1.00  0.00    -0.248 NA
ATOM     52  C   UNL A   1      41.782  30.326  35.613  1.00  0.00     0.031 C 
ATOM     53  C   UNL A   1      44.582  26.667  31.663  1.00  0.00     0.029 A 
ATOM     54  C   UNL A   1      43.681  27.544  32.245  1.00  0.00     0.049 A 
ATOM     55  H   UNL A   1      41.927  28.385  31.428  1.00  0.00     0.167 HD
ATOM     56  C   UNL A   1      42.788  28.986  34.054  1.00  0.00     0.074 A 
ATOM     57  C   UNL A   1      42.819  29.531  35.394  1.00  0.00     0.031 C 
ATOM     58  C   UNL A   1      43.701  28.107  33.570  1.00  0.00     0.037 A 
BRANCH  45  59
ATOM     59  C   UNL A   1      42.543  26.217  27.815  1.00  0.00     0.064 A 
ATOM     60  C   UNL A   1      41.998  24.938  27.634  1.00  0.00     0.173 A 
ATOM     61  C   UNL A   1      43.457  26.687  26.861  1.00  0.00     0.173 A 
ATOM     62  F   UNL A   1      41.135  24.439  28.532  1.00  0.00    -0.203 F 
ATOM     63  C   UNL A   1      42.365  24.154  26.544  1.00  0.00     0.198 A 
ATOM     64  C   UNL A   1      43.804  25.910  25.760  1.00  0.00     0.198 A 
ATOM     65  F   UNL A   1      44.008  27.903  26.994  1.00  0.00    -0.203 F 
ATOM     66  F   UNL A   1      41.858  22.920  26.407  1.00  0.00    -0.200 F 
ATOM     67  C   UNL A   1      43.261  24.644  25.604  1.00  0.00     0.200 A 
ATOM     68  F   UNL A   1      44.665  26.385  24.851  1.00  0.00    -0.200 F 
ATOM     69  F   UNL A   1      43.607  23.891  24.551  1.00  0.00    -0.200 F 
ENDBRANCH  45  59
BRANCH  46  70
ATOM     70  C   UNL A   1      39.420  32.014  35.308  1.00  0.00     0.064 A 
ATOM     71  C   UNL A   1      38.600  31.466  36.305  1.00  0.00     0.173 A 
ATOM     72  C   UNL A   1      39.732  33.379  35.397  1.00  0.00     0.173 A 
ATOM     73  F   UNL A   1      38.249  30.174  36.245  1.00  0.00    -0.203 F 
ATOM     74  C   UNL A   1      38.085  32.258  37.330  1.00  0.00     0.198 A 
ATOM     75  C   UNL A   1      39.238  34.164  36.438  1.00  0.00     0.198 A 
ATOM     76  F   UNL A   1      40.505  33.954  34.464  1.00  0.00    -0.203 F 
ATOM     77  F   UNL A   1      37.252  31.723  38.233  1.00  0.00    -0.200 F 
ATOM     78  C   UNL A   1      38.407  33.606  37.397  1.00  0.00     0.200 A 
ATOM     79  F   UNL A   1      39.553  35.465  36.499  1.00  0.00    -0.200 F 
ATOM     80  F   UNL A   1      37.900  34.370  38.373  1.00  0.00    -0.200 F 
ENDBRANCH  46  70
BRANCH  58  81
ATOM     81  C   UNL A   1      44.827  27.705  34.476  1.00  0.00     0.064 A 
ATOM     82  C   UNL A   1      44.752  26.556  35.276  1.00  0.00     0.173 A 
ATOM     83  C   UNL A   1      46.017  28.448  34.501  1.00  0.00     0.173 A 
ATOM     84  F   UNL A   1      43.630  25.819  35.296  1.00  0.00    -0.203 F 
ATOM     85  C   UNL A   1      45.820  26.175  36.083  1.00  0.00     0.198 A 
ATOM     86  C   UNL A   1      47.094  28.049  35.289  1.00  0.00     0.198 A 
ATOM     87  F   UNL A   1      46.143  29.550  33.748  1.00  0.00    -0.203 F 
ATOM     88  F   UNL A   1      45.713  25.095  36.869  1.00  0.00    -0.200 F 
ATOM     89  C   UNL A   1      46.993  26.916  36.083  1.00  0.00     0.200 A 
ATOM     90  F   UNL A   1      48.231  28.758  35.276  1.00  0.00    -0.200 F 
ATOM     91  F   UNL A   1      48.024  26.541  36.852  1.00  0.00    -0.200 F 
ENDBRANCH  58  81
ENDBRANCH  32  33
ENDBRANCH  25  27
ENDBRANCH  24  25
ENDBRANCH  23  24
ENDBRANCH  22  23
ENDBRANCH   1  22
TORSDOF 16
ENDMDL
MODEL 2
REMARK VINA RESULT:     -11.7      4.336      9.741
REMARK SMILES O=C(C[C@H]1C[C@H]2CC[C@@H](C1)N2C(=O)NCCC1CC1)OCCOC(=O)c1ccc(-c2c3nc(c(-c4c(F)c(F)c(F)c(F)c4F)c4ccc([nH]4)c(-c4c(F)c(F)c(F)c(F)c4F)c4nc(c(-c5c(F)c(F)c(F)c(F)c5F)c5ccc2[nH]5)C=C4)C=C3)cc1
REMARK SMILES IDX 20 1 2 2 1 3 3 4 4 5 5 6 10 7 6 8 9 9 7 10 11 11 8 12 12 13
REMARK SMILES IDX 13 14 14 15 15 17 16 18 17 19 18 20 19 21 21 22 22 23 23 24
REMARK SMILES IDX 24 25 25 26 26 27 27 28 88 29 28 30 87 31 29 32 30 33 31 34
REMARK SMILES IDX 81 35 32 36 86 37 80 38 82 39 33 40 85 41 79 42 78 43 34 45
REMARK SMILES IDX 66 46 46 47 65 48 47 49 50 50 64 51 83 52 48 53 49 54 63 56
REMARK SMILES IDX 84 57 51 58 35 59 36 60 44 61 37 62 38 63 42 64 45 65 39 66
REMARK SMILES IDX 40 67 43 68 41 69 67 70 68 71 76 72 69 73 70 74 74 75 77 76
REMARK SMILES IDX 71 77 72 78 75 79 73 80 52 81 53 82 61 83 54 84 55 85 59 86
REMARK SMILES IDX 62 87 56 88 57 89 60 90 58 91
REMARK H PARENT 14 16 82 44 50 55
REMARK Flexibility Score: inf
ROOT
ATOM      1  O   UNL A   1      34.743  20.806  25.323  1.00  0.00    -0.462 OA
ENDROOT
BRANCH   1   2
ATOM      2  C   UNL A   1      33.602  20.513  24.658  1.00  0.00     0.306 C 
ATOM      3  O   UNL A   1      33.433  19.391  24.188  1.00  0.00    -0.252 OA
BRANCH   2   4
ATOM      4  C   UNL A   1      32.522  21.564  24.551  1.00  0.00     0.126 C 
BRANCH   4   5
ATOM      5  C   UNL A   1      32.598  22.529  23.350  1.00  0.00     0.004 C 
ATOM      6  C   UNL A   1      31.549  23.687  23.421  1.00  0.00     0.029 C 
ATOM      7  C   UNL A   1      34.019  23.025  22.965  1.00  0.00     0.029 C 
ATOM      8  C   UNL A   1      32.153  25.060  23.778  1.00  0.00     0.087 C 
ATOM      9  C   UNL A   1      34.350  24.460  23.418  1.00  0.00     0.087 C 
ATOM     10  C   UNL A   1      32.779  25.018  25.177  1.00  0.00     0.027 C 
ATOM     11  N   UNL A   1      33.288  25.276  22.889  1.00  0.00    -0.319 N 
ATOM     12  C   UNL A   1      34.257  24.740  24.913  1.00  0.00     0.027 C 
BRANCH  11  13
ATOM     13  C   UNL A   1      33.185  25.980  21.737  1.00  0.00     0.317 C 
ATOM     14  O   UNL A   1      33.171  25.415  20.640  1.00  0.00    -0.249 OA
ATOM     15  N   UNL A   1      33.102  27.327  21.713  1.00  0.00    -0.338 N 
ATOM     16  H   UNL A   1      32.849  27.664  20.824  1.00  0.00     0.165 HD
BRANCH  15  17
ATOM     17  C   UNL A   1      33.291  28.411  22.673  1.00  0.00     0.118 C 
BRANCH  17  18
ATOM     18  C   UNL A   1      31.976  28.813  23.343  1.00  0.00     0.025 C 
BRANCH  18  19
ATOM     19  C   UNL A   1      30.779  28.469  22.504  1.00  0.00    -0.009 C 
ATOM     20  C   UNL A   1      29.610  27.748  23.127  1.00  0.00     0.004 C 
ATOM     21  C   UNL A   1      29.480  29.194  22.737  1.00  0.00     0.004 C 
ENDBRANCH  18  19
ENDBRANCH  17  18
ENDBRANCH  15  17
ENDBRANCH  11  13
ENDBRANCH   4   5
ENDBRANCH   2   4
ENDBRANCH   1   2
BRANCH   1  22
ATOM     22  C   UNL A   1      36.016  20.183  25.044  1.00  0.00     0.274 C 
BRANCH  22  23
ATOM     23  C   UNL A   1      37.038  21.246  24.640  1.00  0.00     0.275 C 
BRANCH  23  24
ATOM     24  O   UNL A   1      37.568  21.863  25.827  1.00  0.00    -0.458 OA
BRANCH  24  25
ATOM     25  C   UNL A   1      38.856  21.550  26.133  1.00  0.00     0.338 C 
ATOM     26  O   UNL A   1      39.435  20.512  25.895  1.00  0.00    -0.246 OA
BRANCH  25  27
ATOM     27  C   UNL A   1      39.514  22.779  26.637  1.00  0.00     0.060 A 
ATOM     28  C   UNL A   1      39.080  24.017  26.145  1.00  0.00     0.016 A 
ATOM     29  C   UNL A   1      40.509  22.722  27.617  1.00  0.00     0.016 A 
ATOM     30  C   UNL A   1      39.633  25.201  26.635  1.00  0.00     0.010 A 
ATOM     31  C   UNL A   1      41.087  23.904  28.083  1.00  0.00     0.010 A 
ATOM     32  C   UNL A   1      40.664  25.146  27.581  1.00  0.00    -0.014 A 
BRANCH  32  33
ATOM     33  C   UNL A   1      41.449  26.360  27.895  1.00  0.00     0.031 A 
ATOM     34  C   UNL A   1      40.750  27.483  28.609  1.00  0.00     0.074 A 
ATOM     35  C   UNL A   1      42.737  26.481  27.531  1.00  0.00     0.049 A 
ATOM     36  N   UNL A   1      41.197  28.668  28.933  1.00  0.00    -0.248 NA
ATOM     37  C   UNL A   1      39.354  27.233  29.007  1.00  0.00     0.031 C 
ATOM     38  C   UNL A   1      43.532  25.453  26.865  1.00  0.00     0.029 A 
ATOM     39  N   UNL A   1      43.599  27.543  27.662  1.00  0.00    -0.354 N 
ATOM     40  C   UNL A   1      40.144  29.299  29.580  1.00  0.00     0.074 A 
ATOM     41  C   UNL A   1      39.028  28.380  29.582  1.00  0.00     0.031 C 
ATOM     42  C   UNL A   1      44.761  25.944  26.619  1.00  0.00     0.029 A 
ATOM     43  C   UNL A   1      44.828  27.327  27.091  1.00  0.00     0.049 A 
ATOM     44  H   UNL A   1      43.357  28.380  28.122  1.00  0.00     0.167 HD
ATOM     45  C   UNL A   1      40.112  30.534  30.130  1.00  0.00     0.037 A 
ATOM     46  C   UNL A   1      45.873  28.165  26.947  1.00  0.00     0.037 A 
ATOM     47  C   UNL A   1      41.210  31.460  30.108  1.00  0.00     0.049 A 
ATOM     48  C   UNL A   1      45.777  29.572  27.487  1.00  0.00     0.074 A 
ATOM     49  C   UNL A   1      41.277  32.731  30.649  1.00  0.00     0.029 A 
ATOM     50  N   UNL A   1      42.429  31.216  29.497  1.00  0.00    -0.354 N 
ATOM     51  N   UNL A   1      44.796  30.145  28.141  1.00  0.00    -0.248 NA
ATOM     52  C   UNL A   1      46.938  30.449  27.266  1.00  0.00     0.031 C 
ATOM     53  C   UNL A   1      42.522  33.277  30.323  1.00  0.00     0.029 A 
ATOM     54  C   UNL A   1      43.247  32.327  29.620  1.00  0.00     0.049 A 
ATOM     55  H   UNL A   1      42.678  30.379  29.044  1.00  0.00     0.167 HD
ATOM     56  C   UNL A   1      45.231  31.432  28.434  1.00  0.00     0.074 A 
ATOM     57  C   UNL A   1      46.569  31.555  27.896  1.00  0.00     0.031 C 
ATOM     58  C   UNL A   1      44.581  32.426  29.089  1.00  0.00     0.037 A 
BRANCH  45  59
ATOM     59  C   UNL A   1      38.834  30.963  30.780  1.00  0.00     0.064 A 
ATOM     60  C   UNL A   1      37.785  31.518  30.034  1.00  0.00     0.173 A 
ATOM     61  C   UNL A   1      38.645  30.787  32.158  1.00  0.00     0.173 A 
ATOM     62  F   UNL A   1      37.928  31.723  28.715  1.00  0.00    -0.203 F 
ATOM     63  C   UNL A   1      36.593  31.894  30.648  1.00  0.00     0.198 A 
ATOM     64  C   UNL A   1      37.444  31.145  32.765  1.00  0.00     0.198 A 
ATOM     65  F   UNL A   1      39.622  30.265  32.914  1.00  0.00    -0.203 F 
ATOM     66  F   UNL A   1      35.615  32.454  29.923  1.00  0.00    -0.200 F 
ATOM     67  C   UNL A   1      36.422  31.700  32.011  1.00  0.00     0.200 A 
ATOM     68  F   UNL A   1      37.277  30.952  34.080  1.00  0.00    -0.200 F 
ATOM     69  F   UNL A   1      35.272  32.055  32.600  1.00  0.00    -0.200 F 
ENDBRANCH  45  59
BRANCH  46  70
ATOM     70  C   UNL A   1      47.103  27.722  26.238  1.00  0.00     0.064 A 
ATOM     71  C   UNL A   1      47.174  27.735  24.837  1.00  0.00     0.173 A 
ATOM     72  C   UNL A   1      48.205  27.218  26.943  1.00  0.00     0.173 A 
ATOM     73  F   UNL A   1      46.132  28.178  24.119  1.00  0.00    -0.203 F 
ATOM     74  C   UNL A   1      48.289  27.233  24.168  1.00  0.00     0.198 A 
ATOM     75  C   UNL A   1      49.331  26.741  26.273  1.00  0.00     0.198 A 
ATOM     76  F   UNL A   1      48.184  27.175  28.283  1.00  0.00    -0.203 F 
ATOM     77  F   UNL A   1      48.304  27.197  22.829  1.00  0.00    -0.200 F 
ATOM     78  C   UNL A   1      49.368  26.738  24.887  1.00  0.00     0.200 A 
ATOM     79  F   UNL A   1      50.371  26.266  26.972  1.00  0.00    -0.200 F 
ATOM     80  F   UNL A   1      50.433  26.242  24.244  1.00  0.00    -0.200 F 
ENDBRANCH  46  70
BRANCH  58  81
ATOM     81  C   UNL A   1      45.314  33.719  29.293  1.00  0.00     0.064 A 
ATOM     82  C   UNL A   1      46.219  33.892  30.350  1.00  0.00     0.173 A 
ATOM     83  C   UNL A   1      45.151  34.778  28.386  1.00  0.00     0.173 A 
ATOM     84  F   UNL A   1      46.400  32.914  31.251  1.00  0.00    -0.203 F 
ATOM     85  C   UNL A   1      46.920  35.085  30.504  1.00  0.00     0.198 A 
ATOM     86  C   UNL A   1      45.874  35.959  28.527  1.00  0.00     0.198 A 
ATOM     87  F   UNL A   1      44.304  34.659  27.353  1.00  0.00    -0.203 F 
ATOM     88  F   UNL A   1      47.750  35.243  31.544  1.00  0.00    -0.200 F 
ATOM     89  C   UNL A   1      46.754  36.114  29.589  1.00  0.00     0.200 A 
ATOM     90  F   UNL A   1      45.724  36.946  27.633  1.00  0.00    -0.200 F 
ATOM     91  F   UNL A   1      47.438  37.257  29.732  1.00  0.00    -0.200 F 
ENDBRANCH  58  81
ENDBRANCH  32  33
ENDBRANCH  25  27
ENDBRANCH  24  25
ENDBRANCH  23  24
ENDBRANCH  22  23
ENDBRANCH   1  22
TORSDOF 16
ENDMDL
MODEL 3
REMARK VINA RESULT:     -11.7      4.481     10.087
REMARK SMILES O=C(C[C@H]1C[C@H]2CC[C@@H](C1)N2C(=O)NCCC1CC1)OCCOC(=O)c1ccc(-c2c3nc(c(-c4c(F)c(F)c(F)c(F)c4F)c4ccc([nH]4)c(-c4c(F)c(F)c(F)c(F)c4F)c4nc(c(-c5c(F)c(F)c(F)c(F)c5F)c5ccc2[nH]5)C=C4)C=C3)cc1
REMARK SMILES IDX 20 1 2 2 1 3 3 4 4 5 5 6 10 7 6 8 9 9 7 10 11 11 8 12 12 13
REMARK SMILES IDX 13 14 14 15 15 17 16 18 17 19 18 20 19 21 21 22 22 23 23 24
REMARK SMILES IDX 24 25 25 26 26 27 27 28 88 29 28 30 87 31 29 32 30 33 31 34
REMARK SMILES IDX 81 35 32 36 86 37 80 38 82 39 33 40 85 41 79 42 78 43 34 45
REMARK SMILES IDX 66 46 46 47 65 48 47 49 50 50 64 51 83 52 48 53 49 54 63 56
REMARK SMILES IDX 84 57 51 58 35 59 36 60 44 61 37 62 38 63 42 64 45 65 39 66
REMARK SMILES IDX 40 67 43 68 41 69 67 70 68 71 76 72 69 73 70 74 74 75 77 76
REMARK SMILES IDX 71 77 72 78 75 79 73 80 52 81 53 82 61 83 54 84 55 85 59 86
REMARK SMILES IDX 62 87 56 88 57 89 60 90 58 91
REMARK H PARENT 14 16 82 44 50 55
REMARK Flexibility Score: inf
ROOT
ATOM      1  O   UNL A   1      35.655  22.361  24.829  1.00  0.00    -0.462 OA
ENDROOT
BRANCH   1   2
ATOM      2  C   UNL A   1      35.331  23.040  23.705  1.00  0.00     0.306 C 
ATOM      3  O   UNL A   1      36.099  23.050  22.748  1.00  0.00    -0.252 OA
BRANCH   2   4
ATOM      4  C   UNL A   1      33.992  23.737  23.627  1.00  0.00     0.126 C 
BRANCH   4   5
ATOM      5  C   UNL A   1      34.001  25.236  23.268  1.00  0.00     0.004 C 
ATOM      6  C   UNL A   1      33.190  25.566  21.972  1.00  0.00     0.029 C 
ATOM      7  C   UNL A   1      33.697  26.216  24.435  1.00  0.00     0.029 C 
ATOM      8  C   UNL A   1      31.841  26.264  22.236  1.00  0.00     0.087 C 
ATOM      9  C   UNL A   1      32.271  26.802  24.437  1.00  0.00     0.087 C 
ATOM     10  C   UNL A   1      30.917  25.348  23.047  1.00  0.00     0.027 C 
ATOM     11  N   UNL A   1      32.103  27.386  23.131  1.00  0.00    -0.319 N 
ATOM     12  C   UNL A   1      31.125  25.799  24.491  1.00  0.00     0.027 C 
BRANCH  11  13
ATOM     13  C   UNL A   1      32.301  28.645  22.677  1.00  0.00     0.317 C 
ATOM     14  O   UNL A   1      33.435  29.129  22.605  1.00  0.00    -0.249 OA
ATOM     15  N   UNL A   1      31.286  29.447  22.291  1.00  0.00    -0.338 N 
ATOM     16  H   UNL A   1      31.610  30.250  21.822  1.00  0.00     0.165 HD
BRANCH  15  17
ATOM     17  C   UNL A   1      29.830  29.425  22.391  1.00  0.00     0.118 C 
BRANCH  17  18
ATOM     18  C   UNL A   1      29.317  30.419  23.435  1.00  0.00     0.025 C 
BRANCH  18  19
ATOM     19  C   UNL A   1      28.283  31.352  22.875  1.00  0.00    -0.009 C 
ATOM     20  C   UNL A   1      28.649  32.786  22.582  1.00  0.00     0.004 C 
ATOM     21  C   UNL A   1      28.410  31.826  21.451  1.00  0.00     0.004 C 
ENDBRANCH  18  19
ENDBRANCH  17  18
ENDBRANCH  15  17
ENDBRANCH  11  13
ENDBRANCH   4   5
ENDBRANCH   2   4
ENDBRANCH   1   2
BRANCH   1  22
ATOM     22  C   UNL A   1      35.760  20.922  24.894  1.00  0.00     0.274 C 
BRANCH  22  23
ATOM     23  C   UNL A   1      37.229  20.512  24.993  1.00  0.00     0.275 C 
BRANCH  23  24
ATOM     24  O   UNL A   1      37.990  21.614  25.520  1.00  0.00    -0.458 OA
BRANCH  24  25
ATOM     25  C   UNL A   1      39.168  21.289  26.118  1.00  0.00     0.338 C 
ATOM     26  O   UNL A   1      39.716  20.208  26.121  1.00  0.00    -0.246 OA
BRANCH  25  27
ATOM     27  C   UNL A   1      39.790  22.543  26.607  1.00  0.00     0.060 A 
ATOM     28  C   UNL A   1      39.314  23.762  26.106  1.00  0.00     0.016 A 
ATOM     29  C   UNL A   1      40.791  22.527  27.582  1.00  0.00     0.016 A 
ATOM     30  C   UNL A   1      39.833  24.967  26.581  1.00  0.00     0.010 A 
ATOM     31  C   UNL A   1      41.334  23.731  28.034  1.00  0.00     0.010 A 
ATOM     32  C   UNL A   1      40.870  24.954  27.522  1.00  0.00    -0.014 A 
BRANCH  32  33
ATOM     33  C   UNL A   1      41.617  26.196  27.821  1.00  0.00     0.031 A 
ATOM     34  C   UNL A   1      40.888  27.301  28.531  1.00  0.00     0.074 A 
ATOM     35  C   UNL A   1      42.898  26.354  27.446  1.00  0.00     0.049 A 
ATOM     36  N   UNL A   1      41.299  28.502  28.842  1.00  0.00    -0.248 NA
ATOM     37  C   UNL A   1      39.504  27.010  28.942  1.00  0.00     0.031 C 
ATOM     38  C   UNL A   1      43.721  25.347  26.782  1.00  0.00     0.029 A 
ATOM     39  N   UNL A   1      43.726  27.444  27.562  1.00  0.00    -0.354 N 
ATOM     40  C   UNL A   1      40.231  29.104  29.493  1.00  0.00     0.074 A 
ATOM     41  C   UNL A   1      39.145  28.150  29.510  1.00  0.00     0.031 C 
ATOM     42  C   UNL A   1      44.931  25.876  26.523  1.00  0.00     0.029 A 
ATOM     43  C   UNL A   1      44.957  27.264  26.983  1.00  0.00     0.049 A 
ATOM     44  H   UNL A   1      43.461  28.276  28.017  1.00  0.00     0.167 HD
ATOM     45  C   UNL A   1      40.163  30.342  30.033  1.00  0.00     0.037 A 
ATOM     46  C   UNL A   1      45.974  28.134  26.825  1.00  0.00     0.037 A 
ATOM     47  C   UNL A   1      41.231  31.302  29.996  1.00  0.00     0.049 A 
ATOM     48  C   UNL A   1      45.837  29.541  27.355  1.00  0.00     0.074 A 
ATOM     49  C   UNL A   1      41.261  32.579  30.526  1.00  0.00     0.029 A 
ATOM     50  N   UNL A   1      42.453  31.093  29.378  1.00  0.00    -0.354 N 
ATOM     51  N   UNL A   1      44.843  30.088  28.011  1.00  0.00    -0.248 NA
ATOM     52  C   UNL A   1      46.967  30.452  27.118  1.00  0.00     0.031 C 
ATOM     53  C   UNL A   1      42.486  33.162  30.187  1.00  0.00     0.029 A 
ATOM     54  C   UNL A   1      43.235  32.231  29.486  1.00  0.00     0.049 A 
ATOM     55  H   UNL A   1      42.725  30.261  28.929  1.00  0.00     0.167 HD
ATOM     56  C   UNL A   1      45.238  31.390  28.291  1.00  0.00     0.074 A 
ATOM     57  C   UNL A   1      46.568  31.551  27.742  1.00  0.00     0.031 C 
ATOM     58  C   UNL A   1      44.562  32.368  28.944  1.00  0.00     0.037 A 
BRANCH  45  59
ATOM     59  C   UNL A   1      38.877  30.735  30.690  1.00  0.00     0.064 A 
ATOM     60  C   UNL A   1      38.698  30.618  32.076  1.00  0.00     0.173 A 
ATOM     61  C   UNL A   1      37.825  31.264  29.930  1.00  0.00     0.173 A 
ATOM     62  F   UNL A   1      39.671  30.098  32.841  1.00  0.00    -0.203 F 
ATOM     63  C   UNL A   1      37.504  31.005  32.676  1.00  0.00     0.198 A 
ATOM     64  C   UNL A   1      36.640  31.671  30.536  1.00  0.00     0.198 A 
ATOM     65  F   UNL A   1      37.948  31.391  28.600  1.00  0.00    -0.203 F 
ATOM     66  F   UNL A   1      37.339  30.854  33.998  1.00  0.00    -0.200 F 
ATOM     67  C   UNL A   1      36.480  31.539  31.907  1.00  0.00     0.200 A 
ATOM     68  F   UNL A   1      35.654  32.192  29.794  1.00  0.00    -0.200 F 
ATOM     69  F   UNL A   1      35.333  31.919  32.487  1.00  0.00    -0.200 F 
ENDBRANCH  45  59
BRANCH  46  70
ATOM     70  C   UNL A   1      47.212  27.724  26.110  1.00  0.00     0.064 A 
ATOM     71  C   UNL A   1      47.282  27.756  24.710  1.00  0.00     0.173 A 
ATOM     72  C   UNL A   1      48.325  27.234  26.808  1.00  0.00     0.173 A 
ATOM     73  F   UNL A   1      46.231  28.187  23.997  1.00  0.00    -0.203 F 
ATOM     74  C   UNL A   1      48.406  27.285  24.034  1.00  0.00     0.198 A 
ATOM     75  C   UNL A   1      49.459  26.788  26.132  1.00  0.00     0.198 A 
ATOM     76  F   UNL A   1      48.305  27.174  28.148  1.00  0.00    -0.203 F 
ATOM     77  F   UNL A   1      48.422  27.267  22.694  1.00  0.00    -0.200 F 
ATOM     78  C   UNL A   1      49.496  26.803  24.746  1.00  0.00     0.200 A 
ATOM     79  F   UNL A   1      50.509  26.326  26.825  1.00  0.00    -0.200 F 
ATOM     80  F   UNL A   1      50.570  26.337  24.096  1.00  0.00    -0.200 F 
ENDBRANCH  46  70
BRANCH  58  81
ATOM     81  C   UNL A   1      45.254  33.685  29.132  1.00  0.00     0.064 A 
ATOM     82  C   UNL A   1      45.093  34.737  28.220  1.00  0.00     0.173 A 
ATOM     83  C   UNL A   1      46.045  33.915  30.269  1.00  0.00     0.173 A 
ATOM     84  F   UNL A   1      44.357  34.563  27.111  1.00  0.00    -0.203 F 
ATOM     85  C   UNL A   1      45.711  35.967  28.429  1.00  0.00     0.198 A 
ATOM     86  C   UNL A   1      46.640  35.154  30.489  1.00  0.00     0.198 A 
ATOM     87  F   UNL A   1      46.224  32.944  31.176  1.00  0.00    -0.203 F 
ATOM     88  F   UNL A   1      45.575  36.947  27.525  1.00  0.00    -0.200 F 
ATOM     89  C   UNL A   1      46.477  36.177  29.566  1.00  0.00     0.200 A 
ATOM     90  F   UNL A   1      47.367  35.361  31.596  1.00  0.00    -0.200 F 
ATOM     91  F   UNL A   1      47.063  37.365  29.771  1.00  0.00    -0.200 F 
ENDBRANCH  58  81
ENDBRANCH  32  33
ENDBRANCH  25  27
ENDBRANCH  24  25
ENDBRANCH  23  24
ENDBRANCH  22  23
ENDBRANCH   1  22
TORSDOF 16
ENDMDL
