MODEL 1
REMARK VINA RESULT:     -12.2      0.000      0.000
REMARK SMILES O=C(OCCOC(=O)c1cccnc1Nc1cccc(C(F)(F)F)c1)c1ccc(-c2c3nc(c(-c4c(F)c(F)c(F)c(F)c4F)c4ccc([nH]4)c(-c4c(F)c(F)c(F)c(F)c4F)c4nc(c(-c5c(F)c(F)c(F)c(F)c5F)c5ccc2[nH]5)C=C4)C=C3)cc1
REMARK SMILES IDX 5 1 4 2 3 3 2 4 1 5 26 6 27 7 88 8 28 9 87 10 29 11 30 12
REMARK SMILES IDX 31 13 81 14 32 15 86 16 80 17 82 18 33 19 85 20 79 21 78 22
REMARK SMILES IDX 34 24 66 25 46 26 65 27 47 28 50 29 64 30 83 31 48 32 49 33
REMARK SMILES IDX 63 35 84 36 51 37 35 38 36 39 44 40 37 41 38 42 42 43 45 44
REMARK SMILES IDX 39 45 40 46 43 47 41 48 67 49 68 50 76 51 69 52 70 53 74 54
REMARK SMILES IDX 77 55 71 56 72 57 75 58 73 59 52 60 53 61 61 62 54 63 55 64
REMARK SMILES IDX 59 65 62 66 56 67 57 68 60 69 58 70 6 71 7 72 8 73 9 74
REMARK SMILES IDX 10 75 14 76 11 77 13 78 12 79 15 80 16 82 17 83 25 84 18 85
REMARK SMILES IDX 20 86 19 87 21 88 22 89 23 90 24 91
REMARK H PARENT 82 23 50 34 15 81
REMARK Flexibility Score: inf
ROOT
ATOM      1  C   UNL A   1      37.070  21.879  24.340  1.00  0.00     0.275 C 
ENDROOT
BRANCH   1   2
ATOM      2  C   UNL A   1      37.563  21.015  25.505  1.00  0.00     0.275 C 
BRANCH   2   3
ATOM      3  O   UNL A   1      38.983  20.781  25.548  1.00  0.00    -0.458 OA
BRANCH   3   4
ATOM      4  C   UNL A   1      39.902  21.072  26.494  1.00  0.00     0.338 C 
ATOM      5  O   UNL A   1      40.287  20.169  27.236  1.00  0.00    -0.246 OA
BRANCH   4   6
ATOM      6  C   UNL A   1      40.378  22.454  26.803  1.00  0.00     0.060 A 
ATOM      7  C   UNL A   1      39.941  23.626  26.188  1.00  0.00     0.016 A 
ATOM      8  C   UNL A   1      41.340  22.571  27.825  1.00  0.00     0.016 A 
ATOM      9  C   UNL A   1      40.377  24.873  26.635  1.00  0.00     0.010 A 
ATOM     10  C   UNL A   1      41.759  23.812  28.300  1.00  0.00     0.010 A 
ATOM     11  C   UNL A   1      41.281  24.973  27.695  1.00  0.00    -0.014 A 
BRANCH  11  12
ATOM     12  C   UNL A   1      41.825  26.300  28.040  1.00  0.00     0.031 A 
ATOM     13  C   UNL A   1      43.216  26.630  27.595  1.00  0.00     0.074 A 
ATOM     14  C   UNL A   1      41.041  27.216  28.636  1.00  0.00     0.049 A 
ATOM     15  N   UNL A   1      43.846  27.773  27.647  1.00  0.00    -0.248 NA
ATOM     16  C   UNL A   1      43.988  25.542  26.970  1.00  0.00     0.031 C 
ATOM     17  C   UNL A   1      39.651  27.000  29.031  1.00  0.00     0.029 A 
ATOM     18  N   UNL A   1      41.289  28.513  29.000  1.00  0.00    -0.354 N 
ATOM     19  C   UNL A   1      45.058  27.553  27.012  1.00  0.00     0.074 A 
ATOM     20  C   UNL A   1      45.118  26.155  26.657  1.00  0.00     0.031 C 
ATOM     21  C   UNL A   1      39.177  28.110  29.621  1.00  0.00     0.029 A 
ATOM     22  C   UNL A   1      40.230  29.119  29.630  1.00  0.00     0.049 A 
ATOM     23  H   UNL A   1      42.146  28.966  28.828  1.00  0.00     0.167 HD
ATOM     24  C   UNL A   1      46.017  28.459  26.712  1.00  0.00     0.037 A 
ATOM     25  C   UNL A   1      40.127  30.358  30.146  1.00  0.00     0.037 A 
ATOM     26  C   UNL A   1      45.954  29.838  27.107  1.00  0.00     0.049 A 
ATOM     27  C   UNL A   1      41.276  31.306  29.927  1.00  0.00     0.074 A 
ATOM     28  C   UNL A   1      46.881  30.841  26.899  1.00  0.00     0.029 A 
ATOM     29  N   UNL A   1      44.899  30.402  27.814  1.00  0.00    -0.354 N 
ATOM     30  N   UNL A   1      42.400  31.105  29.281  1.00  0.00    -0.248 NA
ATOM     31  C   UNL A   1      41.129  32.662  30.468  1.00  0.00     0.031 C 
ATOM     32  C   UNL A   1      46.411  32.000  27.525  1.00  0.00     0.029 A 
ATOM     33  C   UNL A   1      45.164  31.735  28.074  1.00  0.00     0.049 A 
ATOM     34  H   UNL A   1      44.083  29.924  28.089  1.00  0.00     0.167 HD
ATOM     35  C   UNL A   1      43.076  32.316  29.301  1.00  0.00     0.074 A 
ATOM     36  C   UNL A   1      42.222  33.251  30.007  1.00  0.00     0.031 C 
ATOM     37  C   UNL A   1      44.287  32.634  28.782  1.00  0.00     0.037 A 
BRANCH  24  38
ATOM     38  C   UNL A   1      47.200  27.967  25.935  1.00  0.00     0.064 A 
ATOM     39  C   UNL A   1      48.397  27.608  26.576  1.00  0.00     0.173 A 
ATOM     40  C   UNL A   1      47.145  27.860  24.539  1.00  0.00     0.173 A 
ATOM     41  F   UNL A   1      48.509  27.719  27.909  1.00  0.00    -0.203 F 
ATOM     42  C   UNL A   1      49.501  27.180  25.844  1.00  0.00     0.198 A 
ATOM     43  C   UNL A   1      48.243  27.407  23.812  1.00  0.00     0.198 A 
ATOM     44  F   UNL A   1      46.028  28.201  23.879  1.00  0.00    -0.203 F 
ATOM     45  F   UNL A   1      50.650  26.890  26.472  1.00  0.00    -0.200 F 
ATOM     46  C   UNL A   1      49.421  27.074  24.464  1.00  0.00     0.200 A 
ATOM     47  F   UNL A   1      48.163  27.302  22.478  1.00  0.00    -0.200 F 
ATOM     48  F   UNL A   1      50.484  26.661  23.760  1.00  0.00    -0.200 F 
ENDBRANCH  24  38
BRANCH  25  49
ATOM     49  C   UNL A   1      38.912  30.771  30.899  1.00  0.00     0.064 A 
ATOM     50  C   UNL A   1      37.826  31.391  30.266  1.00  0.00     0.173 A 
ATOM     51  C   UNL A   1      38.835  30.595  32.290  1.00  0.00     0.173 A 
ATOM     52  F   UNL A   1      37.849  31.590  28.939  1.00  0.00    -0.203 F 
ATOM     53  C   UNL A   1      36.734  31.859  30.997  1.00  0.00     0.198 A 
ATOM     54  C   UNL A   1      37.730  31.036  33.016  1.00  0.00     0.198 A 
ATOM     55  F   UNL A   1      39.836  29.991  32.949  1.00  0.00    -0.203 F 
ATOM     56  F   UNL A   1      35.740  32.504  30.372  1.00  0.00    -0.200 F 
ATOM     57  C   UNL A   1      36.687  31.683  32.371  1.00  0.00     0.200 A 
ATOM     58  F   UNL A   1      37.681  30.844  34.341  1.00  0.00    -0.200 F 
ATOM     59  F   UNL A   1      35.643  32.141  33.074  1.00  0.00    -0.200 F 
ENDBRANCH  25  49
BRANCH  37  60
ATOM     60  C   UNL A   1      44.735  34.057  28.938  1.00  0.00     0.064 A 
ATOM     61  C   UNL A   1      45.508  34.468  30.034  1.00  0.00     0.173 A 
ATOM     62  C   UNL A   1      44.405  35.015  27.968  1.00  0.00     0.173 A 
ATOM     63  F   UNL A   1      45.835  33.591  30.996  1.00  0.00    -0.203 F 
ATOM     64  C   UNL A   1      45.900  35.795  30.173  1.00  0.00     0.198 A 
ATOM     65  C   UNL A   1      44.832  36.331  28.089  1.00  0.00     0.198 A 
ATOM     66  F   UNL A   1      43.675  34.669  26.896  1.00  0.00    -0.203 F 
ATOM     67  F   UNL A   1      46.580  36.180  31.261  1.00  0.00    -0.200 F 
ATOM     68  C   UNL A   1      45.569  36.724  29.197  1.00  0.00     0.200 A 
ATOM     69  F   UNL A   1      44.526  37.224  27.137  1.00  0.00    -0.200 F 
ATOM     70  F   UNL A   1      45.951  38.001  29.331  1.00  0.00    -0.200 F 
ENDBRANCH  37  60
ENDBRANCH  11  12
ENDBRANCH   4   6
ENDBRANCH   3   4
ENDBRANCH   2   3
ENDBRANCH   1   2
BRANCH   1  71
ATOM     71  O   UNL A   1      36.457  23.119  24.726  1.00  0.00    -0.458 OA
BRANCH  71  72
ATOM     72  C   UNL A   1      35.356  23.470  24.005  1.00  0.00     0.342 C 
ATOM     73  O   UNL A   1      35.273  23.490  22.789  1.00  0.00    -0.246 OA
BRANCH  72  74
ATOM     74  C   UNL A   1      34.233  23.742  24.920  1.00  0.00     0.102 A 
ATOM     75  C   UNL A   1      33.780  25.061  25.076  1.00  0.00     0.021 A 
ATOM     76  C   UNL A   1      33.617  22.712  25.641  1.00  0.00     0.144 A 
ATOM     77  C   UNL A   1      32.739  25.328  25.958  1.00  0.00     0.021 A 
ATOM     78  N   UNL A   1      32.605  22.993  26.506  1.00  0.00    -0.238 NA
ATOM     79  C   UNL A   1      32.199  24.271  26.658  1.00  0.00     0.113 A 
BRANCH  76  80
ATOM     80  N   UNL A   1      34.022  21.370  25.527  1.00  0.00    -0.340 N 
ATOM     81  H   UNL A   1      34.748  21.079  26.124  1.00  0.00     0.168 HD
BRANCH  80  82
ATOM     82  C   UNL A   1      33.503  20.400  24.655  1.00  0.00     0.040 A 
ATOM     83  C   UNL A   1      32.537  20.746  23.703  1.00  0.00     0.026 A 
ATOM     84  C   UNL A   1      33.989  19.089  24.670  1.00  0.00     0.039 A 
ATOM     85  C   UNL A   1      32.073  19.808  22.780  1.00  0.00     0.003 A 
ATOM     86  C   UNL A   1      33.486  18.117  23.792  1.00  0.00     0.058 A 
ATOM     87  C   UNL A   1      32.537  18.496  22.831  1.00  0.00     0.013 A 
BRANCH  86  88
ATOM     88  C   UNL A   1      33.924  16.683  23.905  1.00  0.00     0.416 C 
ATOM     89  F   UNL A   1      34.920  16.521  24.823  1.00  0.00    -0.166 F 
ATOM     90  F   UNL A   1      32.918  15.852  24.300  1.00  0.00    -0.166 F 
ATOM     91  F   UNL A   1      34.406  16.157  22.744  1.00  0.00    -0.166 F 
ENDBRANCH  86  88
ENDBRANCH  80  82
ENDBRANCH  76  80
ENDBRANCH  72  74
ENDBRANCH  71  72
ENDBRANCH   1  71
TORSDOF 14
ENDMDL
MODEL 2
REMARK VINA RESULT:     -12.2      0.400      2.000
REMARK SMILES O=C(OCCOC(=O)c1cccnc1Nc1cccc(C(F)(F)F)c1)c1ccc(-c2c3nc(c(-c4c(F)c(F)c(F)c(F)c4F)c4ccc([nH]4)c(-c4c(F)c(F)c(F)c(F)c4F)c4nc(c(-c5c(F)c(F)c(F)c(F)c5F)c5ccc2[nH]5)C=C4)C=C3)cc1
REMARK SMILES IDX 5 1 4 2 3 3 2 4 1 5 26 6 27 7 88 8 28 9 87 10 29 11 30 12
REMARK SMILES IDX 31 13 81 14 32 15 86 16 80 17 82 18 33 19 85 20 79 21 78 22
REMARK SMILES IDX 34 24 66 25 46 26 65 27 47 28 50 29 64 30 83 31 48 32 49 33
REMARK SMILES IDX 63 35 84 36 51 37 35 38 36 39 44 40 37 41 38 42 42 43 45 44
REMARK SMILES IDX 39 45 40 46 43 47 41 48 67 49 68 50 76 51 69 52 70 53 74 54
REMARK SMILES IDX 77 55 71 56 72 57 75 58 73 59 52 60 53 61 61 62 54 63 55 64
REMARK SMILES IDX 59 65 62 66 56 67 57 68 60 69 58 70 6 71 7 72 8 73 9 74
REMARK SMILES IDX 10 75 14 76 11 77 13 78 12 79 15 80 16 82 17 83 25 84 18 85
REMARK SMILES IDX 20 86 19 87 21 88 22 89 23 90 24 91
REMARK H PARENT 82 23 50 34 15 81
REMARK Flexibility Score: inf
ROOT
ATOM      1  C   UNL A   1      37.020  22.057  23.926  1.00  0.00     0.275 C 
ENDROOT
BRANCH   1   2
ATOM      2  C   UNL A   1      37.522  20.898  24.794  1.00  0.00     0.275 C 
BRANCH   2   3
ATOM      3  O   UNL A   1      38.101  21.273  26.057  1.00  0.00    -0.458 OA
BRANCH   3   4
ATOM      4  C   UNL A   1      39.384  21.499  26.414  1.00  0.00     0.338 C 
ATOM      5  O   UNL A   1      40.126  20.533  26.584  1.00  0.00    -0.246 OA
BRANCH   4   6
ATOM      6  C   UNL A   1      39.930  22.846  26.766  1.00  0.00     0.060 A 
ATOM      7  C   UNL A   1      39.542  24.059  26.200  1.00  0.00     0.016 A 
ATOM      8  C   UNL A   1      40.911  22.878  27.776  1.00  0.00     0.016 A 
ATOM      9  C   UNL A   1      40.044  25.266  26.685  1.00  0.00     0.010 A 
ATOM     10  C   UNL A   1      41.396  24.079  28.289  1.00  0.00     0.010 A 
ATOM     11  C   UNL A   1      40.966  25.283  27.734  1.00  0.00    -0.014 A 
BRANCH  11  12
ATOM     12  C   UNL A   1      41.579  26.569  28.119  1.00  0.00     0.031 A 
ATOM     13  C   UNL A   1      43.002  26.817  27.728  1.00  0.00     0.074 A 
ATOM     14  C   UNL A   1      40.832  27.524  28.701  1.00  0.00     0.049 A 
ATOM     15  N   UNL A   1      43.699  27.918  27.819  1.00  0.00    -0.248 NA
ATOM     16  C   UNL A   1      43.727  25.692  27.113  1.00  0.00     0.031 C 
ATOM     17  C   UNL A   1      39.418  27.390  29.044  1.00  0.00     0.029 A 
ATOM     18  N   UNL A   1      41.147  28.797  29.094  1.00  0.00    -0.354 N 
ATOM     19  C   UNL A   1      44.918  27.632  27.223  1.00  0.00     0.074 A 
ATOM     20  C   UNL A   1      44.904  26.238  26.848  1.00  0.00     0.031 C 
ATOM     21  C   UNL A   1      38.994  28.519  29.635  1.00  0.00     0.029 A 
ATOM     22  C   UNL A   1      40.105  29.460  29.696  1.00  0.00     0.049 A 
ATOM     23  H   UNL A   1      42.036  29.199  28.959  1.00  0.00     0.167 HD
ATOM     24  C   UNL A   1      45.940  28.480  26.971  1.00  0.00     0.037 A 
ATOM     25  C   UNL A   1      40.061  30.696  30.228  1.00  0.00     0.037 A 
ATOM     26  C   UNL A   1      45.949  29.855  27.385  1.00  0.00     0.049 A 
ATOM     27  C   UNL A   1      41.274  31.574  30.064  1.00  0.00     0.074 A 
ATOM     28  C   UNL A   1      46.943  30.800  27.225  1.00  0.00     0.029 A 
ATOM     29  N   UNL A   1      44.907  30.473  28.064  1.00  0.00    -0.354 N 
ATOM     30  N   UNL A   1      42.405  31.311  29.454  1.00  0.00    -0.248 NA
ATOM     31  C   UNL A   1      41.192  32.929  30.620  1.00  0.00     0.031 C 
ATOM     32  C   UNL A   1      46.524  31.978  27.853  1.00  0.00     0.029 A 
ATOM     33  C   UNL A   1      45.244  31.784  28.354  1.00  0.00     0.049 A 
ATOM     34  H   UNL A   1      44.054  30.044  28.303  1.00  0.00     0.167 HD
ATOM     35  C   UNL A   1      43.153  32.477  29.516  1.00  0.00     0.074 A 
ATOM     36  C   UNL A   1      42.334  33.454  30.207  1.00  0.00     0.031 C 
ATOM     37  C   UNL A   1      44.400  32.726  29.044  1.00  0.00     0.037 A 
BRANCH  24  38
ATOM     38  C   UNL A   1      47.118  27.926  26.227  1.00  0.00     0.064 A 
ATOM     39  C   UNL A   1      47.109  27.810  24.828  1.00  0.00     0.173 A 
ATOM     40  C   UNL A   1      48.262  27.499  26.914  1.00  0.00     0.173 A 
ATOM     41  F   UNL A   1      46.026  28.179  24.125  1.00  0.00    -0.203 F 
ATOM     42  C   UNL A   1      48.195  27.268  24.146  1.00  0.00     0.198 A 
ATOM     43  C   UNL A   1      49.357  26.980  26.227  1.00  0.00     0.198 A 
ATOM     44  F   UNL A   1      48.315  27.579  28.252  1.00  0.00    -0.203 F 
ATOM     45  F   UNL A   1      48.145  27.120  22.815  1.00  0.00    -0.200 F 
ATOM     46  C   UNL A   1      49.321  26.860  24.847  1.00  0.00     0.200 A 
ATOM     47  F   UNL A   1      50.445  26.589  26.905  1.00  0.00    -0.200 F 
ATOM     48  F   UNL A   1      50.366  26.338  24.191  1.00  0.00    -0.200 F 
ENDBRANCH  24  38
BRANCH  25  49
ATOM     49  C   UNL A   1      38.848  31.174  30.945  1.00  0.00     0.064 A 
ATOM     50  C   UNL A   1      38.709  31.036  32.334  1.00  0.00     0.173 A 
ATOM     51  C   UNL A   1      37.773  31.739  30.241  1.00  0.00     0.173 A 
ATOM     52  F   UNL A   1      39.703  30.497  33.055  1.00  0.00    -0.203 F 
ATOM     53  C   UNL A   1      37.529  31.400  32.982  1.00  0.00     0.198 A 
ATOM     54  C   UNL A   1      36.606  32.131  30.893  1.00  0.00     0.198 A 
ATOM     55  F   UNL A   1      37.856  31.913  28.913  1.00  0.00    -0.203 F 
ATOM     56  F   UNL A   1      37.401  31.198  34.300  1.00  0.00    -0.200 F 
ATOM     57  C   UNL A   1      36.477  31.947  32.261  1.00  0.00     0.200 A 
ATOM     58  F   UNL A   1      35.601  32.677  30.195  1.00  0.00    -0.200 F 
ATOM     59  F   UNL A   1      35.341  32.288  32.882  1.00  0.00    -0.200 F 
ENDBRANCH  25  49
BRANCH  37  60
ATOM     60  C   UNL A   1      44.929  34.117  29.239  1.00  0.00     0.064 A 
ATOM     61  C   UNL A   1      44.699  35.129  28.297  1.00  0.00     0.173 A 
ATOM     62  C   UNL A   1      45.656  34.442  30.394  1.00  0.00     0.173 A 
ATOM     63  F   UNL A   1      44.024  34.861  27.169  1.00  0.00    -0.203 F 
ATOM     64  C   UNL A   1      45.213  36.408  28.484  1.00  0.00     0.198 A 
ATOM     65  C   UNL A   1      46.132  35.732  30.597  1.00  0.00     0.198 A 
ATOM     66  F   UNL A   1      45.894  33.511  31.330  1.00  0.00    -0.203 F 
ATOM     67  F   UNL A   1      45.039  37.342  27.540  1.00  0.00    -0.200 F 
ATOM     68  C   UNL A   1      45.922  36.711  29.637  1.00  0.00     0.200 A 
ATOM     69  F   UNL A   1      46.802  36.027  31.720  1.00  0.00    -0.200 F 
ATOM     70  F   UNL A   1      46.411  37.944  29.819  1.00  0.00    -0.200 F 
ENDBRANCH  37  60
ENDBRANCH  11  12
ENDBRANCH   4   6
ENDBRANCH   3   4
ENDBRANCH   2   3
ENDBRANCH   1   2
BRANCH   1  71
ATOM     71  O   UNL A   1      36.272  23.059  24.632  1.00  0.00    -0.458 OA
BRANCH  71  72
ATOM     72  C   UNL A   1      35.162  23.514  23.986  1.00  0.00     0.342 C 
ATOM     73  O   UNL A   1      35.039  23.647  22.781  1.00  0.00    -0.246 OA
BRANCH  72  74
ATOM     74  C   UNL A   1      34.082  23.743  24.963  1.00  0.00     0.102 A 
ATOM     75  C   UNL A   1      33.596  25.046  25.154  1.00  0.00     0.021 A 
ATOM     76  C   UNL A   1      33.539  22.689  25.708  1.00  0.00     0.144 A 
ATOM     77  C   UNL A   1      32.597  25.273  26.093  1.00  0.00     0.021 A 
ATOM     78  N   UNL A   1      32.567  22.931  26.628  1.00  0.00    -0.238 NA
ATOM     79  C   UNL A   1      32.129  24.195  26.813  1.00  0.00     0.113 A 
BRANCH  76  80
ATOM     80  N   UNL A   1      33.980  21.361  25.560  1.00  0.00    -0.340 N 
ATOM     81  H   UNL A   1      34.716  21.076  26.149  1.00  0.00     0.168 HD
BRANCH  80  82
ATOM     82  C   UNL A   1      33.485  20.399  24.666  1.00  0.00     0.040 A 
ATOM     83  C   UNL A   1      32.549  20.754  23.689  1.00  0.00     0.026 A 
ATOM     84  C   UNL A   1      33.968  19.087  24.687  1.00  0.00     0.039 A 
ATOM     85  C   UNL A   1      32.111  19.823  22.745  1.00  0.00     0.003 A 
ATOM     86  C   UNL A   1      33.489  18.123  23.787  1.00  0.00     0.058 A 
ATOM     87  C   UNL A   1      32.570  18.510  22.801  1.00  0.00     0.013 A 
BRANCH  86  88
ATOM     88  C   UNL A   1      33.920  16.686  23.903  1.00  0.00     0.416 C 
ATOM     89  F   UNL A   1      34.912  16.521  24.825  1.00  0.00    -0.166 F 
ATOM     90  F   UNL A   1      32.910  15.860  24.295  1.00  0.00    -0.166 F 
ATOM     91  F   UNL A   1      34.405  16.157  22.744  1.00  0.00    -0.166 F 
ENDBRANCH  86  88
ENDBRANCH  80  82
ENDBRANCH  76  80
ENDBRANCH  72  74
ENDBRANCH  71  72
ENDBRANCH   1  71
TORSDOF 14
ENDMDL
MODEL 3
REMARK VINA RESULT:     -12.1      5.231     10.536
REMARK SMILES O=C(OCCOC(=O)c1cccnc1Nc1cccc(C(F)(F)F)c1)c1ccc(-c2c3nc(c(-c4c(F)c(F)c(F)c(F)c4F)c4ccc([nH]4)c(-c4c(F)c(F)c(F)c(F)c4F)c4nc(c(-c5c(F)c(F)c(F)c(F)c5F)c5ccc2[nH]5)C=C4)C=C3)cc1
REMARK SMILES IDX 5 1 4 2 3 3 2 4 1 5 26 6 27 7 88 8 28 9 87 10 29 11 30 12
REMARK SMILES IDX 31 13 81 14 32 15 86 16 80 17 82 18 33 19 85 20 79 21 78 22
REMARK SMILES IDX 34 24 66 25 46 26 65 27 47 28 50 29 64 30 83 31 48 32 49 33
REMARK SMILES IDX 63 35 84 36 51 37 35 38 36 39 44 40 37 41 38 42 42 43 45 44
REMARK SMILES IDX 39 45 40 46 43 47 41 48 67 49 68 50 76 51 69 52 70 53 74 54
REMARK SMILES IDX 77 55 71 56 72 57 75 58 73 59 52 60 53 61 61 62 54 63 55 64
REMARK SMILES IDX 59 65 62 66 56 67 57 68 60 69 58 70 6 71 7 72 8 73 9 74
REMARK SMILES IDX 10 75 14 76 11 77 13 78 12 79 15 80 16 82 17 83 25 84 18 85
REMARK SMILES IDX 20 86 19 87 21 88 22 89 23 90 24 91
REMARK H PARENT 82 23 50 34 15 81
REMARK Flexibility Score: inf
ROOT
ATOM      1  C   UNL A   1      32.008  28.715  27.376  1.00  0.00     0.275 C 
ENDROOT
BRANCH   1   2
ATOM      2  C   UNL A   1      31.799  30.060  26.672  1.00  0.00     0.275 C 
BRANCH   2   3
ATOM      3  O   UNL A   1      32.976  30.876  26.529  1.00  0.00    -0.458 OA
BRANCH   3   4
ATOM      4  C   UNL A   1      33.675  31.593  27.435  1.00  0.00     0.338 C 
ATOM      5  O   UNL A   1      33.359  32.767  27.626  1.00  0.00    -0.246 OA
BRANCH   4   6
ATOM      6  C   UNL A   1      34.910  31.102  28.119  1.00  0.00     0.060 A 
ATOM      7  C   UNL A   1      35.100  29.827  28.647  1.00  0.00     0.016 A 
ATOM      8  C   UNL A   1      35.977  32.016  28.214  1.00  0.00     0.016 A 
ATOM      9  C   UNL A   1      36.337  29.446  29.166  1.00  0.00     0.010 A 
ATOM     10  C   UNL A   1      37.226  31.638  28.702  1.00  0.00     0.010 A 
ATOM     11  C   UNL A   1      37.406  30.345  29.191  1.00  0.00    -0.014 A 
BRANCH  11  12
ATOM     12  C   UNL A   1      38.650  29.949  29.878  1.00  0.00     0.031 A 
ATOM     13  C   UNL A   1      38.920  30.524  31.234  1.00  0.00     0.074 A 
ATOM     14  C   UNL A   1      39.449  29.011  29.340  1.00  0.00     0.049 A 
ATOM     15  N   UNL A   1      39.859  30.211  32.087  1.00  0.00    -0.248 NA
ATOM     16  C   UNL A   1      37.987  31.558  31.715  1.00  0.00     0.031 C 
ATOM     17  C   UNL A   1      39.216  28.345  28.060  1.00  0.00     0.029 A 
ATOM     18  N   UNL A   1      40.606  28.442  29.801  1.00  0.00    -0.354 N 
ATOM     19  C   UNL A   1      39.593  30.965  33.219  1.00  0.00     0.074 A 
ATOM     20  C   UNL A   1      38.461  31.813  32.924  1.00  0.00     0.031 C 
ATOM     21  C   UNL A   1      40.219  27.487  27.815  1.00  0.00     0.029 A 
ATOM     22  C   UNL A   1      41.157  27.533  28.930  1.00  0.00     0.049 A 
ATOM     23  H   UNL A   1      41.005  28.664  30.673  1.00  0.00     0.167 HD
ATOM     24  C   UNL A   1      40.216  30.915  34.418  1.00  0.00     0.037 A 
ATOM     25  C   UNL A   1      42.290  26.816  29.035  1.00  0.00     0.037 A 
ATOM     26  C   UNL A   1      41.363  30.092  34.680  1.00  0.00     0.049 A 
ATOM     27  C   UNL A   1      43.052  26.893  30.333  1.00  0.00     0.074 A 
ATOM     28  C   UNL A   1      42.106  29.987  35.840  1.00  0.00     0.029 A 
ATOM     29  N   UNL A   1      41.943  29.240  33.748  1.00  0.00    -0.354 N 
ATOM     30  N   UNL A   1      42.765  27.572  31.418  1.00  0.00    -0.248 NA
ATOM     31  C   UNL A   1      44.266  26.076  30.438  1.00  0.00     0.031 C 
ATOM     32  C   UNL A   1      43.168  29.110  35.594  1.00  0.00     0.029 A 
ATOM     33  C   UNL A   1      43.053  28.624  34.299  1.00  0.00     0.049 A 
ATOM     34  H   UNL A   1      41.614  29.096  32.832  1.00  0.00     0.167 HD
ATOM     35  C   UNL A   1      43.736  27.234  32.348  1.00  0.00     0.074 A 
ATOM     36  C   UNL A   1      44.608  26.273  31.702  1.00  0.00     0.031 C 
ATOM     37  C   UNL A   1      43.896  27.671  33.622  1.00  0.00     0.037 A 
BRANCH  24  38
ATOM     38  C   UNL A   1      39.666  31.783  35.509  1.00  0.00     0.064 A 
ATOM     39  C   UNL A   1      40.154  33.082  35.726  1.00  0.00     0.173 A 
ATOM     40  C   UNL A   1      38.649  31.315  36.352  1.00  0.00     0.173 A 
ATOM     41  F   UNL A   1      41.147  33.567  34.963  1.00  0.00    -0.203 F 
ATOM     42  C   UNL A   1      39.659  33.871  36.760  1.00  0.00     0.198 A 
ATOM     43  C   UNL A   1      38.138  32.117  37.370  1.00  0.00     0.198 A 
ATOM     44  F   UNL A   1      38.157  30.078  36.193  1.00  0.00    -0.203 F 
ATOM     45  F   UNL A   1      40.175  35.089  36.980  1.00  0.00    -0.200 F 
ATOM     46  C   UNL A   1      38.646  33.390  37.577  1.00  0.00     0.200 A 
ATOM     47  F   UNL A   1      37.157  31.652  38.156  1.00  0.00    -0.200 F 
ATOM     48  F   UNL A   1      38.169  34.150  38.572  1.00  0.00    -0.200 F 
ENDBRANCH  24  38
BRANCH  25  49
ATOM     49  C   UNL A   1      42.764  25.971  27.906  1.00  0.00     0.064 A 
ATOM     50  C   UNL A   1      43.642  26.466  26.930  1.00  0.00     0.173 A 
ATOM     51  C   UNL A   1      42.305  24.653  27.753  1.00  0.00     0.173 A 
ATOM     52  F   UNL A   1      44.107  27.721  27.024  1.00  0.00    -0.203 F 
ATOM     53  C   UNL A   1      44.004  25.695  25.825  1.00  0.00     0.198 A 
ATOM     54  C   UNL A   1      42.691  23.873  26.664  1.00  0.00     0.198 A 
ATOM     55  F   UNL A   1      41.478  24.118  28.664  1.00  0.00    -0.203 F 
ATOM     56  F   UNL A   1      44.793  26.218  24.878  1.00  0.00    -0.200 F 
ATOM     57  C   UNL A   1      43.527  24.400  25.692  1.00  0.00     0.200 A 
ATOM     58  F   UNL A   1      42.244  22.615  26.551  1.00  0.00    -0.200 F 
ATOM     59  F   UNL A   1      43.867  23.664  24.626  1.00  0.00    -0.200 F 
ENDBRANCH  25  49
BRANCH  37  60
ATOM     60  C   UNL A   1      45.040  27.085  34.397  1.00  0.00     0.064 A 
ATOM     61  C   UNL A   1      44.894  25.907  35.143  1.00  0.00     0.173 A 
ATOM     62  C   UNL A   1      46.301  27.699  34.372  1.00  0.00     0.173 A 
ATOM     63  F   UNL A   1      43.703  25.293  35.210  1.00  0.00    -0.203 F 
ATOM     64  C   UNL A   1      45.960  25.387  35.870  1.00  0.00     0.198 A 
ATOM     65  C   UNL A   1      47.374  27.155  35.067  1.00  0.00     0.198 A 
ATOM     66  F   UNL A   1      46.493  28.823  33.665  1.00  0.00    -0.203 F 
ATOM     67  F   UNL A   1      45.781  24.299  36.631  1.00  0.00    -0.200 F 
ATOM     68  C   UNL A   1      47.200  26.006  35.826  1.00  0.00     0.200 A 
ATOM     69  F   UNL A   1      48.576  27.745  35.009  1.00  0.00    -0.200 F 
ATOM     70  F   UNL A   1      48.226  25.501  36.523  1.00  0.00    -0.200 F 
ENDBRANCH  37  60
ENDBRANCH  11  12
ENDBRANCH   4   6
ENDBRANCH   3   4
ENDBRANCH   2   3
ENDBRANCH   1   2
BRANCH   1  71
ATOM     71  O   UNL A   1      32.817  27.775  26.652  1.00  0.00    -0.458 OA
BRANCH  71  72
ATOM     72  C   UNL A   1      32.188  26.617  26.305  1.00  0.00     0.342 C 
ATOM     73  O   UNL A   1      31.256  26.104  26.899  1.00  0.00    -0.246 OA
BRANCH  72  74
ATOM     74  C   UNL A   1      32.749  26.112  25.039  1.00  0.00     0.102 A 
ATOM     75  C   UNL A   1      33.452  24.898  25.037  1.00  0.00     0.021 A 
ATOM     76  C   UNL A   1      32.599  26.824  23.843  1.00  0.00     0.144 A 
ATOM     77  C   UNL A   1      34.006  24.429  23.851  1.00  0.00     0.021 A 
ATOM     78  N   UNL A   1      33.155  26.354  22.693  1.00  0.00    -0.238 NA
ATOM     79  C   UNL A   1      33.847  25.196  22.717  1.00  0.00     0.113 A 
BRANCH  76  80
ATOM     80  N   UNL A   1      31.902  28.044  23.778  1.00  0.00    -0.340 N 
ATOM     81  H   UNL A   1      32.434  28.860  23.920  1.00  0.00     0.168 HD
BRANCH  80  82
ATOM     82  C   UNL A   1      30.532  28.226  23.531  1.00  0.00     0.040 A 
ATOM     83  C   UNL A   1      29.640  27.156  23.666  1.00  0.00     0.026 A 
ATOM     84  C   UNL A   1      30.022  29.488  23.216  1.00  0.00     0.039 A 
ATOM     85  C   UNL A   1      28.267  27.344  23.501  1.00  0.00     0.003 A 
ATOM     86  C   UNL A   1      28.652  29.681  22.984  1.00  0.00     0.058 A 
ATOM     87  C   UNL A   1      27.775  28.599  23.150  1.00  0.00     0.013 A 
BRANCH  86  88
ATOM     88  C   UNL A   1      28.134  31.015  22.520  1.00  0.00     0.416 C 
ATOM     89  F   UNL A   1      27.437  31.662  23.498  1.00  0.00    -0.166 F 
ATOM     90  F   UNL A   1      29.128  31.869  22.149  1.00  0.00    -0.166 F 
ATOM     91  F   UNL A   1      27.288  30.942  21.454  1.00  0.00    -0.166 F 
ENDBRANCH  86  88
ENDBRANCH  80  82
ENDBRANCH  76  80
ENDBRANCH  72  74
ENDBRANCH  71  72
ENDBRANCH   1  71
TORSDOF 14
ENDMDL
