MODEL 1
REMARK VINA RESULT:     -13.5      0.000      0.000
REMARK SMILES O=C(OCCOC(=O)c1cccc(COc2ccccc2C=C2C(=O)c3ccccc3C2=O)c1)c1ccc(-c2c3nc(c(-c4c(F)c(F)c(F)c(F)c4F)c4ccc([nH]4)c(-c4c(F)c(F)c(F)c(F)c4F)c4nc(c(-c5c(F)c(F)c(F)c(F)c5F)c5ccc2[nH]5)C=C4)C=C3)cc1
REMARK SMILES IDX 5 1 4 2 3 3 2 4 1 5 35 6 36 7 97 8 37 9 96 10 38 11 39 12
REMARK SMILES IDX 40 13 90 14 41 15 95 16 89 17 91 18 42 19 94 20 88 21 87 22
REMARK SMILES IDX 43 24 75 25 55 26 74 27 56 28 59 29 73 30 92 31 57 32 58 33
REMARK SMILES IDX 72 35 93 36 60 37 44 38 45 39 53 40 46 41 47 42 51 43 54 44
REMARK SMILES IDX 48 45 49 46 52 47 50 48 76 49 77 50 85 51 78 52 79 53 83 54
REMARK SMILES IDX 86 55 80 56 81 57 84 58 82 59 61 60 62 61 70 62 63 63 64 64
REMARK SMILES IDX 68 65 71 66 65 67 66 68 69 69 67 70 6 71 7 72 8 73 9 74
REMARK SMILES IDX 10 75 34 76 11 77 13 78 12 79 14 80 15 81 16 82 17 83 21 84
REMARK SMILES IDX 18 85 20 86 19 87 22 88 23 89 24 90 32 91 25 92 26 93 31 94
REMARK SMILES IDX 33 95 27 96 30 97 28 98 29 99
REMARK H PARENT 91 23 59 34
REMARK Flexibility Score: inf
ROOT
ATOM      1  C   UNL A   1      31.855  29.504  26.437  1.00  0.00     0.275 C 
ENDROOT
BRANCH   1   2
ATOM      2  C   UNL A   1      33.063  30.459  26.466  1.00  0.00     0.275 C 
BRANCH   2   3
ATOM      3  O   UNL A   1      33.029  31.549  27.410  1.00  0.00    -0.458 OA
BRANCH   3   4
ATOM      4  C   UNL A   1      34.050  32.284  27.914  1.00  0.00     0.338 C 
ATOM      5  O   UNL A   1      34.066  33.503  27.768  1.00  0.00    -0.246 OA
BRANCH   4   6
ATOM      6  C   UNL A   1      35.265  31.631  28.476  1.00  0.00     0.060 A 
ATOM      7  C   UNL A   1      35.315  30.338  28.995  1.00  0.00     0.016 A 
ATOM      8  C   UNL A   1      36.454  32.375  28.429  1.00  0.00     0.016 A 
ATOM      9  C   UNL A   1      36.532  29.732  29.304  1.00  0.00     0.010 A 
ATOM     10  C   UNL A   1      37.679  31.772  28.730  1.00  0.00     0.010 A 
ATOM     11  C   UNL A   1      37.723  30.439  29.161  1.00  0.00    -0.014 A 
BRANCH  11  12
ATOM     12  C   UNL A   1      38.955  29.888  29.762  1.00  0.00     0.031 A 
ATOM     13  C   UNL A   1      39.326  30.431  31.109  1.00  0.00     0.074 A 
ATOM     14  C   UNL A   1      39.653  28.883  29.202  1.00  0.00     0.049 A 
ATOM     15  N   UNL A   1      40.267  30.047  31.926  1.00  0.00    -0.248 NA
ATOM     16  C   UNL A   1      38.495  31.535  31.623  1.00  0.00     0.031 C 
ATOM     17  C   UNL A   1      39.309  28.200  27.958  1.00  0.00     0.029 A 
ATOM     18  N   UNL A   1      40.802  28.253  29.609  1.00  0.00    -0.354 N 
ATOM     19  C   UNL A   1      40.098  30.825  33.061  1.00  0.00     0.074 A 
ATOM     20  C   UNL A   1      39.058  31.783  32.789  1.00  0.00     0.031 C 
ATOM     21  C   UNL A   1      40.260  27.294  27.664  1.00  0.00     0.029 A 
ATOM     22  C   UNL A   1      41.261  27.306  28.724  1.00  0.00     0.049 A 
ATOM     23  H   UNL A   1      41.255  28.459  30.459  1.00  0.00     0.167 HD
ATOM     24  C   UNL A   1      40.709  30.701  34.258  1.00  0.00     0.037 A 
ATOM     25  C   UNL A   1      42.356  26.525  28.785  1.00  0.00     0.037 A 
ATOM     26  C   UNL A   1      41.759  29.760  34.504  1.00  0.00     0.049 A 
ATOM     27  C   UNL A   1      43.157  26.538  30.062  1.00  0.00     0.074 A 
ATOM     28  C   UNL A   1      42.480  29.553  35.661  1.00  0.00     0.029 A 
ATOM     29  N   UNL A   1      42.255  28.881  33.548  1.00  0.00    -0.354 N 
ATOM     30  N   UNL A   1      42.949  27.229  31.159  1.00  0.00    -0.248 NA
ATOM     31  C   UNL A   1      44.299  25.619  30.139  1.00  0.00     0.031 C 
ATOM     32  C   UNL A   1      43.462  28.595  35.385  1.00  0.00     0.029 A 
ATOM     33  C   UNL A   1      43.303  28.152  34.079  1.00  0.00     0.049 A 
ATOM     34  H   UNL A   1      41.911  28.791  32.630  1.00  0.00     0.167 HD
ATOM     35  C   UNL A   1      43.880  26.775  32.081  1.00  0.00     0.074 A 
ATOM     36  C   UNL A   1      44.668  25.762  31.404  1.00  0.00     0.031 C 
ATOM     37  C   UNL A   1      44.051  27.138  33.377  1.00  0.00     0.037 A 
BRANCH  24  38
ATOM     38  C   UNL A   1      40.254  31.640  35.332  1.00  0.00     0.064 A 
ATOM     39  C   UNL A   1      39.081  31.400  36.071  1.00  0.00     0.173 A 
ATOM     40  C   UNL A   1      40.930  32.846  35.546  1.00  0.00     0.173 A 
ATOM     41  F   UNL A   1      38.373  30.278  35.872  1.00  0.00    -0.203 F 
ATOM     42  C   UNL A   1      38.578  32.361  36.945  1.00  0.00     0.198 A 
ATOM     43  C   UNL A   1      40.443  33.789  36.445  1.00  0.00     0.198 A 
ATOM     44  F   UNL A   1      42.043  33.129  34.851  1.00  0.00    -0.203 F 
ATOM     45  F   UNL A   1      37.409  32.153  37.566  1.00  0.00    -0.200 F 
ATOM     46  C   UNL A   1      39.260  33.553  37.131  1.00  0.00     0.200 A 
ATOM     47  F   UNL A   1      41.101  34.942  36.625  1.00  0.00    -0.200 F 
ATOM     48  F   UNL A   1      38.765  34.487  37.955  1.00  0.00    -0.200 F 
ENDBRANCH  24  38
BRANCH  25  49
ATOM     49  C   UNL A   1      42.717  25.625  27.655  1.00  0.00     0.064 A 
ATOM     50  C   UNL A   1      43.651  26.006  26.683  1.00  0.00     0.173 A 
ATOM     51  C   UNL A   1      42.105  24.370  27.507  1.00  0.00     0.173 A 
ATOM     52  F   UNL A   1      44.257  27.200  26.770  1.00  0.00    -0.203 F 
ATOM     53  C   UNL A   1      43.938  25.186  25.591  1.00  0.00     0.198 A 
ATOM     54  C   UNL A   1      42.405  23.541  26.424  1.00  0.00     0.198 A 
ATOM     55  F   UNL A   1      41.210  23.947  28.411  1.00  0.00    -0.203 F 
ATOM     56  F   UNL A   1      44.802  25.598  24.655  1.00  0.00    -0.200 F 
ATOM     57  C   UNL A   1      43.315  23.954  25.463  1.00  0.00     0.200 A 
ATOM     58  F   UNL A   1      41.811  22.346  26.311  1.00  0.00    -0.200 F 
ATOM     59  F   UNL A   1      43.586  23.169  24.411  1.00  0.00    -0.200 F 
ENDBRANCH  25  49
BRANCH  37  60
ATOM     60  C   UNL A   1      45.075  26.384  34.170  1.00  0.00     0.064 A 
ATOM     61  C   UNL A   1      46.393  26.838  34.307  1.00  0.00     0.173 A 
ATOM     62  C   UNL A   1      44.705  25.213  34.853  1.00  0.00     0.173 A 
ATOM     63  F   UNL A   1      46.797  27.945  33.663  1.00  0.00    -0.203 F 
ATOM     64  C   UNL A   1      47.314  26.132  35.074  1.00  0.00     0.198 A 
ATOM     65  C   UNL A   1      45.617  24.533  35.651  1.00  0.00     0.198 A 
ATOM     66  F   UNL A   1      43.452  24.743  34.761  1.00  0.00    -0.203 F 
ATOM     67  F   UNL A   1      48.584  26.552  35.147  1.00  0.00    -0.200 F 
ATOM     68  C   UNL A   1      46.923  24.987  35.753  1.00  0.00     0.200 A 
ATOM     69  F   UNL A   1      45.230  23.440  36.324  1.00  0.00    -0.200 F 
ATOM     70  F   UNL A   1      47.808  24.317  36.504  1.00  0.00    -0.200 F 
ENDBRANCH  37  60
ENDBRANCH  11  12
ENDBRANCH   4   6
ENDBRANCH   3   4
ENDBRANCH   2   3
ENDBRANCH   1   2
BRANCH   1  71
ATOM     71  O   UNL A   1      32.009  28.284  25.689  1.00  0.00    -0.458 OA
BRANCH  71  72
ATOM     72  C   UNL A   1      31.783  27.174  26.432  1.00  0.00     0.338 C 
ATOM     73  O   UNL A   1      30.806  26.987  27.134  1.00  0.00    -0.246 OA
BRANCH  72  74
ATOM     74  C   UNL A   1      32.789  26.119  26.231  1.00  0.00     0.060 A 
ATOM     75  C   UNL A   1      33.847  26.391  25.348  1.00  0.00     0.016 A 
ATOM     76  C   UNL A   1      32.640  24.840  26.750  1.00  0.00     0.023 A 
ATOM     77  C   UNL A   1      34.846  25.452  25.109  1.00  0.00     0.001 A 
ATOM     78  C   UNL A   1      33.586  23.859  26.411  1.00  0.00    -0.010 A 
ATOM     79  C   UNL A   1      34.730  24.192  25.666  1.00  0.00     0.007 A 
BRANCH  78  80
ATOM     80  C   UNL A   1      33.259  22.401  26.564  1.00  0.00     0.265 C 
BRANCH  80  81
ATOM     81  O   UNL A   1      34.050  21.741  25.558  1.00  0.00    -0.488 OA
BRANCH  81  82
ATOM     82  C   UNL A   1      33.308  20.911  24.755  1.00  0.00     0.127 A 
ATOM     83  C   UNL A   1      33.071  19.622  25.257  1.00  0.00     0.047 A 
ATOM     84  C   UNL A   1      32.916  21.271  23.447  1.00  0.00     0.017 A 
ATOM     85  C   UNL A   1      32.438  18.669  24.468  1.00  0.00     0.004 A 
ATOM     86  C   UNL A   1      32.352  20.258  22.655  1.00  0.00     0.012 A 
ATOM     87  C   UNL A   1      32.089  18.985  23.162  1.00  0.00     0.001 A 
BRANCH  84  88
ATOM     88  C   UNL A   1      33.132  22.604  22.829  1.00  0.00     0.028 C 
ATOM     89  C   UNL A   1      32.328  23.684  22.925  1.00  0.00     0.071 C 
ATOM     90  C   UNL A   1      31.087  23.878  23.736  1.00  0.00     0.197 C 
ATOM     91  C   UNL A   1      32.585  24.976  22.206  1.00  0.00     0.197 C 
ATOM     92  O   UNL A   1      30.593  23.151  24.581  1.00  0.00    -0.288 OA
ATOM     93  C   UNL A   1      30.582  25.211  23.406  1.00  0.00     0.034 A 
ATOM     94  C   UNL A   1      31.471  25.871  22.561  1.00  0.00     0.034 A 
ATOM     95  O   UNL A   1      33.515  25.252  21.470  1.00  0.00    -0.288 OA
ATOM     96  C   UNL A   1      29.462  25.836  23.932  1.00  0.00     0.013 A 
ATOM     97  C   UNL A   1      31.288  27.207  22.241  1.00  0.00     0.013 A 
ATOM     98  C   UNL A   1      29.251  27.175  23.597  1.00  0.00     0.001 A 
ATOM     99  C   UNL A   1      30.163  27.858  22.768  1.00  0.00     0.001 A 
ENDBRANCH  84  88
ENDBRANCH  81  82
ENDBRANCH  80  81
ENDBRANCH  78  80
ENDBRANCH  72  74
ENDBRANCH  71  72
ENDBRANCH   1  71
TORSDOF 15
ENDMDL
MODEL 2
REMARK VINA RESULT:     -13.5      3.982      9.552
REMARK SMILES O=C(OCCOC(=O)c1cccc(COc2ccccc2C=C2C(=O)c3ccccc3C2=O)c1)c1ccc(-c2c3nc(c(-c4c(F)c(F)c(F)c(F)c4F)c4ccc([nH]4)c(-c4c(F)c(F)c(F)c(F)c4F)c4nc(c(-c5c(F)c(F)c(F)c(F)c5F)c5ccc2[nH]5)C=C4)C=C3)cc1
REMARK SMILES IDX 5 1 4 2 3 3 2 4 1 5 35 6 36 7 97 8 37 9 96 10 38 11 39 12
REMARK SMILES IDX 40 13 90 14 41 15 95 16 89 17 91 18 42 19 94 20 88 21 87 22
REMARK SMILES IDX 43 24 75 25 55 26 74 27 56 28 59 29 73 30 92 31 57 32 58 33
REMARK SMILES IDX 72 35 93 36 60 37 44 38 45 39 53 40 46 41 47 42 51 43 54 44
REMARK SMILES IDX 48 45 49 46 52 47 50 48 76 49 77 50 85 51 78 52 79 53 83 54
REMARK SMILES IDX 86 55 80 56 81 57 84 58 82 59 61 60 62 61 70 62 63 63 64 64
REMARK SMILES IDX 68 65 71 66 65 67 66 68 69 69 67 70 6 71 7 72 8 73 9 74
REMARK SMILES IDX 10 75 34 76 11 77 13 78 12 79 14 80 15 81 16 82 17 83 21 84
REMARK SMILES IDX 18 85 20 86 19 87 22 88 23 89 24 90 32 91 25 92 26 93 31 94
REMARK SMILES IDX 33 95 27 96 30 97 28 98 29 99
REMARK H PARENT 91 23 59 34
REMARK Flexibility Score: inf
ROOT
ATOM      1  C   UNL A   1      35.802  21.485  24.610  1.00  0.00     0.275 C 
ENDROOT
BRANCH   1   2
ATOM      2  C   UNL A   1      37.343  21.444  24.615  1.00  0.00     0.275 C 
BRANCH   2   3
ATOM      3  O   UNL A   1      38.000  21.222  25.879  1.00  0.00    -0.458 OA
BRANCH   3   4
ATOM      4  C   UNL A   1      39.294  21.428  26.225  1.00  0.00     0.338 C 
ATOM      5  O   UNL A   1      40.053  20.473  26.376  1.00  0.00    -0.246 OA
BRANCH   4   6
ATOM      6  C   UNL A   1      39.781  22.778  26.621  1.00  0.00     0.060 A 
ATOM      7  C   UNL A   1      39.290  23.986  26.126  1.00  0.00     0.016 A 
ATOM      8  C   UNL A   1      40.780  22.820  27.605  1.00  0.00     0.016 A 
ATOM      9  C   UNL A   1      39.653  25.202  26.703  1.00  0.00     0.010 A 
ATOM     10  C   UNL A   1      41.144  24.034  28.194  1.00  0.00     0.010 A 
ATOM     11  C   UNL A   1      40.572  25.234  27.750  1.00  0.00    -0.014 A 
BRANCH  11  12
ATOM     12  C   UNL A   1      41.155  26.532  28.146  1.00  0.00     0.031 A 
ATOM     13  C   UNL A   1      42.593  26.743  27.779  1.00  0.00     0.074 A 
ATOM     14  C   UNL A   1      40.429  27.518  28.704  1.00  0.00     0.049 A 
ATOM     15  N   UNL A   1      43.323  27.819  27.877  1.00  0.00    -0.248 NA
ATOM     16  C   UNL A   1      43.293  25.593  27.178  1.00  0.00     0.031 C 
ATOM     17  C   UNL A   1      38.997  27.462  28.989  1.00  0.00     0.029 A 
ATOM     18  N   UNL A   1      40.794  28.770  29.130  1.00  0.00    -0.354 N 
ATOM     19  C   UNL A   1      44.539  27.482  27.303  1.00  0.00     0.074 A 
ATOM     20  C   UNL A   1      44.500  26.080  26.974  1.00  0.00     0.031 C 
ATOM     21  C   UNL A   1      38.617  28.596  29.605  1.00  0.00     0.029 A 
ATOM     22  C   UNL A   1      39.773  29.477  29.721  1.00  0.00     0.049 A 
ATOM     23  H   UNL A   1      41.704  29.130  29.020  1.00  0.00     0.167 HD
ATOM     24  C   UNL A   1      45.577  28.293  27.007  1.00  0.00     0.037 A 
ATOM     25  C   UNL A   1      39.778  30.707  30.269  1.00  0.00     0.037 A 
ATOM     26  C   UNL A   1      45.611  29.679  27.363  1.00  0.00     0.049 A 
ATOM     27  C   UNL A   1      41.021  31.543  30.107  1.00  0.00     0.074 A 
ATOM     28  C   UNL A   1      46.612  30.602  27.148  1.00  0.00     0.029 A 
ATOM     29  N   UNL A   1      44.590  30.331  28.044  1.00  0.00    -0.354 N 
ATOM     30  N   UNL A   1      42.145  31.239  29.501  1.00  0.00    -0.248 NA
ATOM     31  C   UNL A   1      40.977  32.910  30.640  1.00  0.00     0.031 C 
ATOM     32  C   UNL A   1      46.226  31.799  27.761  1.00  0.00     0.029 A 
ATOM     33  C   UNL A   1      44.953  31.641  28.292  1.00  0.00     0.049 A 
ATOM     34  H   UNL A   1      43.735  29.921  28.310  1.00  0.00     0.167 HD
ATOM     35  C   UNL A   1      42.911  32.396  29.509  1.00  0.00     0.074 A 
ATOM     36  C   UNL A   1      42.126  33.401  30.201  1.00  0.00     0.031 C 
ATOM     37  C   UNL A   1      44.135  32.618  28.969  1.00  0.00     0.037 A 
BRANCH  24  38
ATOM     38  C   UNL A   1      46.733  27.654  26.303  1.00  0.00     0.064 A 
ATOM     39  C   UNL A   1      47.822  27.114  27.012  1.00  0.00     0.173 A 
ATOM     40  C   UNL A   1      46.810  27.682  24.905  1.00  0.00     0.173 A 
ATOM     41  F   UNL A   1      47.815  27.103  28.355  1.00  0.00    -0.203 F 
ATOM     42  C   UNL A   1      48.964  26.678  26.347  1.00  0.00     0.198 A 
ATOM     43  C   UNL A   1      47.939  27.213  24.242  1.00  0.00     0.198 A 
ATOM     44  F   UNL A   1      45.805  28.203  24.185  1.00  0.00    -0.203 F 
ATOM     45  F   UNL A   1      50.027  26.258  27.047  1.00  0.00    -0.200 F 
ATOM     46  C   UNL A   1      49.021  26.727  24.962  1.00  0.00     0.200 A 
ATOM     47  F   UNL A   1      47.995  27.261  22.904  1.00  0.00    -0.200 F 
ATOM     48  F   UNL A   1      50.128  26.328  24.322  1.00  0.00    -0.200 F 
ENDBRANCH  24  38
BRANCH  25  49
ATOM     49  C   UNL A   1      38.566  31.246  30.947  1.00  0.00     0.064 A 
ATOM     50  C   UNL A   1      38.397  31.146  32.335  1.00  0.00     0.173 A 
ATOM     51  C   UNL A   1      37.533  31.845  30.211  1.00  0.00     0.173 A 
ATOM     52  F   UNL A   1      39.349  30.571  33.084  1.00  0.00    -0.203 F 
ATOM     53  C   UNL A   1      37.231  31.595  32.958  1.00  0.00     0.198 A 
ATOM     54  C   UNL A   1      36.374  32.311  30.836  1.00  0.00     0.198 A 
ATOM     55  F   UNL A   1      37.643  31.978  28.882  1.00  0.00    -0.203 F 
ATOM     56  F   UNL A   1      37.080  31.445  34.280  1.00  0.00    -0.200 F 
ATOM     57  C   UNL A   1      36.221  32.178  32.208  1.00  0.00     0.200 A 
ATOM     58  F   UNL A   1      35.406  32.885  30.109  1.00  0.00    -0.200 F 
ATOM     59  F   UNL A   1      35.099  32.603  32.804  1.00  0.00    -0.200 F 
ENDBRANCH  25  49
BRANCH  37  60
ATOM     60  C   UNL A   1      44.669  34.017  29.036  1.00  0.00     0.064 A 
ATOM     61  C   UNL A   1      45.498  34.449  30.079  1.00  0.00     0.173 A 
ATOM     62  C   UNL A   1      44.388  34.921  27.997  1.00  0.00     0.173 A 
ATOM     63  F   UNL A   1      45.784  33.626  31.100  1.00  0.00    -0.203 F 
ATOM     64  C   UNL A   1      46.003  35.745  30.097  1.00  0.00     0.198 A 
ATOM     65  C   UNL A   1      44.927  36.202  27.999  1.00  0.00     0.198 A 
ATOM     66  F   UNL A   1      43.607  34.551  26.971  1.00  0.00    -0.203 F 
ATOM     67  F   UNL A   1      46.747  36.157  31.132  1.00  0.00    -0.200 F 
ATOM     68  C   UNL A   1      45.726  36.616  29.053  1.00  0.00     0.200 A 
ATOM     69  F   UNL A   1      44.676  37.032  26.977  1.00  0.00    -0.200 F 
ATOM     70  F   UNL A   1      46.225  37.859  29.066  1.00  0.00    -0.200 F 
ENDBRANCH  37  60
ENDBRANCH  11  12
ENDBRANCH   4   6
ENDBRANCH   3   4
ENDBRANCH   2   3
ENDBRANCH   1   2
BRANCH   1  71
ATOM     71  O   UNL A   1      35.184  22.732  24.976  1.00  0.00    -0.458 OA
BRANCH  71  72
ATOM     72  C   UNL A   1      35.008  23.566  23.924  1.00  0.00     0.338 C 
ATOM     73  O   UNL A   1      35.114  23.250  22.753  1.00  0.00    -0.246 OA
BRANCH  72  74
ATOM     74  C   UNL A   1      34.548  24.910  24.311  1.00  0.00     0.060 A 
ATOM     75  C   UNL A   1      34.310  25.146  25.674  1.00  0.00     0.016 A 
ATOM     76  C   UNL A   1      34.196  25.874  23.375  1.00  0.00     0.023 A 
ATOM     77  C   UNL A   1      33.883  26.391  26.126  1.00  0.00     0.001 A 
ATOM     78  C   UNL A   1      33.653  27.087  23.827  1.00  0.00    -0.010 A 
ATOM     79  C   UNL A   1      33.581  27.374  25.202  1.00  0.00     0.007 A 
BRANCH  78  80
ATOM     80  C   UNL A   1      32.866  27.963  22.895  1.00  0.00     0.265 C 
BRANCH  80  81
ATOM     81  O   UNL A   1      31.946  28.672  23.747  1.00  0.00    -0.488 OA
BRANCH  81  82
ATOM     82  C   UNL A   1      30.646  28.586  23.316  1.00  0.00     0.127 A 
ATOM     83  C   UNL A   1      30.245  29.549  22.378  1.00  0.00     0.047 A 
ATOM     84  C   UNL A   1      29.720  27.676  23.873  1.00  0.00     0.017 A 
ATOM     85  C   UNL A   1      28.917  29.624  21.976  1.00  0.00     0.004 A 
ATOM     86  C   UNL A   1      28.375  27.835  23.501  1.00  0.00     0.012 A 
ATOM     87  C   UNL A   1      27.980  28.773  22.547  1.00  0.00     0.001 A 
BRANCH  84  88
ATOM     88  C   UNL A   1      30.050  26.631  24.875  1.00  0.00     0.028 C 
ATOM     89  C   UNL A   1      30.513  25.387  24.630  1.00  0.00     0.071 C 
ATOM     90  C   UNL A   1      30.915  24.759  23.333  1.00  0.00     0.197 C 
ATOM     91  C   UNL A   1      30.752  24.364  25.702  1.00  0.00     0.197 C 
ATOM     92  O   UNL A   1      31.028  25.266  22.230  1.00  0.00    -0.288 OA
ATOM     93  C   UNL A   1      31.271  23.373  23.638  1.00  0.00     0.034 A 
ATOM     94  C   UNL A   1      31.229  23.153  25.013  1.00  0.00     0.034 A 
ATOM     95  O   UNL A   1      30.589  24.485  26.903  1.00  0.00    -0.288 OA
ATOM     96  C   UNL A   1      31.727  22.411  22.751  1.00  0.00     0.013 A 
ATOM     97  C   UNL A   1      31.683  21.961  25.556  1.00  0.00     0.013 A 
ATOM     98  C   UNL A   1      32.164  21.196  23.282  1.00  0.00     0.001 A 
ATOM     99  C   UNL A   1      32.153  20.978  24.674  1.00  0.00     0.001 A 
ENDBRANCH  84  88
ENDBRANCH  81  82
ENDBRANCH  80  81
ENDBRANCH  78  80
ENDBRANCH  72  74
ENDBRANCH  71  72
ENDBRANCH   1  71
TORSDOF 15
ENDMDL
MODEL 3
REMARK VINA RESULT:     -13.1      3.917      9.152
REMARK SMILES O=C(OCCOC(=O)c1cccc(COc2ccccc2C=C2C(=O)c3ccccc3C2=O)c1)c1ccc(-c2c3nc(c(-c4c(F)c(F)c(F)c(F)c4F)c4ccc([nH]4)c(-c4c(F)c(F)c(F)c(F)c4F)c4nc(c(-c5c(F)c(F)c(F)c(F)c5F)c5ccc2[nH]5)C=C4)C=C3)cc1
REMARK SMILES IDX 5 1 4 2 3 3 2 4 1 5 35 6 36 7 97 8 37 9 96 10 38 11 39 12
REMARK SMILES IDX 40 13 90 14 41 15 95 16 89 17 91 18 42 19 94 20 88 21 87 22
REMARK SMILES IDX 43 24 75 25 55 26 74 27 56 28 59 29 73 30 92 31 57 32 58 33
REMARK SMILES IDX 72 35 93 36 60 37 44 38 45 39 53 40 46 41 47 42 51 43 54 44
REMARK SMILES IDX 48 45 49 46 52 47 50 48 76 49 77 50 85 51 78 52 79 53 83 54
REMARK SMILES IDX 86 55 80 56 81 57 84 58 82 59 61 60 62 61 70 62 63 63 64 64
REMARK SMILES IDX 68 65 71 66 65 67 66 68 69 69 67 70 6 71 7 72 8 73 9 74
REMARK SMILES IDX 10 75 34 76 11 77 13 78 12 79 14 80 15 81 16 82 17 83 21 84
REMARK SMILES IDX 18 85 20 86 19 87 22 88 23 89 24 90 32 91 25 92 26 93 31 94
REMARK SMILES IDX 33 95 27 96 30 97 28 98 29 99
REMARK H PARENT 91 23 59 34
REMARK Flexibility Score: inf
ROOT
ATOM      1  C   UNL A   1      36.230  22.353  24.902  1.00  0.00     0.275 C 
ENDROOT
BRANCH   1   2
ATOM      2  C   UNL A   1      37.358  23.061  25.678  1.00  0.00     0.275 C 
BRANCH   2   3
ATOM      3  O   UNL A   1      38.444  22.248  26.166  1.00  0.00    -0.458 OA
BRANCH   3   4
ATOM      4  C   UNL A   1      39.705  22.610  26.505  1.00  0.00     0.338 C 
ATOM      5  O   UNL A   1      40.594  21.765  26.575  1.00  0.00    -0.246 OA
BRANCH   4   6
ATOM      6  C   UNL A   1      40.008  23.985  26.991  1.00  0.00     0.060 A 
ATOM      7  C   UNL A   1      40.503  25.024  26.204  1.00  0.00     0.016 A 
ATOM      8  C   UNL A   1      39.724  24.250  28.339  1.00  0.00     0.016 A 
ATOM      9  C   UNL A   1      40.558  26.331  26.688  1.00  0.00     0.010 A 
ATOM     10  C   UNL A   1      39.769  25.558  28.830  1.00  0.00     0.010 A 
ATOM     11  C   UNL A   1      40.178  26.609  27.999  1.00  0.00    -0.014 A 
BRANCH  11  12
ATOM     12  C   UNL A   1      40.516  27.928  28.573  1.00  0.00     0.031 A 
ATOM     13  C   UNL A   1      41.966  28.159  28.875  1.00  0.00     0.074 A 
ATOM     14  C   UNL A   1      39.610  28.912  28.722  1.00  0.00     0.049 A 
ATOM     15  N   UNL A   1      42.569  29.251  29.254  1.00  0.00    -0.248 NA
ATOM     16  C   UNL A   1      42.868  27.009  28.681  1.00  0.00     0.031 C 
ATOM     17  C   UNL A   1      38.202  28.834  28.345  1.00  0.00     0.029 A 
ATOM     18  N   UNL A   1      39.740  30.181  29.228  1.00  0.00    -0.354 N 
ATOM     19  C   UNL A   1      43.916  28.925  29.289  1.00  0.00     0.074 A 
ATOM     20  C   UNL A   1      44.037  27.515  29.018  1.00  0.00     0.031 C 
ATOM     21  C   UNL A   1      37.579  29.974  28.695  1.00  0.00     0.029 A 
ATOM     22  C   UNL A   1      38.557  30.880  29.284  1.00  0.00     0.049 A 
ATOM     23  H   UNL A   1      40.601  30.556  29.522  1.00  0.00     0.167 HD
ATOM     24  C   UNL A   1      44.971  29.749  29.459  1.00  0.00     0.037 A 
ATOM     25  C   UNL A   1      38.309  32.123  29.741  1.00  0.00     0.037 A 
ATOM     26  C   UNL A   1      44.833  31.143  29.752  1.00  0.00     0.049 A 
ATOM     27  C   UNL A   1      39.489  32.979  30.121  1.00  0.00     0.074 A 
ATOM     28  C   UNL A   1      45.819  32.081  29.975  1.00  0.00     0.029 A 
ATOM     29  N   UNL A   1      43.611  31.791  29.890  1.00  0.00    -0.354 N 
ATOM     30  N   UNL A   1      40.768  32.684  30.086  1.00  0.00    -0.248 NA
ATOM     31  C   UNL A   1      39.203  34.357  30.538  1.00  0.00     0.031 C 
ATOM     32  C   UNL A   1      45.192  33.285  30.318  1.00  0.00     0.029 A 
ATOM     33  C   UNL A   1      43.817  33.114  30.235  1.00  0.00     0.049 A 
ATOM     34  H   UNL A   1      42.730  31.371  29.762  1.00  0.00     0.167 HD
ATOM     35  C   UNL A   1      41.441  33.856  30.397  1.00  0.00     0.074 A 
ATOM     36  C   UNL A   1      40.424  34.861  30.640  1.00  0.00     0.031 C 
ATOM     37  C   UNL A   1      42.777  34.090  30.449  1.00  0.00     0.037 A 
BRANCH  24  38
ATOM     38  C   UNL A   1      46.325  29.117  29.359  1.00  0.00     0.064 A 
ATOM     39  C   UNL A   1      46.959  28.922  28.119  1.00  0.00     0.173 A 
ATOM     40  C   UNL A   1      46.945  28.597  30.502  1.00  0.00     0.173 A 
ATOM     41  F   UNL A   1      46.384  29.364  26.989  1.00  0.00    -0.203 F 
ATOM     42  C   UNL A   1      48.135  28.183  28.024  1.00  0.00     0.198 A 
ATOM     43  C   UNL A   1      48.138  27.889  30.408  1.00  0.00     0.198 A 
ATOM     44  F   UNL A   1      46.370  28.741  31.706  1.00  0.00    -0.203 F 
ATOM     45  F   UNL A   1      48.670  27.927  26.823  1.00  0.00    -0.200 F 
ATOM     46  C   UNL A   1      48.724  27.669  29.169  1.00  0.00     0.200 A 
ATOM     47  F   UNL A   1      48.707  27.390  31.514  1.00  0.00    -0.200 F 
ATOM     48  F   UNL A   1      49.843  26.938  29.077  1.00  0.00    -0.200 F 
ENDBRANCH  24  38
BRANCH  25  49
ATOM     49  C   UNL A   1      36.918  32.653  29.796  1.00  0.00     0.064 A 
ATOM     50  C   UNL A   1      36.345  33.322  28.706  1.00  0.00     0.173 A 
ATOM     51  C   UNL A   1      36.143  32.530  30.959  1.00  0.00     0.173 A 
ATOM     52  F   UNL A   1      37.047  33.478  27.574  1.00  0.00    -0.203 F 
ATOM     53  C   UNL A   1      35.066  33.874  28.784  1.00  0.00     0.198 A 
ATOM     54  C   UNL A   1      34.856  33.066  31.032  1.00  0.00     0.198 A 
ATOM     55  F   UNL A   1      36.635  31.892  32.031  1.00  0.00    -0.203 F 
ATOM     56  F   UNL A   1      34.563  34.546  27.741  1.00  0.00    -0.200 F 
ATOM     57  C   UNL A   1      34.322  33.745  29.947  1.00  0.00     0.200 A 
ATOM     58  F   UNL A   1      34.136  32.928  32.153  1.00  0.00    -0.200 F 
ATOM     59  F   UNL A   1      33.095  34.280  30.025  1.00  0.00    -0.200 F 
ENDBRANCH  25  49
BRANCH  37  60
ATOM     60  C   UNL A   1      43.215  35.500  30.704  1.00  0.00     0.064 A 
ATOM     61  C   UNL A   1      43.518  35.965  31.990  1.00  0.00     0.173 A 
ATOM     62  C   UNL A   1      43.391  36.381  29.624  1.00  0.00     0.173 A 
ATOM     63  F   UNL A   1      43.354  35.164  33.055  1.00  0.00    -0.203 F 
ATOM     64  C   UNL A   1      43.952  37.272  32.191  1.00  0.00     0.198 A 
ATOM     65  C   UNL A   1      43.863  37.673  29.824  1.00  0.00     0.198 A 
ATOM     66  F   UNL A   1      43.123  35.979  28.372  1.00  0.00    -0.203 F 
ATOM     67  F   UNL A   1      44.182  37.715  33.434  1.00  0.00    -0.200 F 
ATOM     68  C   UNL A   1      44.134  38.120  31.108  1.00  0.00     0.200 A 
ATOM     69  F   UNL A   1      44.059  38.482  28.774  1.00  0.00    -0.200 F 
ATOM     70  F   UNL A   1      44.566  39.374  31.303  1.00  0.00    -0.200 F 
ENDBRANCH  37  60
ENDBRANCH  11  12
ENDBRANCH   4   6
ENDBRANCH   3   4
ENDBRANCH   2   3
ENDBRANCH   1   2
BRANCH   1  71
ATOM     71  O   UNL A   1      34.956  23.020  24.854  1.00  0.00    -0.458 OA
BRANCH  71  72
ATOM     72  C   UNL A   1      34.863  23.911  23.837  1.00  0.00     0.338 C 
ATOM     73  O   UNL A   1      35.037  23.653  22.660  1.00  0.00    -0.246 OA
BRANCH  72  74
ATOM     74  C   UNL A   1      34.404  25.243  24.265  1.00  0.00     0.060 A 
ATOM     75  C   UNL A   1      34.171  25.440  25.635  1.00  0.00     0.016 A 
ATOM     76  C   UNL A   1      34.049  26.233  23.359  1.00  0.00     0.023 A 
ATOM     77  C   UNL A   1      33.745  26.670  26.125  1.00  0.00     0.001 A 
ATOM     78  C   UNL A   1      33.507  27.433  23.848  1.00  0.00    -0.010 A 
ATOM     79  C   UNL A   1      33.440  27.680  25.230  1.00  0.00     0.007 A 
BRANCH  78  80
ATOM     80  C   UNL A   1      32.716  28.335  22.945  1.00  0.00     0.265 C 
BRANCH  80  81
ATOM     81  O   UNL A   1      31.716  28.923  23.798  1.00  0.00    -0.488 OA
BRANCH  81  82
ATOM     82  C   UNL A   1      30.441  28.761  23.315  1.00  0.00     0.127 A 
ATOM     83  C   UNL A   1      30.018  29.709  22.371  1.00  0.00     0.047 A 
ATOM     84  C   UNL A   1      29.553  27.789  23.827  1.00  0.00     0.017 A 
ATOM     85  C   UNL A   1      28.704  29.705  21.917  1.00  0.00     0.004 A 
ATOM     86  C   UNL A   1      28.217  27.868  23.403  1.00  0.00     0.012 A 
ATOM     87  C   UNL A   1      27.801  28.791  22.443  1.00  0.00     0.001 A 
BRANCH  84  88
ATOM     88  C   UNL A   1      29.909  26.755  24.831  1.00  0.00     0.028 C 
ATOM     89  C   UNL A   1      30.404  25.522  24.589  1.00  0.00     0.071 C 
ATOM     90  C   UNL A   1      30.821  24.902  23.294  1.00  0.00     0.197 C 
ATOM     91  C   UNL A   1      30.668  24.508  25.663  1.00  0.00     0.197 C 
ATOM     92  O   UNL A   1      30.922  25.408  22.190  1.00  0.00    -0.288 OA
ATOM     93  C   UNL A   1      31.212  23.526  23.602  1.00  0.00     0.034 A 
ATOM     94  C   UNL A   1      31.175  23.308  24.977  1.00  0.00     0.034 A 
ATOM     95  O   UNL A   1      30.502  24.627  26.864  1.00  0.00    -0.288 OA
ATOM     96  C   UNL A   1      31.692  22.573  22.717  1.00  0.00     0.013 A 
ATOM     97  C   UNL A   1      31.658  22.129  25.523  1.00  0.00     0.013 A 
ATOM     98  C   UNL A   1      32.158  21.371  23.251  1.00  0.00     0.001 A 
ATOM     99  C   UNL A   1      32.153  21.155  24.643  1.00  0.00     0.001 A 
ENDBRANCH  84  88
ENDBRANCH  81  82
ENDBRANCH  80  81
ENDBRANCH  78  80
ENDBRANCH  72  74
ENDBRANCH  71  72
ENDBRANCH   1  71
TORSDOF 15
ENDMDL
