MODEL 1
REMARK VINA RESULT:      -9.0      0.000      0.000
REMARK SMILES COC(=O)CCN(C)C(=O)NCc1ccc(C(=O)OCCOC(=O)c2ccc(-c3c4nc(c(-c5c(F)c(F)c(F)c(F)c5F)c5ccc([nH]5)c(-c5c(F)c(F)c(F)c(F)c5F)c5nc(c(-c6c(F)c(F)c(F)c(F)c6F)c6ccc3[nH]6)C=C5)C=C4)cc2)o1
REMARK SMILES IDX 17 1 18 2 16 3 13 4 14 5 88 6 15 7 12 8 11 9 9 10 10 11 7 13
REMARK SMILES IDX 8 14 6 15 5 16 3 17 4 18 2 19 1 20 19 21 20 22 21 23 22 24
REMARK SMILES IDX 23 25 24 26 25 27 26 28 87 29 27 30 86 31 28 32 29 33 30 34
REMARK SMILES IDX 80 35 31 36 85 37 79 38 81 39 32 40 84 41 78 42 77 43 33 45
REMARK SMILES IDX 65 46 45 47 64 48 46 49 49 50 63 51 82 52 47 53 48 54 62 56
REMARK SMILES IDX 83 57 50 58 34 59 35 60 43 61 36 62 37 63 41 64 44 65 38 66
REMARK SMILES IDX 39 67 42 68 40 69 66 70 67 71 75 72 68 73 69 74 73 75 76 76
REMARK SMILES IDX 70 77 71 78 74 79 72 80 51 81 52 82 60 83 53 84 54 85 58 86
REMARK SMILES IDX 61 87 55 88 56 89 59 90 57 91
REMARK H PARENT 11 12 81 44 49 55
REMARK Flexibility Score: inf
ROOT
ATOM      1  C   UNL A   1      45.955  20.630  24.678  1.00  0.00     0.374 C 
ATOM      2  O   UNL A   1      47.072  20.154  24.805  1.00  0.00    -0.242 OA
ENDROOT
BRANCH   1   3
ATOM      3  C   UNL A   1      45.641  22.041  24.660  1.00  0.00     0.211 A 
ATOM      4  C   UNL A   1      46.086  24.154  25.123  1.00  0.00     0.124 A 
ATOM      5  C   UNL A   1      44.957  24.162  24.334  1.00  0.00     0.048 A 
ATOM      6  O   UNL A   1      46.483  22.871  25.346  1.00  0.00    -0.452 OA
ATOM      7  C   UNL A   1      44.675  22.803  24.030  1.00  0.00     0.058 A 
BRANCH   4   8
ATOM      8  C   UNL A   1      46.930  25.202  25.753  1.00  0.00     0.193 C 
BRANCH   8   9
ATOM      9  N   UNL A   1      46.882  26.368  24.901  1.00  0.00    -0.331 N 
ATOM     10  C   UNL A   1      46.350  27.595  24.930  1.00  0.00     0.317 C 
ATOM     11  O   UNL A   1      46.610  28.294  23.946  1.00  0.00    -0.249 OA
ATOM     12  H   UNL A   1      47.381  26.218  24.066  1.00  0.00     0.165 HD
BRANCH  10  13
ATOM     13  N   UNL A   1      45.609  28.077  25.973  1.00  0.00    -0.327 N 
ATOM     14  C   UNL A   1      44.260  27.690  26.337  1.00  0.00     0.148 C 
BRANCH  13  15
ATOM     15  C   UNL A   1      46.268  29.032  26.878  1.00  0.00     0.132 C 
BRANCH  15  16
ATOM     16  C   UNL A   1      45.438  30.290  27.105  1.00  0.00     0.144 C 
BRANCH  16  17
ATOM     17  C   UNL A   1      45.897  31.405  26.203  1.00  0.00     0.307 C 
ATOM     18  O   UNL A   1      45.139  32.092  25.530  1.00  0.00    -0.252 OA
BRANCH  17  19
ATOM     19  O   UNL A   1      47.252  31.529  26.247  1.00  0.00    -0.469 OA
ATOM     20  C   UNL A   1      47.735  32.250  27.380  1.00  0.00     0.282 C 
ENDBRANCH  17  19
ENDBRANCH  16  17
ENDBRANCH  15  16
ENDBRANCH  13  15
ENDBRANCH  10  13
ENDBRANCH   8   9
ENDBRANCH   4   8
ENDBRANCH   1   3
BRANCH   1  21
ATOM     21  O   UNL A   1      44.829  19.900  24.422  1.00  0.00    -0.456 OA
BRANCH  21  22
ATOM     22  C   UNL A   1      44.650  18.734  25.247  1.00  0.00     0.275 C 
BRANCH  22  23
ATOM     23  C   UNL A   1      43.210  18.636  25.763  1.00  0.00     0.275 C 
BRANCH  23  24
ATOM     24  O   UNL A   1      42.347  19.620  25.158  1.00  0.00    -0.458 OA
BRANCH  24  25
ATOM     25  C   UNL A   1      41.255  19.968  25.877  1.00  0.00     0.338 C 
ATOM     26  O   UNL A   1      40.231  19.323  26.026  1.00  0.00    -0.246 OA
BRANCH  25  27
ATOM     27  C   UNL A   1      41.506  21.247  26.563  1.00  0.00     0.060 A 
ATOM     28  C   UNL A   1      41.882  22.355  25.799  1.00  0.00     0.016 A 
ATOM     29  C   UNL A   1      41.436  21.338  27.954  1.00  0.00     0.016 A 
ATOM     30  C   UNL A   1      42.195  23.560  26.424  1.00  0.00     0.010 A 
ATOM     31  C   UNL A   1      41.755  22.547  28.580  1.00  0.00     0.010 A 
ATOM     32  C   UNL A   1      42.148  23.662  27.820  1.00  0.00    -0.014 A 
BRANCH  32  33
ATOM     33  C   UNL A   1      42.551  24.920  28.492  1.00  0.00     0.031 A 
ATOM     34  C   UNL A   1      41.542  26.010  28.695  1.00  0.00     0.074 A 
ATOM     35  C   UNL A   1      43.818  25.085  28.915  1.00  0.00     0.049 A 
ATOM     36  N   UNL A   1      41.718  27.235  29.119  1.00  0.00    -0.248 NA
ATOM     37  C   UNL A   1      40.144  25.675  28.383  1.00  0.00     0.031 C 
ATOM     38  C   UNL A   1      44.871  24.076  28.835  1.00  0.00     0.029 A 
ATOM     39  N   UNL A   1      44.432  26.172  29.484  1.00  0.00    -0.354 N 
ATOM     40  C   UNL A   1      40.462  27.827  29.096  1.00  0.00     0.074 A 
ATOM     41  C   UNL A   1      39.531  26.826  28.620  1.00  0.00     0.031 C 
ATOM     42  C   UNL A   1      46.010  24.596  29.323  1.00  0.00     0.029 A 
ATOM     43  C   UNL A   1      45.775  25.987  29.702  1.00  0.00     0.049 A 
ATOM     44  H   UNL A   1      43.957  27.003  29.715  1.00  0.00     0.167 HD
ATOM     45  C   UNL A   1      40.123  29.092  29.438  1.00  0.00     0.037 A 
ATOM     46  C   UNL A   1      46.716  26.856  30.118  1.00  0.00     0.037 A 
ATOM     47  C   UNL A   1      41.050  30.080  29.923  1.00  0.00     0.049 A 
ATOM     48  C   UNL A   1      46.326  28.274  30.430  1.00  0.00     0.074 A 
ATOM     49  C   UNL A   1      40.803  31.392  30.289  1.00  0.00     0.029 A 
ATOM     50  N   UNL A   1      42.406  29.860  30.112  1.00  0.00    -0.354 N 
ATOM     51  N   UNL A   1      45.144  28.837  30.377  1.00  0.00    -0.248 NA
ATOM     52  C   UNL A   1      47.404  29.183  30.848  1.00  0.00     0.031 C 
ATOM     53  C   UNL A   1      42.015  31.975  30.672  1.00  0.00     0.029 A 
ATOM     54  C   UNL A   1      43.010  31.015  30.579  1.00  0.00     0.049 A 
ATOM     55  H   UNL A   1      42.870  29.009  29.940  1.00  0.00     0.167 HD
ATOM     56  C   UNL A   1      45.328  30.153  30.776  1.00  0.00     0.074 A 
ATOM     57  C   UNL A   1      46.738  30.308  31.072  1.00  0.00     0.031 C 
ATOM     58  C   UNL A   1      44.411  31.143  30.887  1.00  0.00     0.037 A 
BRANCH  45  59
ATOM     59  C   UNL A   1      38.690  29.494  29.267  1.00  0.00     0.064 A 
ATOM     60  C   UNL A   1      38.134  29.715  27.999  1.00  0.00     0.173 A 
ATOM     61  C   UNL A   1      37.854  29.623  30.386  1.00  0.00     0.173 A 
ATOM     62  F   UNL A   1      38.898  29.618  26.900  1.00  0.00    -0.203 F 
ATOM     63  C   UNL A   1      36.794  30.068  27.859  1.00  0.00     0.198 A 
ATOM     64  C   UNL A   1      36.510  29.957  30.240  1.00  0.00     0.198 A 
ATOM     65  F   UNL A   1      38.340  29.420  31.619  1.00  0.00    -0.203 F 
ATOM     66  F   UNL A   1      36.291  30.310  26.641  1.00  0.00    -0.200 F 
ATOM     67  C   UNL A   1      35.983  30.183  28.979  1.00  0.00     0.200 A 
ATOM     68  F   UNL A   1      35.726  30.061  31.323  1.00  0.00    -0.200 F 
ATOM     69  F   UNL A   1      34.693  30.519  28.841  1.00  0.00    -0.200 F 
ENDBRANCH  45  59
BRANCH  46  70
ATOM     70  C   UNL A   1      48.129  26.411  30.233  1.00  0.00     0.064 A 
ATOM     71  C   UNL A   1      48.627  25.898  31.436  1.00  0.00     0.173 A 
ATOM     72  C   UNL A   1      49.004  26.489  29.140  1.00  0.00     0.173 A 
ATOM     73  F   UNL A   1      47.833  25.832  32.516  1.00  0.00    -0.203 F 
ATOM     74  C   UNL A   1      49.954  25.486  31.546  1.00  0.00     0.198 A 
ATOM     75  C   UNL A   1      50.323  26.054  29.243  1.00  0.00     0.198 A 
ATOM     76  F   UNL A   1      48.574  26.979  27.968  1.00  0.00    -0.203 F 
ATOM     77  F   UNL A   1      50.417  25.033  32.718  1.00  0.00    -0.200 F 
ATOM     78  C   UNL A   1      50.798  25.557  30.448  1.00  0.00     0.200 A 
ATOM     79  F   UNL A   1      51.134  26.119  28.178  1.00  0.00    -0.200 F 
ATOM     80  F   UNL A   1      52.073  25.157  30.553  1.00  0.00    -0.200 F 
ENDBRANCH  46  70
BRANCH  58  81
ATOM     81  C   UNL A   1      44.888  32.472  31.392  1.00  0.00     0.064 A 
ATOM     82  C   UNL A   1      45.039  32.723  32.762  1.00  0.00     0.173 A 
ATOM     83  C   UNL A   1      45.255  33.480  30.488  1.00  0.00     0.173 A 
ATOM     84  F   UNL A   1      44.688  31.793  33.662  1.00  0.00    -0.203 F 
ATOM     85  C   UNL A   1      45.535  33.944  33.212  1.00  0.00     0.198 A 
ATOM     86  C   UNL A   1      45.768  34.692  30.941  1.00  0.00     0.198 A 
ATOM     87  F   UNL A   1      45.131  33.282  29.167  1.00  0.00    -0.203 F 
ATOM     88  F   UNL A   1      45.650  34.175  34.527  1.00  0.00    -0.200 F 
ATOM     89  C   UNL A   1      45.906  34.924  32.301  1.00  0.00     0.200 A 
ATOM     90  F   UNL A   1      46.133  35.634  30.060  1.00  0.00    -0.200 F 
ATOM     91  F   UNL A   1      46.392  36.094  32.736  1.00  0.00    -0.200 F 
ENDBRANCH  58  81
ENDBRANCH  32  33
ENDBRANCH  25  27
ENDBRANCH  24  25
ENDBRANCH  23  24
ENDBRANCH  22  23
ENDBRANCH  21  22
ENDBRANCH   1  21
TORSDOF 18
ENDMDL
MODEL 2
REMARK VINA RESULT:      -8.9      3.851     10.120
REMARK SMILES COC(=O)CCN(C)C(=O)NCc1ccc(C(=O)OCCOC(=O)c2ccc(-c3c4nc(c(-c5c(F)c(F)c(F)c(F)c5F)c5ccc([nH]5)c(-c5c(F)c(F)c(F)c(F)c5F)c5nc(c(-c6c(F)c(F)c(F)c(F)c6F)c6ccc3[nH]6)C=C5)C=C4)cc2)o1
REMARK SMILES IDX 17 1 18 2 16 3 13 4 14 5 88 6 15 7 12 8 11 9 9 10 10 11 7 13
REMARK SMILES IDX 8 14 6 15 5 16 3 17 4 18 2 19 1 20 19 21 20 22 21 23 22 24
REMARK SMILES IDX 23 25 24 26 25 27 26 28 87 29 27 30 86 31 28 32 29 33 30 34
REMARK SMILES IDX 80 35 31 36 85 37 79 38 81 39 32 40 84 41 78 42 77 43 33 45
REMARK SMILES IDX 65 46 45 47 64 48 46 49 49 50 63 51 82 52 47 53 48 54 62 56
REMARK SMILES IDX 83 57 50 58 34 59 35 60 43 61 36 62 37 63 41 64 44 65 38 66
REMARK SMILES IDX 39 67 42 68 40 69 66 70 67 71 75 72 68 73 69 74 73 75 76 76
REMARK SMILES IDX 70 77 71 78 74 79 72 80 51 81 52 82 60 83 53 84 54 85 58 86
REMARK SMILES IDX 61 87 55 88 56 89 59 90 57 91
REMARK H PARENT 11 12 81 44 49 55
REMARK Flexibility Score: inf
ROOT
ATOM      1  C   UNL A   1      40.980  21.340  26.973  1.00  0.00     0.374 C 
ATOM      2  O   UNL A   1      41.987  21.941  27.315  1.00  0.00    -0.242 OA
ENDROOT
BRANCH   1   3
ATOM      3  C   UNL A   1      39.762  21.949  26.488  1.00  0.00     0.211 A 
ATOM      4  C   UNL A   1      37.724  21.853  25.642  1.00  0.00     0.124 A 
ATOM      5  C   UNL A   1      37.952  23.176  25.952  1.00  0.00     0.048 A 
ATOM      6  O   UNL A   1      38.829  21.115  25.937  1.00  0.00    -0.452 OA
ATOM      7  C   UNL A   1      39.260  23.237  26.502  1.00  0.00     0.058 A 
BRANCH   4   8
ATOM      8  C   UNL A   1      36.579  21.091  25.081  1.00  0.00     0.193 C 
BRANCH   8   9
ATOM      9  N   UNL A   1      35.506  21.147  26.048  1.00  0.00    -0.331 N 
ATOM     10  C   UNL A   1      34.186  20.927  26.076  1.00  0.00     0.317 C 
ATOM     11  O   UNL A   1      33.663  21.077  27.185  1.00  0.00    -0.249 OA
ATOM     12  H   UNL A   1      35.838  21.425  26.932  1.00  0.00     0.165 HD
BRANCH  10  13
ATOM     13  N   UNL A   1      33.460  20.526  24.990  1.00  0.00    -0.327 N 
ATOM     14  C   UNL A   1      33.096  21.328  23.839  1.00  0.00     0.148 C 
BRANCH  13  15
ATOM     15  C   UNL A   1      33.066  19.109  24.934  1.00  0.00     0.132 C 
BRANCH  15  16
ATOM     16  C   UNL A   1      34.115  18.237  24.255  1.00  0.00     0.144 C 
BRANCH  16  17
ATOM     17  C   UNL A   1      33.757  16.779  24.370  1.00  0.00     0.307 C 
ATOM     18  O   UNL A   1      34.402  15.877  23.852  1.00  0.00    -0.252 OA
BRANCH  17  19
ATOM     19  O   UNL A   1      32.630  16.621  25.118  1.00  0.00    -0.469 OA
ATOM     20  C   UNL A   1      32.527  15.347  25.753  1.00  0.00     0.282 C 
ENDBRANCH  17  19
ENDBRANCH  16  17
ENDBRANCH  15  16
ENDBRANCH  13  15
ENDBRANCH  10  13
ENDBRANCH   8   9
ENDBRANCH   4   8
ENDBRANCH   1   3
BRANCH   1  21
ATOM     21  O   UNL A   1      40.883  19.979  26.892  1.00  0.00    -0.456 OA
BRANCH  21  22
ATOM     22  C   UNL A   1      42.119  19.263  27.063  1.00  0.00     0.275 C 
BRANCH  22  23
ATOM     23  C   UNL A   1      42.564  18.605  25.751  1.00  0.00     0.275 C 
BRANCH  23  24
ATOM     24  O   UNL A   1      43.997  18.622  25.593  1.00  0.00    -0.458 OA
BRANCH  24  25
ATOM     25  C   UNL A   1      44.469  19.377  24.573  1.00  0.00     0.338 C 
ATOM     26  O   UNL A   1      44.733  19.009  23.441  1.00  0.00    -0.246 OA
BRANCH  25  27
ATOM     27  C   UNL A   1      44.539  20.785  24.998  1.00  0.00     0.060 A 
ATOM     28  C   UNL A   1      43.909  21.754  24.212  1.00  0.00     0.016 A 
ATOM     29  C   UNL A   1      45.274  21.157  26.126  1.00  0.00     0.016 A 
ATOM     30  C   UNL A   1      44.016  23.103  24.548  1.00  0.00     0.010 A 
ATOM     31  C   UNL A   1      45.382  22.511  26.458  1.00  0.00     0.010 A 
ATOM     32  C   UNL A   1      44.765  23.492  25.665  1.00  0.00    -0.014 A 
BRANCH  32  33
ATOM     33  C   UNL A   1      44.941  24.929  25.982  1.00  0.00     0.031 A 
ATOM     34  C   UNL A   1      46.284  25.571  25.796  1.00  0.00     0.074 A 
ATOM     35  C   UNL A   1      43.904  25.654  26.438  1.00  0.00     0.049 A 
ATOM     36  N   UNL A   1      46.691  26.763  26.151  1.00  0.00    -0.248 NA
ATOM     37  C   UNL A   1      47.306  24.764  25.112  1.00  0.00     0.031 C 
ATOM     38  C   UNL A   1      42.538  25.162  26.599  1.00  0.00     0.029 A 
ATOM     39  N   UNL A   1      43.847  26.958  26.863  1.00  0.00    -0.354 N 
ATOM     40  C   UNL A   1      48.022  26.839  25.764  1.00  0.00     0.074 A 
ATOM     41  C   UNL A   1      48.355  25.575  25.142  1.00  0.00     0.031 C 
ATOM     42  C   UNL A   1      41.776  26.148  27.103  1.00  0.00     0.029 A 
ATOM     43  C   UNL A   1      42.613  27.320  27.346  1.00  0.00     0.049 A 
ATOM     44  H   UNL A   1      44.614  27.574  26.825  1.00  0.00     0.167 HD
ATOM     45  C   UNL A   1      48.884  27.870  25.919  1.00  0.00     0.037 A 
ATOM     46  C   UNL A   1      42.217  28.454  27.954  1.00  0.00     0.037 A 
ATOM     47  C   UNL A   1      48.545  29.130  26.526  1.00  0.00     0.049 A 
ATOM     48  C   UNL A   1      43.211  29.562  28.173  1.00  0.00     0.074 A 
ATOM     49  C   UNL A   1      49.352  30.235  26.734  1.00  0.00     0.029 A 
ATOM     50  N   UNL A   1      47.290  29.452  27.020  1.00  0.00    -0.354 N 
ATOM     51  N   UNL A   1      44.475  29.617  27.834  1.00  0.00    -0.248 NA
ATOM     52  C   UNL A   1      42.725  30.760  28.873  1.00  0.00     0.031 C 
ATOM     53  C   UNL A   1      48.593  31.216  27.382  1.00  0.00     0.029 A 
ATOM     54  C   UNL A   1      47.304  30.735  27.543  1.00  0.00     0.049 A 
ATOM     55  H   UNL A   1      46.505  28.858  27.001  1.00  0.00     0.167 HD
ATOM     56  C   UNL A   1      44.930  30.859  28.253  1.00  0.00     0.074 A 
ATOM     57  C   UNL A   1      43.806  31.530  28.872  1.00  0.00     0.031 C 
ATOM     58  C   UNL A   1      46.169  31.393  28.136  1.00  0.00     0.037 A 
BRANCH  45  59
ATOM     59  C   UNL A   1      50.294  27.669  25.454  1.00  0.00     0.064 A 
ATOM     60  C   UNL A   1      50.654  27.823  24.109  1.00  0.00     0.173 A 
ATOM     61  C   UNL A   1      51.303  27.351  26.375  1.00  0.00     0.173 A 
ATOM     62  F   UNL A   1      49.721  28.111  23.188  1.00  0.00    -0.203 F 
ATOM     63  C   UNL A   1      51.974  27.652  23.699  1.00  0.00     0.198 A 
ATOM     64  C   UNL A   1      52.625  27.199  25.965  1.00  0.00     0.198 A 
ATOM     65  F   UNL A   1      51.008  27.194  27.674  1.00  0.00    -0.203 F 
ATOM     66  F   UNL A   1      52.292  27.770  22.402  1.00  0.00    -0.200 F 
ATOM     67  C   UNL A   1      52.958  27.345  24.628  1.00  0.00     0.200 A 
ATOM     68  F   UNL A   1      53.576  26.911  26.865  1.00  0.00    -0.200 F 
ATOM     69  F   UNL A   1      54.228  27.184  24.231  1.00  0.00    -0.200 F 
ENDBRANCH  45  59
BRANCH  46  70
ATOM     70  C   UNL A   1      40.815  28.583  28.428  1.00  0.00     0.064 A 
ATOM     71  C   UNL A   1      39.802  29.026  27.569  1.00  0.00     0.173 A 
ATOM     72  C   UNL A   1      40.463  28.263  29.747  1.00  0.00     0.173 A 
ATOM     73  F   UNL A   1      40.098  29.371  26.307  1.00  0.00    -0.203 F 
ATOM     74  C   UNL A   1      38.487  29.153  28.015  1.00  0.00     0.198 A 
ATOM     75  C   UNL A   1      39.145  28.366  30.185  1.00  0.00     0.198 A 
ATOM     76  F   UNL A   1      41.400  27.840  30.609  1.00  0.00    -0.203 F 
ATOM     77  F   UNL A   1      37.543  29.614  27.184  1.00  0.00    -0.200 F 
ATOM     78  C   UNL A   1      38.159  28.816  29.319  1.00  0.00     0.200 A 
ATOM     79  F   UNL A   1      38.831  28.034  31.445  1.00  0.00    -0.200 F 
ATOM     80  F   UNL A   1      36.895  28.934  29.746  1.00  0.00    -0.200 F 
ENDBRANCH  46  70
BRANCH  58  81
ATOM     81  C   UNL A   1      46.368  32.789  28.643  1.00  0.00     0.064 A 
ATOM     82  C   UNL A   1      46.797  33.038  29.954  1.00  0.00     0.173 A 
ATOM     83  C   UNL A   1      46.187  33.885  27.786  1.00  0.00     0.173 A 
ATOM     84  F   UNL A   1      46.970  32.021  30.812  1.00  0.00    -0.203 F 
ATOM     85  C   UNL A   1      47.031  34.338  30.393  1.00  0.00     0.198 A 
ATOM     86  C   UNL A   1      46.440  35.182  28.223  1.00  0.00     0.198 A 
ATOM     87  F   UNL A   1      45.782  33.694  26.522  1.00  0.00    -0.203 F 
ATOM     88  F   UNL A   1      47.418  34.558  31.657  1.00  0.00    -0.200 F 
ATOM     89  C   UNL A   1      46.860  35.408  29.525  1.00  0.00     0.200 A 
ATOM     90  F   UNL A   1      46.282  36.213  27.381  1.00  0.00    -0.200 F 
ATOM     91  F   UNL A   1      47.095  36.658  29.946  1.00  0.00    -0.200 F 
ENDBRANCH  58  81
ENDBRANCH  32  33
ENDBRANCH  25  27
ENDBRANCH  24  25
ENDBRANCH  23  24
ENDBRANCH  22  23
ENDBRANCH  21  22
ENDBRANCH   1  21
TORSDOF 18
ENDMDL
MODEL 3
REMARK VINA RESULT:      -8.8      5.934     11.162
REMARK SMILES COC(=O)CCN(C)C(=O)NCc1ccc(C(=O)OCCOC(=O)c2ccc(-c3c4nc(c(-c5c(F)c(F)c(F)c(F)c5F)c5ccc([nH]5)c(-c5c(F)c(F)c(F)c(F)c5F)c5nc(c(-c6c(F)c(F)c(F)c(F)c6F)c6ccc3[nH]6)C=C5)C=C4)cc2)o1
REMARK SMILES IDX 17 1 18 2 16 3 13 4 14 5 88 6 15 7 12 8 11 9 9 10 10 11 7 13
REMARK SMILES IDX 8 14 6 15 5 16 3 17 4 18 2 19 1 20 19 21 20 22 21 23 22 24
REMARK SMILES IDX 23 25 24 26 25 27 26 28 87 29 27 30 86 31 28 32 29 33 30 34
REMARK SMILES IDX 80 35 31 36 85 37 79 38 81 39 32 40 84 41 78 42 77 43 33 45
REMARK SMILES IDX 65 46 45 47 64 48 46 49 49 50 63 51 82 52 47 53 48 54 62 56
REMARK SMILES IDX 83 57 50 58 34 59 35 60 43 61 36 62 37 63 41 64 44 65 38 66
REMARK SMILES IDX 39 67 42 68 40 69 66 70 67 71 75 72 68 73 69 74 73 75 76 76
REMARK SMILES IDX 70 77 71 78 74 79 72 80 51 81 52 82 60 83 53 84 54 85 58 86
REMARK SMILES IDX 61 87 55 88 56 89 59 90 57 91
REMARK H PARENT 11 12 81 44 49 55
REMARK Flexibility Score: inf
ROOT
ATOM      1  C   UNL A   1      31.963  27.561  23.336  1.00  0.00     0.374 C 
ATOM      2  O   UNL A   1      31.160  27.404  22.429  1.00  0.00    -0.242 OA
ENDROOT
BRANCH   1   3
ATOM      3  C   UNL A   1      32.820  26.535  23.884  1.00  0.00     0.211 A 
ATOM      4  C   UNL A   1      33.859  24.588  23.784  1.00  0.00     0.124 A 
ATOM      5  C   UNL A   1      34.306  25.206  24.931  1.00  0.00     0.048 A 
ATOM      6  O   UNL A   1      32.937  25.377  23.166  1.00  0.00    -0.452 OA
ATOM      7  C   UNL A   1      33.643  26.461  24.992  1.00  0.00     0.058 A 
BRANCH   4   8
ATOM      8  C   UNL A   1      34.156  23.301  23.104  1.00  0.00     0.193 C 
BRANCH   8   9
ATOM      9  N   UNL A   1      34.946  22.502  24.013  1.00  0.00    -0.331 N 
ATOM     10  C   UNL A   1      34.741  21.536  24.916  1.00  0.00     0.317 C 
ATOM     11  O   UNL A   1      35.766  21.109  25.455  1.00  0.00    -0.249 OA
ATOM     12  H   UNL A   1      35.901  22.733  23.951  1.00  0.00     0.165 HD
BRANCH  10  13
ATOM     13  N   UNL A   1      33.511  21.015  25.205  1.00  0.00    -0.327 N 
ATOM     14  C   UNL A   1      32.953  19.770  24.716  1.00  0.00     0.148 C 
BRANCH  13  15
ATOM     15  C   UNL A   1      32.686  21.748  26.180  1.00  0.00     0.132 C 
BRANCH  15  16
ATOM     16  C   UNL A   1      31.447  22.370  25.547  1.00  0.00     0.144 C 
BRANCH  16  17
ATOM     17  C   UNL A   1      31.076  23.652  26.242  1.00  0.00     0.307 C 
ATOM     18  O   UNL A   1      31.304  23.878  27.423  1.00  0.00    -0.252 OA
BRANCH  17  19
ATOM     19  O   UNL A   1      30.459  24.504  25.377  1.00  0.00    -0.469 OA
ATOM     20  C   UNL A   1      30.012  25.720  25.975  1.00  0.00     0.282 C 
ENDBRANCH  17  19
ENDBRANCH  16  17
ENDBRANCH  15  16
ENDBRANCH  13  15
ENDBRANCH  10  13
ENDBRANCH   8   9
ENDBRANCH   4   8
ENDBRANCH   1   3
BRANCH   1  21
ATOM     21  O   UNL A   1      32.257  28.767  23.906  1.00  0.00    -0.456 OA
BRANCH  21  22
ATOM     22  C   UNL A   1      31.430  29.138  25.024  1.00  0.00     0.275 C 
BRANCH  22  23
ATOM     23  C   UNL A   1      31.911  30.449  25.657  1.00  0.00     0.275 C 
BRANCH  23  24
ATOM     24  O   UNL A   1      33.008  30.241  26.569  1.00  0.00    -0.458 OA
BRANCH  24  25
ATOM     25  C   UNL A   1      33.430  31.336  27.243  1.00  0.00     0.338 C 
ATOM     26  O   UNL A   1      32.826  32.383  27.406  1.00  0.00    -0.246 OA
BRANCH  25  27
ATOM     27  C   UNL A   1      34.736  31.057  27.863  1.00  0.00     0.060 A 
ATOM     28  C   UNL A   1      34.982  29.775  28.362  1.00  0.00     0.016 A 
ATOM     29  C   UNL A   1      35.689  32.067  28.012  1.00  0.00     0.016 A 
ATOM     30  C   UNL A   1      36.180  29.497  29.017  1.00  0.00     0.010 A 
ATOM     31  C   UNL A   1      36.889  31.788  28.672  1.00  0.00     0.010 A 
ATOM     32  C   UNL A   1      37.137  30.505  29.189  1.00  0.00    -0.014 A 
BRANCH  32  33
ATOM     33  C   UNL A   1      38.380  30.233  29.950  1.00  0.00     0.031 A 
ATOM     34  C   UNL A   1      39.427  29.334  29.363  1.00  0.00     0.074 A 
ATOM     35  C   UNL A   1      38.567  30.786  31.161  1.00  0.00     0.049 A 
ATOM     36  N   UNL A   1      40.509  28.848  29.917  1.00  0.00    -0.248 NA
ATOM     37  C   UNL A   1      39.234  28.931  27.961  1.00  0.00     0.031 C 
ATOM     38  C   UNL A   1      37.654  31.726  31.808  1.00  0.00     0.029 A 
ATOM     39  N   UNL A   1      39.584  30.623  32.068  1.00  0.00    -0.354 N 
ATOM     40  C   UNL A   1      41.108  28.059  28.945  1.00  0.00     0.074 A 
ATOM     41  C   UNL A   1      40.274  28.132  27.764  1.00  0.00     0.031 C 
ATOM     42  C   UNL A   1      38.145  32.047  33.018  1.00  0.00     0.029 A 
ATOM     43  C   UNL A   1      39.376  31.296  33.247  1.00  0.00     0.049 A 
ATOM     44  H   UNL A   1      40.384  30.078  31.891  1.00  0.00     0.167 HD
ATOM     45  C   UNL A   1      42.250  27.337  29.036  1.00  0.00     0.037 A 
ATOM     46  C   UNL A   1      40.079  31.274  34.396  1.00  0.00     0.037 A 
ATOM     47  C   UNL A   1      43.083  27.277  30.208  1.00  0.00     0.049 A 
ATOM     48  C   UNL A   1      41.308  30.413  34.494  1.00  0.00     0.074 A 
ATOM     49  C   UNL A   1      44.256  26.567  30.399  1.00  0.00     0.029 A 
ATOM     50  N   UNL A   1      42.830  27.958  31.389  1.00  0.00    -0.354 N 
ATOM     51  N   UNL A   1      41.854  29.645  33.583  1.00  0.00    -0.248 NA
ATOM     52  C   UNL A   1      42.013  30.406  35.784  1.00  0.00     0.031 C 
ATOM     53  C   UNL A   1      44.698  26.796  31.707  1.00  0.00     0.029 A 
ATOM     54  C   UNL A   1      43.819  27.677  32.317  1.00  0.00     0.049 A 
ATOM     55  H   UNL A   1      42.061  28.553  31.545  1.00  0.00     0.167 HD
ATOM     56  C   UNL A   1      42.975  29.084  34.178  1.00  0.00     0.074 A 
ATOM     57  C   UNL A   1      43.036  29.601  35.530  1.00  0.00     0.031 C 
ATOM     58  C   UNL A   1      43.873  28.218  33.650  1.00  0.00     0.037 A 
BRANCH  45  59
ATOM     59  C   UNL A   1      42.649  26.522  27.844  1.00  0.00     0.064 A 
ATOM     60  C   UNL A   1      43.558  27.006  26.894  1.00  0.00     0.173 A 
ATOM     61  C   UNL A   1      42.141  25.226  27.671  1.00  0.00     0.173 A 
ATOM     62  F   UNL A   1      44.059  28.246  27.008  1.00  0.00    -0.203 F 
ATOM     63  C   UNL A   1      43.934  26.227  25.803  1.00  0.00     0.198 A 
ATOM     64  C   UNL A   1      42.534  24.442  26.590  1.00  0.00     0.198 A 
ATOM     65  F   UNL A   1      41.269  24.718  28.555  1.00  0.00    -0.203 F 
ATOM     66  F   UNL A   1      44.778  26.721  24.887  1.00  0.00    -0.200 F 
ATOM     67  C   UNL A   1      43.426  24.944  25.655  1.00  0.00     0.200 A 
ATOM     68  F   UNL A   1      42.048  23.200  26.453  1.00  0.00    -0.200 F 
ATOM     69  F   UNL A   1      43.791  24.194  24.606  1.00  0.00    -0.200 F 
ENDBRANCH  45  59
BRANCH  46  70
ATOM     70  C   UNL A   1      39.614  32.073  35.558  1.00  0.00     0.064 A 
ATOM     71  C   UNL A   1      38.650  31.569  36.440  1.00  0.00     0.173 A 
ATOM     72  C   UNL A   1      40.126  33.354  35.808  1.00  0.00     0.173 A 
ATOM     73  F   UNL A   1      38.111  30.360  36.222  1.00  0.00    -0.203 F 
ATOM     74  C   UNL A   1      38.209  32.321  37.527  1.00  0.00     0.198 A 
ATOM     75  C   UNL A   1      39.703  34.095  36.909  1.00  0.00     0.198 A 
ATOM     76  F   UNL A   1      41.047  33.882  34.988  1.00  0.00    -0.203 F 
ATOM     77  F   UNL A   1      37.259  31.832  38.335  1.00  0.00    -0.200 F 
ATOM     78  C   UNL A   1      38.740  33.580  37.765  1.00  0.00     0.200 A 
ATOM     79  F   UNL A   1      40.223  35.308  37.138  1.00  0.00    -0.200 F 
ATOM     80  F   UNL A   1      38.319  34.300  38.812  1.00  0.00    -0.200 F 
ENDBRANCH  46  70
BRANCH  58  81
ATOM     81  C   UNL A   1      45.025  27.807  34.515  1.00  0.00     0.064 A 
ATOM     82  C   UNL A   1      46.208  28.557  34.564  1.00  0.00     0.173 A 
ATOM     83  C   UNL A   1      44.918  26.684  35.349  1.00  0.00     0.173 A 
ATOM     84  F   UNL A   1      46.360  29.630  33.774  1.00  0.00    -0.203 F 
ATOM     85  C   UNL A   1      47.249  28.192  35.414  1.00  0.00     0.198 A 
ATOM     86  C   UNL A   1      45.953  26.333  36.211  1.00  0.00     0.198 A 
ATOM     87  F   UNL A   1      43.803  25.938  35.338  1.00  0.00    -0.203 F 
ATOM     88  F   UNL A   1      48.381  28.908  35.429  1.00  0.00    -0.200 F 
ATOM     89  C   UNL A   1      47.118  27.085  36.241  1.00  0.00     0.200 A 
ATOM     90  F   UNL A   1      45.821  25.269  37.015  1.00  0.00    -0.200 F 
ATOM     91  F   UNL A   1      48.116  26.742  37.066  1.00  0.00    -0.200 F 
ENDBRANCH  58  81
ENDBRANCH  32  33
ENDBRANCH  25  27
ENDBRANCH  24  25
ENDBRANCH  23  24
ENDBRANCH  22  23
ENDBRANCH  21  22
ENDBRANCH   1  21
TORSDOF 18
ENDMDL
