MODEL 1
REMARK VINA RESULT:     -11.4      0.000      0.000
REMARK SMILES C[N@H+]1CCO[C@H](CNc2nnc(SCC(=O)OCCOC(=O)c3ccc(-c4c5nc(c(-c6c(F)c(F)c(F)c(F)c6F)c6ccc([nH]6)c(-c6c(F)c(F)c(F)c(F)c6F)c6nc(c(-c7c(F)c(F)c(F)c(F)c7F)c7ccc4[nH]7)C=C6)C=C5)cc3)s2)C1
REMARK SMILES IDX 17 1 15 2 16 3 14 4 13 5 12 6 9 7 10 8 86 9 11 10 8 11 7 13
REMARK SMILES IDX 6 14 1 15 2 16 3 17 87 18 4 20 5 21 18 22 19 23 20 24 21 25
REMARK SMILES IDX 22 26 23 27 24 28 85 29 25 30 84 31 26 32 27 33 28 34 78 35
REMARK SMILES IDX 29 36 83 37 77 38 79 39 30 40 82 41 76 42 75 43 31 45 63 46
REMARK SMILES IDX 43 47 62 48 44 49 47 50 61 51 80 52 45 53 46 54 60 56 81 57
REMARK SMILES IDX 48 58 32 59 33 60 41 61 34 62 35 63 39 64 42 65 36 66 37 67
REMARK SMILES IDX 40 68 38 69 64 70 65 71 73 72 66 73 67 74 71 75 74 76 68 77
REMARK SMILES IDX 69 78 72 79 70 80 49 81 50 82 58 83 51 84 52 85 56 86 59 87
REMARK SMILES IDX 53 88 54 89 57 90 55 91
REMARK H PARENT 8 12 2 19 79 44 47 55
REMARK Flexibility Score: inf
ROOT
ATOM      1  O   UNL A   1      31.949  28.225  24.745  1.00  0.00    -0.461 OA
ENDROOT
BRANCH   1   2
ATOM      2  C   UNL A   1      30.992  27.264  24.741  1.00  0.00     0.316 C 
ATOM      3  O   UNL A   1      30.650  26.627  25.735  1.00  0.00    -0.251 OA
BRANCH   2   4
ATOM      4  C   UNL A   1      30.340  27.011  23.402  1.00  0.00     0.200 C 
BRANCH   4   5
ATOM      5  S   UNL A   1      31.447  26.735  22.009  1.00  0.00    -0.082 SA
BRANCH   5   6
ATOM      6  C   UNL A   1      32.232  25.205  22.342  1.00  0.00     0.176 A 
ATOM      7  C   UNL A   1      33.088  23.080  23.013  1.00  0.00     0.206 A 
ATOM      8  N   UNL A   1      33.996  23.828  22.428  1.00  0.00    -0.119 NA
ATOM      9  S   UNL A   1      31.568  23.872  23.186  1.00  0.00    -0.069 S 
ATOM     10  N   UNL A   1      33.495  25.046  22.014  1.00  0.00    -0.130 NA
BRANCH   7  11
ATOM     11  N   UNL A   1      33.336  21.846  23.513  1.00  0.00    -0.357 N 
ATOM     12  H   UNL A   1      34.203  21.645  23.935  1.00  0.00     0.163 HD
BRANCH  11  13
ATOM     13  C   UNL A   1      32.302  20.814  23.420  1.00  0.00     0.153 C 
BRANCH  13  14
ATOM     14  C   UNL A   1      32.843  19.478  23.974  1.00  0.00     0.192 C 
ATOM     15  C   UNL A   1      34.161  16.621  23.480  1.00  0.00     0.332 C 
ATOM     16  N   UNL A   1      32.743  16.957  23.597  1.00  0.00    -0.333 N 
ATOM     17  C   UNL A   1      32.279  16.879  24.998  1.00  0.00     0.290 C 
ATOM     18  C   UNL A   1      32.441  18.300  23.055  1.00  0.00     0.296 C 
ATOM     19  H   UNL A   1      32.243  16.263  23.041  1.00  0.00     0.348 HD
ATOM     20  C   UNL A   1      32.719  18.067  25.868  1.00  0.00     0.222 C 
ATOM     21  O   UNL A   1      32.284  19.305  25.297  1.00  0.00    -0.365 OA
ENDBRANCH  13  14
ENDBRANCH  11  13
ENDBRANCH   7  11
ENDBRANCH   5   6
ENDBRANCH   4   5
ENDBRANCH   2   4
ENDBRANCH   1   2
BRANCH   1  22
ATOM     22  C   UNL A   1      31.502  29.561  25.051  1.00  0.00     0.274 C 
BRANCH  22  23
ATOM     23  C   UNL A   1      31.888  29.957  26.473  1.00  0.00     0.275 C 
BRANCH  23  24
ATOM     24  O   UNL A   1      33.271  30.353  26.516  1.00  0.00    -0.458 OA
BRANCH  24  25
ATOM     25  C   UNL A   1      33.525  31.466  27.233  1.00  0.00     0.338 C 
ATOM     26  O   UNL A   1      32.878  32.505  27.249  1.00  0.00    -0.246 OA
BRANCH  25  27
ATOM     27  C   UNL A   1      34.768  31.319  28.004  1.00  0.00     0.060 A 
ATOM     28  C   UNL A   1      35.729  32.335  28.058  1.00  0.00     0.016 A 
ATOM     29  C   UNL A   1      35.024  30.072  28.578  1.00  0.00     0.016 A 
ATOM     30  C   UNL A   1      36.968  32.086  28.654  1.00  0.00     0.010 A 
ATOM     31  C   UNL A   1      36.243  29.838  29.205  1.00  0.00     0.010 A 
ATOM     32  C   UNL A   1      37.229  30.837  29.237  1.00  0.00    -0.014 A 
BRANCH  32  33
ATOM     33  C   UNL A   1      38.499  30.547  29.941  1.00  0.00     0.031 A 
ATOM     34  C   UNL A   1      39.475  29.563  29.369  1.00  0.00     0.074 A 
ATOM     35  C   UNL A   1      38.705  31.079  31.158  1.00  0.00     0.049 A 
ATOM     36  N   UNL A   1      40.487  28.970  29.950  1.00  0.00    -0.248 NA
ATOM     37  C   UNL A   1      39.286  29.194  27.958  1.00  0.00     0.031 C 
ATOM     38  C   UNL A   1      37.840  32.066  31.803  1.00  0.00     0.029 A 
ATOM     39  N   UNL A   1      39.681  30.826  32.089  1.00  0.00    -0.354 N 
ATOM     40  C   UNL A   1      41.043  28.141  28.987  1.00  0.00     0.074 A 
ATOM     41  C   UNL A   1      40.256  28.306  27.781  1.00  0.00     0.031 C 
ATOM     42  C   UNL A   1      38.302  32.311  33.038  1.00  0.00     0.029 A 
ATOM     43  C   UNL A   1      39.457  31.454  33.289  1.00  0.00     0.049 A 
ATOM     44  H   UNL A   1      40.462  30.253  31.914  1.00  0.00     0.167 HD
ATOM     45  C   UNL A   1      42.112  27.319  29.106  1.00  0.00     0.037 A 
ATOM     46  C   UNL A   1      40.073  31.310  34.476  1.00  0.00     0.037 A 
ATOM     47  C   UNL A   1      42.894  27.170  30.307  1.00  0.00     0.049 A 
ATOM     48  C   UNL A   1      41.204  30.332  34.607  1.00  0.00     0.074 A 
ATOM     49  C   UNL A   1      44.013  26.382  30.519  1.00  0.00     0.029 A 
ATOM     50  N   UNL A   1      42.634  27.822  31.503  1.00  0.00    -0.354 N 
ATOM     51  N   UNL A   1      41.720  29.542  33.699  1.00  0.00    -0.248 NA
ATOM     52  C   UNL A   1      41.831  30.217  35.932  1.00  0.00     0.031 C 
ATOM     53  C   UNL A   1      44.409  26.533  31.852  1.00  0.00     0.029 A 
ATOM     54  C   UNL A   1      43.558  27.440  32.462  1.00  0.00     0.049 A 
ATOM     55  H   UNL A   1      41.900  28.463  31.649  1.00  0.00     0.167 HD
ATOM     56  C   UNL A   1      42.740  28.849  34.332  1.00  0.00     0.074 A 
ATOM     57  C   UNL A   1      42.774  29.314  35.704  1.00  0.00     0.031 C 
ATOM     58  C   UNL A   1      43.577  27.915  33.820  1.00  0.00     0.037 A 
BRANCH  45  59
ATOM     59  C   UNL A   1      42.496  26.496  27.915  1.00  0.00     0.064 A 
ATOM     60  C   UNL A   1      41.913  25.245  27.670  1.00  0.00     0.173 A 
ATOM     61  C   UNL A   1      43.412  26.993  26.975  1.00  0.00     0.173 A 
ATOM     62  F   UNL A   1      41.039  24.725  28.544  1.00  0.00    -0.203 F 
ATOM     63  C   UNL A   1      42.239  24.517  26.528  1.00  0.00     0.198 A 
ATOM     64  C   UNL A   1      43.721  26.271  25.826  1.00  0.00     0.198 A 
ATOM     65  F   UNL A   1      43.991  28.188  27.164  1.00  0.00    -0.203 F 
ATOM     66  F   UNL A   1      41.685  23.314  26.320  1.00  0.00    -0.200 F 
ATOM     67  C   UNL A   1      43.137  25.034  25.604  1.00  0.00     0.200 A 
ATOM     68  F   UNL A   1      44.581  26.776  24.930  1.00  0.00    -0.200 F 
ATOM     69  F   UNL A   1      43.440  24.336  24.501  1.00  0.00    -0.200 F 
ENDBRANCH  45  59
BRANCH  46  70
ATOM     70  C   UNL A   1      39.590  32.087  35.645  1.00  0.00     0.064 A 
ATOM     71  C   UNL A   1      38.581  31.582  36.473  1.00  0.00     0.173 A 
ATOM     72  C   UNL A   1      40.153  33.329  35.973  1.00  0.00     0.173 A 
ATOM     73  F   UNL A   1      38.000  30.409  36.182  1.00  0.00    -0.203 F 
ATOM     74  C   UNL A   1      38.149  32.294  37.590  1.00  0.00     0.198 A 
ATOM     75  C   UNL A   1      39.737  34.028  37.102  1.00  0.00     0.198 A 
ATOM     76  F   UNL A   1      41.124  33.849  35.208  1.00  0.00    -0.203 F 
ATOM     77  F   UNL A   1      37.166  31.803  38.355  1.00  0.00    -0.200 F 
ATOM     78  C   UNL A   1      38.733  33.512  37.908  1.00  0.00     0.200 A 
ATOM     79  F   UNL A   1      40.311  35.199  37.413  1.00  0.00    -0.200 F 
ATOM     80  F   UNL A   1      38.326  34.189  38.990  1.00  0.00    -0.200 F 
ENDBRANCH  46  70
BRANCH  58  81
ATOM     81  C   UNL A   1      44.620  27.357  34.739  1.00  0.00     0.064 A 
ATOM     82  C   UNL A   1      44.396  26.186  35.474  1.00  0.00     0.173 A 
ATOM     83  C   UNL A   1      45.872  27.981  34.851  1.00  0.00     0.173 A 
ATOM     84  F   UNL A   1      43.208  25.567  35.409  1.00  0.00    -0.203 F 
ATOM     85  C   UNL A   1      45.386  25.662  36.300  1.00  0.00     0.198 A 
ATOM     86  C   UNL A   1      46.865  27.445  35.665  1.00  0.00     0.198 A 
ATOM     87  F   UNL A   1      46.130  29.105  34.165  1.00  0.00    -0.203 F 
ATOM     88  F   UNL A   1      45.142  24.557  37.019  1.00  0.00    -0.200 F 
ATOM     89  C   UNL A   1      46.621  26.289  36.390  1.00  0.00     0.200 A 
ATOM     90  F   UNL A   1      48.059  28.048  35.747  1.00  0.00    -0.200 F 
ATOM     91  F   UNL A   1      47.574  25.781  37.184  1.00  0.00    -0.200 F 
ENDBRANCH  58  81
ENDBRANCH  32  33
ENDBRANCH  25  27
ENDBRANCH  24  25
ENDBRANCH  23  24
ENDBRANCH  22  23
ENDBRANCH   1  22
TORSDOF 16
ENDMDL
MODEL 2
REMARK VINA RESULT:     -11.2      1.771      2.792
REMARK SMILES C[N@H+]1CCO[C@H](CNc2nnc(SCC(=O)OCCOC(=O)c3ccc(-c4c5nc(c(-c6c(F)c(F)c(F)c(F)c6F)c6ccc([nH]6)c(-c6c(F)c(F)c(F)c(F)c6F)c6nc(c(-c7c(F)c(F)c(F)c(F)c7F)c7ccc4[nH]7)C=C6)C=C5)cc3)s2)C1
REMARK SMILES IDX 17 1 15 2 16 3 14 4 13 5 12 6 9 7 10 8 86 9 11 10 8 11 7 13
REMARK SMILES IDX 6 14 1 15 2 16 3 17 87 18 4 20 5 21 18 22 19 23 20 24 21 25
REMARK SMILES IDX 22 26 23 27 24 28 85 29 25 30 84 31 26 32 27 33 28 34 78 35
REMARK SMILES IDX 29 36 83 37 77 38 79 39 30 40 82 41 76 42 75 43 31 45 63 46
REMARK SMILES IDX 43 47 62 48 44 49 47 50 61 51 80 52 45 53 46 54 60 56 81 57
REMARK SMILES IDX 48 58 32 59 33 60 41 61 34 62 35 63 39 64 42 65 36 66 37 67
REMARK SMILES IDX 40 68 38 69 64 70 65 71 73 72 66 73 67 74 71 75 74 76 68 77
REMARK SMILES IDX 69 78 72 79 70 80 49 81 50 82 58 83 51 84 52 85 56 86 59 87
REMARK SMILES IDX 53 88 54 89 57 90 55 91
REMARK H PARENT 8 12 2 19 79 44 47 55
REMARK Flexibility Score: inf
ROOT
ATOM      1  O   UNL A   1      31.737  28.857  23.710  1.00  0.00    -0.461 OA
ENDROOT
BRANCH   1   2
ATOM      2  C   UNL A   1      30.941  27.999  23.023  1.00  0.00     0.316 C 
ATOM      3  O   UNL A   1      30.286  28.311  22.030  1.00  0.00    -0.251 OA
BRANCH   2   4
ATOM      4  C   UNL A   1      30.903  26.588  23.559  1.00  0.00     0.200 C 
BRANCH   4   5
ATOM      5  S   UNL A   1      29.821  26.292  24.967  1.00  0.00    -0.082 SA
BRANCH   5   6
ATOM      6  C   UNL A   1      30.578  24.991  25.864  1.00  0.00     0.176 A 
ATOM      7  C   UNL A   1      31.818  23.211  26.860  1.00  0.00     0.206 A 
ATOM      8  N   UNL A   1      30.566  23.238  27.257  1.00  0.00    -0.119 NA
ATOM      9  S   UNL A   1      32.182  24.421  25.688  1.00  0.00    -0.069 S 
ATOM     10  N   UNL A   1      29.855  24.284  26.705  1.00  0.00    -0.130 NA
BRANCH   7  11
ATOM     11  N   UNL A   1      32.714  22.276  27.255  1.00  0.00    -0.357 N 
ATOM     12  H   UNL A   1      32.482  21.319  27.225  1.00  0.00     0.163 HD
BRANCH  11  13
ATOM     13  C   UNL A   1      34.033  22.702  27.727  1.00  0.00     0.153 C 
BRANCH  13  14
ATOM     14  C   UNL A   1      35.134  22.070  26.848  1.00  0.00     0.192 C 
ATOM     15  C   UNL A   1      38.120  22.077  25.742  1.00  0.00     0.332 C 
ATOM     16  N   UNL A   1      36.929  22.666  25.135  1.00  0.00    -0.333 N 
ATOM     17  C   UNL A   1      36.239  21.709  24.246  1.00  0.00     0.290 C 
ATOM     18  C   UNL A   1      35.975  23.166  26.150  1.00  0.00     0.296 C 
ATOM     19  H   UNL A   1      37.257  23.458  24.582  1.00  0.00     0.348 HD
ATOM     20  C   UNL A   1      35.432  20.634  24.991  1.00  0.00     0.222 C 
ATOM     21  O   UNL A   1      34.473  21.235  25.868  1.00  0.00    -0.365 OA
ENDBRANCH  13  14
ENDBRANCH  11  13
ENDBRANCH   7  11
ENDBRANCH   5   6
ENDBRANCH   4   5
ENDBRANCH   2   4
ENDBRANCH   1   2
BRANCH   1  22
ATOM     22  C   UNL A   1      31.068  29.725  24.646  1.00  0.00     0.274 C 
BRANCH  22  23
ATOM     23  C   UNL A   1      31.748  29.687  26.011  1.00  0.00     0.275 C 
BRANCH  23  24
ATOM     24  O   UNL A   1      33.057  30.279  25.927  1.00  0.00    -0.458 OA
BRANCH  24  25
ATOM     25  C   UNL A   1      33.351  31.158  26.906  1.00  0.00     0.338 C 
ATOM     26  O   UNL A   1      32.700  32.137  27.248  1.00  0.00    -0.246 OA
BRANCH  25  27
ATOM     27  C   UNL A   1      34.644  30.836  27.528  1.00  0.00     0.060 A 
ATOM     28  C   UNL A   1      34.944  29.550  27.986  1.00  0.00     0.016 A 
ATOM     29  C   UNL A   1      35.520  31.897  27.770  1.00  0.00     0.016 A 
ATOM     30  C   UNL A   1      36.110  29.332  28.727  1.00  0.00     0.010 A 
ATOM     31  C   UNL A   1      36.699  31.671  28.474  1.00  0.00     0.010 A 
ATOM     32  C   UNL A   1      36.997  30.392  28.969  1.00  0.00    -0.014 A 
BRANCH  32  33
ATOM     33  C   UNL A   1      38.277  30.198  29.687  1.00  0.00     0.031 A 
ATOM     34  C   UNL A   1      39.316  29.263  29.145  1.00  0.00     0.074 A 
ATOM     35  C   UNL A   1      38.440  30.771  30.892  1.00  0.00     0.049 A 
ATOM     36  N   UNL A   1      40.357  28.748  29.747  1.00  0.00    -0.248 NA
ATOM     37  C   UNL A   1      39.161  28.849  27.742  1.00  0.00     0.031 C 
ATOM     38  C   UNL A   1      37.511  31.718  31.507  1.00  0.00     0.029 A 
ATOM     39  N   UNL A   1      39.423  30.601  31.835  1.00  0.00    -0.354 N 
ATOM     40  C   UNL A   1      40.971  27.932  28.808  1.00  0.00     0.074 A 
ATOM     41  C   UNL A   1      40.184  28.018  27.594  1.00  0.00     0.031 C 
ATOM     42  C   UNL A   1      37.948  32.021  32.739  1.00  0.00     0.029 A 
ATOM     43  C   UNL A   1      39.152  31.243  33.018  1.00  0.00     0.049 A 
ATOM     44  H   UNL A   1      40.239  30.074  31.679  1.00  0.00     0.167 HD
ATOM     45  C   UNL A   1      42.087  27.180  28.954  1.00  0.00     0.037 A 
ATOM     46  C   UNL A   1      39.766  31.166  34.212  1.00  0.00     0.037 A 
ATOM     47  C   UNL A   1      42.868  27.108  30.163  1.00  0.00     0.049 A 
ATOM     48  C   UNL A   1      40.954  30.264  34.374  1.00  0.00     0.074 A 
ATOM     49  C   UNL A   1      44.031  26.396  30.400  1.00  0.00     0.029 A 
ATOM     50  N   UNL A   1      42.559  27.772  31.340  1.00  0.00    -0.354 N 
ATOM     51  N   UNL A   1      41.525  29.485  33.489  1.00  0.00    -0.248 NA
ATOM     52  C   UNL A   1      41.577  30.219  35.704  1.00  0.00     0.031 C 
ATOM     53  C   UNL A   1      44.408  26.603  31.732  1.00  0.00     0.029 A 
ATOM     54  C   UNL A   1      43.498  27.471  32.314  1.00  0.00     0.049 A 
ATOM     55  H   UNL A   1      41.786  28.369  31.466  1.00  0.00     0.167 HD
ATOM     56  C   UNL A   1      42.581  28.872  34.144  1.00  0.00     0.074 A 
ATOM     57  C   UNL A   1      42.576  29.370  35.504  1.00  0.00     0.031 C 
ATOM     58  C   UNL A   1      43.478  27.979  33.660  1.00  0.00     0.037 A 
BRANCH  45  59
ATOM     59  C   UNL A   1      42.530  26.353  27.786  1.00  0.00     0.064 A 
ATOM     60  C   UNL A   1      43.516  26.806  26.899  1.00  0.00     0.173 A 
ATOM     61  C   UNL A   1      42.007  25.066  27.590  1.00  0.00     0.173 A 
ATOM     62  F   UNL A   1      44.039  28.033  27.040  1.00  0.00    -0.203 F 
ATOM     63  C   UNL A   1      43.958  26.002  25.851  1.00  0.00     0.198 A 
ATOM     64  C   UNL A   1      42.464  24.258  26.552  1.00  0.00     0.198 A 
ATOM     65  F   UNL A   1      41.066  24.586  28.417  1.00  0.00    -0.203 F 
ATOM     66  F   UNL A   1      44.888  26.460  25.001  1.00  0.00    -0.200 F 
ATOM     67  C   UNL A   1      43.436  24.726  25.683  1.00  0.00     0.200 A 
ATOM     68  F   UNL A   1      41.967  23.023  26.398  1.00  0.00    -0.200 F 
ATOM     69  F   UNL A   1      43.871  23.950  24.680  1.00  0.00    -0.200 F 
ENDBRANCH  45  59
BRANCH  46  70
ATOM     70  C   UNL A   1      39.228  31.940  35.358  1.00  0.00     0.064 A 
ATOM     71  C   UNL A   1      38.360  31.344  36.280  1.00  0.00     0.173 A 
ATOM     72  C   UNL A   1      39.599  33.275  35.570  1.00  0.00     0.173 A 
ATOM     73  F   UNL A   1      37.962  30.076  36.102  1.00  0.00    -0.203 F 
ATOM     74  C   UNL A   1      37.880  32.058  37.375  1.00  0.00     0.198 A 
ATOM     75  C   UNL A   1      39.137  33.980  36.677  1.00  0.00     0.198 A 
ATOM     76  F   UNL A   1      40.431  33.885  34.713  1.00  0.00    -0.203 F 
ATOM     77  F   UNL A   1      37.031  31.474  38.232  1.00  0.00    -0.200 F 
ATOM     78  C   UNL A   1      38.275  33.372  37.578  1.00  0.00     0.200 A 
ATOM     79  F   UNL A   1      39.530  35.246  36.876  1.00  0.00    -0.200 F 
ATOM     80  F   UNL A   1      37.822  34.053  38.639  1.00  0.00    -0.200 F 
ENDBRANCH  46  70
BRANCH  58  81
ATOM     81  C   UNL A   1      44.546  27.508  34.598  1.00  0.00     0.064 A 
ATOM     82  C   UNL A   1      45.749  28.212  34.749  1.00  0.00     0.173 A 
ATOM     83  C   UNL A   1      44.345  26.363  35.383  1.00  0.00     0.173 A 
ATOM     84  F   UNL A   1      45.989  29.302  34.006  1.00  0.00    -0.203 F 
ATOM     85  C   UNL A   1      46.719  27.779  35.648  1.00  0.00     0.198 A 
ATOM     86  C   UNL A   1      45.311  25.943  36.292  1.00  0.00     0.198 A 
ATOM     87  F   UNL A   1      43.209  25.658  35.271  1.00  0.00    -0.203 F 
ATOM     88  F   UNL A   1      47.875  28.448  35.757  1.00  0.00    -0.200 F 
ATOM     89  C   UNL A   1      46.497  26.649  36.423  1.00  0.00     0.200 A 
ATOM     90  F   UNL A   1      45.092  24.854  37.043  1.00  0.00    -0.200 F 
ATOM     91  F   UNL A   1      47.432  26.236  37.289  1.00  0.00    -0.200 F 
ENDBRANCH  58  81
ENDBRANCH  32  33
ENDBRANCH  25  27
ENDBRANCH  24  25
ENDBRANCH  23  24
ENDBRANCH  22  23
ENDBRANCH   1  22
TORSDOF 16
ENDMDL
MODEL 3
REMARK VINA RESULT:     -11.2      4.205     10.033
REMARK SMILES C[N@H+]1CCO[C@H](CNc2nnc(SCC(=O)OCCOC(=O)c3ccc(-c4c5nc(c(-c6c(F)c(F)c(F)c(F)c6F)c6ccc([nH]6)c(-c6c(F)c(F)c(F)c(F)c6F)c6nc(c(-c7c(F)c(F)c(F)c(F)c7F)c7ccc4[nH]7)C=C6)C=C5)cc3)s2)C1
REMARK SMILES IDX 17 1 15 2 16 3 14 4 13 5 12 6 9 7 10 8 86 9 11 10 8 11 7 13
REMARK SMILES IDX 6 14 1 15 2 16 3 17 87 18 4 20 5 21 18 22 19 23 20 24 21 25
REMARK SMILES IDX 22 26 23 27 24 28 85 29 25 30 84 31 26 32 27 33 28 34 78 35
REMARK SMILES IDX 29 36 83 37 77 38 79 39 30 40 82 41 76 42 75 43 31 45 63 46
REMARK SMILES IDX 43 47 62 48 44 49 47 50 61 51 80 52 45 53 46 54 60 56 81 57
REMARK SMILES IDX 48 58 32 59 33 60 41 61 34 62 35 63 39 64 42 65 36 66 37 67
REMARK SMILES IDX 40 68 38 69 64 70 65 71 73 72 66 73 67 74 71 75 74 76 68 77
REMARK SMILES IDX 69 78 72 79 70 80 49 81 50 82 58 83 51 84 52 85 56 86 59 87
REMARK SMILES IDX 53 88 54 89 57 90 55 91
REMARK H PARENT 8 12 2 19 79 44 47 55
REMARK Flexibility Score: inf
ROOT
ATOM      1  O   UNL A   1      34.365  20.080  24.909  1.00  0.00    -0.461 OA
ENDROOT
BRANCH   1   2
ATOM      2  C   UNL A   1      33.026  20.272  24.798  1.00  0.00     0.316 C 
ATOM      3  O   UNL A   1      32.186  19.391  24.965  1.00  0.00    -0.251 OA
BRANCH   2   4
ATOM      4  C   UNL A   1      32.606  21.681  24.452  1.00  0.00     0.200 C 
BRANCH   4   5
ATOM      5  S   UNL A   1      32.284  22.019  22.713  1.00  0.00    -0.082 SA
BRANCH   5   6
ATOM      6  C   UNL A   1      32.571  23.736  22.516  1.00  0.00     0.176 A 
ATOM      7  C   UNL A   1      32.658  26.110  22.280  1.00  0.00     0.206 A 
ATOM      8  N   UNL A   1      33.688  25.510  21.728  1.00  0.00    -0.119 NA
ATOM      9  S   UNL A   1      31.514  25.010  22.952  1.00  0.00    -0.069 S 
ATOM     10  N   UNL A   1      33.654  24.140  21.889  1.00  0.00    -0.130 NA
BRANCH   7  11
ATOM     11  N   UNL A   1      32.460  27.449  22.250  1.00  0.00    -0.357 N 
ATOM     12  H   UNL A   1      32.996  28.019  21.651  1.00  0.00     0.163 HD
BRANCH  11  13
ATOM     13  C   UNL A   1      31.442  28.043  23.119  1.00  0.00     0.153 C 
BRANCH  13  14
ATOM     14  C   UNL A   1      32.117  28.715  24.334  1.00  0.00     0.192 C 
ATOM     15  C   UNL A   1      34.305  28.668  26.647  1.00  0.00     0.332 C 
ATOM     16  N   UNL A   1      32.910  28.241  26.712  1.00  0.00    -0.333 N 
ATOM     17  C   UNL A   1      32.018  29.349  27.111  1.00  0.00     0.290 C 
ATOM     18  C   UNL A   1      32.440  27.671  25.429  1.00  0.00     0.296 C 
ATOM     19  H   UNL A   1      32.872  27.510  27.423  1.00  0.00     0.348 HD
ATOM     20  C   UNL A   1      31.743  30.364  25.990  1.00  0.00     0.222 C 
ATOM     21  O   UNL A   1      31.197  29.713  24.837  1.00  0.00    -0.365 OA
ENDBRANCH  13  14
ENDBRANCH  11  13
ENDBRANCH   7  11
ENDBRANCH   5   6
ENDBRANCH   4   5
ENDBRANCH   2   4
ENDBRANCH   1   2
BRANCH   1  22
ATOM     22  C   UNL A   1      35.106  21.146  25.535  1.00  0.00     0.274 C 
BRANCH  22  23
ATOM     23  C   UNL A   1      36.534  21.208  25.001  1.00  0.00     0.275 C 
BRANCH  23  24
ATOM     24  O   UNL A   1      37.341  22.048  25.847  1.00  0.00    -0.458 OA
BRANCH  24  25
ATOM     25  C   UNL A   1      38.612  21.633  26.019  1.00  0.00     0.338 C 
ATOM     26  O   UNL A   1      39.052  20.500  25.869  1.00  0.00    -0.246 OA
BRANCH  25  27
ATOM     27  C   UNL A   1      39.464  22.734  26.491  1.00  0.00     0.060 A 
ATOM     28  C   UNL A   1      40.474  22.534  27.437  1.00  0.00     0.016 A 
ATOM     29  C   UNL A   1      39.141  24.023  26.059  1.00  0.00     0.016 A 
ATOM     30  C   UNL A   1      41.137  23.636  27.985  1.00  0.00     0.010 A 
ATOM     31  C   UNL A   1      39.830  25.116  26.577  1.00  0.00     0.010 A 
ATOM     32  C   UNL A   1      40.823  24.933  27.552  1.00  0.00    -0.014 A 
BRANCH  32  33
ATOM     33  C   UNL A   1      41.545  26.125  28.051  1.00  0.00     0.031 A 
ATOM     34  C   UNL A   1      40.810  27.200  28.794  1.00  0.00     0.074 A 
ATOM     35  C   UNL A   1      42.837  26.291  27.717  1.00  0.00     0.049 A 
ATOM     36  N   UNL A   1      41.187  28.425  29.061  1.00  0.00    -0.248 NA
ATOM     37  C   UNL A   1      39.473  26.854  29.300  1.00  0.00     0.031 C 
ATOM     38  C   UNL A   1      43.660  25.303  27.021  1.00  0.00     0.029 A 
ATOM     39  N   UNL A   1      43.668  27.371  27.877  1.00  0.00    -0.354 N 
ATOM     40  C   UNL A   1      40.128  29.005  29.746  1.00  0.00     0.074 A 
ATOM     41  C   UNL A   1      39.091  27.998  29.853  1.00  0.00     0.031 C 
ATOM     42  C   UNL A   1      44.868  25.833  26.781  1.00  0.00     0.029 A 
ATOM     43  C   UNL A   1      44.880  27.215  27.253  1.00  0.00     0.049 A 
ATOM     44  H   UNL A   1      43.420  28.175  28.387  1.00  0.00     0.167 HD
ATOM     45  C   UNL A   1      40.037  30.264  30.235  1.00  0.00     0.037 A 
ATOM     46  C   UNL A   1      45.867  28.102  27.031  1.00  0.00     0.037 A 
ATOM     47  C   UNL A   1      41.078  31.255  30.132  1.00  0.00     0.049 A 
ATOM     48  C   UNL A   1      45.711  29.515  27.511  1.00  0.00     0.074 A 
ATOM     49  C   UNL A   1      41.091  32.550  30.620  1.00  0.00     0.029 A 
ATOM     50  N   UNL A   1      42.292  31.058  29.490  1.00  0.00    -0.354 N 
ATOM     51  N   UNL A   1      44.706  30.063  28.147  1.00  0.00    -0.248 NA
ATOM     52  C   UNL A   1      46.821  30.437  27.231  1.00  0.00     0.031 C 
ATOM     53  C   UNL A   1      42.300  33.147  30.245  1.00  0.00     0.029 A 
ATOM     54  C   UNL A   1      43.053  32.214  29.553  1.00  0.00     0.049 A 
ATOM     55  H   UNL A   1      42.571  30.220  29.054  1.00  0.00     0.167 HD
ATOM     56  C   UNL A   1      45.064  31.385  28.360  1.00  0.00     0.074 A 
ATOM     57  C   UNL A   1      46.384  31.559  27.788  1.00  0.00     0.031 C 
ATOM     58  C   UNL A   1      44.365  32.366  28.980  1.00  0.00     0.037 A 
BRANCH  45  59
ATOM     59  C   UNL A   1      38.761  30.659  30.913  1.00  0.00     0.064 A 
ATOM     60  C   UNL A   1      38.647  30.672  32.310  1.00  0.00     0.173 A 
ATOM     61  C   UNL A   1      37.661  31.090  30.157  1.00  0.00     0.173 A 
ATOM     62  F   UNL A   1      39.669  30.260  33.075  1.00  0.00    -0.203 F 
ATOM     63  C   UNL A   1      37.473  31.096  32.926  1.00  0.00     0.198 A 
ATOM     64  C   UNL A   1      36.495  31.531  30.777  1.00  0.00     0.198 A 
ATOM     65  F   UNL A   1      37.725  31.101  28.817  1.00  0.00    -0.203 F 
ATOM     66  F   UNL A   1      37.375  31.084  34.263  1.00  0.00    -0.200 F 
ATOM     67  C   UNL A   1      36.400  31.531  32.159  1.00  0.00     0.200 A 
ATOM     68  F   UNL A   1      35.465  31.961  30.035  1.00  0.00    -0.200 F 
ATOM     69  F   UNL A   1      35.275  31.950  32.755  1.00  0.00    -0.200 F 
ENDBRANCH  45  59
BRANCH  46  70
ATOM     70  C   UNL A   1      47.070  27.677  26.274  1.00  0.00     0.064 A 
ATOM     71  C   UNL A   1      48.207  27.204  26.940  1.00  0.00     0.173 A 
ATOM     72  C   UNL A   1      47.091  27.703  24.872  1.00  0.00     0.173 A 
ATOM     73  F   UNL A   1      48.237  27.184  28.280  1.00  0.00    -0.203 F 
ATOM     74  C   UNL A   1      49.325  26.773  26.230  1.00  0.00     0.198 A 
ATOM     75  C   UNL A   1      48.200  27.251  24.163  1.00  0.00     0.198 A 
ATOM     76  F   UNL A   1      46.022  28.146  24.192  1.00  0.00    -0.203 F 
ATOM     77  F   UNL A   1      50.410  26.348  26.889  1.00  0.00    -0.200 F 
ATOM     78  C   UNL A   1      49.317  26.789  24.842  1.00  0.00     0.200 A 
ATOM     79  F   UNL A   1      48.185  27.256  22.823  1.00  0.00    -0.200 F 
ATOM     80  F   UNL A   1      50.389  26.362  24.161  1.00  0.00    -0.200 F 
ENDBRANCH  46  70
BRANCH  58  81
ATOM     81  C   UNL A   1      45.025  33.705  29.098  1.00  0.00     0.064 A 
ATOM     82  C   UNL A   1      44.837  34.701  28.131  1.00  0.00     0.173 A 
ATOM     83  C   UNL A   1      45.822  34.005  30.213  1.00  0.00     0.173 A 
ATOM     84  F   UNL A   1      44.096  34.451  27.041  1.00  0.00    -0.203 F 
ATOM     85  C   UNL A   1      45.433  35.951  28.271  1.00  0.00     0.198 A 
ATOM     86  C   UNL A   1      46.402  35.262  30.357  1.00  0.00     0.198 A 
ATOM     87  F   UNL A   1      46.030  33.081  31.163  1.00  0.00    -0.203 F 
ATOM     88  F   UNL A   1      45.265  36.882  27.320  1.00  0.00    -0.200 F 
ATOM     89  C   UNL A   1      46.210  36.232  29.386  1.00  0.00     0.200 A 
ATOM     90  F   UNL A   1      47.149  35.533  31.437  1.00  0.00    -0.200 F 
ATOM     91  F   UNL A   1      46.780  37.437  29.519  1.00  0.00    -0.200 F 
ENDBRANCH  58  81
ENDBRANCH  32  33
ENDBRANCH  25  27
ENDBRANCH  24  25
ENDBRANCH  23  24
ENDBRANCH  22  23
ENDBRANCH   1  22
TORSDOF 16
ENDMDL
