MODEL 1
REMARK VINA RESULT:     -13.5      0.000      0.000
REMARK SMILES COc1ccc(-n2c(SCc3cn(-c4ccc(C(=O)OCCOC(=O)c5ccc(-c6c7nc(c(-c8c(F)c(F)c(F)c(F)c8F)c8ccc([nH]8)c(-c8c(F)c(F)c(F)c(F)c8F)c8nc(c(-c9c(F)c(F)c(F)c(F)c9F)c9ccc6[nH]9)C=C8)C=C7)cc5)cc4)nn3)nc3ccccc3c2=O)cc1
REMARK SMILES IDX 18 1 19 2 17 3 14 4 15 5 90 6 16 7 89 8 13 9 11 10 12 11
REMARK SMILES IDX 92 12 91 13 10 14 9 15 8 16 7 17 100 18 93 19 99 20 101 21
REMARK SMILES IDX 94 22 98 23 95 24 97 25 96 26 6 27 3 28 4 29 103 30 5 31
REMARK SMILES IDX 102 32 2 33 1 34 20 35 21 36 22 37 23 38 24 39 25 40 26 41
REMARK SMILES IDX 27 42 88 43 28 44 87 45 29 46 30 47 31 48 81 49 32 50 86 51
REMARK SMILES IDX 80 52 82 53 33 54 85 55 79 56 78 57 34 59 66 60 46 61 65 62
REMARK SMILES IDX 47 63 50 64 64 65 83 66 48 67 49 68 63 70 84 71 51 72 35 73
REMARK SMILES IDX 36 74 44 75 37 76 38 77 42 78 45 79 39 80 40 81 43 82 41 83
REMARK SMILES IDX 67 84 68 85 76 86 69 87 70 88 74 89 77 90 71 91 72 92 75 93
REMARK SMILES IDX 73 94 52 95 53 96 61 97 54 98 55 99 59 100 62 101 56 102
REMARK SMILES IDX 57 103 60 104 58 105
REMARK H PARENT 82 58 50 69
REMARK Flexibility Score: inf
ROOT
ATOM      1  C   UNL A   1      41.749  19.656  26.546  1.00  0.00     0.338 C 
ATOM      2  O   UNL A   1      42.202  19.510  27.674  1.00  0.00    -0.246 OA
ENDROOT
BRANCH   1   3
ATOM      3  C   UNL A   1      40.623  20.569  26.237  1.00  0.00     0.060 A 
ATOM      4  C   UNL A   1      38.411  22.160  25.743  1.00  0.00     0.066 A 
ATOM      5  C   UNL A   1      38.383  20.824  25.345  1.00  0.00     0.029 A 
ATOM      6  C   UNL A   1      39.523  22.718  26.381  1.00  0.00     0.029 A 
ATOM      7  C   UNL A   1      39.487  20.022  25.616  1.00  0.00     0.018 A 
ATOM      8  C   UNL A   1      40.639  21.920  26.613  1.00  0.00     0.018 A 
BRANCH   4   9
ATOM      9  N   UNL A   1      37.387  23.006  25.317  1.00  0.00    -0.220 N 
ATOM     10  C   UNL A   1      35.468  24.015  25.347  1.00  0.00     0.093 A 
ATOM     11  C   UNL A   1      36.484  23.584  26.164  1.00  0.00     0.141 A 
ATOM     12  N   UNL A   1      35.810  23.748  24.046  1.00  0.00    -0.134 NA
ATOM     13  N   UNL A   1      36.953  23.074  24.046  1.00  0.00    -0.062 NA
BRANCH  10  14
ATOM     14  C   UNL A   1      34.136  24.552  25.670  1.00  0.00     0.138 C 
BRANCH  14  15
ATOM     15  S   UNL A   1      33.167  23.569  26.791  1.00  0.00    -0.081 SA
BRANCH  15  16
ATOM     16  C   UNL A   1      32.017  22.602  25.833  1.00  0.00     0.176 A 
ATOM     17  N   UNL A   1      32.555  21.907  24.760  1.00  0.00    -0.255 N 
ATOM     18  C   UNL A   1      32.281  22.373  23.479  1.00  0.00     0.266 A 
ATOM     19  N   UNL A   1      30.853  23.170  25.727  1.00  0.00    -0.223 NA
ATOM     20  C   UNL A   1      31.608  23.697  23.470  1.00  0.00     0.066 A 
ATOM     21  O   UNL A   1      32.577  21.824  22.423  1.00  0.00    -0.268 OA
ATOM     22  C   UNL A   1      30.832  24.012  24.596  1.00  0.00     0.079 A 
ATOM     23  C   UNL A   1      31.923  24.668  22.522  1.00  0.00     0.016 A 
ATOM     24  C   UNL A   1      30.311  25.296  24.738  1.00  0.00     0.029 A 
ATOM     25  C   UNL A   1      31.464  25.973  22.719  1.00  0.00     0.001 A 
ATOM     26  C   UNL A   1      30.648  26.282  23.812  1.00  0.00     0.002 A 
BRANCH  17  27
ATOM     27  C   UNL A   1      33.126  20.628  24.965  1.00  0.00     0.052 A 
ATOM     28  C   UNL A   1      34.189  18.111  24.465  1.00  0.00     0.119 A 
ATOM     29  C   UNL A   1      35.050  19.179  24.698  1.00  0.00     0.048 A 
ATOM     30  C   UNL A   1      32.819  18.256  24.680  1.00  0.00     0.048 A 
ATOM     31  C   UNL A   1      34.518  20.450  24.930  1.00  0.00     0.030 A 
ATOM     32  C   UNL A   1      32.286  19.516  24.956  1.00  0.00     0.030 A 
BRANCH  28  33
ATOM     33  O   UNL A   1      34.727  16.932  24.022  1.00  0.00    -0.497 OA
ATOM     34  C   UNL A   1      34.971  16.028  25.108  1.00  0.00     0.278 C 
ENDBRANCH  28  33
ENDBRANCH  17  27
ENDBRANCH  15  16
ENDBRANCH  14  15
ENDBRANCH  10  14
ENDBRANCH   4   9
ENDBRANCH   1   3
BRANCH   1  35
ATOM     35  O   UNL A   1      42.268  19.149  25.400  1.00  0.00    -0.458 OA
BRANCH  35  36
ATOM     36  C   UNL A   1      43.557  18.532  25.523  1.00  0.00     0.275 C 
BRANCH  36  37
ATOM     37  C   UNL A   1      44.517  19.085  24.479  1.00  0.00     0.275 C 
BRANCH  37  38
ATOM     38  O   UNL A   1      44.153  20.407  24.072  1.00  0.00    -0.458 OA
BRANCH  38  39
ATOM     39  C   UNL A   1      45.032  21.370  24.427  1.00  0.00     0.338 C 
ATOM     40  O   UNL A   1      46.239  21.380  24.247  1.00  0.00    -0.246 OA
BRANCH  39  41
ATOM     41  C   UNL A   1      44.362  22.334  25.301  1.00  0.00     0.060 A 
ATOM     42  C   UNL A   1      43.556  23.310  24.707  1.00  0.00     0.016 A 
ATOM     43  C   UNL A   1      44.779  22.430  26.637  1.00  0.00     0.016 A 
ATOM     44  C   UNL A   1      43.282  24.461  25.418  1.00  0.00     0.010 A 
ATOM     45  C   UNL A   1      44.525  23.585  27.334  1.00  0.00     0.010 A 
ATOM     46  C   UNL A   1      43.832  24.612  26.696  1.00  0.00    -0.014 A 
BRANCH  46  47
ATOM     47  C   UNL A   1      43.595  25.849  27.409  1.00  0.00     0.031 A 
ATOM     48  C   UNL A   1      44.571  26.917  27.093  1.00  0.00     0.074 A 
ATOM     49  C   UNL A   1      42.492  26.048  28.153  1.00  0.00     0.049 A 
ATOM     50  N   UNL A   1      45.383  27.517  27.898  1.00  0.00    -0.248 NA
ATOM     51  C   UNL A   1      44.751  27.277  25.677  1.00  0.00     0.031 C 
ATOM     52  C   UNL A   1      41.312  25.187  28.267  1.00  0.00     0.029 A 
ATOM     53  N   UNL A   1      42.146  27.141  28.882  1.00  0.00    -0.354 N 
ATOM     54  C   UNL A   1      46.063  28.450  27.121  1.00  0.00     0.074 A 
ATOM     55  C   UNL A   1      45.755  28.150  25.748  1.00  0.00     0.031 C 
ATOM     56  C   UNL A   1      40.304  25.890  28.831  1.00  0.00     0.029 A 
ATOM     57  C   UNL A   1      40.803  27.199  29.220  1.00  0.00     0.049 A 
ATOM     58  H   UNL A   1      42.794  27.833  29.147  1.00  0.00     0.167 HD
ATOM     59  C   UNL A   1      46.642  29.546  27.680  1.00  0.00     0.037 A 
ATOM     60  C   UNL A   1      40.148  28.283  29.703  1.00  0.00     0.037 A 
ATOM     61  C   UNL A   1      46.829  29.379  29.095  1.00  0.00     0.049 A 
ATOM     62  C   UNL A   1      41.168  29.234  30.216  1.00  0.00     0.074 A 
ATOM     63  C   UNL A   1      47.542  28.495  29.881  1.00  0.00     0.029 A 
ATOM     64  N   UNL A   1      45.936  29.992  29.939  1.00  0.00    -0.354 N 
ATOM     65  N   UNL A   1      41.897  29.025  31.276  1.00  0.00    -0.248 NA
ATOM     66  C   UNL A   1      41.686  30.236  29.294  1.00  0.00     0.031 C 
ATOM     67  C   UNL A   1      46.729  28.281  31.032  1.00  0.00     0.029 A 
ATOM     68  C   UNL A   1      45.593  29.080  30.903  1.00  0.00     0.049 A 
ATOM     69  H   UNL A   1      45.603  30.914  29.865  1.00  0.00     0.167 HD
ATOM     70  C   UNL A   1      43.147  29.530  30.950  1.00  0.00     0.074 A 
ATOM     71  C   UNL A   1      42.931  30.352  29.764  1.00  0.00     0.031 C 
ATOM     72  C   UNL A   1      44.281  29.004  31.501  1.00  0.00     0.037 A 
BRANCH  59  73
ATOM     73  C   UNL A   1      46.692  30.896  27.014  1.00  0.00     0.064 A 
ATOM     74  C   UNL A   1      47.913  31.597  26.981  1.00  0.00     0.173 A 
ATOM     75  C   UNL A   1      45.544  31.652  26.689  1.00  0.00     0.173 A 
ATOM     76  F   UNL A   1      49.063  30.981  27.295  1.00  0.00    -0.203 F 
ATOM     77  C   UNL A   1      47.967  32.968  26.721  1.00  0.00     0.198 A 
ATOM     78  C   UNL A   1      45.609  33.006  26.373  1.00  0.00     0.198 A 
ATOM     79  F   UNL A   1      44.307  31.147  26.780  1.00  0.00    -0.203 F 
ATOM     80  F   UNL A   1      49.131  33.620  26.832  1.00  0.00    -0.200 F 
ATOM     81  C   UNL A   1      46.814  33.672  26.423  1.00  0.00     0.200 A 
ATOM     82  F   UNL A   1      44.477  33.675  26.107  1.00  0.00    -0.200 F 
ATOM     83  F   UNL A   1      46.854  34.998  26.238  1.00  0.00    -0.200 F 
ENDBRANCH  59  73
BRANCH  60  84
ATOM     84  C   UNL A   1      38.742  28.688  29.467  1.00  0.00     0.064 A 
ATOM     85  C   UNL A   1      37.877  28.959  30.541  1.00  0.00     0.173 A 
ATOM     86  C   UNL A   1      38.292  29.082  28.191  1.00  0.00     0.173 A 
ATOM     87  F   UNL A   1      38.246  28.658  31.794  1.00  0.00    -0.203 F 
ATOM     88  C   UNL A   1      36.652  29.607  30.352  1.00  0.00     0.198 A 
ATOM     89  C   UNL A   1      37.065  29.718  28.002  1.00  0.00     0.198 A 
ATOM     90  F   UNL A   1      39.076  28.946  27.111  1.00  0.00    -0.203 F 
ATOM     91  F   UNL A   1      35.884  29.908  31.409  1.00  0.00    -0.200 F 
ATOM     92  C   UNL A   1      36.252  29.994  29.084  1.00  0.00     0.200 A 
ATOM     93  F   UNL A   1      36.707  30.119  26.773  1.00  0.00    -0.200 F 
ATOM     94  F   UNL A   1      35.107  30.669  28.909  1.00  0.00    -0.200 F 
ENDBRANCH  60  84
BRANCH  72  95
ATOM     95  C   UNL A   1      44.124  28.076  32.671  1.00  0.00     0.064 A 
ATOM     96  C   UNL A   1      43.970  26.684  32.555  1.00  0.00     0.173 A 
ATOM     97  C   UNL A   1      44.273  28.604  33.959  1.00  0.00     0.173 A 
ATOM     98  F   UNL A   1      43.926  26.090  31.355  1.00  0.00    -0.203 F 
ATOM     99  C   UNL A   1      43.919  25.867  33.683  1.00  0.00     0.198 A 
ATOM    100  C   UNL A   1      44.262  27.781  35.082  1.00  0.00     0.198 A 
ATOM    101  F   UNL A   1      44.480  29.919  34.127  1.00  0.00    -0.203 F 
ATOM    102  F   UNL A   1      43.754  24.542  33.548  1.00  0.00    -0.200 F 
ATOM    103  C   UNL A   1      44.073  26.415  34.945  1.00  0.00     0.200 A 
ATOM    104  F   UNL A   1      44.462  28.311  36.297  1.00  0.00    -0.200 F 
ATOM    105  F   UNL A   1      44.065  25.626  36.028  1.00  0.00    -0.200 F 
ENDBRANCH  72  95
ENDBRANCH  46  47
ENDBRANCH  39  41
ENDBRANCH  38  39
ENDBRANCH  37  38
ENDBRANCH  36  37
ENDBRANCH  35  36
ENDBRANCH   1  35
TORSDOF 17
ENDMDL
MODEL 2
REMARK VINA RESULT:     -13.1      1.773      3.868
REMARK SMILES COc1ccc(-n2c(SCc3cn(-c4ccc(C(=O)OCCOC(=O)c5ccc(-c6c7nc(c(-c8c(F)c(F)c(F)c(F)c8F)c8ccc([nH]8)c(-c8c(F)c(F)c(F)c(F)c8F)c8nc(c(-c9c(F)c(F)c(F)c(F)c9F)c9ccc6[nH]9)C=C8)C=C7)cc5)cc4)nn3)nc3ccccc3c2=O)cc1
REMARK SMILES IDX 18 1 19 2 17 3 14 4 15 5 90 6 16 7 89 8 13 9 11 10 12 11
REMARK SMILES IDX 92 12 91 13 10 14 9 15 8 16 7 17 100 18 93 19 99 20 101 21
REMARK SMILES IDX 94 22 98 23 95 24 97 25 96 26 6 27 3 28 4 29 103 30 5 31
REMARK SMILES IDX 102 32 2 33 1 34 20 35 21 36 22 37 23 38 24 39 25 40 26 41
REMARK SMILES IDX 27 42 88 43 28 44 87 45 29 46 30 47 31 48 81 49 32 50 86 51
REMARK SMILES IDX 80 52 82 53 33 54 85 55 79 56 78 57 34 59 66 60 46 61 65 62
REMARK SMILES IDX 47 63 50 64 64 65 83 66 48 67 49 68 63 70 84 71 51 72 35 73
REMARK SMILES IDX 36 74 44 75 37 76 38 77 42 78 45 79 39 80 40 81 43 82 41 83
REMARK SMILES IDX 67 84 68 85 76 86 69 87 70 88 74 89 77 90 71 91 72 92 75 93
REMARK SMILES IDX 73 94 52 95 53 96 61 97 54 98 55 99 59 100 62 101 56 102
REMARK SMILES IDX 57 103 60 104 58 105
REMARK H PARENT 82 58 50 69
REMARK Flexibility Score: inf
ROOT
ATOM      1  C   UNL A   1      41.403  20.270  26.698  1.00  0.00     0.338 C 
ATOM      2  O   UNL A   1      42.163  20.885  27.434  1.00  0.00    -0.246 OA
ENDROOT
BRANCH   1   3
ATOM      3  C   UNL A   1      40.157  20.855  26.148  1.00  0.00     0.060 A 
ATOM      4  C   UNL A   1      37.738  21.821  25.207  1.00  0.00     0.066 A 
ATOM      5  C   UNL A   1      38.058  20.481  24.992  1.00  0.00     0.029 A 
ATOM      6  C   UNL A   1      38.603  22.689  25.880  1.00  0.00     0.029 A 
ATOM      7  C   UNL A   1      39.265  19.994  25.487  1.00  0.00     0.018 A 
ATOM      8  C   UNL A   1      39.824  22.204  26.338  1.00  0.00     0.018 A 
BRANCH   4   9
ATOM      9  N   UNL A   1      36.621  22.352  24.562  1.00  0.00    -0.220 N 
ATOM     10  C   UNL A   1      35.013  23.745  24.145  1.00  0.00     0.093 A 
ATOM     11  C   UNL A   1      36.328  23.686  24.538  1.00  0.00     0.141 A 
ATOM     12  N   UNL A   1      34.577  22.472  23.883  1.00  0.00    -0.134 NA
ATOM     13  N   UNL A   1      35.547  21.625  24.204  1.00  0.00    -0.062 NA
BRANCH  10  14
ATOM     14  C   UNL A   1      34.072  24.877  24.101  1.00  0.00     0.138 C 
BRANCH  14  15
ATOM     15  S   UNL A   1      32.851  24.806  22.811  1.00  0.00    -0.081 SA
BRANCH  15  16
ATOM     16  C   UNL A   1      31.238  24.838  23.567  1.00  0.00     0.176 A 
ATOM     17  N   UNL A   1      31.009  25.873  24.462  1.00  0.00    -0.255 N 
ATOM     18  C   UNL A   1      30.961  25.562  25.817  1.00  0.00     0.266 A 
ATOM     19  N   UNL A   1      30.776  23.649  23.809  1.00  0.00    -0.223 NA
ATOM     20  C   UNL A   1      31.381  24.168  26.113  1.00  0.00     0.066 A 
ATOM     21  O   UNL A   1      30.659  26.322  26.730  1.00  0.00    -0.268 OA
ATOM     22  C   UNL A   1      31.187  23.226  25.090  1.00  0.00     0.079 A 
ATOM     23  C   UNL A   1      32.145  23.860  27.236  1.00  0.00     0.016 A 
ATOM     24  C   UNL A   1      31.708  21.942  25.227  1.00  0.00     0.029 A 
ATOM     25  C   UNL A   1      32.732  22.595  27.322  1.00  0.00     0.001 A 
ATOM     26  C   UNL A   1      32.501  21.635  26.332  1.00  0.00     0.002 A 
BRANCH  17  27
ATOM     27  C   UNL A   1      30.573  27.132  23.986  1.00  0.00     0.052 A 
ATOM     28  C   UNL A   1      29.909  29.206  22.261  1.00  0.00     0.119 A 
ATOM     29  C   UNL A   1      28.899  28.392  22.766  1.00  0.00     0.048 A 
ATOM     30  C   UNL A   1      31.204  29.113  22.769  1.00  0.00     0.048 A 
ATOM     31  C   UNL A   1      29.234  27.335  23.618  1.00  0.00     0.030 A 
ATOM     32  C   UNL A   1      31.534  28.086  23.655  1.00  0.00     0.030 A 
BRANCH  28  33
ATOM     33  O   UNL A   1      29.590  30.085  21.261  1.00  0.00    -0.497 OA
ATOM     34  C   UNL A   1      28.230  30.529  21.370  1.00  0.00     0.278 C 
ENDBRANCH  28  33
ENDBRANCH  17  27
ENDBRANCH  15  16
ENDBRANCH  14  15
ENDBRANCH  10  14
ENDBRANCH   4   9
ENDBRANCH   1   3
BRANCH   1  35
ATOM     35  O   UNL A   1      41.627  19.049  26.150  1.00  0.00    -0.458 OA
BRANCH  35  36
ATOM     36  C   UNL A   1      42.863  18.422  26.520  1.00  0.00     0.275 C 
BRANCH  36  37
ATOM     37  C   UNL A   1      43.845  18.448  25.356  1.00  0.00     0.275 C 
BRANCH  37  38
ATOM     38  O   UNL A   1      44.662  19.621  25.379  1.00  0.00    -0.458 OA
BRANCH  38  39
ATOM     39  C   UNL A   1      44.529  20.425  24.301  1.00  0.00     0.338 C 
ATOM     40  O   UNL A   1      44.529  20.100  23.125  1.00  0.00    -0.246 OA
BRANCH  39  41
ATOM     41  C   UNL A   1      44.626  21.821  24.729  1.00  0.00     0.060 A 
ATOM     42  C   UNL A   1      45.615  22.156  25.658  1.00  0.00     0.016 A 
ATOM     43  C   UNL A   1      43.563  22.687  24.433  1.00  0.00     0.016 A 
ATOM     44  C   UNL A   1      45.461  23.312  26.398  1.00  0.00     0.010 A 
ATOM     45  C   UNL A   1      43.399  23.824  25.186  1.00  0.00     0.010 A 
ATOM     46  C   UNL A   1      44.315  24.091  26.200  1.00  0.00    -0.014 A 
BRANCH  46  47
ATOM     47  C   UNL A   1      44.127  25.265  27.026  1.00  0.00     0.031 A 
ATOM     48  C   UNL A   1      45.158  26.309  26.824  1.00  0.00     0.074 A 
ATOM     49  C   UNL A   1      43.024  25.446  27.775  1.00  0.00     0.049 A 
ATOM     50  N   UNL A   1      45.985  26.790  27.692  1.00  0.00    -0.248 NA
ATOM     51  C   UNL A   1      45.375  26.794  25.451  1.00  0.00     0.031 C 
ATOM     52  C   UNL A   1      41.803  24.636  27.793  1.00  0.00     0.029 A 
ATOM     53  N   UNL A   1      42.720  26.480  28.602  1.00  0.00    -0.354 N 
ATOM     54  C   UNL A   1      46.720  27.758  27.015  1.00  0.00     0.074 A 
ATOM     55  C   UNL A   1      46.419  27.605  25.617  1.00  0.00     0.031 C 
ATOM     56  C   UNL A   1      40.821  25.331  28.412  1.00  0.00     0.029 A 
ATOM     57  C   UNL A   1      41.376  26.570  28.931  1.00  0.00     0.049 A 
ATOM     58  H   UNL A   1      43.396  27.111  28.939  1.00  0.00     0.167 HD
ATOM     59  C   UNL A   1      47.343  28.765  27.683  1.00  0.00     0.037 A 
ATOM     60  C   UNL A   1      40.766  27.634  29.509  1.00  0.00     0.037 A 
ATOM     61  C   UNL A   1      47.501  28.455  29.077  1.00  0.00     0.049 A 
ATOM     62  C   UNL A   1      41.823  28.481  30.121  1.00  0.00     0.074 A 
ATOM     63  C   UNL A   1      48.159  27.466  29.781  1.00  0.00     0.029 A 
ATOM     64  N   UNL A   1      46.625  29.027  29.967  1.00  0.00    -0.354 N 
ATOM     65  N   UNL A   1      42.526  28.136  31.164  1.00  0.00    -0.248 NA
ATOM     66  C   UNL A   1      42.402  29.540  29.305  1.00  0.00     0.031 C 
ATOM     67  C   UNL A   1      47.319  27.184  30.898  1.00  0.00     0.029 A 
ATOM     68  C   UNL A   1      46.225  28.046  30.835  1.00  0.00     0.049 A 
ATOM     69  H   UNL A   1      46.338  29.968  29.978  1.00  0.00     0.167 HD
ATOM     70  C   UNL A   1      43.803  28.608  30.901  1.00  0.00     0.074 A 
ATOM     71  C   UNL A   1      43.644  29.549  29.797  1.00  0.00     0.031 C 
ATOM     72  C   UNL A   1      44.902  27.977  31.410  1.00  0.00     0.037 A 
BRANCH  59  73
ATOM     73  C   UNL A   1      47.467  30.168  27.150  1.00  0.00     0.064 A 
ATOM     74  C   UNL A   1      48.706  30.831  27.250  1.00  0.00     0.173 A 
ATOM     75  C   UNL A   1      46.360  30.988  26.836  1.00  0.00     0.173 A 
ATOM     76  F   UNL A   1      49.819  30.152  27.568  1.00  0.00    -0.203 F 
ATOM     77  C   UNL A   1      48.811  32.218  27.124  1.00  0.00     0.198 A 
ATOM     78  C   UNL A   1      46.480  32.363  26.653  1.00  0.00     0.198 A 
ATOM     79  F   UNL A   1      45.107  30.517  26.811  1.00  0.00    -0.203 F 
ATOM     80  F   UNL A   1      49.984  32.818  27.360  1.00  0.00    -0.200 F 
ATOM     81  C   UNL A   1      47.697  32.982  26.831  1.00  0.00     0.200 A 
ATOM     82  F   UNL A   1      45.383  33.089  26.389  1.00  0.00    -0.200 F 
ATOM     83  F   UNL A   1      47.783  34.318  26.773  1.00  0.00    -0.200 F 
ENDBRANCH  59  73
BRANCH  60  84
ATOM     84  C   UNL A   1      39.385  28.129  29.298  1.00  0.00     0.064 A 
ATOM     85  C   UNL A   1      38.494  28.265  30.376  1.00  0.00     0.173 A 
ATOM     86  C   UNL A   1      38.995  28.734  28.087  1.00  0.00     0.173 A 
ATOM     87  F   UNL A   1      38.807  27.758  31.577  1.00  0.00    -0.203 F 
ATOM     88  C   UNL A   1      37.300  28.983  30.255  1.00  0.00     0.198 A 
ATOM     89  C   UNL A   1      37.799  29.441  27.965  1.00  0.00     0.198 A 
ATOM     90  F   UNL A   1      39.811  28.735  27.023  1.00  0.00    -0.203 F 
ATOM     91  F   UNL A   1      36.507  29.148  31.324  1.00  0.00    -0.200 F 
ATOM     92  C   UNL A   1      36.959  29.579  29.052  1.00  0.00     0.200 A 
ATOM     93  F   UNL A   1      37.499  30.043  26.804  1.00  0.00    -0.200 F 
ATOM     94  F   UNL A   1      35.845  30.320  28.953  1.00  0.00    -0.200 F 
ENDBRANCH  60  84
BRANCH  72  95
ATOM     95  C   UNL A   1      44.683  26.950  32.483  1.00  0.00     0.064 A 
ATOM     96  C   UNL A   1      44.531  27.258  33.846  1.00  0.00     0.173 A 
ATOM     97  C   UNL A   1      44.483  25.620  32.096  1.00  0.00     0.173 A 
ATOM     98  F   UNL A   1      44.603  28.522  34.282  1.00  0.00    -0.203 F 
ATOM     99  C   UNL A   1      44.241  26.266  34.781  1.00  0.00     0.198 A 
ATOM    100  C   UNL A   1      44.154  24.638  33.026  1.00  0.00     0.198 A 
ATOM    101  F   UNL A   1      44.560  25.279  30.800  1.00  0.00    -0.203 F 
ATOM    102  F   UNL A   1      44.117  26.581  36.080  1.00  0.00    -0.200 F 
ATOM    103  C   UNL A   1      44.045  24.959  34.370  1.00  0.00     0.200 A 
ATOM    104  F   UNL A   1      43.916  23.385  32.615  1.00  0.00    -0.200 F 
ATOM    105  F   UNL A   1      43.726  24.012  35.262  1.00  0.00    -0.200 F 
ENDBRANCH  72  95
ENDBRANCH  46  47
ENDBRANCH  39  41
ENDBRANCH  38  39
ENDBRANCH  37  38
ENDBRANCH  36  37
ENDBRANCH  35  36
ENDBRANCH   1  35
TORSDOF 17
ENDMDL
MODEL 3
REMARK VINA RESULT:     -13.0      4.613      9.701
REMARK SMILES COc1ccc(-n2c(SCc3cn(-c4ccc(C(=O)OCCOC(=O)c5ccc(-c6c7nc(c(-c8c(F)c(F)c(F)c(F)c8F)c8ccc([nH]8)c(-c8c(F)c(F)c(F)c(F)c8F)c8nc(c(-c9c(F)c(F)c(F)c(F)c9F)c9ccc6[nH]9)C=C8)C=C7)cc5)cc4)nn3)nc3ccccc3c2=O)cc1
REMARK SMILES IDX 18 1 19 2 17 3 14 4 15 5 90 6 16 7 89 8 13 9 11 10 12 11
REMARK SMILES IDX 92 12 91 13 10 14 9 15 8 16 7 17 100 18 93 19 99 20 101 21
REMARK SMILES IDX 94 22 98 23 95 24 97 25 96 26 6 27 3 28 4 29 103 30 5 31
REMARK SMILES IDX 102 32 2 33 1 34 20 35 21 36 22 37 23 38 24 39 25 40 26 41
REMARK SMILES IDX 27 42 88 43 28 44 87 45 29 46 30 47 31 48 81 49 32 50 86 51
REMARK SMILES IDX 80 52 82 53 33 54 85 55 79 56 78 57 34 59 66 60 46 61 65 62
REMARK SMILES IDX 47 63 50 64 64 65 83 66 48 67 49 68 63 70 84 71 51 72 35 73
REMARK SMILES IDX 36 74 44 75 37 76 38 77 42 78 45 79 39 80 40 81 43 82 41 83
REMARK SMILES IDX 67 84 68 85 76 86 69 87 70 88 74 89 77 90 71 91 72 92 75 93
REMARK SMILES IDX 73 94 52 95 53 96 61 97 54 98 55 99 59 100 62 101 56 102
REMARK SMILES IDX 57 103 60 104 58 105
REMARK H PARENT 82 58 50 69
REMARK Flexibility Score: inf
ROOT
ATOM      1  C   UNL A   1      33.817  34.286  27.953  1.00  0.00     0.338 C 
ATOM      2  O   UNL A   1      34.827  34.835  27.535  1.00  0.00    -0.246 OA
ENDROOT
BRANCH   1   3
ATOM      3  C   UNL A   1      33.548  32.838  27.776  1.00  0.00     0.060 A 
ATOM      4  C   UNL A   1      33.002  30.170  27.275  1.00  0.00     0.066 A 
ATOM      5  C   UNL A   1      32.018  31.121  27.009  1.00  0.00     0.029 A 
ATOM      6  C   UNL A   1      34.253  30.525  27.788  1.00  0.00     0.029 A 
ATOM      7  C   UNL A   1      32.304  32.463  27.240  1.00  0.00     0.018 A 
ATOM      8  C   UNL A   1      34.519  31.865  28.053  1.00  0.00     0.018 A 
BRANCH   4   9
ATOM      9  N   UNL A   1      32.660  28.819  27.215  1.00  0.00    -0.220 N 
ATOM     10  C   UNL A   1      32.693  26.765  26.522  1.00  0.00     0.093 A 
ATOM     11  C   UNL A   1      33.505  27.846  26.761  1.00  0.00     0.141 A 
ATOM     12  N   UNL A   1      31.413  27.089  26.893  1.00  0.00    -0.134 NA
ATOM     13  N   UNL A   1      31.394  28.366  27.252  1.00  0.00    -0.062 NA
BRANCH  10  14
ATOM     14  C   UNL A   1      32.972  25.479  25.862  1.00  0.00     0.138 C 
BRANCH  14  15
ATOM     15  S   UNL A   1      31.616  24.331  25.819  1.00  0.00    -0.081 SA
BRANCH  15  16
ATOM     16  C   UNL A   1      31.242  23.973  24.114  1.00  0.00     0.176 A 
ATOM     17  N   UNL A   1      32.317  23.592  23.324  1.00  0.00    -0.255 N 
ATOM     18  C   UNL A   1      32.793  24.504  22.388  1.00  0.00     0.266 A 
ATOM     19  N   UNL A   1      30.318  24.749  23.631  1.00  0.00    -0.223 NA
ATOM     20  C   UNL A   1      32.191  25.854  22.529  1.00  0.00     0.066 A 
ATOM     21  O   UNL A   1      33.652  24.297  21.538  1.00  0.00    -0.268 OA
ATOM     22  C   UNL A   1      30.905  25.911  23.087  1.00  0.00     0.079 A 
ATOM     23  C   UNL A   1      32.947  27.011  22.351  1.00  0.00     0.016 A 
ATOM     24  C   UNL A   1      30.345  27.146  23.408  1.00  0.00     0.029 A 
ATOM     25  C   UNL A   1      32.407  28.235  22.754  1.00  0.00     0.001 A 
ATOM     26  C   UNL A   1      31.107  28.304  23.264  1.00  0.00     0.002 A 
BRANCH  17  27
ATOM     27  C   UNL A   1      32.722  22.236  23.294  1.00  0.00     0.052 A 
ATOM     28  C   UNL A   1      32.878  19.524  23.875  1.00  0.00     0.119 A 
ATOM     29  C   UNL A   1      32.154  19.941  22.762  1.00  0.00     0.048 A 
ATOM     30  C   UNL A   1      33.680  20.430  24.569  1.00  0.00     0.048 A 
ATOM     31  C   UNL A   1      32.057  21.307  22.480  1.00  0.00     0.030 A 
ATOM     32  C   UNL A   1      33.621  21.790  24.262  1.00  0.00     0.030 A 
BRANCH  28  33
ATOM     33  O   UNL A   1      32.775  18.213  24.259  1.00  0.00    -0.497 OA
ATOM     34  C   UNL A   1      33.196  17.328  23.212  1.00  0.00     0.278 C 
ENDBRANCH  28  33
ENDBRANCH  17  27
ENDBRANCH  15  16
ENDBRANCH  14  15
ENDBRANCH  10  14
ENDBRANCH   4   9
ENDBRANCH   1   3
BRANCH   1  35
ATOM     35  O   UNL A   1      32.872  34.841  28.753  1.00  0.00    -0.458 OA
BRANCH  35  36
ATOM     36  C   UNL A   1      33.152  36.171  29.210  1.00  0.00     0.275 C 
BRANCH  36  37
ATOM     37  C   UNL A   1      32.588  36.385  30.609  1.00  0.00     0.275 C 
BRANCH  37  38
ATOM     38  O   UNL A   1      33.544  36.063  31.621  1.00  0.00    -0.458 OA
BRANCH  38  39
ATOM     39  C   UNL A   1      33.257  34.954  32.338  1.00  0.00     0.338 C 
ATOM     40  O   UNL A   1      32.201  34.667  32.876  1.00  0.00    -0.246 OA
BRANCH  39  41
ATOM     41  C   UNL A   1      34.496  34.218  32.600  1.00  0.00     0.060 A 
ATOM     42  C   UNL A   1      35.665  34.955  32.811  1.00  0.00     0.016 A 
ATOM     43  C   UNL A   1      34.525  32.841  32.336  1.00  0.00     0.016 A 
ATOM     44  C   UNL A   1      36.882  34.331  32.619  1.00  0.00     0.010 A 
ATOM     45  C   UNL A   1      35.735  32.228  32.123  1.00  0.00     0.010 A 
ATOM     46  C   UNL A   1      36.896  32.993  32.207  1.00  0.00    -0.014 A 
BRANCH  46  47
ATOM     47  C   UNL A   1      38.172  32.365  31.943  1.00  0.00     0.031 A 
ATOM     48  C   UNL A   1      39.024  32.214  33.145  1.00  0.00     0.074 A 
ATOM     49  C   UNL A   1      38.472  31.823  30.749  1.00  0.00     0.049 A 
ATOM     50  N   UNL A   1      40.195  32.714  33.359  1.00  0.00    -0.248 NA
ATOM     51  C   UNL A   1      38.446  31.516  34.305  1.00  0.00     0.031 C 
ATOM     52  C   UNL A   1      37.585  31.626  29.599  1.00  0.00     0.029 A 
ATOM     53  N   UNL A   1      39.623  31.218  30.355  1.00  0.00    -0.354 N 
ATOM     54  C   UNL A   1      40.575  32.258  34.618  1.00  0.00     0.074 A 
ATOM     55  C   UNL A   1      39.407  31.667  35.214  1.00  0.00     0.031 C 
ATOM     56  C   UNL A   1      38.163  30.757  28.738  1.00  0.00     0.029 A 
ATOM     57  C   UNL A   1      39.497  30.436  29.218  1.00  0.00     0.049 A 
ATOM     58  H   UNL A   1      40.475  31.328  30.837  1.00  0.00     0.167 HD
ATOM     59  C   UNL A   1      41.884  32.194  34.979  1.00  0.00     0.037 A 
ATOM     60  C   UNL A   1      40.400  29.530  28.769  1.00  0.00     0.037 A 
ATOM     61  C   UNL A   1      42.706  33.014  34.132  1.00  0.00     0.049 A 
ATOM     62  C   UNL A   1      41.701  29.828  29.424  1.00  0.00     0.074 A 
ATOM     63  C   UNL A   1      42.762  34.364  33.849  1.00  0.00     0.029 A 
ATOM     64  N   UNL A   1      43.427  32.395  33.140  1.00  0.00    -0.354 N 
ATOM     65  N   UNL A   1      42.422  30.884  29.173  1.00  0.00    -0.248 NA
ATOM     66  C   UNL A   1      41.993  29.161  30.685  1.00  0.00     0.031 C 
ATOM     67  C   UNL A   1      43.100  34.441  32.466  1.00  0.00     0.029 A 
ATOM     68  C   UNL A   1      43.276  33.138  31.999  1.00  0.00     0.049 A 
ATOM     69  H   UNL A   1      43.954  31.570  33.232  1.00  0.00     0.167 HD
ATOM     70  C   UNL A   1      42.938  31.261  30.404  1.00  0.00     0.074 A 
ATOM     71  C   UNL A   1      42.726  30.109  31.276  1.00  0.00     0.031 C 
ATOM     72  C   UNL A   1      43.224  32.568  30.674  1.00  0.00     0.037 A 
BRANCH  59  73
ATOM     73  C   UNL A   1      42.458  31.108  35.851  1.00  0.00     0.064 A 
ATOM     74  C   UNL A   1      43.287  31.466  36.932  1.00  0.00     0.173 A 
ATOM     75  C   UNL A   1      42.480  29.743  35.490  1.00  0.00     0.173 A 
ATOM     76  F   UNL A   1      43.360  32.741  37.343  1.00  0.00    -0.203 F 
ATOM     77  C   UNL A   1      44.133  30.541  37.548  1.00  0.00     0.198 A 
ATOM     78  C   UNL A   1      43.281  28.812  36.145  1.00  0.00     0.198 A 
ATOM     79  F   UNL A   1      41.825  29.277  34.419  1.00  0.00    -0.203 F 
ATOM     80  F   UNL A   1      45.001  30.953  38.480  1.00  0.00    -0.200 F 
ATOM     81  C   UNL A   1      44.132  29.216  37.150  1.00  0.00     0.200 A 
ATOM     82  F   UNL A   1      43.282  27.536  35.731  1.00  0.00    -0.200 F 
ATOM     83  F   UNL A   1      44.988  28.341  37.695  1.00  0.00    -0.200 F 
ENDBRANCH  59  73
BRANCH  60  84
ATOM     84  C   UNL A   1      40.147  28.249  28.068  1.00  0.00     0.064 A 
ATOM     85  C   UNL A   1      40.777  27.956  26.847  1.00  0.00     0.173 A 
ATOM     86  C   UNL A   1      39.497  27.174  28.708  1.00  0.00     0.173 A 
ATOM     87  F   UNL A   1      41.456  28.909  26.194  1.00  0.00    -0.203 F 
ATOM     88  C   UNL A   1      40.779  26.663  26.314  1.00  0.00     0.198 A 
ATOM     89  C   UNL A   1      39.491  25.887  28.170  1.00  0.00     0.198 A 
ATOM     90  F   UNL A   1      38.938  27.328  29.917  1.00  0.00    -0.203 F 
ATOM     91  F   UNL A   1      41.448  26.408  25.180  1.00  0.00    -0.200 F 
ATOM     92  C   UNL A   1      40.144  25.628  26.981  1.00  0.00     0.200 A 
ATOM     93  F   UNL A   1      38.903  24.888  28.844  1.00  0.00    -0.200 F 
ATOM     94  F   UNL A   1      40.198  24.377  26.502  1.00  0.00    -0.200 F 
ENDBRANCH  60  84
BRANCH  72  95
ATOM     95  C   UNL A   1      43.243  33.531  29.522  1.00  0.00     0.064 A 
ATOM     96  C   UNL A   1      42.155  34.344  29.159  1.00  0.00     0.173 A 
ATOM     97  C   UNL A   1      44.454  33.736  28.850  1.00  0.00     0.173 A 
ATOM     98  F   UNL A   1      40.994  34.283  29.824  1.00  0.00    -0.203 F 
ATOM     99  C   UNL A   1      42.265  35.283  28.135  1.00  0.00     0.198 A 
ATOM    100  C   UNL A   1      44.573  34.702  27.855  1.00  0.00     0.198 A 
ATOM    101  F   UNL A   1      45.541  33.028  29.193  1.00  0.00    -0.203 F 
ATOM    102  F   UNL A   1      41.208  36.035  27.795  1.00  0.00    -0.200 F 
ATOM    103  C   UNL A   1      43.476  35.467  27.489  1.00  0.00     0.200 A 
ATOM    104  F   UNL A   1      45.760  34.910  27.268  1.00  0.00    -0.200 F 
ATOM    105  F   UNL A   1      43.595  36.397  26.532  1.00  0.00    -0.200 F 
ENDBRANCH  72  95
ENDBRANCH  46  47
ENDBRANCH  39  41
ENDBRANCH  38  39
ENDBRANCH  37  38
ENDBRANCH  36  37
ENDBRANCH  35  36
ENDBRANCH   1  35
TORSDOF 17
ENDMDL
