MODEL 1
REMARK VINA RESULT:     -12.3      0.000      0.000
REMARK SMILES Cc1cc(C)cc(-c2ccc([C@@H](C)C(=O)OCCOC(=O)c3ccc(-c4c5nc(c(-c6c(F)c(F)c(F)c(F)c6F)c6ccc([nH]6)c(-c6c(F)c(F)c(F)c(F)c6F)c6nc(c(-c7c(F)c(F)c(F)c(F)c7F)c7ccc4[nH]7)C=C6)C=C5)cc3)cc2F)c1
REMARK SMILES IDX 17 1 16 2 14 3 15 4 12 5 13 6 11 7 8 8 9 9 86 10 10 11 85 12
REMARK SMILES IDX 87 13 7 14 1 15 2 16 3 17 88 18 4 19 5 20 6 21 18 22 19 23
REMARK SMILES IDX 20 24 21 25 22 26 23 27 84 28 24 29 83 30 25 31 26 32 27 33
REMARK SMILES IDX 77 34 28 35 82 36 76 37 78 38 29 39 81 40 75 41 74 42 30 44
REMARK SMILES IDX 62 45 42 46 61 47 43 48 46 49 60 50 79 51 44 52 45 53 59 55
REMARK SMILES IDX 80 56 47 57 31 58 32 59 40 60 33 61 34 62 38 63 41 64 35 65
REMARK SMILES IDX 36 66 39 67 37 68 63 69 64 70 72 71 65 72 66 73 70 74 73 75
REMARK SMILES IDX 67 76 68 77 71 78 69 79 48 80 49 81 57 82 50 83 51 84 55 85
REMARK SMILES IDX 58 86 52 87 53 88 56 89 54 90
REMARK H PARENT 78 43 46 54
REMARK Flexibility Score: inf
ROOT
ATOM      1  C   UNL A   1      44.064  21.580  25.372  1.00  0.00     0.274 C 
ENDROOT
BRANCH   1   2
ATOM      2  O   UNL A   1      42.903  20.744  25.199  1.00  0.00    -0.462 OA
BRANCH   2   3
ATOM      3  C   UNL A   1      42.148  20.506  26.303  1.00  0.00     0.313 C 
ATOM      4  O   UNL A   1      42.129  19.438  26.911  1.00  0.00    -0.252 OA
BRANCH   3   5
ATOM      5  C   UNL A   1      41.265  21.681  26.706  1.00  0.00     0.126 C 
ATOM      6  C   UNL A   1      41.285  21.847  28.225  1.00  0.00     0.025 C 
BRANCH   5   7
ATOM      7  C   UNL A   1      39.857  21.677  26.134  1.00  0.00    -0.031 A 
ATOM      8  C   UNL A   1      37.190  21.697  25.132  1.00  0.00     0.017 A 
ATOM      9  C   UNL A   1      38.022  20.577  24.968  1.00  0.00     0.012 A 
ATOM     10  C   UNL A   1      37.730  22.810  25.782  1.00  0.00     0.131 A 
ATOM     11  C   UNL A   1      39.332  20.566  25.460  1.00  0.00     0.005 A 
ATOM     12  C   UNL A   1      39.032  22.803  26.285  1.00  0.00     0.044 A 
ATOM     13  F   UNL A   1      36.987  23.912  25.975  1.00  0.00    -0.206 F 
BRANCH   8  14
ATOM     14  C   UNL A   1      35.795  21.662  24.670  1.00  0.00    -0.015 A 
ATOM     15  C   UNL A   1      32.659  19.502  24.986  1.00  0.00     0.044 C 
ATOM     16  C   UNL A   1      33.591  20.609  24.592  1.00  0.00    -0.050 A 
ATOM     17  C   UNL A   1      33.125  21.652  23.782  1.00  0.00     0.006 A 
ATOM     18  C   UNL A   1      34.924  20.621  25.028  1.00  0.00     0.012 A 
ATOM     19  C   UNL A   1      33.974  22.696  23.401  1.00  0.00    -0.050 A 
ATOM     20  C   UNL A   1      33.464  23.806  22.533  1.00  0.00     0.044 C 
ATOM     21  C   UNL A   1      35.299  22.692  23.851  1.00  0.00     0.012 A 
ENDBRANCH   8  14
ENDBRANCH   5   7
ENDBRANCH   3   5
ENDBRANCH   2   3
ENDBRANCH   1   2
BRANCH   1  22
ATOM     22  C   UNL A   1      44.151  22.655  24.286  1.00  0.00     0.275 C 
BRANCH  22  23
ATOM     23  O   UNL A   1      43.429  23.841  24.663  1.00  0.00    -0.458 OA
BRANCH  23  24
ATOM     24  C   UNL A   1      44.201  24.867  25.088  1.00  0.00     0.338 C 
ATOM     25  O   UNL A   1      45.267  25.236  24.627  1.00  0.00    -0.246 OA
BRANCH  24  26
ATOM     26  C   UNL A   1      43.502  25.606  26.149  1.00  0.00     0.060 A 
ATOM     27  C   UNL A   1      43.844  26.945  26.339  1.00  0.00     0.016 A 
ATOM     28  C   UNL A   1      42.598  24.976  27.007  1.00  0.00     0.016 A 
ATOM     29  C   UNL A   1      43.308  27.663  27.402  1.00  0.00     0.010 A 
ATOM     30  C   UNL A   1      42.049  25.700  28.072  1.00  0.00     0.010 A 
ATOM     31  C   UNL A   1      42.414  27.041  28.284  1.00  0.00    -0.014 A 
BRANCH  31  32
ATOM     32  C   UNL A   1      41.913  27.801  29.452  1.00  0.00     0.031 A 
ATOM     33  C   UNL A   1      40.640  28.588  29.344  1.00  0.00     0.074 A 
ATOM     34  C   UNL A   1      42.567  27.729  30.626  1.00  0.00     0.049 A 
ATOM     35  N   UNL A   1      40.049  29.331  30.245  1.00  0.00    -0.248 NA
ATOM     36  C   UNL A   1      39.936  28.530  28.054  1.00  0.00     0.031 C 
ATOM     37  C   UNL A   1      43.783  26.952  30.864  1.00  0.00     0.029 A 
ATOM     38  N   UNL A   1      42.292  28.306  31.840  1.00  0.00    -0.354 N 
ATOM     39  C   UNL A   1      38.912  29.838  29.630  1.00  0.00     0.074 A 
ATOM     40  C   UNL A   1      38.903  29.331  28.273  1.00  0.00     0.031 C 
ATOM     41  C   UNL A   1      44.141  27.087  32.152  1.00  0.00     0.029 A 
ATOM     42  C   UNL A   1      43.203  27.989  32.815  1.00  0.00     0.049 A 
ATOM     43  H   UNL A   1      41.514  28.890  31.996  1.00  0.00     0.167 HD
ATOM     44  C   UNL A   1      37.962  30.647  30.154  1.00  0.00     0.037 A 
ATOM     45  C   UNL A   1      43.279  28.392  34.098  1.00  0.00     0.037 A 
ATOM     46  C   UNL A   1      37.963  31.133  31.508  1.00  0.00     0.049 A 
ATOM     47  C   UNL A   1      42.237  29.330  34.641  1.00  0.00     0.074 A 
ATOM     48  C   UNL A   1      37.042  31.960  32.128  1.00  0.00     0.029 A 
ATOM     49  N   UNL A   1      38.931  30.832  32.454  1.00  0.00    -0.354 N 
ATOM     50  N   UNL A   1      41.182  29.826  34.043  1.00  0.00    -0.248 NA
ATOM     51  C   UNL A   1      42.402  29.772  36.034  1.00  0.00     0.031 C 
ATOM     52  C   UNL A   1      37.470  32.185  33.441  1.00  0.00     0.029 A 
ATOM     53  C   UNL A   1      38.638  31.469  33.650  1.00  0.00     0.049 A 
ATOM     54  H   UNL A   1      39.712  30.252  32.300  1.00  0.00     0.167 HD
ATOM     55  C   UNL A   1      40.551  30.628  34.984  1.00  0.00     0.074 A 
ATOM     56  C   UNL A   1      41.333  30.540  36.200  1.00  0.00     0.031 C 
ATOM     57  C   UNL A   1      39.429  31.374  34.849  1.00  0.00     0.037 A 
BRANCH  44  58
ATOM     58  C   UNL A   1      36.843  31.076  29.255  1.00  0.00     0.064 A 
ATOM     59  C   UNL A   1      36.780  32.397  28.787  1.00  0.00     0.173 A 
ATOM     60  C   UNL A   1      35.807  30.201  28.902  1.00  0.00     0.173 A 
ATOM     61  F   UNL A   1      37.747  33.273  29.099  1.00  0.00    -0.203 F 
ATOM     62  C   UNL A   1      35.711  32.829  28.005  1.00  0.00     0.198 A 
ATOM     63  C   UNL A   1      34.750  30.631  28.105  1.00  0.00     0.198 A 
ATOM     64  F   UNL A   1      35.831  28.925  29.316  1.00  0.00    -0.203 F 
ATOM     65  F   UNL A   1      35.659  34.102  27.588  1.00  0.00    -0.200 F 
ATOM     66  C   UNL A   1      34.699  31.945  27.663  1.00  0.00     0.200 A 
ATOM     67  F   UNL A   1      33.781  29.772  27.757  1.00  0.00    -0.200 F 
ATOM     68  F   UNL A   1      33.675  32.360  26.904  1.00  0.00    -0.200 F 
ENDBRANCH  44  58
BRANCH  45  69
ATOM     69  C   UNL A   1      44.392  27.907  34.952  1.00  0.00     0.064 A 
ATOM     70  C   UNL A   1      45.590  28.628  35.061  1.00  0.00     0.173 A 
ATOM     71  C   UNL A   1      44.285  26.700  35.656  1.00  0.00     0.173 A 
ATOM     72  F   UNL A   1      45.737  29.789  34.408  1.00  0.00    -0.203 F 
ATOM     73  C   UNL A   1      46.649  28.147  35.827  1.00  0.00     0.198 A 
ATOM     74  C   UNL A   1      45.337  26.233  36.441  1.00  0.00     0.198 A 
ATOM     75  F   UNL A   1      43.149  25.991  35.601  1.00  0.00    -0.203 F 
ATOM     76  F   UNL A   1      47.794  28.840  35.893  1.00  0.00    -0.200 F 
ATOM     77  C   UNL A   1      46.521  26.951  36.518  1.00  0.00     0.200 A 
ATOM     78  F   UNL A   1      45.202  25.090  37.126  1.00  0.00    -0.200 F 
ATOM     79  F   UNL A   1      47.536  26.496  37.264  1.00  0.00    -0.200 F 
ENDBRANCH  45  69
BRANCH  57  80
ATOM     80  C   UNL A   1      38.971  32.153  36.045  1.00  0.00     0.064 A 
ATOM     81  C   UNL A   1      39.349  33.494  36.211  1.00  0.00     0.173 A 
ATOM     82  C   UNL A   1      38.210  31.552  37.057  1.00  0.00     0.173 A 
ATOM     83  F   UNL A   1      40.084  34.109  35.271  1.00  0.00    -0.203 F 
ATOM     84  C   UNL A   1      38.989  34.202  37.353  1.00  0.00     0.198 A 
ATOM     85  C   UNL A   1      37.832  32.271  38.188  1.00  0.00     0.198 A 
ATOM     86  F   UNL A   1      37.813  30.276  36.936  1.00  0.00    -0.203 F 
ATOM     87  F   UNL A   1      39.381  35.475  37.503  1.00  0.00    -0.200 F 
ATOM     88  C   UNL A   1      38.228  33.591  38.339  1.00  0.00     0.200 A 
ATOM     89  F   UNL A   1      37.080  31.686  39.131  1.00  0.00    -0.200 F 
ATOM     90  F   UNL A   1      37.873  34.278  39.433  1.00  0.00    -0.200 F 
ENDBRANCH  57  80
ENDBRANCH  31  32
ENDBRANCH  24  26
ENDBRANCH  23  24
ENDBRANCH  22  23
ENDBRANCH   1  22
TORSDOF 13
ENDMDL
MODEL 2
REMARK VINA RESULT:     -12.3      4.755     11.418
REMARK SMILES Cc1cc(C)cc(-c2ccc([C@@H](C)C(=O)OCCOC(=O)c3ccc(-c4c5nc(c(-c6c(F)c(F)c(F)c(F)c6F)c6ccc([nH]6)c(-c6c(F)c(F)c(F)c(F)c6F)c6nc(c(-c7c(F)c(F)c(F)c(F)c7F)c7ccc4[nH]7)C=C6)C=C5)cc3)cc2F)c1
REMARK SMILES IDX 17 1 16 2 14 3 15 4 12 5 13 6 11 7 8 8 9 9 86 10 10 11 85 12
REMARK SMILES IDX 87 13 7 14 1 15 2 16 3 17 88 18 4 19 5 20 6 21 18 22 19 23
REMARK SMILES IDX 20 24 21 25 22 26 23 27 84 28 24 29 83 30 25 31 26 32 27 33
REMARK SMILES IDX 77 34 28 35 82 36 76 37 78 38 29 39 81 40 75 41 74 42 30 44
REMARK SMILES IDX 62 45 42 46 61 47 43 48 46 49 60 50 79 51 44 52 45 53 59 55
REMARK SMILES IDX 80 56 47 57 31 58 32 59 40 60 33 61 34 62 38 63 41 64 35 65
REMARK SMILES IDX 36 66 39 67 37 68 63 69 64 70 72 71 65 72 66 73 70 74 73 75
REMARK SMILES IDX 67 76 68 77 71 78 69 79 48 80 49 81 57 82 50 83 51 84 55 85
REMARK SMILES IDX 58 86 52 87 53 88 56 89 54 90
REMARK H PARENT 78 43 46 54
REMARK Flexibility Score: inf
ROOT
ATOM      1  C   UNL A   1      33.456  34.007  28.007  1.00  0.00     0.274 C 
ENDROOT
BRANCH   1   2
ATOM      2  O   UNL A   1      32.818  34.321  29.260  1.00  0.00    -0.462 OA
BRANCH   2   3
ATOM      3  C   UNL A   1      32.878  35.615  29.670  1.00  0.00     0.313 C 
ATOM      4  O   UNL A   1      32.844  36.583  28.915  1.00  0.00    -0.252 OA
BRANCH   3   5
ATOM      5  C   UNL A   1      33.049  35.772  31.177  1.00  0.00     0.126 C 
ATOM      6  C   UNL A   1      33.282  37.242  31.521  1.00  0.00     0.025 C 
BRANCH   5   7
ATOM      7  C   UNL A   1      34.066  34.848  31.827  1.00  0.00    -0.031 A 
ATOM      8  C   UNL A   1      35.985  33.082  32.974  1.00  0.00     0.017 A 
ATOM      9  C   UNL A   1      34.715  33.253  33.551  1.00  0.00     0.012 A 
ATOM     10  C   UNL A   1      36.279  33.832  31.831  1.00  0.00     0.131 A 
ATOM     11  C   UNL A   1      33.772  34.121  32.988  1.00  0.00     0.005 A 
ATOM     12  C   UNL A   1      35.339  34.691  31.258  1.00  0.00     0.044 A 
ATOM     13  F   UNL A   1      37.473  33.713  31.229  1.00  0.00    -0.206 F 
BRANCH   8  14
ATOM     14  C   UNL A   1      36.936  32.115  33.541  1.00  0.00    -0.015 A 
ATOM     15  C   UNL A   1      39.421  31.799  36.426  1.00  0.00     0.044 C 
ATOM     16  C   UNL A   1      38.603  31.478  35.211  1.00  0.00    -0.050 A 
ATOM     17  C   UNL A   1      38.724  30.221  34.605  1.00  0.00     0.006 A 
ATOM     18  C   UNL A   1      37.711  32.417  34.671  1.00  0.00     0.012 A 
ATOM     19  C   UNL A   1      37.972  29.897  33.471  1.00  0.00    -0.050 A 
ATOM     20  C   UNL A   1      38.111  28.549  32.831  1.00  0.00     0.044 C 
ATOM     21  C   UNL A   1      37.083  30.847  32.952  1.00  0.00     0.012 A 
ENDBRANCH   8  14
ENDBRANCH   5   7
ENDBRANCH   3   5
ENDBRANCH   2   3
ENDBRANCH   1   2
BRANCH   1  22
ATOM     22  C   UNL A   1      34.625  33.036  28.199  1.00  0.00     0.275 C 
BRANCH  22  23
ATOM     23  O   UNL A   1      34.169  31.753  28.664  1.00  0.00    -0.458 OA
BRANCH  23  24
ATOM     24  C   UNL A   1      34.430  30.719  27.831  1.00  0.00     0.338 C 
ATOM     25  O   UNL A   1      33.738  30.308  26.916  1.00  0.00    -0.246 OA
BRANCH  24  26
ATOM     26  C   UNL A   1      35.782  30.204  28.092  1.00  0.00     0.060 A 
ATOM     27  C   UNL A   1      36.040  29.675  29.357  1.00  0.00     0.016 A 
ATOM     28  C   UNL A   1      36.805  30.322  27.150  1.00  0.00     0.016 A 
ATOM     29  C   UNL A   1      37.327  29.283  29.704  1.00  0.00     0.010 A 
ATOM     30  C   UNL A   1      38.100  29.918  27.495  1.00  0.00     0.010 A 
ATOM     31  C   UNL A   1      38.371  29.413  28.779  1.00  0.00    -0.014 A 
BRANCH  31  32
ATOM     32  C   UNL A   1      39.748  29.060  29.193  1.00  0.00     0.031 A 
ATOM     33  C   UNL A   1      40.497  29.950  30.140  1.00  0.00     0.074 A 
ATOM     34  C   UNL A   1      40.297  27.907  28.769  1.00  0.00     0.049 A 
ATOM     35  N   UNL A   1      41.715  29.824  30.606  1.00  0.00    -0.248 NA
ATOM     36  C   UNL A   1      39.783  31.137  30.634  1.00  0.00     0.031 C 
ATOM     37  C   UNL A   1      39.644  26.938  27.891  1.00  0.00     0.029 A 
ATOM     38  N   UNL A   1      41.524  27.351  29.031  1.00  0.00    -0.354 N 
ATOM     39  C   UNL A   1      41.917  30.918  31.435  1.00  0.00     0.074 A 
ATOM     40  C   UNL A   1      40.704  31.708  31.399  1.00  0.00     0.031 C 
ATOM     41  C   UNL A   1      40.470  25.896  27.700  1.00  0.00     0.029 A 
ATOM     42  C   UNL A   1      41.722  26.145  28.410  1.00  0.00     0.049 A 
ATOM     43  H   UNL A   1      42.196  27.778  29.611  1.00  0.00     0.167 HD
ATOM     44  C   UNL A   1      43.015  31.229  32.164  1.00  0.00     0.037 A 
ATOM     45  C   UNL A   1      42.800  25.337  28.404  1.00  0.00     0.037 A 
ATOM     46  C   UNL A   1      44.212  30.433  32.214  1.00  0.00     0.049 A 
ATOM     47  C   UNL A   1      44.024  25.730  29.182  1.00  0.00     0.074 A 
ATOM     48  C   UNL A   1      45.376  30.669  32.923  1.00  0.00     0.029 A 
ATOM     49  N   UNL A   1      44.395  29.241  31.529  1.00  0.00    -0.354 N 
ATOM     50  N   UNL A   1      44.216  26.782  29.941  1.00  0.00    -0.248 NA
ATOM     51  C   UNL A   1      45.183  24.831  29.097  1.00  0.00     0.031 C 
ATOM     52  C   UNL A   1      46.278  29.637  32.643  1.00  0.00     0.029 A 
ATOM     53  C   UNL A   1      45.661  28.738  31.788  1.00  0.00     0.049 A 
ATOM     54  H   UNL A   1      43.727  28.815  30.945  1.00  0.00     0.167 HD
ATOM     55  C   UNL A   1      45.509  26.668  30.431  1.00  0.00     0.074 A 
ATOM     56  C   UNL A   1      46.052  25.435  29.897  1.00  0.00     0.031 C 
ATOM     57  C   UNL A   1      46.186  27.512  31.245  1.00  0.00     0.037 A 
BRANCH  44  58
ATOM     58  C   UNL A   1      42.983  32.499  32.959  1.00  0.00     0.064 A 
ATOM     59  C   UNL A   1      42.573  32.484  34.300  1.00  0.00     0.173 A 
ATOM     60  C   UNL A   1      43.301  33.735  32.380  1.00  0.00     0.173 A 
ATOM     61  F   UNL A   1      42.255  31.325  34.897  1.00  0.00    -0.203 F 
ATOM     62  C   UNL A   1      42.473  33.665  35.031  1.00  0.00     0.198 A 
ATOM     63  C   UNL A   1      43.219  34.912  33.119  1.00  0.00     0.198 A 
ATOM     64  F   UNL A   1      43.710  33.798  31.104  1.00  0.00    -0.203 F 
ATOM     65  F   UNL A   1      42.057  33.629  36.305  1.00  0.00    -0.200 F 
ATOM     66  C   UNL A   1      42.799  34.877  34.441  1.00  0.00     0.200 A 
ATOM     67  F   UNL A   1      43.553  36.081  32.556  1.00  0.00    -0.200 F 
ATOM     68  F   UNL A   1      42.710  36.012  35.149  1.00  0.00    -0.200 F 
ENDBRANCH  44  58
BRANCH  45  69
ATOM     69  C   UNL A   1      42.762  24.074  27.624  1.00  0.00     0.064 A 
ATOM     70  C   UNL A   1      43.045  24.060  26.251  1.00  0.00     0.173 A 
ATOM     71  C   UNL A   1      42.418  22.861  28.236  1.00  0.00     0.173 A 
ATOM     72  F   UNL A   1      43.380  25.195  25.623  1.00  0.00    -0.203 F 
ATOM     73  C   UNL A   1      42.963  22.881  25.513  1.00  0.00     0.198 A 
ATOM     74  C   UNL A   1      42.361  21.679  27.502  1.00  0.00     0.198 A 
ATOM     75  F   UNL A   1      42.165  22.823  29.552  1.00  0.00    -0.203 F 
ATOM     76  F   UNL A   1      43.210  22.898  24.197  1.00  0.00    -0.200 F 
ATOM     77  C   UNL A   1      42.624  21.691  26.140  1.00  0.00     0.200 A 
ATOM     78  F   UNL A   1      42.056  20.527  28.114  1.00  0.00    -0.200 F 
ATOM     79  F   UNL A   1      42.558  20.556  25.432  1.00  0.00    -0.200 F 
ENDBRANCH  45  69
BRANCH  57  80
ATOM     80  C   UNL A   1      47.589  27.135  31.617  1.00  0.00     0.064 A 
ATOM     81  C   UNL A   1      47.839  26.341  32.746  1.00  0.00     0.173 A 
ATOM     82  C   UNL A   1      48.688  27.613  30.889  1.00  0.00     0.173 A 
ATOM     83  F   UNL A   1      46.818  25.867  33.477  1.00  0.00    -0.203 F 
ATOM     84  C   UNL A   1      49.141  26.047  33.139  1.00  0.00     0.198 A 
ATOM     85  C   UNL A   1      49.989  27.297  31.273  1.00  0.00     0.198 A 
ATOM     86  F   UNL A   1      48.498  28.364  29.794  1.00  0.00    -0.203 F 
ATOM     87  F   UNL A   1      49.357  25.307  34.235  1.00  0.00    -0.200 F 
ATOM     88  C   UNL A   1      50.214  26.522  32.400  1.00  0.00     0.200 A 
ATOM     89  F   UNL A   1      51.025  27.740  30.547  1.00  0.00    -0.200 F 
ATOM     90  F   UNL A   1      51.467  26.229  32.774  1.00  0.00    -0.200 F 
ENDBRANCH  57  80
ENDBRANCH  31  32
ENDBRANCH  24  26
ENDBRANCH  23  24
ENDBRANCH  22  23
ENDBRANCH   1  22
TORSDOF 13
ENDMDL
MODEL 3
REMARK VINA RESULT:     -12.3      1.017      7.471
REMARK SMILES Cc1cc(C)cc(-c2ccc([C@@H](C)C(=O)OCCOC(=O)c3ccc(-c4c5nc(c(-c6c(F)c(F)c(F)c(F)c6F)c6ccc([nH]6)c(-c6c(F)c(F)c(F)c(F)c6F)c6nc(c(-c7c(F)c(F)c(F)c(F)c7F)c7ccc4[nH]7)C=C6)C=C5)cc3)cc2F)c1
REMARK SMILES IDX 17 1 16 2 14 3 15 4 12 5 13 6 11 7 8 8 9 9 86 10 10 11 85 12
REMARK SMILES IDX 87 13 7 14 1 15 2 16 3 17 88 18 4 19 5 20 6 21 18 22 19 23
REMARK SMILES IDX 20 24 21 25 22 26 23 27 84 28 24 29 83 30 25 31 26 32 27 33
REMARK SMILES IDX 77 34 28 35 82 36 76 37 78 38 29 39 81 40 75 41 74 42 30 44
REMARK SMILES IDX 62 45 42 46 61 47 43 48 46 49 60 50 79 51 44 52 45 53 59 55
REMARK SMILES IDX 80 56 47 57 31 58 32 59 40 60 33 61 34 62 38 63 41 64 35 65
REMARK SMILES IDX 36 66 39 67 37 68 63 69 64 70 72 71 65 72 66 73 70 74 73 75
REMARK SMILES IDX 67 76 68 77 71 78 69 79 48 80 49 81 57 82 50 83 51 84 55 85
REMARK SMILES IDX 58 86 52 87 53 88 56 89 54 90
REMARK H PARENT 78 43 46 54
REMARK Flexibility Score: inf
ROOT
ATOM      1  C   UNL A   1      43.724  21.792  25.196  1.00  0.00     0.274 C 
ENDROOT
BRANCH   1   2
ATOM      2  O   UNL A   1      42.292  21.768  25.357  1.00  0.00    -0.462 OA
BRANCH   2   3
ATOM      3  C   UNL A   1      41.819  21.707  26.629  1.00  0.00     0.313 C 
ATOM      4  O   UNL A   1      42.392  22.186  27.604  1.00  0.00    -0.252 OA
BRANCH   3   5
ATOM      5  C   UNL A   1      40.516  20.927  26.761  1.00  0.00     0.126 C 
ATOM      6  C   UNL A   1      40.672  19.547  26.126  1.00  0.00     0.025 C 
BRANCH   5   7
ATOM      7  C   UNL A   1      39.263  21.650  26.295  1.00  0.00    -0.031 A 
ATOM      8  C   UNL A   1      36.923  22.972  25.349  1.00  0.00     0.017 A 
ATOM      9  C   UNL A   1      37.920  23.669  26.052  1.00  0.00     0.012 A 
ATOM     10  C   UNL A   1      37.112  21.601  25.155  1.00  0.00     0.131 A 
ATOM     11  C   UNL A   1      39.069  23.020  26.518  1.00  0.00     0.005 A 
ATOM     12  C   UNL A   1      38.260  20.949  25.606  1.00  0.00     0.044 A 
ATOM     13  F   UNL A   1      36.198  20.876  24.487  1.00  0.00    -0.206 F 
BRANCH   8  14
ATOM     14  C   UNL A   1      35.756  23.685  24.809  1.00  0.00    -0.015 A 
ATOM     15  C   UNL A   1      33.280  23.470  21.907  1.00  0.00     0.044 C 
ATOM     16  C   UNL A   1      33.982  23.937  23.146  1.00  0.00    -0.050 A 
ATOM     17  C   UNL A   1      33.511  25.068  23.827  1.00  0.00     0.006 A 
ATOM     18  C   UNL A   1      35.104  23.257  23.642  1.00  0.00     0.012 A 
ATOM     19  C   UNL A   1      34.148  25.523  24.986  1.00  0.00    -0.050 A 
ATOM     20  C   UNL A   1      33.635  26.734  25.704  1.00  0.00     0.044 C 
ATOM     21  C   UNL A   1      35.263  24.826  25.466  1.00  0.00     0.012 A 
ENDBRANCH   8  14
ENDBRANCH   5   7
ENDBRANCH   3   5
ENDBRANCH   2   3
ENDBRANCH   1   2
BRANCH   1  22
ATOM     22  C   UNL A   1      44.173  22.965  24.321  1.00  0.00     0.275 C 
BRANCH  22  23
ATOM     23  O   UNL A   1      43.434  24.161  24.629  1.00  0.00    -0.458 OA
BRANCH  23  24
ATOM     24  C   UNL A   1      44.184  25.196  25.073  1.00  0.00     0.338 C 
ATOM     25  O   UNL A   1      45.247  25.589  24.626  1.00  0.00    -0.246 OA
BRANCH  24  26
ATOM     26  C   UNL A   1      43.462  25.909  26.137  1.00  0.00     0.060 A 
ATOM     27  C   UNL A   1      43.876  27.205  26.443  1.00  0.00     0.016 A 
ATOM     28  C   UNL A   1      42.462  25.287  26.887  1.00  0.00     0.016 A 
ATOM     29  C   UNL A   1      43.315  27.886  27.518  1.00  0.00     0.010 A 
ATOM     30  C   UNL A   1      41.889  25.975  27.963  1.00  0.00     0.010 A 
ATOM     31  C   UNL A   1      42.325  27.270  28.294  1.00  0.00    -0.014 A 
BRANCH  31  32
ATOM     32  C   UNL A   1      41.793  27.983  29.478  1.00  0.00     0.031 A 
ATOM     33  C   UNL A   1      42.522  27.907  30.788  1.00  0.00     0.074 A 
ATOM     34  C   UNL A   1      40.693  28.748  29.358  1.00  0.00     0.049 A 
ATOM     35  N   UNL A   1      42.208  28.443  31.940  1.00  0.00    -0.248 NA
ATOM     36  C   UNL A   1      43.770  27.131  30.804  1.00  0.00     0.031 C 
ATOM     37  C   UNL A   1      39.934  28.940  28.124  1.00  0.00     0.029 A 
ATOM     38  N   UNL A   1      40.034  29.517  30.283  1.00  0.00    -0.354 N 
ATOM     39  C   UNL A   1      43.211  28.060  32.820  1.00  0.00     0.074 A 
ATOM     40  C   UNL A   1      44.137  27.233  32.074  1.00  0.00     0.031 C 
ATOM     41  C   UNL A   1      38.920  29.788  28.363  1.00  0.00     0.029 A 
ATOM     42  C   UNL A   1      38.937  30.165  29.775  1.00  0.00     0.049 A 
ATOM     43  H   UNL A   1      40.321  29.597  31.222  1.00  0.00     0.167 HD
ATOM     44  C   UNL A   1      43.347  28.377  34.129  1.00  0.00     0.037 A 
ATOM     45  C   UNL A   1      38.039  30.964  30.383  1.00  0.00     0.037 A 
ATOM     46  C   UNL A   1      42.437  29.214  34.864  1.00  0.00     0.049 A 
ATOM     47  C   UNL A   1      38.186  31.259  31.849  1.00  0.00     0.074 A 
ATOM     48  C   UNL A   1      42.492  29.589  36.195  1.00  0.00     0.029 A 
ATOM     49  N   UNL A   1      41.307  29.812  34.326  1.00  0.00    -0.354 N 
ATOM     50  N   UNL A   1      39.122  30.869  32.679  1.00  0.00    -0.248 NA
ATOM     51  C   UNL A   1      37.148  32.098  32.465  1.00  0.00     0.031 C 
ATOM     52  C   UNL A   1      41.378  30.388  36.472  1.00  0.00     0.029 A 
ATOM     53  C   UNL A   1      40.648  30.542  35.304  1.00  0.00     0.049 A 
ATOM     54  H   UNL A   1      41.015  29.731  33.390  1.00  0.00     0.167 HD
ATOM     55  C   UNL A   1      38.795  31.420  33.910  1.00  0.00     0.074 A 
ATOM     56  C   UNL A   1      37.581  32.186  33.716  1.00  0.00     0.031 C 
ATOM     57  C   UNL A   1      39.439  31.295  35.095  1.00  0.00     0.037 A 
BRANCH  44  58
ATOM     58  C   UNL A   1      44.518  27.799  34.864  1.00  0.00     0.064 A 
ATOM     59  C   UNL A   1      44.394  26.577  35.542  1.00  0.00     0.173 A 
ATOM     60  C   UNL A   1      45.741  28.478  34.947  1.00  0.00     0.173 A 
ATOM     61  F   UNL A   1      43.242  25.891  35.495  1.00  0.00    -0.203 F 
ATOM     62  C   UNL A   1      45.453  26.060  36.285  1.00  0.00     0.198 A 
ATOM     63  C   UNL A   1      46.804  27.950  35.674  1.00  0.00     0.198 A 
ATOM     64  F   UNL A   1      45.910  29.644  34.305  1.00  0.00    -0.203 F 
ATOM     65  F   UNL A   1      45.305  24.902  36.943  1.00  0.00    -0.200 F 
ATOM     66  C   UNL A   1      46.656  26.746  36.348  1.00  0.00     0.200 A 
ATOM     67  F   UNL A   1      47.974  28.601  35.720  1.00  0.00    -0.200 F 
ATOM     68  F   UNL A   1      47.677  26.243  37.057  1.00  0.00    -0.200 F 
ENDBRANCH  44  58
BRANCH  45  69
ATOM     69  C   UNL A   1      36.918  31.535  29.595  1.00  0.00     0.064 A 
ATOM     70  C   UNL A   1      36.869  32.902  29.289  1.00  0.00     0.173 A 
ATOM     71  C   UNL A   1      35.862  30.725  29.156  1.00  0.00     0.173 A 
ATOM     72  F   UNL A   1      37.857  33.716  29.686  1.00  0.00    -0.203 F 
ATOM     73  C   UNL A   1      35.792  33.443  28.589  1.00  0.00     0.198 A 
ATOM     74  C   UNL A   1      34.798  31.264  28.436  1.00  0.00     0.198 A 
ATOM     75  F   UNL A   1      35.879  29.408  29.404  1.00  0.00    -0.203 F 
ATOM     76  F   UNL A   1      35.755  34.758  28.333  1.00  0.00    -0.200 F 
ATOM     77  C   UNL A   1      34.759  32.623  28.161  1.00  0.00     0.200 A 
ATOM     78  F   UNL A   1      33.813  30.466  28.003  1.00  0.00    -0.200 F 
ATOM     79  F   UNL A   1      33.730  33.142  27.478  1.00  0.00    -0.200 F 
ENDBRANCH  45  69
BRANCH  57  80
ATOM     80  C   UNL A   1      38.853  32.006  36.277  1.00  0.00     0.064 A 
ATOM     81  C   UNL A   1      39.198  33.338  36.553  1.00  0.00     0.173 A 
ATOM     82  C   UNL A   1      37.997  31.348  37.172  1.00  0.00     0.173 A 
ATOM     83  F   UNL A   1      40.020  34.006  35.728  1.00  0.00    -0.203 F 
ATOM     84  C   UNL A   1      38.715  33.981  37.688  1.00  0.00     0.198 A 
ATOM     85  C   UNL A   1      37.498  32.002  38.294  1.00  0.00     0.198 A 
ATOM     86  F   UNL A   1      37.629  30.078  36.942  1.00  0.00    -0.203 F 
ATOM     87  F   UNL A   1      39.076  35.246  37.944  1.00  0.00    -0.200 F 
ATOM     88  C   UNL A   1      37.863  33.315  38.555  1.00  0.00     0.200 A 
ATOM     89  F   UNL A   1      36.659  31.365  39.122  1.00  0.00    -0.200 F 
ATOM     90  F   UNL A   1      37.390  33.940  39.642  1.00  0.00    -0.200 F 
ENDBRANCH  57  80
ENDBRANCH  31  32
ENDBRANCH  24  26
ENDBRANCH  23  24
ENDBRANCH  22  23
ENDBRANCH   1  22
TORSDOF 13
ENDMDL
