MODEL 1
REMARK VINA RESULT:     -13.2      0.000      0.000
REMARK SMILES Cc1ccc(-c2nn(-c3ccccc3)cc2[C@@H]2[NH2+][C@H](C(=O)OCCOC(=O)c3ccc(-c4c5nc(c(-c6c(F)c(F)c(F)c(F)c6F)c6ccc([nH]6)c(-c6c(F)c(F)c(F)c(F)c6F)c6nc(c(-c7c(F)c(F)c(F)c(F)c7F)c7ccc4[nH]7)C=C6)C=C5)cc3)CS2)cc1
REMARK SMILES IDX 23 1 22 2 20 3 21 4 19 5 17 6 18 7 92 8 91 11 16 12 6 13
REMARK SMILES IDX 7 14 8 15 15 16 5 17 1 18 2 19 3 20 94 21 4 22 93 23 9 24
REMARK SMILES IDX 10 25 14 26 11 27 13 28 12 29 24 30 25 31 26 32 27 33 28 34
REMARK SMILES IDX 29 35 90 36 30 37 89 38 31 39 32 40 33 41 83 42 34 43 88 44
REMARK SMILES IDX 82 45 84 46 35 47 87 48 81 49 80 50 36 52 68 53 48 54 67 55
REMARK SMILES IDX 49 56 52 57 66 58 85 59 50 60 51 61 65 63 86 64 53 65 37 66
REMARK SMILES IDX 38 67 46 68 39 69 40 70 44 71 47 72 41 73 42 74 45 75 43 76
REMARK SMILES IDX 69 77 70 78 78 79 71 80 72 81 76 82 79 83 73 84 74 85 77 86
REMARK SMILES IDX 75 87 54 88 55 89 63 90 56 91 57 92 61 93 64 94 58 95 59 96
REMARK SMILES IDX 62 97 60 98
REMARK H PARENT 18 9 18 10 84 51 52 62
REMARK Flexibility Score: inf
ROOT
ATOM      1  C   UNL A   1      31.908  29.160  27.270  1.00  0.00     0.274 C 
ENDROOT
BRANCH   1   2
ATOM      2  O   UNL A   1      31.765  28.261  26.149  1.00  0.00    -0.458 OA
BRANCH   2   3
ATOM      3  C   UNL A   1      32.414  27.082  26.260  1.00  0.00     0.365 C 
ATOM      4  O   UNL A   1      31.980  26.159  26.941  1.00  0.00    -0.245 OA
BRANCH   3   5
ATOM      5  C   UNL A   1      33.766  27.003  25.513  1.00  0.00     0.304 C 
ATOM      6  C   UNL A   1      33.477  25.720  23.504  1.00  0.00     0.278 C 
ATOM      7  N   UNL A   1      33.887  25.647  24.912  1.00  0.00    -0.319 N 
ATOM      8  S   UNL A   1      34.436  27.127  22.906  1.00  0.00    -0.087 SA
ATOM      9  H   UNL A   1      34.855  25.330  24.972  1.00  0.00     0.348 HD
ATOM     10  H   UNL A   1      33.292  24.989  25.415  1.00  0.00     0.348 HD
ATOM     11  C   UNL A   1      34.146  28.038  24.448  1.00  0.00     0.153 C 
BRANCH   6  12
ATOM     12  C   UNL A   1      31.994  25.950  23.393  1.00  0.00     0.067 A 
ATOM     13  C   UNL A   1      30.949  25.070  23.788  1.00  0.00     0.103 A 
ATOM     14  N   UNL A   1      29.745  25.664  23.743  1.00  0.00    -0.167 NA
ATOM     15  N   UNL A   1      29.982  26.879  23.191  1.00  0.00    -0.240 N 
ATOM     16  C   UNL A   1      31.300  26.998  22.821  1.00  0.00     0.126 A 
BRANCH  13  17
ATOM     17  C   UNL A   1      31.146  23.655  24.053  1.00  0.00     0.003 A 
ATOM     18  C   UNL A   1      32.710  19.730  24.846  1.00  0.00     0.044 C 
ATOM     19  C   UNL A   1      32.129  21.081  24.555  1.00  0.00    -0.051 A 
ATOM     20  C   UNL A   1      31.600  21.852  25.596  1.00  0.00     0.004 A 
ATOM     21  C   UNL A   1      32.128  21.591  23.254  1.00  0.00     0.004 A 
ATOM     22  C   UNL A   1      31.103  23.133  25.345  1.00  0.00     0.011 A 
ATOM     23  C   UNL A   1      31.637  22.870  23.004  1.00  0.00     0.011 A 
ENDBRANCH  13  17
BRANCH  15  24
ATOM     24  C   UNL A   1      28.990  27.901  23.112  1.00  0.00     0.065 A 
ATOM     25  C   UNL A   1      27.667  27.627  23.473  1.00  0.00     0.028 A 
ATOM     26  C   UNL A   1      29.336  29.211  22.748  1.00  0.00     0.028 A 
ATOM     27  C   UNL A   1      26.729  28.665  23.532  1.00  0.00     0.002 A 
ATOM     28  C   UNL A   1      28.402  30.246  22.814  1.00  0.00     0.002 A 
ATOM     29  C   UNL A   1      27.099  29.973  23.217  1.00  0.00     0.000 A 
ENDBRANCH  15  24
ENDBRANCH   6  12
ENDBRANCH   3   5
ENDBRANCH   2   3
ENDBRANCH   1   2
BRANCH   1  30
ATOM     30  C   UNL A   1      33.062  30.206  27.246  1.00  0.00     0.275 C 
BRANCH  30  31
ATOM     31  O   UNL A   1      34.446  29.947  27.657  1.00  0.00    -0.458 OA
BRANCH  31  32
ATOM     32  C   UNL A   1      35.407  30.878  27.933  1.00  0.00     0.338 C 
ATOM     33  O   UNL A   1      35.315  32.052  27.709  1.00  0.00    -0.246 OA
BRANCH  32  34
ATOM     34  C   UNL A   1      36.655  30.263  28.437  1.00  0.00     0.060 A 
ATOM     35  C   UNL A   1      36.681  29.409  29.555  1.00  0.00     0.016 A 
ATOM     36  C   UNL A   1      37.762  30.395  27.629  1.00  0.00     0.016 A 
ATOM     37  C   UNL A   1      37.816  28.618  29.779  1.00  0.00     0.010 A 
ATOM     38  C   UNL A   1      38.642  29.361  27.624  1.00  0.00     0.010 A 
ATOM     39  C   UNL A   1      38.773  28.570  28.768  1.00  0.00    -0.014 A 
BRANCH  39  40
ATOM     40  C   UNL A   1      40.119  28.013  28.829  1.00  0.00     0.031 A 
ATOM     41  C   UNL A   1      40.424  26.642  28.412  1.00  0.00     0.074 A 
ATOM     42  C   UNL A   1      41.033  29.004  28.961  1.00  0.00     0.049 A 
ATOM     43  N   UNL A   1      41.278  25.850  28.956  1.00  0.00    -0.248 NA
ATOM     44  C   UNL A   1      39.744  26.037  27.277  1.00  0.00     0.031 C 
ATOM     45  C   UNL A   1      42.458  29.078  28.735  1.00  0.00     0.029 A 
ATOM     46  N   UNL A   1      40.718  30.304  29.413  1.00  0.00    -0.354 N 
ATOM     47  C   UNL A   1      41.515  24.844  28.030  1.00  0.00     0.074 A 
ATOM     48  C   UNL A   1      40.390  24.873  27.134  1.00  0.00     0.031 C 
ATOM     49  C   UNL A   1      42.924  30.159  29.405  1.00  0.00     0.029 A 
ATOM     50  C   UNL A   1      41.806  30.749  30.147  1.00  0.00     0.049 A 
ATOM     51  H   UNL A   1      39.886  30.800  29.241  1.00  0.00     0.167 HD
ATOM     52  C   UNL A   1      42.774  24.323  27.901  1.00  0.00     0.037 A 
ATOM     53  C   UNL A   1      41.604  30.786  31.498  1.00  0.00     0.037 A 
ATOM     54  C   UNL A   1      43.690  25.124  28.710  1.00  0.00     0.049 A 
ATOM     55  C   UNL A   1      42.400  29.685  32.143  1.00  0.00     0.074 A 
ATOM     56  C   UNL A   1      44.511  26.181  28.356  1.00  0.00     0.029 A 
ATOM     57  N   UNL A   1      43.539  25.180  30.088  1.00  0.00    -0.354 N 
ATOM     58  N   UNL A   1      42.711  28.566  31.549  1.00  0.00    -0.248 NA
ATOM     59  C   UNL A   1      42.943  29.792  33.488  1.00  0.00     0.031 C 
ATOM     60  C   UNL A   1      44.781  26.930  29.528  1.00  0.00     0.029 A 
ATOM     61  C   UNL A   1      44.119  26.333  30.587  1.00  0.00     0.049 A 
ATOM     62  H   UNL A   1      43.083  24.498  30.633  1.00  0.00     0.167 HD
ATOM     63  C   UNL A   1      43.518  27.837  32.368  1.00  0.00     0.074 A 
ATOM     64  C   UNL A   1      43.627  28.640  33.575  1.00  0.00     0.031 C 
ATOM     65  C   UNL A   1      44.048  26.634  32.006  1.00  0.00     0.037 A 
BRANCH  52  66
ATOM     66  C   UNL A   1      43.270  23.387  26.808  1.00  0.00     0.064 A 
ATOM     67  C   UNL A   1      43.036  21.992  26.892  1.00  0.00     0.173 A 
ATOM     68  C   UNL A   1      43.940  23.793  25.637  1.00  0.00     0.173 A 
ATOM     69  F   UNL A   1      42.330  21.457  27.897  1.00  0.00    -0.203 F 
ATOM     70  C   UNL A   1      43.498  21.082  25.938  1.00  0.00     0.198 A 
ATOM     71  C   UNL A   1      44.426  22.876  24.690  1.00  0.00     0.198 A 
ATOM     72  F   UNL A   1      44.102  25.090  25.343  1.00  0.00    -0.203 F 
ATOM     73  F   UNL A   1      43.243  19.774  26.089  1.00  0.00    -0.200 F 
ATOM     74  C   UNL A   1      44.210  21.521  24.844  1.00  0.00     0.200 A 
ATOM     75  F   UNL A   1      45.097  23.320  23.617  1.00  0.00    -0.200 F 
ATOM     76  F   UNL A   1      44.662  20.648  23.933  1.00  0.00    -0.200 F 
ENDBRANCH  52  66
BRANCH  53  77
ATOM     77  C   UNL A   1      40.194  31.178  31.887  1.00  0.00     0.064 A 
ATOM     78  C   UNL A   1      39.323  30.183  32.393  1.00  0.00     0.173 A 
ATOM     79  C   UNL A   1      39.782  32.508  32.066  1.00  0.00     0.173 A 
ATOM     80  F   UNL A   1      39.653  28.884  32.283  1.00  0.00    -0.203 F 
ATOM     81  C   UNL A   1      38.168  30.498  33.115  1.00  0.00     0.198 A 
ATOM     82  C   UNL A   1      38.606  32.821  32.766  1.00  0.00     0.198 A 
ATOM     83  F   UNL A   1      40.550  33.521  31.642  1.00  0.00    -0.203 F 
ATOM     84  F   UNL A   1      37.442  29.521  33.679  1.00  0.00    -0.200 F 
ATOM     85  C   UNL A   1      37.815  31.819  33.309  1.00  0.00     0.200 A 
ATOM     86  F   UNL A   1      38.280  34.103  32.987  1.00  0.00    -0.200 F 
ATOM     87  F   UNL A   1      36.748  32.129  34.060  1.00  0.00    -0.200 F 
ENDBRANCH  53  77
BRANCH  65  88
ATOM     88  C   UNL A   1      44.638  25.666  32.982  1.00  0.00     0.064 A 
ATOM     89  C   UNL A   1      46.004  25.345  32.995  1.00  0.00     0.173 A 
ATOM     90  C   UNL A   1      43.864  25.147  34.043  1.00  0.00     0.173 A 
ATOM     91  F   UNL A   1      46.861  25.907  32.132  1.00  0.00    -0.203 F 
ATOM     92  C   UNL A   1      46.538  24.470  33.935  1.00  0.00     0.198 A 
ATOM     93  C   UNL A   1      44.419  24.338  35.028  1.00  0.00     0.198 A 
ATOM     94  F   UNL A   1      42.561  25.436  34.172  1.00  0.00    -0.203 F 
ATOM     95  F   UNL A   1      47.831  24.130  33.859  1.00  0.00    -0.200 F 
ATOM     96  C   UNL A   1      45.749  23.973  34.955  1.00  0.00     0.200 A 
ATOM     97  F   UNL A   1      43.663  23.930  36.055  1.00  0.00    -0.200 F 
ATOM     98  F   UNL A   1      46.275  23.162  35.880  1.00  0.00    -0.200 F 
ENDBRANCH  65  88
ENDBRANCH  39  40
ENDBRANCH  32  34
ENDBRANCH  31  32
ENDBRANCH  30  31
ENDBRANCH   1  30
TORSDOF 14
ENDMDL
MODEL 2
REMARK VINA RESULT:     -13.0      3.824      9.950
REMARK SMILES Cc1ccc(-c2nn(-c3ccccc3)cc2[C@@H]2[NH2+][C@H](C(=O)OCCOC(=O)c3ccc(-c4c5nc(c(-c6c(F)c(F)c(F)c(F)c6F)c6ccc([nH]6)c(-c6c(F)c(F)c(F)c(F)c6F)c6nc(c(-c7c(F)c(F)c(F)c(F)c7F)c7ccc4[nH]7)C=C6)C=C5)cc3)CS2)cc1
REMARK SMILES IDX 23 1 22 2 20 3 21 4 19 5 17 6 18 7 92 8 91 11 16 12 6 13
REMARK SMILES IDX 7 14 8 15 15 16 5 17 1 18 2 19 3 20 94 21 4 22 93 23 9 24
REMARK SMILES IDX 10 25 14 26 11 27 13 28 12 29 24 30 25 31 26 32 27 33 28 34
REMARK SMILES IDX 29 35 90 36 30 37 89 38 31 39 32 40 33 41 83 42 34 43 88 44
REMARK SMILES IDX 82 45 84 46 35 47 87 48 81 49 80 50 36 52 68 53 48 54 67 55
REMARK SMILES IDX 49 56 52 57 66 58 85 59 50 60 51 61 65 63 86 64 53 65 37 66
REMARK SMILES IDX 38 67 46 68 39 69 40 70 44 71 47 72 41 73 42 74 45 75 43 76
REMARK SMILES IDX 69 77 70 78 78 79 71 80 72 81 76 82 79 83 73 84 74 85 77 86
REMARK SMILES IDX 75 87 54 88 55 89 63 90 56 91 57 92 61 93 64 94 58 95 59 96
REMARK SMILES IDX 62 97 60 98
REMARK H PARENT 18 9 18 10 84 51 52 62
REMARK Flexibility Score: inf
ROOT
ATOM      1  C   UNL A   1      37.089  23.697  24.692  1.00  0.00     0.274 C 
ENDROOT
BRANCH   1   2
ATOM      2  O   UNL A   1      35.840  22.987  24.543  1.00  0.00    -0.458 OA
BRANCH   2   3
ATOM      3  C   UNL A   1      35.488  22.201  25.584  1.00  0.00     0.365 C 
ATOM      4  O   UNL A   1      35.651  20.985  25.569  1.00  0.00    -0.245 OA
BRANCH   3   5
ATOM      5  C   UNL A   1      34.817  22.938  26.766  1.00  0.00     0.304 C 
ATOM      6  C   UNL A   1      32.452  23.065  26.368  1.00  0.00     0.278 C 
ATOM      7  N   UNL A   1      33.722  23.788  26.223  1.00  0.00    -0.319 N 
ATOM      8  S   UNL A   1      32.506  22.555  28.098  1.00  0.00    -0.087 SA
ATOM      9  H   UNL A   1      33.679  24.666  26.742  1.00  0.00     0.348 HD
ATOM     10  H   UNL A   1      33.897  23.994  25.240  1.00  0.00     0.348 HD
ATOM     11  C   UNL A   1      34.274  22.169  27.976  1.00  0.00     0.153 C 
BRANCH   6  12
ATOM     12  C   UNL A   1      32.397  21.893  25.427  1.00  0.00     0.067 A 
ATOM     13  C   UNL A   1      32.372  21.924  24.005  1.00  0.00     0.103 A 
ATOM     14  N   UNL A   1      32.532  20.702  23.471  1.00  0.00    -0.167 NA
ATOM     15  N   UNL A   1      32.521  19.859  24.533  1.00  0.00    -0.240 N 
ATOM     16  C   UNL A   1      32.271  20.545  25.697  1.00  0.00     0.126 A 
BRANCH  13  17
ATOM     17  C   UNL A   1      32.053  23.111  23.232  1.00  0.00     0.003 A 
ATOM     18  C   UNL A   1      31.311  27.103  21.817  1.00  0.00     0.044 C 
ATOM     19  C   UNL A   1      31.546  25.696  22.278  1.00  0.00    -0.051 A 
ATOM     20  C   UNL A   1      32.761  25.062  21.992  1.00  0.00     0.004 A 
ATOM     21  C   UNL A   1      30.572  25.014  23.012  1.00  0.00     0.004 A 
ATOM     22  C   UNL A   1      33.011  23.771  22.462  1.00  0.00     0.011 A 
ATOM     23  C   UNL A   1      30.823  23.728  23.484  1.00  0.00     0.011 A 
ENDBRANCH  13  17
BRANCH  15  24
ATOM     24  C   UNL A   1      32.828  18.471  24.423  1.00  0.00     0.065 A 
ATOM     25  C   UNL A   1      33.445  17.975  23.269  1.00  0.00     0.028 A 
ATOM     26  C   UNL A   1      32.589  17.595  25.493  1.00  0.00     0.028 A 
ATOM     27  C   UNL A   1      33.874  16.643  23.223  1.00  0.00     0.002 A 
ATOM     28  C   UNL A   1      33.023  16.269  25.448  1.00  0.00     0.002 A 
ATOM     29  C   UNL A   1      33.676  15.796  24.314  1.00  0.00     0.000 A 
ENDBRANCH  15  24
ENDBRANCH   6  12
ENDBRANCH   3   5
ENDBRANCH   2   3
ENDBRANCH   1   2
BRANCH   1  30
ATOM     30  C   UNL A   1      38.048  23.285  25.847  1.00  0.00     0.275 C 
BRANCH  30  31
ATOM     31  O   UNL A   1      38.445  24.148  26.966  1.00  0.00    -0.458 OA
BRANCH  31  32
ATOM     32  C   UNL A   1      39.714  24.378  27.414  1.00  0.00     0.338 C 
ATOM     33  O   UNL A   1      40.545  23.532  27.599  1.00  0.00    -0.246 OA
BRANCH  32  34
ATOM     34  C   UNL A   1      39.933  25.795  27.774  1.00  0.00     0.060 A 
ATOM     35  C   UNL A   1      40.217  26.786  26.816  1.00  0.00     0.016 A 
ATOM     36  C   UNL A   1      39.633  26.141  29.073  1.00  0.00     0.016 A 
ATOM     37  C   UNL A   1      40.093  28.135  27.177  1.00  0.00     0.010 A 
ATOM     38  C   UNL A   1      39.134  27.388  29.275  1.00  0.00     0.010 A 
ATOM     39  C   UNL A   1      39.499  28.418  28.405  1.00  0.00    -0.014 A 
BRANCH  39  40
ATOM     40  C   UNL A   1      39.445  29.695  29.105  1.00  0.00     0.031 A 
ATOM     41  C   UNL A   1      38.386  30.680  28.868  1.00  0.00     0.074 A 
ATOM     42  C   UNL A   1      40.248  29.668  30.196  1.00  0.00     0.049 A 
ATOM     43  N   UNL A   1      38.520  31.959  28.865  1.00  0.00    -0.248 NA
ATOM     44  C   UNL A   1      37.019  30.260  28.608  1.00  0.00     0.031 C 
ATOM     45  C   UNL A   1      40.325  30.473  31.393  1.00  0.00     0.029 A 
ATOM     46  N   UNL A   1      41.294  28.737  30.374  1.00  0.00    -0.354 N 
ATOM     47  C   UNL A   1      37.240  32.480  28.993  1.00  0.00     0.074 A 
ATOM     48  C   UNL A   1      36.352  31.421  28.594  1.00  0.00     0.031 C 
ATOM     49  C   UNL A   1      41.547  30.274  31.942  1.00  0.00     0.029 A 
ATOM     50  C   UNL A   1      42.309  29.395  31.048  1.00  0.00     0.049 A 
ATOM     51  H   UNL A   1      41.302  27.798  30.077  1.00  0.00     0.167 HD
ATOM     52  C   UNL A   1      37.038  33.612  29.735  1.00  0.00     0.037 A 
ATOM     53  C   UNL A   1      43.399  29.698  30.282  1.00  0.00     0.037 A 
ATOM     54  C   UNL A   1      38.287  33.943  30.418  1.00  0.00     0.049 A 
ATOM     55  C   UNL A   1      43.433  31.181  30.040  1.00  0.00     0.074 A 
ATOM     56  C   UNL A   1      38.716  33.645  31.701  1.00  0.00     0.029 A 
ATOM     57  N   UNL A   1      39.418  34.274  29.686  1.00  0.00    -0.354 N 
ATOM     58  N   UNL A   1      42.372  31.939  30.012  1.00  0.00    -0.248 NA
ATOM     59  C   UNL A   1      44.672  31.920  29.862  1.00  0.00     0.031 C 
ATOM     60  C   UNL A   1      40.132  33.713  31.709  1.00  0.00     0.029 A 
ATOM     61  C   UNL A   1      40.558  34.044  30.434  1.00  0.00     0.049 A 
ATOM     62  H   UNL A   1      39.410  34.623  28.764  1.00  0.00     0.167 HD
ATOM     63  C   UNL A   1      42.757  33.238  29.875  1.00  0.00     0.074 A 
ATOM     64  C   UNL A   1      44.205  33.176  29.774  1.00  0.00     0.031 C 
ATOM     65  C   UNL A   1      41.872  34.275  29.860  1.00  0.00     0.037 A 
BRANCH  52  66
ATOM     66  C   UNL A   1      35.702  34.198  30.167  1.00  0.00     0.064 A 
ATOM     67  C   UNL A   1      34.839  34.801  29.219  1.00  0.00     0.173 A 
ATOM     68  C   UNL A   1      35.188  34.163  31.478  1.00  0.00     0.173 A 
ATOM     69  F   UNL A   1      35.140  34.831  27.914  1.00  0.00    -0.203 F 
ATOM     70  C   UNL A   1      33.618  35.388  29.563  1.00  0.00     0.198 A 
ATOM     71  C   UNL A   1      33.972  34.773  31.828  1.00  0.00     0.198 A 
ATOM     72  F   UNL A   1      35.819  33.496  32.454  1.00  0.00    -0.203 F 
ATOM     73  F   UNL A   1      32.858  35.947  28.609  1.00  0.00    -0.200 F 
ATOM     74  C   UNL A   1      33.191  35.390  30.872  1.00  0.00     0.200 A 
ATOM     75  F   UNL A   1      33.557  34.748  33.103  1.00  0.00    -0.200 F 
ATOM     76  F   UNL A   1      32.024  35.960  31.203  1.00  0.00    -0.200 F 
ENDBRANCH  52  66
BRANCH  53  77
ATOM     77  C   UNL A   1      43.716  28.642  29.243  1.00  0.00     0.064 A 
ATOM     78  C   UNL A   1      43.916  27.305  29.667  1.00  0.00     0.173 A 
ATOM     79  C   UNL A   1      43.529  28.831  27.865  1.00  0.00     0.173 A 
ATOM     80  F   UNL A   1      44.081  27.034  30.974  1.00  0.00    -0.203 F 
ATOM     81  C   UNL A   1      43.838  26.223  28.786  1.00  0.00     0.198 A 
ATOM     82  C   UNL A   1      43.481  27.744  26.978  1.00  0.00     0.198 A 
ATOM     83  F   UNL A   1      43.309  30.056  27.370  1.00  0.00    -0.203 F 
ATOM     84  F   UNL A   1      43.912  24.968  29.256  1.00  0.00    -0.200 F 
ATOM     85  C   UNL A   1      43.610  26.443  27.442  1.00  0.00     0.200 A 
ATOM     86  F   UNL A   1      43.223  27.952  25.678  1.00  0.00    -0.200 F 
ATOM     87  F   UNL A   1      43.463  25.406  26.604  1.00  0.00    -0.200 F 
ENDBRANCH  53  77
BRANCH  65  88
ATOM     88  C   UNL A   1      42.218  35.648  29.373  1.00  0.00     0.064 A 
ATOM     89  C   UNL A   1      43.051  36.516  30.094  1.00  0.00     0.173 A 
ATOM     90  C   UNL A   1      41.842  36.072  28.080  1.00  0.00     0.173 A 
ATOM     91  F   UNL A   1      43.597  36.151  31.262  1.00  0.00    -0.203 F 
ATOM     92  C   UNL A   1      43.389  37.773  29.606  1.00  0.00     0.198 A 
ATOM     93  C   UNL A   1      42.250  37.295  27.562  1.00  0.00     0.198 A 
ATOM     94  F   UNL A   1      41.099  35.299  27.273  1.00  0.00    -0.203 F 
ATOM     95  F   UNL A   1      44.120  38.601  30.363  1.00  0.00    -0.200 F 
ATOM     96  C   UNL A   1      42.996  38.160  28.338  1.00  0.00     0.200 A 
ATOM     97  F   UNL A   1      41.930  37.623  26.303  1.00  0.00    -0.200 F 
ATOM     98  F   UNL A   1      43.356  39.356  27.856  1.00  0.00    -0.200 F 
ENDBRANCH  65  88
ENDBRANCH  39  40
ENDBRANCH  32  34
ENDBRANCH  31  32
ENDBRANCH  30  31
ENDBRANCH   1  30
TORSDOF 14
ENDMDL
MODEL 3
REMARK VINA RESULT:     -12.9      3.518      9.532
REMARK SMILES Cc1ccc(-c2nn(-c3ccccc3)cc2[C@@H]2[NH2+][C@H](C(=O)OCCOC(=O)c3ccc(-c4c5nc(c(-c6c(F)c(F)c(F)c(F)c6F)c6ccc([nH]6)c(-c6c(F)c(F)c(F)c(F)c6F)c6nc(c(-c7c(F)c(F)c(F)c(F)c7F)c7ccc4[nH]7)C=C6)C=C5)cc3)CS2)cc1
REMARK SMILES IDX 23 1 22 2 20 3 21 4 19 5 17 6 18 7 92 8 91 11 16 12 6 13
REMARK SMILES IDX 7 14 8 15 15 16 5 17 1 18 2 19 3 20 94 21 4 22 93 23 9 24
REMARK SMILES IDX 10 25 14 26 11 27 13 28 12 29 24 30 25 31 26 32 27 33 28 34
REMARK SMILES IDX 29 35 90 36 30 37 89 38 31 39 32 40 33 41 83 42 34 43 88 44
REMARK SMILES IDX 82 45 84 46 35 47 87 48 81 49 80 50 36 52 68 53 48 54 67 55
REMARK SMILES IDX 49 56 52 57 66 58 85 59 50 60 51 61 65 63 86 64 53 65 37 66
REMARK SMILES IDX 38 67 46 68 39 69 40 70 44 71 47 72 41 73 42 74 45 75 43 76
REMARK SMILES IDX 69 77 70 78 78 79 71 80 72 81 76 82 79 83 73 84 74 85 77 86
REMARK SMILES IDX 75 87 54 88 55 89 63 90 56 91 57 92 61 93 64 94 58 95 59 96
REMARK SMILES IDX 62 97 60 98
REMARK H PARENT 18 9 18 10 84 51 52 62
REMARK Flexibility Score: inf
ROOT
ATOM      1  C   UNL A   1      37.040  23.301  24.439  1.00  0.00     0.274 C 
ENDROOT
BRANCH   1   2
ATOM      2  O   UNL A   1      35.651  22.941  24.603  1.00  0.00    -0.458 OA
BRANCH   2   3
ATOM      3  C   UNL A   1      35.369  22.181  25.683  1.00  0.00     0.365 C 
ATOM      4  O   UNL A   1      35.633  20.984  25.728  1.00  0.00    -0.245 OA
BRANCH   3   5
ATOM      5  C   UNL A   1      34.641  22.918  26.832  1.00  0.00     0.304 C 
ATOM      6  C   UNL A   1      32.304  23.078  26.301  1.00  0.00     0.278 C 
ATOM      7  N   UNL A   1      33.589  23.786  26.234  1.00  0.00    -0.319 N 
ATOM      8  S   UNL A   1      32.254  22.555  28.028  1.00  0.00    -0.087 SA
ATOM      9  H   UNL A   1      33.527  24.660  26.757  1.00  0.00     0.348 HD
ATOM     10  H   UNL A   1      33.822  23.996  25.264  1.00  0.00     0.348 HD
ATOM     11  C   UNL A   1      34.021  22.147  28.003  1.00  0.00     0.153 C 
BRANCH   6  12
ATOM     12  C   UNL A   1      32.288  21.913  25.349  1.00  0.00     0.067 A 
ATOM     13  C   UNL A   1      32.318  21.955  23.928  1.00  0.00     0.103 A 
ATOM     14  N   UNL A   1      32.501  20.738  23.391  1.00  0.00    -0.167 NA
ATOM     15  N   UNL A   1      32.452  19.886  24.444  1.00  0.00    -0.240 N 
ATOM     16  C   UNL A   1      32.156  20.562  25.604  1.00  0.00     0.126 A 
BRANCH  13  17
ATOM     17  C   UNL A   1      32.026  23.148  23.152  1.00  0.00     0.003 A 
ATOM     18  C   UNL A   1      31.379  27.153  21.729  1.00  0.00     0.044 C 
ATOM     19  C   UNL A   1      31.581  25.743  22.193  1.00  0.00    -0.051 A 
ATOM     20  C   UNL A   1      32.777  25.076  21.904  1.00  0.00     0.004 A 
ATOM     21  C   UNL A   1      30.593  25.088  22.934  1.00  0.00     0.004 A 
ATOM     22  C   UNL A   1      32.997  23.780  22.376  1.00  0.00     0.011 A 
ATOM     23  C   UNL A   1      30.814  23.797  23.408  1.00  0.00     0.011 A 
ENDBRANCH  13  17
BRANCH  15  24
ATOM     24  C   UNL A   1      32.766  18.500  24.335  1.00  0.00     0.065 A 
ATOM     25  C   UNL A   1      33.394  18.008  23.186  1.00  0.00     0.028 A 
ATOM     26  C   UNL A   1      32.524  17.622  25.403  1.00  0.00     0.028 A 
ATOM     27  C   UNL A   1      33.830  16.679  23.141  1.00  0.00     0.002 A 
ATOM     28  C   UNL A   1      32.965  16.298  25.359  1.00  0.00     0.002 A 
ATOM     29  C   UNL A   1      33.628  15.830  24.230  1.00  0.00     0.000 A 
ENDBRANCH  15  24
ENDBRANCH   6  12
ENDBRANCH   3   5
ENDBRANCH   2   3
ENDBRANCH   1   2
BRANCH   1  30
ATOM     30  C   UNL A   1      37.859  23.707  25.701  1.00  0.00     0.275 C 
BRANCH  30  31
ATOM     31  O   UNL A   1      38.902  22.891  26.331  1.00  0.00    -0.458 OA
BRANCH  31  32
ATOM     32  C   UNL A   1      40.244  23.145  26.348  1.00  0.00     0.338 C 
ATOM     33  O   UNL A   1      41.100  22.354  26.063  1.00  0.00    -0.246 OA
BRANCH  32  34
ATOM     34  C   UNL A   1      40.554  24.489  26.883  1.00  0.00     0.060 A 
ATOM     35  C   UNL A   1      40.883  25.577  26.054  1.00  0.00     0.016 A 
ATOM     36  C   UNL A   1      40.293  24.680  28.221  1.00  0.00     0.016 A 
ATOM     37  C   UNL A   1      40.846  26.873  26.587  1.00  0.00     0.010 A 
ATOM     38  C   UNL A   1      39.873  25.918  28.592  1.00  0.00     0.010 A 
ATOM     39  C   UNL A   1      40.287  27.028  27.853  1.00  0.00    -0.014 A 
BRANCH  39  40
ATOM     40  C   UNL A   1      40.320  28.205  28.713  1.00  0.00     0.031 A 
ATOM     41  C   UNL A   1      39.295  29.251  28.658  1.00  0.00     0.074 A 
ATOM     42  C   UNL A   1      41.170  28.008  29.749  1.00  0.00     0.049 A 
ATOM     43  N   UNL A   1      39.482  30.514  28.811  1.00  0.00    -0.248 NA
ATOM     44  C   UNL A   1      37.900  28.918  28.417  1.00  0.00     0.031 C 
ATOM     45  C   UNL A   1      41.337  28.647  31.033  1.00  0.00     0.029 A 
ATOM     46  N   UNL A   1      42.183  27.023  29.753  1.00  0.00    -0.354 N 
ATOM     47  C   UNL A   1      38.234  31.060  29.070  1.00  0.00     0.074 A 
ATOM     48  C   UNL A   1      37.283  30.094  28.585  1.00  0.00     0.031 C 
ATOM     49  C   UNL A   1      42.573  28.334  31.489  1.00  0.00     0.029 A 
ATOM     50  C   UNL A   1      43.255  27.552  30.453  1.00  0.00     0.049 A 
ATOM     51  H   UNL A   1      42.136  26.132  29.338  1.00  0.00     0.167 HD
ATOM     52  C   UNL A   1      38.115  32.093  29.960  1.00  0.00     0.037 A 
ATOM     53  C   UNL A   1      44.320  27.911  29.677  1.00  0.00     0.037 A 
ATOM     54  C   UNL A   1      39.406  32.287  30.615  1.00  0.00     0.049 A 
ATOM     55  C   UNL A   1      44.406  29.410  29.625  1.00  0.00     0.074 A 
ATOM     56  C   UNL A   1      39.881  31.810  31.825  1.00  0.00     0.029 A 
ATOM     57  N   UNL A   1      40.516  32.668  29.874  1.00  0.00    -0.354 N 
ATOM     58  N   UNL A   1      43.379  30.205  29.748  1.00  0.00    -0.248 NA
ATOM     59  C   UNL A   1      45.667  30.121  29.479  1.00  0.00     0.031 C 
ATOM     60  C   UNL A   1      41.297  31.824  31.770  1.00  0.00     0.029 A 
ATOM     61  C   UNL A   1      41.678  32.301  30.527  1.00  0.00     0.049 A 
ATOM     62  H   UNL A   1      40.481  33.134  29.006  1.00  0.00     0.167 HD
ATOM     63  C   UNL A   1      43.813  31.495  29.759  1.00  0.00     0.074 A 
ATOM     64  C   UNL A   1      45.250  31.394  29.576  1.00  0.00     0.031 C 
ATOM     65  C   UNL A   1      42.973  32.557  29.921  1.00  0.00     0.037 A 
BRANCH  52  66
ATOM     66  C   UNL A   1      36.826  32.666  30.531  1.00  0.00     0.064 A 
ATOM     67  C   UNL A   1      36.014  33.529  29.753  1.00  0.00     0.173 A 
ATOM     68  C   UNL A   1      36.308  32.379  31.808  1.00  0.00     0.173 A 
ATOM     69  F   UNL A   1      36.319  33.826  28.484  1.00  0.00    -0.203 F 
ATOM     70  C   UNL A   1      34.840  34.114  30.236  1.00  0.00     0.198 A 
ATOM     71  C   UNL A   1      35.141  32.984  32.303  1.00  0.00     0.198 A 
ATOM     72  F   UNL A   1      36.883  31.465  32.603  1.00  0.00    -0.203 F 
ATOM     73  F   UNL A   1      34.128  34.927  29.443  1.00  0.00    -0.200 F 
ATOM     74  C   UNL A   1      34.412  33.856  31.519  1.00  0.00     0.200 A 
ATOM     75  F   UNL A   1      34.721  32.707  33.546  1.00  0.00    -0.200 F 
ATOM     76  F   UNL A   1      33.291  34.424  31.987  1.00  0.00    -0.200 F 
ENDBRANCH  52  66
BRANCH  53  77
ATOM     77  C   UNL A   1      44.544  26.987  28.497  1.00  0.00     0.064 A 
ATOM     78  C   UNL A   1      44.237  27.455  27.196  1.00  0.00     0.173 A 
ATOM     79  C   UNL A   1      45.315  25.816  28.566  1.00  0.00     0.173 A 
ATOM     80  F   UNL A   1      43.522  28.583  27.041  1.00  0.00    -0.203 F 
ATOM     81  C   UNL A   1      44.746  26.848  26.045  1.00  0.00     0.198 A 
ATOM     82  C   UNL A   1      45.801  25.192  27.406  1.00  0.00     0.198 A 
ATOM     83  F   UNL A   1      45.677  25.309  29.752  1.00  0.00    -0.203 F 
ATOM     84  F   UNL A   1      44.527  27.401  24.842  1.00  0.00    -0.200 F 
ATOM     85  C   UNL A   1      45.537  25.721  26.151  1.00  0.00     0.200 A 
ATOM     86  F   UNL A   1      46.599  24.118  27.509  1.00  0.00    -0.200 F 
ATOM     87  F   UNL A   1      46.087  25.176  25.056  1.00  0.00    -0.200 F 
ENDBRANCH  53  77
BRANCH  65  88
ATOM     88  C   UNL A   1      43.354  33.967  29.596  1.00  0.00     0.064 A 
ATOM     89  C   UNL A   1      43.550  34.412  28.280  1.00  0.00     0.173 A 
ATOM     90  C   UNL A   1      43.382  34.958  30.602  1.00  0.00     0.173 A 
ATOM     91  F   UNL A   1      43.388  33.590  27.234  1.00  0.00    -0.203 F 
ATOM     92  C   UNL A   1      43.868  35.736  27.999  1.00  0.00     0.198 A 
ATOM     93  C   UNL A   1      43.619  36.296  30.307  1.00  0.00     0.198 A 
ATOM     94  F   UNL A   1      43.147  34.663  31.889  1.00  0.00    -0.203 F 
ATOM     95  F   UNL A   1      44.125  36.098  26.735  1.00  0.00    -0.200 F 
ATOM     96  C   UNL A   1      43.895  36.679  29.009  1.00  0.00     0.200 A 
ATOM     97  F   UNL A   1      43.563  37.210  31.283  1.00  0.00    -0.200 F 
ATOM     98  F   UNL A   1      44.164  37.960  28.729  1.00  0.00    -0.200 F 
ENDBRANCH  65  88
ENDBRANCH  39  40
ENDBRANCH  32  34
ENDBRANCH  31  32
ENDBRANCH  30  31
ENDBRANCH   1  30
TORSDOF 14
ENDMDL
