MODEL 1
REMARK VINA RESULT:     -12.6      0.000      0.000
REMARK SMILES Cc1ccnc(C(=O)c2[nH]c3ccc(F)cc3c2CC(=O)OCCOC(=O)c2ccc(-c3c4nc(c(-c5c(F)c(F)c(F)c(F)c5F)c5ccc([nH]5)c(-c5c(F)c(F)c(F)c(F)c5F)c5nc(c(-c6c(F)c(F)c(F)c(F)c6F)c6ccc3[nH]6)C=C5)C=C4)cc2)c1
REMARK SMILES IDX 23 1 22 2 20 3 21 4 19 5 18 6 9 7 10 8 11 9 17 11 12 12
REMARK SMILES IDX 16 13 13 14 14 15 15 16 7 17 8 18 6 19 1 20 2 21 3 22 91 23
REMARK SMILES IDX 4 24 5 25 24 26 25 27 26 28 27 29 28 30 29 31 90 32 30 33
REMARK SMILES IDX 89 34 31 35 32 36 33 37 83 38 34 39 88 40 82 41 84 42 35 43
REMARK SMILES IDX 87 44 81 45 80 46 36 48 68 49 48 50 67 51 49 52 52 53 66 54
REMARK SMILES IDX 85 55 50 56 51 57 65 59 86 60 53 61 37 62 38 63 46 64 39 65
REMARK SMILES IDX 40 66 44 67 47 68 41 69 42 70 45 71 43 72 69 73 70 74 78 75
REMARK SMILES IDX 71 76 72 77 76 78 79 79 73 80 74 81 77 82 75 83 54 84 55 85
REMARK SMILES IDX 63 86 56 87 57 88 61 89 64 90 58 91 59 92 62 93 60 94
REMARK H PARENT 10 10 84 47 52 58
REMARK Flexibility Score: inf
ROOT
ATOM      1  C   UNL A   1      31.877  28.073  26.797  1.00  0.00     0.274 C 
ENDROOT
BRANCH   1   2
ATOM      2  O   UNL A   1      30.731  27.243  26.505  1.00  0.00    -0.462 OA
BRANCH   2   3
ATOM      3  C   UNL A   1      31.009  25.970  26.118  1.00  0.00     0.310 C 
ATOM      4  O   UNL A   1      31.431  25.102  26.881  1.00  0.00    -0.252 OA
BRANCH   3   5
ATOM      5  C   UNL A   1      30.595  25.631  24.702  1.00  0.00     0.161 C 
BRANCH   5   6
ATOM      6  C   UNL A   1      30.710  26.691  23.650  1.00  0.00     0.000 A 
ATOM      7  C   UNL A   1      31.876  27.230  23.097  1.00  0.00     0.093 A 
ATOM      8  N   UNL A   1      31.497  28.357  22.399  1.00  0.00    -0.352 N 
ATOM      9  C   UNL A   1      30.148  28.590  22.531  1.00  0.00     0.046 A 
ATOM     10  H   UNL A   1      32.112  28.921  21.876  1.00  0.00     0.167 HD
ATOM     11  C   UNL A   1      29.614  27.518  23.240  1.00  0.00     0.007 A 
ATOM     12  C   UNL A   1      29.377  29.690  22.129  1.00  0.00     0.030 A 
ATOM     13  C   UNL A   1      28.233  27.510  23.524  1.00  0.00     0.049 A 
ATOM     14  C   UNL A   1      28.017  29.676  22.450  1.00  0.00     0.041 A 
ATOM     15  C   UNL A   1      27.459  28.596  23.120  1.00  0.00     0.123 A 
ATOM     16  F   UNL A   1      26.153  28.612  23.418  1.00  0.00    -0.207 F 
BRANCH   7  17
ATOM     17  C   UNL A   1      33.278  26.956  23.395  1.00  0.00     0.227 C 
ATOM     18  O   UNL A   1      34.091  27.881  23.376  1.00  0.00    -0.285 OA
BRANCH  17  19
ATOM     19  C   UNL A   1      33.773  25.550  23.681  1.00  0.00     0.113 A 
ATOM     20  C   UNL A   1      36.083  23.619  25.992  1.00  0.00     0.044 C 
ATOM     21  C   UNL A   1      35.124  23.960  24.888  1.00  0.00    -0.047 A 
ATOM     22  C   UNL A   1      34.979  23.080  23.815  1.00  0.00     0.023 A 
ATOM     23  C   UNL A   1      34.475  25.206  24.838  1.00  0.00     0.036 A 
ATOM     24  C   UNL A   1      34.197  23.469  22.742  1.00  0.00     0.112 A 
ATOM     25  N   UNL A   1      33.597  24.671  22.651  1.00  0.00    -0.253 NA
ENDBRANCH  17  19
ENDBRANCH   7  17
ENDBRANCH   5   6
ENDBRANCH   3   5
ENDBRANCH   2   3
ENDBRANCH   1   2
BRANCH   1  26
ATOM     26  C   UNL A   1      31.779  29.436  26.089  1.00  0.00     0.275 C 
BRANCH  26  27
ATOM     27  O   UNL A   1      33.061  30.083  25.904  1.00  0.00    -0.458 OA
BRANCH  27  28
ATOM     28  C   UNL A   1      33.333  30.980  26.875  1.00  0.00     0.338 C 
ATOM     29  O   UNL A   1      32.677  31.970  27.127  1.00  0.00    -0.246 OA
BRANCH  28  30
ATOM     30  C   UNL A   1      34.466  30.662  27.734  1.00  0.00     0.060 A 
ATOM     31  C   UNL A   1      35.379  31.678  28.019  1.00  0.00     0.016 A 
ATOM     32  C   UNL A   1      34.779  29.322  27.976  1.00  0.00     0.016 A 
ATOM     33  C   UNL A   1      36.620  31.352  28.552  1.00  0.00     0.010 A 
ATOM     34  C   UNL A   1      36.002  29.000  28.568  1.00  0.00     0.010 A 
ATOM     35  C   UNL A   1      36.924  30.016  28.865  1.00  0.00    -0.014 A 
BRANCH  35  36
ATOM     36  C   UNL A   1      38.106  29.738  29.709  1.00  0.00     0.031 A 
ATOM     37  C   UNL A   1      38.276  30.306  31.081  1.00  0.00     0.074 A 
ATOM     38  C   UNL A   1      39.039  28.930  29.176  1.00  0.00     0.049 A 
ATOM     39  N   UNL A   1      39.267  30.125  31.919  1.00  0.00    -0.248 NA
ATOM     40  C   UNL A   1      37.216  31.192  31.581  1.00  0.00     0.031 C 
ATOM     41  C   UNL A   1      38.960  28.336  27.836  1.00  0.00     0.029 A 
ATOM     42  N   UNL A   1      40.219  28.457  29.681  1.00  0.00    -0.354 N 
ATOM     43  C   UNL A   1      38.956  30.872  33.046  1.00  0.00     0.074 A 
ATOM     44  C   UNL A   1      37.690  31.527  32.777  1.00  0.00     0.031 C 
ATOM     45  C   UNL A   1      40.029  27.556  27.639  1.00  0.00     0.029 A 
ATOM     46  C   UNL A   1      40.888  27.633  28.813  1.00  0.00     0.049 A 
ATOM     47  H   UNL A   1      40.553  28.686  30.578  1.00  0.00     0.167 HD
ATOM     48  C   UNL A   1      39.669  30.990  34.192  1.00  0.00     0.037 A 
ATOM     49  C   UNL A   1      42.072  27.012  28.940  1.00  0.00     0.037 A 
ATOM     50  C   UNL A   1      40.922  30.319  34.447  1.00  0.00     0.049 A 
ATOM     51  C   UNL A   1      42.840  27.173  30.214  1.00  0.00     0.074 A 
ATOM     52  C   UNL A   1      41.693  30.334  35.598  1.00  0.00     0.029 A 
ATOM     53  N   UNL A   1      41.591  29.514  33.534  1.00  0.00    -0.354 N 
ATOM     54  N   UNL A   1      42.523  27.860  31.283  1.00  0.00    -0.248 NA
ATOM     55  C   UNL A   1      44.128  26.475  30.300  1.00  0.00     0.031 C 
ATOM     56  C   UNL A   1      42.846  29.574  35.366  1.00  0.00     0.029 A 
ATOM     57  C   UNL A   1      42.777  29.052  34.086  1.00  0.00     0.049 A 
ATOM     58  H   UNL A   1      41.269  29.302  32.627  1.00  0.00     0.167 HD
ATOM     59  C   UNL A   1      43.566  27.677  32.174  1.00  0.00     0.074 A 
ATOM     60  C   UNL A   1      44.518  26.795  31.526  1.00  0.00     0.031 C 
ATOM     61  C   UNL A   1      43.722  28.195  33.416  1.00  0.00     0.037 A 
BRANCH  48  62
ATOM     62  C   UNL A   1      39.129  31.884  35.268  1.00  0.00     0.064 A 
ATOM     63  C   UNL A   1      38.364  31.379  36.330  1.00  0.00     0.173 A 
ATOM     64  C   UNL A   1      39.458  33.249  35.287  1.00  0.00     0.173 A 
ATOM     65  F   UNL A   1      38.025  30.082  36.360  1.00  0.00    -0.203 F 
ATOM     66  C   UNL A   1      37.942  32.210  37.366  1.00  0.00     0.198 A 
ATOM     67  C   UNL A   1      39.050  34.071  36.333  1.00  0.00     0.198 A 
ATOM     68  F   UNL A   1      40.199  33.779  34.302  1.00  0.00    -0.203 F 
ATOM     69  F   UNL A   1      37.200  31.710  38.364  1.00  0.00    -0.200 F 
ATOM     70  C   UNL A   1      38.292  33.552  37.371  1.00  0.00     0.200 A 
ATOM     71  F   UNL A   1      39.402  35.365  36.346  1.00  0.00    -0.200 F 
ATOM     72  F   UNL A   1      37.899  34.345  38.379  1.00  0.00    -0.200 F 
ENDBRANCH  48  62
BRANCH  49  73
ATOM     73  C   UNL A   1      42.571  26.184  27.818  1.00  0.00     0.064 A 
ATOM     74  C   UNL A   1      43.472  26.709  26.885  1.00  0.00     0.173 A 
ATOM     75  C   UNL A   1      42.222  24.830  27.711  1.00  0.00     0.173 A 
ATOM     76  F   UNL A   1      43.824  28.001  26.946  1.00  0.00    -0.203 F 
ATOM     77  C   UNL A   1      44.011  25.905  25.883  1.00  0.00     0.198 A 
ATOM     78  C   UNL A   1      42.781  24.023  26.724  1.00  0.00     0.198 A 
ATOM     79  F   UNL A   1      41.373  24.283  28.594  1.00  0.00    -0.203 F 
ATOM     80  F   UNL A   1      44.862  26.430  24.992  1.00  0.00    -0.200 F 
ATOM     81  C   UNL A   1      43.673  24.561  25.810  1.00  0.00     0.200 A 
ATOM     82  F   UNL A   1      42.467  22.720  26.671  1.00  0.00    -0.200 F 
ATOM     83  F   UNL A   1      44.211  23.784  24.861  1.00  0.00    -0.200 F 
ENDBRANCH  49  73
BRANCH  61  84
ATOM     84  C   UNL A   1      44.975  27.817  34.144  1.00  0.00     0.064 A 
ATOM     85  C   UNL A   1      46.134  28.600  34.048  1.00  0.00     0.173 A 
ATOM     86  C   UNL A   1      45.019  26.663  34.938  1.00  0.00     0.173 A 
ATOM     87  F   UNL A   1      46.143  29.701  33.281  1.00  0.00    -0.203 F 
ATOM     88  C   UNL A   1      47.303  28.227  34.703  1.00  0.00     0.198 A 
ATOM     89  C   UNL A   1      46.184  26.305  35.610  1.00  0.00     0.198 A 
ATOM     90  F   UNL A   1      43.935  25.883  35.058  1.00  0.00    -0.203 F 
ATOM     91  F   UNL A   1      48.414  28.963  34.560  1.00  0.00    -0.200 F 
ATOM     92  C   UNL A   1      47.326  27.082  35.487  1.00  0.00     0.200 A 
ATOM     93  F   UNL A   1      46.205  25.200  36.368  1.00  0.00    -0.200 F 
ATOM     94  F   UNL A   1      48.455  26.720  36.112  1.00  0.00    -0.200 F 
ENDBRANCH  61  84
ENDBRANCH  35  36
ENDBRANCH  28  30
ENDBRANCH  27  28
ENDBRANCH  26  27
ENDBRANCH   1  26
TORSDOF 14
ENDMDL
MODEL 2
REMARK VINA RESULT:     -12.6      0.546      7.346
REMARK SMILES Cc1ccnc(C(=O)c2[nH]c3ccc(F)cc3c2CC(=O)OCCOC(=O)c2ccc(-c3c4nc(c(-c5c(F)c(F)c(F)c(F)c5F)c5ccc([nH]5)c(-c5c(F)c(F)c(F)c(F)c5F)c5nc(c(-c6c(F)c(F)c(F)c(F)c6F)c6ccc3[nH]6)C=C5)C=C4)cc2)c1
REMARK SMILES IDX 23 1 22 2 20 3 21 4 19 5 18 6 9 7 10 8 11 9 17 11 12 12
REMARK SMILES IDX 16 13 13 14 14 15 15 16 7 17 8 18 6 19 1 20 2 21 3 22 91 23
REMARK SMILES IDX 4 24 5 25 24 26 25 27 26 28 27 29 28 30 29 31 90 32 30 33
REMARK SMILES IDX 89 34 31 35 32 36 33 37 83 38 34 39 88 40 82 41 84 42 35 43
REMARK SMILES IDX 87 44 81 45 80 46 36 48 68 49 48 50 67 51 49 52 52 53 66 54
REMARK SMILES IDX 85 55 50 56 51 57 65 59 86 60 53 61 37 62 38 63 46 64 39 65
REMARK SMILES IDX 40 66 44 67 47 68 41 69 42 70 45 71 43 72 69 73 70 74 78 75
REMARK SMILES IDX 71 76 72 77 76 78 79 79 73 80 74 81 77 82 75 83 54 84 55 85
REMARK SMILES IDX 63 86 56 87 57 88 61 89 64 90 58 91 59 92 62 93 60 94
REMARK H PARENT 10 10 84 47 52 58
REMARK Flexibility Score: inf
ROOT
ATOM      1  C   UNL A   1      31.990  28.036  26.877  1.00  0.00     0.274 C 
ENDROOT
BRANCH   1   2
ATOM      2  O   UNL A   1      30.842  27.190  26.646  1.00  0.00    -0.462 OA
BRANCH   2   3
ATOM      3  C   UNL A   1      31.113  25.939  26.191  1.00  0.00     0.310 C 
ATOM      4  O   UNL A   1      31.637  25.062  26.876  1.00  0.00    -0.252 OA
BRANCH   3   5
ATOM      5  C   UNL A   1      30.563  25.629  24.815  1.00  0.00     0.161 C 
BRANCH   5   6
ATOM      6  C   UNL A   1      30.696  26.664  23.741  1.00  0.00     0.000 A 
ATOM      7  C   UNL A   1      31.872  27.185  23.192  1.00  0.00     0.093 A 
ATOM      8  N   UNL A   1      31.508  28.298  22.463  1.00  0.00    -0.352 N 
ATOM      9  C   UNL A   1      30.158  28.540  22.572  1.00  0.00     0.046 A 
ATOM     10  H   UNL A   1      32.133  28.846  21.936  1.00  0.00     0.167 HD
ATOM     11  C   UNL A   1      29.610  27.487  23.298  1.00  0.00     0.007 A 
ATOM     12  C   UNL A   1      29.399  29.634  22.135  1.00  0.00     0.030 A 
ATOM     13  C   UNL A   1      28.225  27.492  23.563  1.00  0.00     0.049 A 
ATOM     14  C   UNL A   1      28.034  29.633  22.438  1.00  0.00     0.041 A 
ATOM     15  C   UNL A   1      27.462  28.571  23.125  1.00  0.00     0.123 A 
ATOM     16  F   UNL A   1      26.152  28.600  23.405  1.00  0.00    -0.207 F 
BRANCH   7  17
ATOM     17  C   UNL A   1      33.269  26.911  23.514  1.00  0.00     0.227 C 
ATOM     18  O   UNL A   1      34.068  27.847  23.578  1.00  0.00    -0.285 OA
BRANCH  17  19
ATOM     19  C   UNL A   1      33.776  25.497  23.727  1.00  0.00     0.113 A 
ATOM     20  C   UNL A   1      36.247  23.502  25.805  1.00  0.00     0.044 C 
ATOM     21  C   UNL A   1      35.207  23.873  24.787  1.00  0.00    -0.047 A 
ATOM     22  C   UNL A   1      34.975  23.020  23.707  1.00  0.00     0.023 A 
ATOM     23  C   UNL A   1      34.564  25.123  24.818  1.00  0.00     0.036 A 
ATOM     24  C   UNL A   1      34.114  23.438  22.708  1.00  0.00     0.112 A 
ATOM     25  N   UNL A   1      33.516  24.644  22.693  1.00  0.00    -0.253 NA
ENDBRANCH  17  19
ENDBRANCH   7  17
ENDBRANCH   5   6
ENDBRANCH   3   5
ENDBRANCH   2   3
ENDBRANCH   1   2
BRANCH   1  26
ATOM     26  C   UNL A   1      31.810  29.420  26.229  1.00  0.00     0.275 C 
BRANCH  26  27
ATOM     27  O   UNL A   1      33.061  30.081  25.924  1.00  0.00    -0.458 OA
BRANCH  27  28
ATOM     28  C   UNL A   1      33.424  30.967  26.876  1.00  0.00     0.338 C 
ATOM     29  O   UNL A   1      32.761  31.913  27.250  1.00  0.00    -0.246 OA
BRANCH  28  30
ATOM     30  C   UNL A   1      34.683  30.690  27.555  1.00  0.00     0.060 A 
ATOM     31  C   UNL A   1      34.830  29.453  28.184  1.00  0.00     0.016 A 
ATOM     32  C   UNL A   1      35.552  31.748  27.830  1.00  0.00     0.016 A 
ATOM     33  C   UNL A   1      35.859  29.270  29.100  1.00  0.00     0.010 A 
ATOM     34  C   UNL A   1      36.622  31.545  28.705  1.00  0.00     0.010 A 
ATOM     35  C   UNL A   1      36.783  30.302  29.337  1.00  0.00    -0.014 A 
BRANCH  35  36
ATOM     36  C   UNL A   1      38.030  29.982  30.064  1.00  0.00     0.031 A 
ATOM     37  C   UNL A   1      39.124  29.154  29.474  1.00  0.00     0.074 A 
ATOM     38  C   UNL A   1      38.138  30.486  31.306  1.00  0.00     0.049 A 
ATOM     39  N   UNL A   1      40.269  28.815  30.013  1.00  0.00    -0.248 NA
ATOM     40  C   UNL A   1      38.918  28.631  28.117  1.00  0.00     0.031 C 
ATOM     41  C   UNL A   1      37.113  31.301  31.968  1.00  0.00     0.029 A 
ATOM     42  N   UNL A   1      39.146  30.407  32.227  1.00  0.00    -0.354 N 
ATOM     43  C   UNL A   1      40.922  28.038  29.068  1.00  0.00     0.074 A 
ATOM     44  C   UNL A   1      40.036  27.938  27.924  1.00  0.00     0.031 C 
ATOM     45  C   UNL A   1      37.557  31.669  33.175  1.00  0.00     0.029 A 
ATOM     46  C   UNL A   1      38.872  31.079  33.390  1.00  0.00     0.049 A 
ATOM     47  H   UNL A   1      39.985  29.915  32.070  1.00  0.00     0.167 HD
ATOM     48  C   UNL A   1      42.148  27.468  29.158  1.00  0.00     0.037 A 
ATOM     49  C   UNL A   1      39.594  31.202  34.516  1.00  0.00     0.037 A 
ATOM     50  C   UNL A   1      43.023  27.589  30.301  1.00  0.00     0.049 A 
ATOM     51  C   UNL A   1      40.938  30.551  34.588  1.00  0.00     0.074 A 
ATOM     52  C   UNL A   1      44.305  27.091  30.466  1.00  0.00     0.029 A 
ATOM     53  N   UNL A   1      42.702  28.252  31.479  1.00  0.00    -0.354 N 
ATOM     54  N   UNL A   1      41.556  29.841  33.677  1.00  0.00    -0.248 NA
ATOM     55  C   UNL A   1      41.684  30.715  35.841  1.00  0.00     0.031 C 
ATOM     56  C   UNL A   1      44.743  27.417  31.755  1.00  0.00     0.029 A 
ATOM     57  C   UNL A   1      43.750  28.152  32.382  1.00  0.00     0.049 A 
ATOM     58  H   UNL A   1      41.854  28.725  31.647  1.00  0.00     0.167 HD
ATOM     59  C   UNL A   1      42.767  29.476  34.240  1.00  0.00     0.074 A 
ATOM     60  C   UNL A   1      42.804  30.060  35.567  1.00  0.00     0.031 C 
ATOM     61  C   UNL A   1      43.758  28.721  33.706  1.00  0.00     0.037 A 
BRANCH  48  62
ATOM     62  C   UNL A   1      42.631  26.647  27.999  1.00  0.00     0.064 A 
ATOM     63  C   UNL A   1      42.232  25.314  27.826  1.00  0.00     0.173 A 
ATOM     64  C   UNL A   1      43.427  27.230  27.001  1.00  0.00     0.173 A 
ATOM     65  F   UNL A   1      41.468  24.712  28.749  1.00  0.00    -0.203 F 
ATOM     66  C   UNL A   1      42.621  24.591  26.699  1.00  0.00     0.198 A 
ATOM     67  C   UNL A   1      43.798  26.511  25.868  1.00  0.00     0.198 A 
ATOM     68  F   UNL A   1      43.824  28.506  27.112  1.00  0.00    -0.203 F 
ATOM     69  F   UNL A   1      42.240  23.314  26.559  1.00  0.00    -0.200 F 
ATOM     70  C   UNL A   1      43.396  25.192  25.718  1.00  0.00     0.200 A 
ATOM     71  F   UNL A   1      44.533  27.097  24.913  1.00  0.00    -0.200 F 
ATOM     72  F   UNL A   1      43.753  24.500  24.626  1.00  0.00    -0.200 F 
ENDBRANCH  48  62
BRANCH  49  73
ATOM     73  C   UNL A   1      39.035  31.985  35.642  1.00  0.00     0.064 A 
ATOM     74  C   UNL A   1      38.249  31.370  36.623  1.00  0.00     0.173 A 
ATOM     75  C   UNL A   1      39.352  33.342  35.804  1.00  0.00     0.173 A 
ATOM     76  F   UNL A   1      37.916  30.078  36.502  1.00  0.00    -0.203 F 
ATOM     77  C   UNL A   1      37.799  32.086  37.730  1.00  0.00     0.198 A 
ATOM     78  C   UNL A   1      38.923  34.049  36.923  1.00  0.00     0.198 A 
ATOM     79  F   UNL A   1      40.116  33.966  34.895  1.00  0.00    -0.203 F 
ATOM     80  F   UNL A   1      37.037  31.482  38.651  1.00  0.00    -0.200 F 
ATOM     81  C   UNL A   1      38.146  33.422  37.884  1.00  0.00     0.200 A 
ATOM     82  F   UNL A   1      39.277  35.333  37.078  1.00  0.00    -0.200 F 
ATOM     83  F   UNL A   1      37.733  34.103  38.962  1.00  0.00    -0.200 F 
ENDBRANCH  49  73
BRANCH  61  84
ATOM     84  C   UNL A   1      44.958  28.488  34.570  1.00  0.00     0.064 A 
ATOM     85  C   UNL A   1      45.032  27.381  35.427  1.00  0.00     0.173 A 
ATOM     86  C   UNL A   1      46.040  29.378  34.545  1.00  0.00     0.173 A 
ATOM     87  F   UNL A   1      44.010  26.515  35.500  1.00  0.00    -0.203 F 
ATOM     88  C   UNL A   1      46.138  27.187  36.249  1.00  0.00     0.198 A 
ATOM     89  C   UNL A   1      47.154  29.170  35.352  1.00  0.00     0.198 A 
ATOM     90  F   UNL A   1      46.014  30.452  33.741  1.00  0.00    -0.203 F 
ATOM     91  F   UNL A   1      46.168  26.149  37.097  1.00  0.00    -0.200 F 
ATOM     92  C   UNL A   1      47.200  28.079  36.208  1.00  0.00     0.200 A 
ATOM     93  F   UNL A   1      48.181  30.030  35.310  1.00  0.00    -0.200 F 
ATOM     94  F   UNL A   1      48.261  27.895  37.005  1.00  0.00    -0.200 F 
ENDBRANCH  61  84
ENDBRANCH  35  36
ENDBRANCH  28  30
ENDBRANCH  27  28
ENDBRANCH  26  27
ENDBRANCH   1  26
TORSDOF 14
ENDMDL
MODEL 3
REMARK VINA RESULT:     -12.6      1.522      3.462
REMARK SMILES Cc1ccnc(C(=O)c2[nH]c3ccc(F)cc3c2CC(=O)OCCOC(=O)c2ccc(-c3c4nc(c(-c5c(F)c(F)c(F)c(F)c5F)c5ccc([nH]5)c(-c5c(F)c(F)c(F)c(F)c5F)c5nc(c(-c6c(F)c(F)c(F)c(F)c6F)c6ccc3[nH]6)C=C5)C=C4)cc2)c1
REMARK SMILES IDX 23 1 22 2 20 3 21 4 19 5 18 6 9 7 10 8 11 9 17 11 12 12
REMARK SMILES IDX 16 13 13 14 14 15 15 16 7 17 8 18 6 19 1 20 2 21 3 22 91 23
REMARK SMILES IDX 4 24 5 25 24 26 25 27 26 28 27 29 28 30 29 31 90 32 30 33
REMARK SMILES IDX 89 34 31 35 32 36 33 37 83 38 34 39 88 40 82 41 84 42 35 43
REMARK SMILES IDX 87 44 81 45 80 46 36 48 68 49 48 50 67 51 49 52 52 53 66 54
REMARK SMILES IDX 85 55 50 56 51 57 65 59 86 60 53 61 37 62 38 63 46 64 39 65
REMARK SMILES IDX 40 66 44 67 47 68 41 69 42 70 45 71 43 72 69 73 70 74 78 75
REMARK SMILES IDX 71 76 72 77 76 78 79 79 73 80 74 81 77 82 75 83 54 84 55 85
REMARK SMILES IDX 63 86 56 87 57 88 61 89 64 90 58 91 59 92 62 93 60 94
REMARK H PARENT 10 10 84 47 52 58
REMARK Flexibility Score: inf
ROOT
ATOM      1  C   UNL A   1      31.600  28.688  26.215  1.00  0.00     0.274 C 
ENDROOT
BRANCH   1   2
ATOM      2  O   UNL A   1      32.676  27.973  25.571  1.00  0.00    -0.462 OA
BRANCH   2   3
ATOM      3  C   UNL A   1      32.846  26.683  25.965  1.00  0.00     0.310 C 
ATOM      4  O   UNL A   1      31.993  26.038  26.573  1.00  0.00    -0.252 OA
BRANCH   3   5
ATOM      5  C   UNL A   1      34.104  26.020  25.448  1.00  0.00     0.161 C 
BRANCH   5   6
ATOM      6  C   UNL A   1      33.971  24.776  24.624  1.00  0.00     0.000 A 
ATOM      7  C   UNL A   1      33.489  24.659  23.315  1.00  0.00     0.093 A 
ATOM      8  N   UNL A   1      33.282  23.315  23.090  1.00  0.00    -0.352 N 
ATOM      9  C   UNL A   1      33.556  22.576  24.217  1.00  0.00     0.046 A 
ATOM     10  H   UNL A   1      32.977  22.935  22.235  1.00  0.00     0.167 HD
ATOM     11  C   UNL A   1      34.069  23.454  25.168  1.00  0.00     0.007 A 
ATOM     12  C   UNL A   1      33.336  21.218  24.483  1.00  0.00     0.030 A 
ATOM     13  C   UNL A   1      34.429  22.951  26.435  1.00  0.00     0.049 A 
ATOM     14  C   UNL A   1      33.670  20.747  25.756  1.00  0.00     0.041 A 
ATOM     15  C   UNL A   1      34.221  21.600  26.703  1.00  0.00     0.123 A 
ATOM     16  F   UNL A   1      34.527  21.121  27.917  1.00  0.00    -0.207 F 
BRANCH   7  17
ATOM     17  C   UNL A   1      32.960  25.673  22.408  1.00  0.00     0.227 C 
ATOM     18  O   UNL A   1      33.653  26.059  21.466  1.00  0.00    -0.285 OA
BRANCH  17  19
ATOM     19  C   UNL A   1      31.596  26.302  22.623  1.00  0.00     0.113 A 
ATOM     20  C   UNL A   1      29.833  29.663  22.618  1.00  0.00     0.044 C 
ATOM     21  C   UNL A   1      30.107  28.193  22.755  1.00  0.00    -0.047 A 
ATOM     22  C   UNL A   1      29.231  27.402  23.499  1.00  0.00     0.023 A 
ATOM     23  C   UNL A   1      31.297  27.620  22.273  1.00  0.00     0.036 A 
ATOM     24  C   UNL A   1      29.567  26.080  23.731  1.00  0.00     0.112 A 
ATOM     25  N   UNL A   1      30.717  25.517  23.315  1.00  0.00    -0.253 NA
ENDBRANCH  17  19
ENDBRANCH   7  17
ENDBRANCH   5   6
ENDBRANCH   3   5
ENDBRANCH   2   3
ENDBRANCH   1   2
BRANCH   1  26
ATOM     26  C   UNL A   1      31.752  30.210  26.044  1.00  0.00     0.275 C 
BRANCH  26  27
ATOM     27  O   UNL A   1      33.131  30.653  26.031  1.00  0.00    -0.458 OA
BRANCH  27  28
ATOM     28  C   UNL A   1      33.410  31.503  27.041  1.00  0.00     0.338 C 
ATOM     29  O   UNL A   1      32.769  32.493  27.330  1.00  0.00    -0.246 OA
BRANCH  28  30
ATOM     30  C   UNL A   1      34.531  31.129  27.894  1.00  0.00     0.060 A 
ATOM     31  C   UNL A   1      35.483  32.105  28.191  1.00  0.00     0.016 A 
ATOM     32  C   UNL A   1      34.791  29.775  28.118  1.00  0.00     0.016 A 
ATOM     33  C   UNL A   1      36.711  31.723  28.718  1.00  0.00     0.010 A 
ATOM     34  C   UNL A   1      36.001  29.398  28.704  1.00  0.00     0.010 A 
ATOM     35  C   UNL A   1      36.963  30.372  29.013  1.00  0.00    -0.014 A 
BRANCH  35  36
ATOM     36  C   UNL A   1      38.133  30.037  29.851  1.00  0.00     0.031 A 
ATOM     37  C   UNL A   1      38.315  30.560  31.239  1.00  0.00     0.074 A 
ATOM     38  C   UNL A   1      39.045  29.218  29.297  1.00  0.00     0.049 A 
ATOM     39  N   UNL A   1      39.297  30.326  32.074  1.00  0.00    -0.248 NA
ATOM     40  C   UNL A   1      37.279  31.460  31.762  1.00  0.00     0.031 C 
ATOM     41  C   UNL A   1      38.953  28.665  27.941  1.00  0.00     0.029 A 
ATOM     42  N   UNL A   1      40.209  28.698  29.791  1.00  0.00    -0.354 N 
ATOM     43  C   UNL A   1      39.005  31.049  33.221  1.00  0.00     0.074 A 
ATOM     44  C   UNL A   1      37.759  31.747  32.968  1.00  0.00     0.031 C 
ATOM     45  C   UNL A   1      40.000  27.861  27.724  1.00  0.00     0.029 A 
ATOM     46  C   UNL A   1      40.858  27.880  28.902  1.00  0.00     0.049 A 
ATOM     47  H   UNL A   1      40.547  28.892  30.695  1.00  0.00     0.167 HD
ATOM     48  C   UNL A   1      39.717  31.114  34.372  1.00  0.00     0.037 A 
ATOM     49  C   UNL A   1      42.023  27.223  29.013  1.00  0.00     0.037 A 
ATOM     50  C   UNL A   1      40.950  30.401  34.611  1.00  0.00     0.049 A 
ATOM     51  C   UNL A   1      42.791  27.325  30.293  1.00  0.00     0.074 A 
ATOM     52  C   UNL A   1      41.717  30.361  35.763  1.00  0.00     0.029 A 
ATOM     53  N   UNL A   1      41.598  29.604  33.676  1.00  0.00    -0.354 N 
ATOM     54  N   UNL A   1      42.490  27.990  31.380  1.00  0.00    -0.248 NA
ATOM     55  C   UNL A   1      44.058  26.588  30.362  1.00  0.00     0.031 C 
ATOM     56  C   UNL A   1      42.849  29.576  35.513  1.00  0.00     0.029 A 
ATOM     57  C   UNL A   1      42.769  29.093  34.217  1.00  0.00     0.049 A 
ATOM     58  H   UNL A   1      41.274  29.427  32.763  1.00  0.00     0.167 HD
ATOM     59  C   UNL A   1      43.525  27.751  32.268  1.00  0.00     0.074 A 
ATOM     60  C   UNL A   1      44.454  26.862  31.597  1.00  0.00     0.031 C 
ATOM     61  C   UNL A   1      43.691  28.229  33.525  1.00  0.00     0.037 A 
BRANCH  48  62
ATOM     62  C   UNL A   1      39.199  31.992  35.472  1.00  0.00     0.064 A 
ATOM     63  C   UNL A   1      38.386  31.486  36.497  1.00  0.00     0.173 A 
ATOM     64  C   UNL A   1      39.597  33.336  35.553  1.00  0.00     0.173 A 
ATOM     65  F   UNL A   1      37.981  30.207  36.467  1.00  0.00    -0.203 F 
ATOM     66  C   UNL A   1      37.983  32.296  37.557  1.00  0.00     0.198 A 
ATOM     67  C   UNL A   1      39.208  34.136  36.624  1.00  0.00     0.198 A 
ATOM     68  F   UNL A   1      40.385  33.865  34.606  1.00  0.00    -0.203 F 
ATOM     69  F   UNL A   1      37.194  31.796  38.518  1.00  0.00    -0.200 F 
ATOM     70  C   UNL A   1      38.401  33.617  37.624  1.00  0.00     0.200 A 
ATOM     71  F   UNL A   1      39.625  35.408  36.695  1.00  0.00    -0.200 F 
ATOM     72  F   UNL A   1      38.026  34.388  38.655  1.00  0.00    -0.200 F 
ENDBRANCH  48  62
BRANCH  49  73
ATOM     73  C   UNL A   1      42.502  26.414  27.869  1.00  0.00     0.064 A 
ATOM     74  C   UNL A   1      42.029  25.113  27.663  1.00  0.00     0.173 A 
ATOM     75  C   UNL A   1      43.371  26.960  26.913  1.00  0.00     0.173 A 
ATOM     76  F   UNL A   1      41.203  24.551  28.557  1.00  0.00    -0.203 F 
ATOM     77  C   UNL A   1      42.408  24.385  26.538  1.00  0.00     0.198 A 
ATOM     78  C   UNL A   1      43.730  26.240  25.777  1.00  0.00     0.198 A 
ATOM     79  F   UNL A   1      43.836  28.209  27.064  1.00  0.00    -0.203 F 
ATOM     80  F   UNL A   1      41.954  23.136  26.366  1.00  0.00    -0.200 F 
ATOM     81  C   UNL A   1      43.249  24.953  25.591  1.00  0.00     0.200 A 
ATOM     82  F   UNL A   1      44.525  26.800  24.855  1.00  0.00    -0.200 F 
ATOM     83  F   UNL A   1      43.594  24.261  24.497  1.00  0.00    -0.200 F 
ENDBRANCH  49  73
BRANCH  61  84
ATOM     84  C   UNL A   1      44.931  27.795  34.245  1.00  0.00     0.064 A 
ATOM     85  C   UNL A   1      46.113  28.546  34.173  1.00  0.00     0.173 A 
ATOM     86  C   UNL A   1      44.940  26.619  35.008  1.00  0.00     0.173 A 
ATOM     87  F   UNL A   1      46.157  29.666  33.436  1.00  0.00    -0.203 F 
ATOM     88  C   UNL A   1      47.269  28.121  34.819  1.00  0.00     0.198 A 
ATOM     89  C   UNL A   1      46.091  26.208  35.671  1.00  0.00     0.198 A 
ATOM     90  F   UNL A   1      43.833  25.868  35.105  1.00  0.00    -0.203 F 
ATOM     91  F   UNL A   1      48.402  28.828  34.699  1.00  0.00    -0.200 F 
ATOM     92  C   UNL A   1      47.257  26.955  35.571  1.00  0.00     0.200 A 
ATOM     93  F   UNL A   1      46.079  25.083  36.400  1.00  0.00    -0.200 F 
ATOM     94  F   UNL A   1      48.373  26.543  36.188  1.00  0.00    -0.200 F 
ENDBRANCH  61  84
ENDBRANCH  35  36
ENDBRANCH  28  30
ENDBRANCH  27  28
ENDBRANCH  26  27
ENDBRANCH   1  26
TORSDOF 14
ENDMDL
