MODEL 1
REMARK VINA RESULT:     -11.8      0.000      0.000
REMARK SMILES Cc1noc(C)c1CNc1cnc(C(=O)OCCOC(=O)c2ccc(-c3c4nc(c(-c5c(F)c(F)c(F)c(F)c5F)c5ccc([nH]5)c(-c5c(F)c(F)c(F)c(F)c5F)c5nc(c(-c6c(F)c(F)c(F)c(F)c6F)c6ccc3[nH]6)C=C5)C=C4)cc2)cn1
REMARK SMILES IDX 17 1 16 2 14 3 15 4 13 5 10 6 11 7 86 8 12 9 85 10 9 11 8 13
REMARK SMILES IDX 7 14 1 15 2 16 3 17 4 18 5 19 6 20 18 21 19 22 20 23 21 24
REMARK SMILES IDX 22 25 23 26 84 27 24 28 83 29 25 30 26 31 27 32 77 33 28 34
REMARK SMILES IDX 82 35 76 36 78 37 29 38 81 39 75 40 74 41 30 43 62 44 42 45
REMARK SMILES IDX 61 46 43 47 46 48 60 49 79 50 44 51 45 52 59 54 80 55 47 56
REMARK SMILES IDX 31 57 32 58 40 59 33 60 34 61 38 62 41 63 35 64 36 65 39 66
REMARK SMILES IDX 37 67 63 68 64 69 72 70 65 71 66 72 70 73 73 74 67 75 68 76
REMARK SMILES IDX 71 77 69 78 48 79 49 80 57 81 50 82 51 83 55 84 58 85 52 86
REMARK SMILES IDX 53 87 56 88 54 89
REMARK H PARENT 9 12 78 42 46 53
REMARK Flexibility Score: inf
ROOT
ATOM      1  C   UNL A   1      32.572  28.916  24.893  1.00  0.00     0.275 C 
ENDROOT
BRANCH   1   2
ATOM      2  O   UNL A   1      32.553  27.751  25.741  1.00  0.00    -0.457 OA
BRANCH   2   3
ATOM      3  C   UNL A   1      31.518  26.899  25.544  1.00  0.00     0.358 C 
ATOM      4  O   UNL A   1      30.487  27.145  24.931  1.00  0.00    -0.244 OA
BRANCH   3   5
ATOM      5  C   UNL A   1      31.805  25.555  26.086  1.00  0.00     0.166 A 
ATOM      6  C   UNL A   1      32.513  23.052  26.833  1.00  0.00     0.144 A 
ATOM      7  C   UNL A   1      31.180  23.478  26.800  1.00  0.00     0.158 A 
ATOM      8  N   UNL A   1      33.506  23.899  26.519  1.00  0.00    -0.235 NA
ATOM      9  N   UNL A   1      30.787  24.731  26.434  1.00  0.00    -0.244 NA
ATOM     10  C   UNL A   1      33.127  25.137  26.125  1.00  0.00     0.149 A 
BRANCH   6  11
ATOM     11  N   UNL A   1      32.920  21.766  27.114  1.00  0.00    -0.365 N 
ATOM     12  H   UNL A   1      32.612  21.304  27.927  1.00  0.00     0.162 HD
BRANCH  11  13
ATOM     13  C   UNL A   1      33.818  21.113  26.176  1.00  0.00     0.156 C 
BRANCH  13  14
ATOM     14  C   UNL A   1      33.150  20.504  24.989  1.00  0.00     0.037 A 
ATOM     15  C   UNL A   1      33.169  22.470  23.252  1.00  0.00     0.071 C 
ATOM     16  C   UNL A   1      32.863  21.100  23.728  1.00  0.00     0.086 A 
ATOM     17  N   UNL A   1      32.249  20.238  22.908  1.00  0.00    -0.085 NA
ATOM     18  O   UNL A   1      32.133  19.061  23.615  1.00  0.00    -0.361 OA
ATOM     19  C   UNL A   1      32.673  19.217  24.851  1.00  0.00     0.138 A 
ATOM     20  C   UNL A   1      32.641  18.034  25.731  1.00  0.00     0.091 C 
ENDBRANCH  13  14
ENDBRANCH  11  13
ENDBRANCH   6  11
ENDBRANCH   3   5
ENDBRANCH   2   3
ENDBRANCH   1   2
BRANCH   1  21
ATOM     21  C   UNL A   1      32.003  30.146  25.604  1.00  0.00     0.275 C 
BRANCH  21  22
ATOM     22  O   UNL A   1      32.505  30.261  26.952  1.00  0.00    -0.458 OA
BRANCH  22  23
ATOM     23  C   UNL A   1      33.155  31.412  27.228  1.00  0.00     0.338 C 
ATOM     24  O   UNL A   1      32.714  32.549  27.177  1.00  0.00    -0.246 OA
BRANCH  23  25
ATOM     25  C   UNL A   1      34.520  31.130  27.690  1.00  0.00     0.060 A 
ATOM     26  C   UNL A   1      34.836  29.829  28.074  1.00  0.00     0.016 A 
ATOM     27  C   UNL A   1      35.422  32.166  27.918  1.00  0.00     0.016 A 
ATOM     28  C   UNL A   1      36.004  29.569  28.785  1.00  0.00     0.010 A 
ATOM     29  C   UNL A   1      36.644  31.885  28.539  1.00  0.00     0.010 A 
ATOM     30  C   UNL A   1      36.934  30.590  29.011  1.00  0.00    -0.014 A 
BRANCH  30  31
ATOM     31  C   UNL A   1      38.194  30.320  29.757  1.00  0.00     0.031 A 
ATOM     32  C   UNL A   1      39.252  29.440  29.151  1.00  0.00     0.074 A 
ATOM     33  C   UNL A   1      38.392  30.846  30.982  1.00  0.00     0.049 A 
ATOM     34  N   UNL A   1      40.279  28.863  29.722  1.00  0.00    -0.248 NA
ATOM     35  C   UNL A   1      39.134  29.163  27.710  1.00  0.00     0.031 C 
ATOM     36  C   UNL A   1      37.487  31.769  31.668  1.00  0.00     0.029 A 
ATOM     37  N   UNL A   1      39.423  30.671  31.875  1.00  0.00    -0.354 N 
ATOM     38  C   UNL A   1      40.882  28.098  28.733  1.00  0.00     0.074 A 
ATOM     39  C   UNL A   1      40.123  28.300  27.517  1.00  0.00     0.031 C 
ATOM     40  C   UNL A   1      38.005  32.089  32.863  1.00  0.00     0.029 A 
ATOM     41  C   UNL A   1      39.228  31.322  33.069  1.00  0.00     0.049 A 
ATOM     42  H   UNL A   1      40.222  30.130  31.678  1.00  0.00     0.167 HD
ATOM     43  C   UNL A   1      41.963  27.290  28.840  1.00  0.00     0.037 A 
ATOM     44  C   UNL A   1      39.917  31.262  34.223  1.00  0.00     0.037 A 
ATOM     45  C   UNL A   1      42.755  27.148  30.034  1.00  0.00     0.049 A 
ATOM     46  C   UNL A   1      41.106  30.349  34.324  1.00  0.00     0.074 A 
ATOM     47  C   UNL A   1      43.877  26.364  30.240  1.00  0.00     0.029 A 
ATOM     48  N   UNL A   1      42.521  27.831  31.217  1.00  0.00    -0.354 N 
ATOM     49  N   UNL A   1      41.619  29.563  33.411  1.00  0.00    -0.248 NA
ATOM     50  C   UNL A   1      41.795  30.296  35.621  1.00  0.00     0.031 C 
ATOM     51  C   UNL A   1      44.308  26.554  31.557  1.00  0.00     0.029 A 
ATOM     52  C   UNL A   1      43.473  27.481  32.159  1.00  0.00     0.049 A 
ATOM     53  H   UNL A   1      41.786  28.469  31.367  1.00  0.00     0.167 HD
ATOM     54  C   UNL A   1      42.695  28.929  34.017  1.00  0.00     0.074 A 
ATOM     55  C   UNL A   1      42.770  29.433  35.372  1.00  0.00     0.031 C 
ATOM     56  C   UNL A   1      43.540  28.007  33.497  1.00  0.00     0.037 A 
BRANCH  43  57
ATOM     57  C   UNL A   1      42.337  26.457  27.651  1.00  0.00     0.064 A 
ATOM     58  C   UNL A   1      43.337  26.848  26.753  1.00  0.00     0.173 A 
ATOM     59  C   UNL A   1      41.720  25.212  27.449  1.00  0.00     0.173 A 
ATOM     60  F   UNL A   1      43.947  28.035  26.896  1.00  0.00    -0.203 F 
ATOM     61  C   UNL A   1      43.699  26.028  25.686  1.00  0.00     0.198 A 
ATOM     62  C   UNL A   1      42.100  24.385  26.395  1.00  0.00     0.198 A 
ATOM     63  F   UNL A   1      40.760  24.789  28.285  1.00  0.00    -0.203 F 
ATOM     64  F   UNL A   1      44.639  26.433  24.821  1.00  0.00    -0.200 F 
ATOM     65  C   UNL A   1      43.086  24.795  25.512  1.00  0.00     0.200 A 
ATOM     66  F   UNL A   1      41.514  23.190  26.237  1.00  0.00    -0.200 F 
ATOM     67  F   UNL A   1      43.446  24.004  24.493  1.00  0.00    -0.200 F 
ENDBRANCH  43  57
BRANCH  44  68
ATOM     68  C   UNL A   1      39.452  32.045  35.398  1.00  0.00     0.064 A 
ATOM     69  C   UNL A   1      38.565  31.491  36.330  1.00  0.00     0.173 A 
ATOM     70  C   UNL A   1      39.902  33.355  35.621  1.00  0.00     0.173 A 
ATOM     71  F   UNL A   1      38.086  30.252  36.144  1.00  0.00    -0.203 F 
ATOM     72  C   UNL A   1      38.139  32.222  37.438  1.00  0.00     0.198 A 
ATOM     73  C   UNL A   1      39.499  34.074  36.744  1.00  0.00     0.198 A 
ATOM     74  F   UNL A   1      40.752  33.930  34.757  1.00  0.00    -0.203 F 
ATOM     75  F   UNL A   1      37.262  31.683  38.296  1.00  0.00    -0.200 F 
ATOM     76  C   UNL A   1      38.614  33.508  37.649  1.00  0.00     0.200 A 
ATOM     77  F   UNL A   1      39.972  35.310  36.951  1.00  0.00    -0.200 F 
ATOM     78  F   UNL A   1      38.213  34.205  38.721  1.00  0.00    -0.200 F 
ENDBRANCH  44  68
BRANCH  56  79
ATOM     79  C   UNL A   1      44.640  27.509  34.382  1.00  0.00     0.064 A 
ATOM     80  C   UNL A   1      45.865  28.183  34.472  1.00  0.00     0.173 A 
ATOM     81  C   UNL A   1      44.440  26.382  35.192  1.00  0.00     0.173 A 
ATOM     82  F   UNL A   1      46.103  29.257  33.704  1.00  0.00    -0.203 F 
ATOM     83  C   UNL A   1      46.860  27.737  35.337  1.00  0.00     0.198 A 
ATOM     84  C   UNL A   1      45.431  25.951  36.070  1.00  0.00     0.198 A 
ATOM     85  F   UNL A   1      43.281  25.709  35.141  1.00  0.00    -0.203 F 
ATOM     86  F   UNL A   1      48.035  28.380  35.392  1.00  0.00    -0.200 F 
ATOM     87  C   UNL A   1      46.640  26.628  36.140  1.00  0.00     0.200 A 
ATOM     88  F   UNL A   1      45.214  24.884  36.850  1.00  0.00    -0.200 F 
ATOM     89  F   UNL A   1      47.595  26.207  36.980  1.00  0.00    -0.200 F 
ENDBRANCH  56  79
ENDBRANCH  30  31
ENDBRANCH  23  25
ENDBRANCH  22  23
ENDBRANCH  21  22
ENDBRANCH   1  21
TORSDOF 14
ENDMDL
MODEL 2
REMARK VINA RESULT:     -11.8      4.951     10.408
REMARK SMILES Cc1noc(C)c1CNc1cnc(C(=O)OCCOC(=O)c2ccc(-c3c4nc(c(-c5c(F)c(F)c(F)c(F)c5F)c5ccc([nH]5)c(-c5c(F)c(F)c(F)c(F)c5F)c5nc(c(-c6c(F)c(F)c(F)c(F)c6F)c6ccc3[nH]6)C=C5)C=C4)cc2)cn1
REMARK SMILES IDX 17 1 16 2 14 3 15 4 13 5 10 6 11 7 86 8 12 9 85 10 9 11 8 13
REMARK SMILES IDX 7 14 1 15 2 16 3 17 4 18 5 19 6 20 18 21 19 22 20 23 21 24
REMARK SMILES IDX 22 25 23 26 84 27 24 28 83 29 25 30 26 31 27 32 77 33 28 34
REMARK SMILES IDX 82 35 76 36 78 37 29 38 81 39 75 40 74 41 30 43 62 44 42 45
REMARK SMILES IDX 61 46 43 47 46 48 60 49 79 50 44 51 45 52 59 54 80 55 47 56
REMARK SMILES IDX 31 57 32 58 40 59 33 60 34 61 38 62 41 63 35 64 36 65 39 66
REMARK SMILES IDX 37 67 63 68 64 69 72 70 65 71 66 72 70 73 73 74 67 75 68 76
REMARK SMILES IDX 71 77 69 78 48 79 49 80 57 81 50 82 51 83 55 84 58 85 52 86
REMARK SMILES IDX 53 87 56 88 54 89
REMARK H PARENT 9 12 78 42 46 53
REMARK Flexibility Score: inf
ROOT
ATOM      1  C   UNL A   1      34.157  34.348  29.145  1.00  0.00     0.275 C 
ENDROOT
BRANCH   1   2
ATOM      2  O   UNL A   1      32.916  34.689  29.794  1.00  0.00    -0.457 OA
BRANCH   2   3
ATOM      3  C   UNL A   1      32.996  35.649  30.746  1.00  0.00     0.358 C 
ATOM      4  O   UNL A   1      32.557  36.788  30.663  1.00  0.00    -0.244 OA
BRANCH   3   5
ATOM      5  C   UNL A   1      33.613  35.136  31.988  1.00  0.00     0.166 A 
ATOM      6  C   UNL A   1      34.992  34.357  34.181  1.00  0.00     0.144 A 
ATOM      7  C   UNL A   1      34.307  33.451  33.363  1.00  0.00     0.158 A 
ATOM      8  N   UNL A   1      34.958  35.672  33.917  1.00  0.00    -0.235 NA
ATOM      9  N   UNL A   1      33.599  33.807  32.255  1.00  0.00    -0.244 NA
ATOM     10  C   UNL A   1      34.284  36.036  32.802  1.00  0.00     0.149 A 
BRANCH   6  11
ATOM     11  N   UNL A   1      35.784  34.004  35.252  1.00  0.00    -0.365 N 
ATOM     12  H   UNL A   1      35.403  33.914  36.156  1.00  0.00     0.162 HD
BRANCH  11  13
ATOM     13  C   UNL A   1      37.198  33.770  35.009  1.00  0.00     0.156 C 
BRANCH  13  14
ATOM     14  C   UNL A   1      37.657  32.375  35.270  1.00  0.00     0.037 A 
ATOM     15  C   UNL A   1      38.310  32.454  37.809  1.00  0.00     0.071 C 
ATOM     16  C   UNL A   1      38.147  31.813  36.483  1.00  0.00     0.086 A 
ATOM     17  N   UNL A   1      38.466  30.522  36.330  1.00  0.00    -0.085 NA
ATOM     18  O   UNL A   1      38.180  30.215  35.017  1.00  0.00    -0.361 OA
ATOM     19  C   UNL A   1      37.695  31.315  34.387  1.00  0.00     0.138 A 
ATOM     20  C   UNL A   1      37.324  31.147  32.970  1.00  0.00     0.091 C 
ENDBRANCH  13  14
ENDBRANCH  11  13
ENDBRANCH   6  11
ENDBRANCH   3   5
ENDBRANCH   2   3
ENDBRANCH   1   2
BRANCH   1  21
ATOM     21  C   UNL A   1      34.038  33.054  28.336  1.00  0.00     0.275 C 
BRANCH  21  22
ATOM     22  O   UNL A   1      34.829  31.993  28.910  1.00  0.00    -0.458 OA
BRANCH  22  23
ATOM     23  C   UNL A   1      34.873  30.853  28.188  1.00  0.00     0.338 C 
ATOM     24  O   UNL A   1      34.039  30.433  27.403  1.00  0.00    -0.246 OA
BRANCH  23  25
ATOM     25  C   UNL A   1      36.147  30.156  28.412  1.00  0.00     0.060 A 
ATOM     26  C   UNL A   1      36.345  29.509  29.629  1.00  0.00     0.016 A 
ATOM     27  C   UNL A   1      37.200  30.293  27.512  1.00  0.00     0.016 A 
ATOM     28  C   UNL A   1      37.619  29.093  30.005  1.00  0.00     0.010 A 
ATOM     29  C   UNL A   1      38.458  29.779  27.846  1.00  0.00     0.010 A 
ATOM     30  C   UNL A   1      38.691  29.204  29.111  1.00  0.00    -0.014 A 
BRANCH  30  31
ATOM     31  C   UNL A   1      40.054  28.746  29.497  1.00  0.00     0.031 A 
ATOM     32  C   UNL A   1      40.921  29.616  30.365  1.00  0.00     0.074 A 
ATOM     33  C   UNL A   1      40.528  27.561  29.062  1.00  0.00     0.049 A 
ATOM     34  N   UNL A   1      42.208  29.542  30.590  1.00  0.00    -0.248 NA
ATOM     35  C   UNL A   1      40.252  30.724  31.065  1.00  0.00     0.031 C 
ATOM     36  C   UNL A   1      39.779  26.584  28.271  1.00  0.00     0.029 A 
ATOM     37  N   UNL A   1      41.764  26.981  29.221  1.00  0.00    -0.354 N 
ATOM     38  C   UNL A   1      42.515  30.633  31.392  1.00  0.00     0.074 A 
ATOM     39  C   UNL A   1      41.277  31.342  31.637  1.00  0.00     0.031 C 
ATOM     40  C   UNL A   1      40.561  25.523  28.026  1.00  0.00     0.029 A 
ATOM     41  C   UNL A   1      41.894  25.785  28.557  1.00  0.00     0.049 A 
ATOM     42  H   UNL A   1      42.486  27.383  29.756  1.00  0.00     0.167 HD
ATOM     43  C   UNL A   1      43.726  31.011  31.866  1.00  0.00     0.037 A 
ATOM     44  C   UNL A   1      42.976  25.014  28.342  1.00  0.00     0.037 A 
ATOM     45  C   UNL A   1      44.940  30.262  31.678  1.00  0.00     0.049 A 
ATOM     46  C   UNL A   1      44.312  25.459  28.867  1.00  0.00     0.074 A 
ATOM     47  C   UNL A   1      46.216  30.555  32.130  1.00  0.00     0.029 A 
ATOM     48  N   UNL A   1      45.022  29.055  31.001  1.00  0.00    -0.354 N 
ATOM     49  N   UNL A   1      44.611  26.535  29.551  1.00  0.00    -0.248 NA
ATOM     50  C   UNL A   1      45.464  24.597  28.567  1.00  0.00     0.031 C 
ATOM     51  C   UNL A   1      47.075  29.536  31.705  1.00  0.00     0.029 A 
ATOM     52  C   UNL A   1      46.327  28.593  31.018  1.00  0.00     0.049 A 
ATOM     53  H   UNL A   1      44.265  28.594  30.572  1.00  0.00     0.167 HD
ATOM     54  C   UNL A   1      45.979  26.476  29.773  1.00  0.00     0.074 A 
ATOM     55  C   UNL A   1      46.451  25.251  29.163  1.00  0.00     0.031 C 
ATOM     56  C   UNL A   1      46.773  27.363  30.419  1.00  0.00     0.037 A 
BRANCH  43  57
ATOM     57  C   UNL A   1      43.815  32.314  32.602  1.00  0.00     0.064 A 
ATOM     58  C   UNL A   1      43.980  33.535  31.935  1.00  0.00     0.173 A 
ATOM     59  C   UNL A   1      43.669  32.340  33.998  1.00  0.00     0.173 A 
ATOM     60  F   UNL A   1      44.137  33.562  30.604  1.00  0.00    -0.203 F 
ATOM     61  C   UNL A   1      44.007  34.736  32.642  1.00  0.00     0.198 A 
ATOM     62  C   UNL A   1      43.674  33.543  34.698  1.00  0.00     0.198 A 
ATOM     63  F   UNL A   1      43.503  31.198  34.682  1.00  0.00    -0.203 F 
ATOM     64  F   UNL A   1      44.193  35.891  31.989  1.00  0.00    -0.200 F 
ATOM     65  C   UNL A   1      43.847  34.740  34.020  1.00  0.00     0.200 A 
ATOM     66  F   UNL A   1      43.507  33.544  36.028  1.00  0.00    -0.200 F 
ATOM     67  F   UNL A   1      43.861  35.897  34.695  1.00  0.00    -0.200 F 
ENDBRANCH  43  57
BRANCH  44  68
ATOM     68  C   UNL A   1      42.847  23.774  27.533  1.00  0.00     0.064 A 
ATOM     69  C   UNL A   1      43.113  23.777  26.158  1.00  0.00     0.173 A 
ATOM     70  C   UNL A   1      42.472  22.558  28.125  1.00  0.00     0.173 A 
ATOM     71  F   UNL A   1      43.448  24.922  25.544  1.00  0.00    -0.203 F 
ATOM     72  C   UNL A   1      43.003  22.611  25.403  1.00  0.00     0.198 A 
ATOM     73  C   UNL A   1      42.391  21.387  27.375  1.00  0.00     0.198 A 
ATOM     74  F   UNL A   1      42.206  22.503  29.438  1.00  0.00    -0.203 F 
ATOM     75  F   UNL A   1      43.229  22.647  24.082  1.00  0.00    -0.200 F 
ATOM     76  C   UNL A   1      42.652  21.416  26.013  1.00  0.00     0.200 A 
ATOM     77  F   UNL A   1      42.066  20.233  27.972  1.00  0.00    -0.200 F 
ATOM     78  F   UNL A   1      42.559  20.293  25.288  1.00  0.00    -0.200 F 
ENDBRANCH  44  68
BRANCH  56  79
ATOM     79  C   UNL A   1      48.227  27.025  30.533  1.00  0.00     0.064 A 
ATOM     80  C   UNL A   1      48.702  26.174  31.538  1.00  0.00     0.173 A 
ATOM     81  C   UNL A   1      49.141  27.512  29.588  1.00  0.00     0.173 A 
ATOM     82  F   UNL A   1      47.864  25.697  32.471  1.00  0.00    -0.203 F 
ATOM     83  C   UNL A   1      50.049  25.828  31.600  1.00  0.00     0.198 A 
ATOM     84  C   UNL A   1      50.484  27.149  29.642  1.00  0.00     0.198 A 
ATOM     85  F   UNL A   1      48.730  28.328  28.605  1.00  0.00    -0.203 F 
ATOM     86  F   UNL A   1      50.490  25.031  32.584  1.00  0.00    -0.200 F 
ATOM     87  C   UNL A   1      50.936  26.309  30.649  1.00  0.00     0.200 A 
ATOM     88  F   UNL A   1      51.339  27.609  28.719  1.00  0.00    -0.200 F 
ATOM     89  F   UNL A   1      52.231  25.966  30.705  1.00  0.00    -0.200 F 
ENDBRANCH  56  79
ENDBRANCH  30  31
ENDBRANCH  23  25
ENDBRANCH  22  23
ENDBRANCH  21  22
ENDBRANCH   1  21
TORSDOF 14
ENDMDL
MODEL 3
REMARK VINA RESULT:     -11.7      4.650      7.266
REMARK SMILES Cc1noc(C)c1CNc1cnc(C(=O)OCCOC(=O)c2ccc(-c3c4nc(c(-c5c(F)c(F)c(F)c(F)c5F)c5ccc([nH]5)c(-c5c(F)c(F)c(F)c(F)c5F)c5nc(c(-c6c(F)c(F)c(F)c(F)c6F)c6ccc3[nH]6)C=C5)C=C4)cc2)cn1
REMARK SMILES IDX 17 1 16 2 14 3 15 4 13 5 10 6 11 7 86 8 12 9 85 10 9 11 8 13
REMARK SMILES IDX 7 14 1 15 2 16 3 17 4 18 5 19 6 20 18 21 19 22 20 23 21 24
REMARK SMILES IDX 22 25 23 26 84 27 24 28 83 29 25 30 26 31 27 32 77 33 28 34
REMARK SMILES IDX 82 35 76 36 78 37 29 38 81 39 75 40 74 41 30 43 62 44 42 45
REMARK SMILES IDX 61 46 43 47 46 48 60 49 79 50 44 51 45 52 59 54 80 55 47 56
REMARK SMILES IDX 31 57 32 58 40 59 33 60 34 61 38 62 41 63 35 64 36 65 39 66
REMARK SMILES IDX 37 67 63 68 64 69 72 70 65 71 66 72 70 73 73 74 67 75 68 76
REMARK SMILES IDX 71 77 69 78 48 79 49 80 57 81 50 82 51 83 55 84 58 85 52 86
REMARK SMILES IDX 53 87 56 88 54 89
REMARK H PARENT 9 12 78 42 46 53
REMARK Flexibility Score: inf
ROOT
ATOM      1  C   UNL A   1      33.205  36.792  30.303  1.00  0.00     0.275 C 
ENDROOT
BRANCH   1   2
ATOM      2  O   UNL A   1      32.064  36.453  31.116  1.00  0.00    -0.457 OA
BRANCH   2   3
ATOM      3  C   UNL A   1      32.262  36.505  32.455  1.00  0.00     0.358 C 
ATOM      4  O   UNL A   1      31.645  37.202  33.250  1.00  0.00    -0.244 OA
BRANCH   3   5
ATOM      5  C   UNL A   1      33.278  35.526  32.896  1.00  0.00     0.166 A 
ATOM      6  C   UNL A   1      35.341  33.901  33.544  1.00  0.00     0.144 A 
ATOM      7  C   UNL A   1      34.125  33.412  33.052  1.00  0.00     0.158 A 
ATOM      8  N   UNL A   1      35.514  35.216  33.746  1.00  0.00    -0.235 NA
ATOM      9  N   UNL A   1      33.064  34.199  32.720  1.00  0.00    -0.244 NA
ATOM     10  C   UNL A   1      34.478  36.012  33.392  1.00  0.00     0.149 A 
BRANCH   6  11
ATOM     11  N   UNL A   1      36.453  33.127  33.800  1.00  0.00    -0.365 N 
ATOM     12  H   UNL A   1      36.695  32.378  33.209  1.00  0.00     0.162 HD
BRANCH  11  13
ATOM     13  C   UNL A   1      37.255  33.450  34.968  1.00  0.00     0.156 C 
BRANCH  13  14
ATOM     14  C   UNL A   1      37.700  32.272  35.769  1.00  0.00     0.037 A 
ATOM     15  C   UNL A   1      38.335  30.529  33.914  1.00  0.00     0.071 C 
ATOM     16  C   UNL A   1      38.157  31.005  35.306  1.00  0.00     0.086 A 
ATOM     17  N   UNL A   1      38.468  30.195  36.325  1.00  0.00    -0.085 NA
ATOM     18  O   UNL A   1      38.228  30.922  37.472  1.00  0.00    -0.361 OA
ATOM     19  C   UNL A   1      37.776  32.158  37.141  1.00  0.00     0.138 A 
ATOM     20  C   UNL A   1      37.486  33.070  38.264  1.00  0.00     0.091 C 
ENDBRANCH  13  14
ENDBRANCH  11  13
ENDBRANCH   6  11
ENDBRANCH   3   5
ENDBRANCH   2   3
ENDBRANCH   1   2
BRANCH   1  21
ATOM     21  C   UNL A   1      33.297  35.907  29.057  1.00  0.00     0.275 C 
BRANCH  21  22
ATOM     22  O   UNL A   1      33.034  34.523  29.367  1.00  0.00    -0.458 OA
BRANCH  22  23
ATOM     23  C   UNL A   1      33.333  33.646  28.385  1.00  0.00     0.338 C 
ATOM     24  O   UNL A   1      32.680  33.391  27.387  1.00  0.00    -0.246 OA
BRANCH  23  25
ATOM     25  C   UNL A   1      34.649  33.039  28.626  1.00  0.00     0.060 A 
ATOM     26  C   UNL A   1      34.766  32.086  29.635  1.00  0.00     0.016 A 
ATOM     27  C   UNL A   1      35.787  33.534  27.995  1.00  0.00     0.016 A 
ATOM     28  C   UNL A   1      36.021  31.702  30.097  1.00  0.00     0.010 A 
ATOM     29  C   UNL A   1      37.046  33.067  28.388  1.00  0.00     0.010 A 
ATOM     30  C   UNL A   1      37.180  32.171  29.468  1.00  0.00    -0.014 A 
BRANCH  30  31
ATOM     31  C   UNL A   1      38.527  31.753  29.943  1.00  0.00     0.031 A 
ATOM     32  C   UNL A   1      39.166  30.508  29.393  1.00  0.00     0.074 A 
ATOM     33  C   UNL A   1      39.179  32.475  30.877  1.00  0.00     0.049 A 
ATOM     34  N   UNL A   1      40.184  29.826  29.852  1.00  0.00    -0.248 NA
ATOM     35  C   UNL A   1      38.572  29.949  28.168  1.00  0.00     0.031 C 
ATOM     36  C   UNL A   1      38.716  33.739  31.452  1.00  0.00     0.029 A 
ATOM     37  N   UNL A   1      40.374  32.242  31.514  1.00  0.00    -0.354 N 
ATOM     38  C   UNL A   1      40.305  28.720  29.020  1.00  0.00     0.074 A 
ATOM     39  C   UNL A   1      39.272  28.833  28.012  1.00  0.00     0.031 C 
ATOM     40  C   UNL A   1      39.618  34.175  32.343  1.00  0.00     0.029 A 
ATOM     41  C   UNL A   1      40.674  33.178  32.474  1.00  0.00     0.049 A 
ATOM     42  H   UNL A   1      40.959  31.477  31.304  1.00  0.00     0.167 HD
ATOM     43  C   UNL A   1      41.191  27.700  29.105  1.00  0.00     0.037 A 
ATOM     44  C   UNL A   1      41.650  33.204  33.400  1.00  0.00     0.037 A 
ATOM     45  C   UNL A   1      42.259  27.631  30.067  1.00  0.00     0.049 A 
ATOM     46  C   UNL A   1      42.615  32.055  33.484  1.00  0.00     0.074 A 
ATOM     47  C   UNL A   1      43.217  26.645  30.226  1.00  0.00     0.029 A 
ATOM     48  N   UNL A   1      42.525  28.605  31.017  1.00  0.00    -0.354 N 
ATOM     49  N   UNL A   1      42.671  30.972  32.750  1.00  0.00    -0.248 NA
ATOM     50  C   UNL A   1      43.635  32.120  34.540  1.00  0.00     0.031 C 
ATOM     51  C   UNL A   1      44.049  27.011  31.290  1.00  0.00     0.029 A 
ATOM     52  C   UNL A   1      43.628  28.241  31.770  1.00  0.00     0.049 A 
ATOM     53  H   UNL A   1      42.006  29.433  31.140  1.00  0.00     0.167 HD
ATOM     54  C   UNL A   1      43.734  30.231  33.246  1.00  0.00     0.074 A 
ATOM     55  C   UNL A   1      44.305  30.994  34.336  1.00  0.00     0.031 C 
ATOM     56  C   UNL A   1      44.190  29.023  32.839  1.00  0.00     0.037 A 
BRANCH  43  57
ATOM     57  C   UNL A   1      41.025  26.547  28.162  1.00  0.00     0.064 A 
ATOM     58  C   UNL A   1      41.899  26.331  27.089  1.00  0.00     0.173 A 
ATOM     59  C   UNL A   1      40.004  25.608  28.379  1.00  0.00     0.173 A 
ATOM     60  F   UNL A   1      42.882  27.207  26.832  1.00  0.00    -0.203 F 
ATOM     61  C   UNL A   1      41.751  25.221  26.260  1.00  0.00     0.198 A 
ATOM     62  C   UNL A   1      39.873  24.488  27.562  1.00  0.00     0.198 A 
ATOM     63  F   UNL A   1      39.144  25.767  29.397  1.00  0.00    -0.203 F 
ATOM     64  F   UNL A   1      42.581  25.046  25.222  1.00  0.00    -0.200 F 
ATOM     65  C   UNL A   1      40.744  24.297  26.501  1.00  0.00     0.200 A 
ATOM     66  F   UNL A   1      38.906  23.592  27.805  1.00  0.00    -0.200 F 
ATOM     67  F   UNL A   1      40.612  23.225  25.710  1.00  0.00    -0.200 F 
ENDBRANCH  43  57
BRANCH  44  68
ATOM     68  C   UNL A   1      41.717  34.331  34.367  1.00  0.00     0.064 A 
ATOM     69  C   UNL A   1      41.275  34.177  35.686  1.00  0.00     0.173 A 
ATOM     70  C   UNL A   1      42.241  35.577  33.992  1.00  0.00     0.173 A 
ATOM     71  F   UNL A   1      40.741  33.013  36.083  1.00  0.00    -0.203 F 
ATOM     72  C   UNL A   1      41.349  35.231  36.595  1.00  0.00     0.198 A 
ATOM     73  C   UNL A   1      42.342  36.620  34.909  1.00  0.00     0.198 A 
ATOM     74  F   UNL A   1      42.678  35.775  32.739  1.00  0.00    -0.203 F 
ATOM     75  F   UNL A   1      40.888  35.071  37.843  1.00  0.00    -0.200 F 
ATOM     76  C   UNL A   1      41.892  36.448  36.209  1.00  0.00     0.200 A 
ATOM     77  F   UNL A   1      42.881  37.789  34.534  1.00  0.00    -0.200 F 
ATOM     78  F   UNL A   1      41.974  37.457  37.087  1.00  0.00    -0.200 F 
ENDBRANCH  44  68
BRANCH  56  79
ATOM     79  C   UNL A   1      45.386  28.467  33.548  1.00  0.00     0.064 A 
ATOM     80  C   UNL A   1      46.688  28.776  33.134  1.00  0.00     0.173 A 
ATOM     81  C   UNL A   1      45.223  27.668  34.688  1.00  0.00     0.173 A 
ATOM     82  F   UNL A   1      46.889  29.525  32.040  1.00  0.00    -0.203 F 
ATOM     83  C   UNL A   1      47.790  28.293  33.834  1.00  0.00     0.198 A 
ATOM     84  C   UNL A   1      46.327  27.202  35.396  1.00  0.00     0.198 A 
ATOM     85  F   UNL A   1      43.994  27.350  35.122  1.00  0.00    -0.203 F 
ATOM     86  F   UNL A   1      49.029  28.579  33.409  1.00  0.00    -0.200 F 
ATOM     87  C   UNL A   1      47.609  27.514  34.967  1.00  0.00     0.200 A 
ATOM     88  F   UNL A   1      46.151  26.456  36.495  1.00  0.00    -0.200 F 
ATOM     89  F   UNL A   1      48.672  27.059  35.646  1.00  0.00    -0.200 F 
ENDBRANCH  56  79
ENDBRANCH  30  31
ENDBRANCH  23  25
ENDBRANCH  22  23
ENDBRANCH  21  22
ENDBRANCH   1  21
TORSDOF 14
ENDMDL
