MODEL 1
REMARK VINA RESULT:     -13.0      0.000      0.000
REMARK SMILES Cc1nc(-c2ccccn2)cc(N2CCC[C@H](C(=O)OCCOC(=O)c3ccc(-c4c5nc(c(-c6c(F)c(F)c(F)c(F)c6F)c6ccc([nH]6)c(-c6c(F)c(F)c(F)c(F)c6F)c6nc(c(-c7c(F)c(F)c(F)c(F)c7F)c7ccc4[nH]7)C=C6)C=C5)cc3)C2)n1
REMARK SMILES IDX 21 1 20 2 18 3 19 4 17 5 13 6 14 7 89 8 15 9 16 10 12 11
REMARK SMILES IDX 1 12 2 13 3 14 90 15 4 16 11 17 5 18 6 19 10 20 7 21 9 22
REMARK SMILES IDX 8 23 22 24 23 25 24 26 25 27 26 28 27 29 88 30 28 31 87 32
REMARK SMILES IDX 29 33 30 34 31 35 81 36 32 37 86 38 80 39 82 40 33 41 85 42
REMARK SMILES IDX 79 43 78 44 34 46 66 47 46 48 65 49 47 50 50 51 64 52 83 53
REMARK SMILES IDX 48 54 49 55 63 57 84 58 51 59 35 60 36 61 44 62 37 63 38 64
REMARK SMILES IDX 42 65 45 66 39 67 40 68 43 69 41 70 67 71 68 72 76 73 69 74
REMARK SMILES IDX 70 75 74 76 77 77 71 78 72 79 75 80 73 81 52 82 53 83 61 84
REMARK SMILES IDX 54 85 55 86 59 87 62 88 56 89 57 90 60 91 58 92
REMARK H PARENT 82 45 50 56
REMARK Flexibility Score: inf
ROOT
ATOM      1  C   UNL A   1      31.728  28.364  26.649  1.00  0.00     0.274 C 
ENDROOT
BRANCH   1   2
ATOM      2  O   UNL A   1      31.946  27.345  25.655  1.00  0.00    -0.462 OA
BRANCH   2   3
ATOM      3  C   UNL A   1      30.980  26.401  25.509  1.00  0.00     0.310 C 
ATOM      4  O   UNL A   1      30.436  25.816  26.440  1.00  0.00    -0.252 OA
BRANCH   3   5
ATOM      5  C   UNL A   1      30.627  26.115  24.057  1.00  0.00     0.118 C 
ATOM      6  N   UNL A   1      31.892  24.089  23.695  1.00  0.00    -0.356 N 
ATOM      7  C   UNL A   1      32.717  24.599  22.616  1.00  0.00     0.118 C 
ATOM      8  C   UNL A   1      30.544  24.604  23.845  1.00  0.00     0.133 C 
ATOM      9  C   UNL A   1      32.863  26.109  22.771  1.00  0.00     0.022 C 
ATOM     10  C   UNL A   1      31.517  26.803  23.009  1.00  0.00     0.019 C 
BRANCH   6  11
ATOM     11  C   UNL A   1      32.289  23.033  24.475  1.00  0.00     0.132 A 
ATOM     12  C   UNL A   1      33.286  22.447  27.942  1.00  0.00     0.090 C 
ATOM     13  C   UNL A   1      33.056  22.224  26.481  1.00  0.00     0.128 A 
ATOM     14  N   UNL A   1      33.265  20.987  26.003  1.00  0.00    -0.231 NA
ATOM     15  N   UNL A   1      32.622  23.266  25.753  1.00  0.00    -0.216 NA
ATOM     16  C   UNL A   1      32.948  20.787  24.708  1.00  0.00     0.094 A 
ATOM     17  C   UNL A   1      32.422  21.784  23.913  1.00  0.00     0.077 A 
BRANCH  16  18
ATOM     18  C   UNL A   1      33.251  19.470  24.141  1.00  0.00     0.089 A 
ATOM     19  C   UNL A   1      32.440  18.904  23.156  1.00  0.00     0.030 A 
ATOM     20  N   UNL A   1      34.316  18.814  24.669  1.00  0.00    -0.255 NA
ATOM     21  C   UNL A   1      32.733  17.626  22.691  1.00  0.00     0.004 A 
ATOM     22  C   UNL A   1      34.586  17.582  24.187  1.00  0.00     0.112 A 
ATOM     23  C   UNL A   1      33.830  16.951  23.214  1.00  0.00     0.020 A 
ENDBRANCH  16  18
ENDBRANCH   6  11
ENDBRANCH   3   5
ENDBRANCH   2   3
ENDBRANCH   1   2
BRANCH   1  24
ATOM     24  C   UNL A   1      31.775  29.762  26.032  1.00  0.00     0.275 C 
BRANCH  24  25
ATOM     25  O   UNL A   1      33.119  30.276  26.028  1.00  0.00    -0.458 OA
BRANCH  25  26
ATOM     26  C   UNL A   1      33.362  31.246  26.939  1.00  0.00     0.338 C 
ATOM     27  O   UNL A   1      32.623  32.151  27.281  1.00  0.00    -0.246 OA
BRANCH  26  28
ATOM     28  C   UNL A   1      34.645  30.971  27.602  1.00  0.00     0.060 A 
ATOM     29  C   UNL A   1      34.916  29.654  27.979  1.00  0.00     0.016 A 
ATOM     30  C   UNL A   1      35.536  31.999  27.910  1.00  0.00     0.016 A 
ATOM     31  C   UNL A   1      36.084  29.352  28.669  1.00  0.00     0.010 A 
ATOM     32  C   UNL A   1      36.708  31.697  28.610  1.00  0.00     0.010 A 
ATOM     33  C   UNL A   1      36.981  30.374  29.001  1.00  0.00    -0.014 A 
BRANCH  33  34
ATOM     34  C   UNL A   1      38.175  30.058  29.818  1.00  0.00     0.031 A 
ATOM     35  C   UNL A   1      39.223  29.134  29.270  1.00  0.00     0.074 A 
ATOM     36  C   UNL A   1      38.327  30.620  31.030  1.00  0.00     0.049 A 
ATOM     37  N   UNL A   1      40.305  28.676  29.844  1.00  0.00    -0.248 NA
ATOM     38  C   UNL A   1      39.025  28.662  27.891  1.00  0.00     0.031 C 
ATOM     39  C   UNL A   1      37.396  31.566  31.643  1.00  0.00     0.029 A 
ATOM     40  N   UNL A   1      39.322  30.471  31.964  1.00  0.00    -0.354 N 
ATOM     41  C   UNL A   1      40.908  27.848  28.907  1.00  0.00     0.074 A 
ATOM     42  C   UNL A   1      40.065  27.855  27.730  1.00  0.00     0.031 C 
ATOM     43  C   UNL A   1      37.860  31.909  32.855  1.00  0.00     0.029 A 
ATOM     44  C   UNL A   1      39.097  31.178  33.118  1.00  0.00     0.049 A 
ATOM     45  H   UNL A   1      40.119  29.912  31.820  1.00  0.00     0.167 HD
ATOM     46  C   UNL A   1      42.061  27.149  29.022  1.00  0.00     0.037 A 
ATOM     47  C   UNL A   1      39.800  31.209  34.266  1.00  0.00     0.037 A 
ATOM     48  C   UNL A   1      42.903  27.160  30.188  1.00  0.00     0.049 A 
ATOM     49  C   UNL A   1      41.054  30.386  34.383  1.00  0.00     0.074 A 
ATOM     50  C   UNL A   1      44.102  26.498  30.396  1.00  0.00     0.029 A 
ATOM     51  N   UNL A   1      42.634  27.872  31.347  1.00  0.00    -0.354 N 
ATOM     52  N   UNL A   1      41.617  29.607  33.492  1.00  0.00    -0.248 NA
ATOM     53  C   UNL A   1      41.769  30.445  35.666  1.00  0.00     0.031 C 
ATOM     54  C   UNL A   1      44.538  26.780  31.694  1.00  0.00     0.029 A 
ATOM     55  C   UNL A   1      43.634  27.650  32.281  1.00  0.00     0.049 A 
ATOM     56  H   UNL A   1      41.850  28.450  31.487  1.00  0.00     0.167 HD
ATOM     57  C   UNL A   1      42.759  29.099  34.097  1.00  0.00     0.074 A 
ATOM     58  C   UNL A   1      42.817  29.670  35.426  1.00  0.00     0.031 C 
ATOM     59  C   UNL A   1      43.675  28.234  33.597  1.00  0.00     0.037 A 
BRANCH  46  60
ATOM     60  C   UNL A   1      42.467  26.287  27.865  1.00  0.00     0.064 A 
ATOM     61  C   UNL A   1      41.940  25.000  27.683  1.00  0.00     0.173 A 
ATOM     62  C   UNL A   1      43.364  26.773  26.902  1.00  0.00     0.173 A 
ATOM     63  F   UNL A   1      41.091  24.484  28.584  1.00  0.00    -0.203 F 
ATOM     64  C   UNL A   1      42.310  24.225  26.587  1.00  0.00     0.198 A 
ATOM     65  C   UNL A   1      43.714  26.005  25.795  1.00  0.00     0.198 A 
ATOM     66  F   UNL A   1      43.894  28.000  27.030  1.00  0.00    -0.203 F 
ATOM     67  F   UNL A   1      41.824  22.983  26.450  1.00  0.00    -0.200 F 
ATOM     68  C   UNL A   1      43.191  24.730  25.641  1.00  0.00     0.200 A 
ATOM     69  F   UNL A   1      44.558  26.498  24.879  1.00  0.00    -0.200 F 
ATOM     70  F   UNL A   1      43.540  23.985  24.584  1.00  0.00    -0.200 F 
ENDBRANCH  46  60
BRANCH  47  71
ATOM     71  C   UNL A   1      39.319  32.030  35.407  1.00  0.00     0.064 A 
ATOM     72  C   UNL A   1      38.491  31.482  36.394  1.00  0.00     0.173 A 
ATOM     73  C   UNL A   1      39.671  33.383  35.526  1.00  0.00     0.173 A 
ATOM     74  F   UNL A   1      38.106  30.200  36.310  1.00  0.00    -0.203 F 
ATOM     75  C   UNL A   1      38.019  32.259  37.451  1.00  0.00     0.198 A 
ATOM     76  C   UNL A   1      39.221  34.153  36.596  1.00  0.00     0.198 A 
ATOM     77  F   UNL A   1      40.459  33.955  34.604  1.00  0.00    -0.203 F 
ATOM     78  F   UNL A   1      37.191  31.723  38.358  1.00  0.00    -0.200 F 
ATOM     79  C   UNL A   1      38.389  33.592  37.554  1.00  0.00     0.200 A 
ATOM     80  F   UNL A   1      39.588  35.437  36.696  1.00  0.00    -0.200 F 
ATOM     81  F   UNL A   1      37.937  34.339  38.570  1.00  0.00    -0.200 F 
ENDBRANCH  47  71
BRANCH  59  82
ATOM     82  C   UNL A   1      44.832  27.875  34.482  1.00  0.00     0.064 A 
ATOM     83  C   UNL A   1      46.002  28.647  34.507  1.00  0.00     0.173 A 
ATOM     84  C   UNL A   1      44.752  26.769  35.341  1.00  0.00     0.173 A 
ATOM     85  F   UNL A   1      46.130  29.705  33.693  1.00  0.00    -0.203 F 
ATOM     86  C   UNL A   1      47.060  28.313  35.349  1.00  0.00     0.198 A 
ATOM     87  C   UNL A   1      45.802  26.452  36.199  1.00  0.00     0.198 A 
ATOM     88  F   UNL A   1      43.651  26.003  35.356  1.00  0.00    -0.203 F 
ATOM     89  F   UNL A   1      48.185  29.041  35.330  1.00  0.00    -0.200 F 
ATOM     90  C   UNL A   1      46.956  27.220  36.197  1.00  0.00     0.200 A 
ATOM     91  F   UNL A   1      45.695  25.403  37.026  1.00  0.00    -0.200 F 
ATOM     92  F   UNL A   1      47.973  26.904  37.010  1.00  0.00    -0.200 F 
ENDBRANCH  59  82
ENDBRANCH  33  34
ENDBRANCH  26  28
ENDBRANCH  25  26
ENDBRANCH  24  25
ENDBRANCH   1  24
TORSDOF 13
ENDMDL
MODEL 2
REMARK VINA RESULT:     -12.9      0.340      2.013
REMARK SMILES Cc1nc(-c2ccccn2)cc(N2CCC[C@H](C(=O)OCCOC(=O)c3ccc(-c4c5nc(c(-c6c(F)c(F)c(F)c(F)c6F)c6ccc([nH]6)c(-c6c(F)c(F)c(F)c(F)c6F)c6nc(c(-c7c(F)c(F)c(F)c(F)c7F)c7ccc4[nH]7)C=C6)C=C5)cc3)C2)n1
REMARK SMILES IDX 21 1 20 2 18 3 19 4 17 5 13 6 14 7 89 8 15 9 16 10 12 11
REMARK SMILES IDX 1 12 2 13 3 14 90 15 4 16 11 17 5 18 6 19 10 20 7 21 9 22
REMARK SMILES IDX 8 23 22 24 23 25 24 26 25 27 26 28 27 29 88 30 28 31 87 32
REMARK SMILES IDX 29 33 30 34 31 35 81 36 32 37 86 38 80 39 82 40 33 41 85 42
REMARK SMILES IDX 79 43 78 44 34 46 66 47 46 48 65 49 47 50 50 51 64 52 83 53
REMARK SMILES IDX 48 54 49 55 63 57 84 58 51 59 35 60 36 61 44 62 37 63 38 64
REMARK SMILES IDX 42 65 45 66 39 67 40 68 43 69 41 70 67 71 68 72 76 73 69 74
REMARK SMILES IDX 70 75 74 76 77 77 71 78 72 79 75 80 73 81 52 82 53 83 61 84
REMARK SMILES IDX 54 85 55 86 59 87 62 88 56 89 57 90 60 91 58 92
REMARK H PARENT 82 45 50 56
REMARK Flexibility Score: inf
ROOT
ATOM      1  C   UNL A   1      31.784  28.182  26.576  1.00  0.00     0.274 C 
ENDROOT
BRANCH   1   2
ATOM      2  O   UNL A   1      31.893  27.384  25.382  1.00  0.00    -0.462 OA
BRANCH   2   3
ATOM      3  C   UNL A   1      30.986  26.387  25.216  1.00  0.00     0.310 C 
ATOM      4  O   UNL A   1      30.433  25.793  26.134  1.00  0.00    -0.252 OA
BRANCH   3   5
ATOM      5  C   UNL A   1      30.715  26.051  23.756  1.00  0.00     0.118 C 
ATOM      6  N   UNL A   1      32.024  24.034  23.525  1.00  0.00    -0.356 N 
ATOM      7  C   UNL A   1      32.899  24.523  22.476  1.00  0.00     0.118 C 
ATOM      8  C   UNL A   1      30.664  24.534  23.587  1.00  0.00     0.133 C 
ATOM      9  C   UNL A   1      33.018  26.039  22.592  1.00  0.00     0.022 C 
ATOM     10  C   UNL A   1      31.652  26.720  22.736  1.00  0.00     0.019 C 
BRANCH   6  11
ATOM     11  C   UNL A   1      32.392  23.008  24.358  1.00  0.00     0.132 A 
ATOM     12  C   UNL A   1      33.350  22.566  27.857  1.00  0.00     0.090 C 
ATOM     13  C   UNL A   1      33.127  22.279  26.406  1.00  0.00     0.128 A 
ATOM     14  N   UNL A   1      33.312  21.017  25.989  1.00  0.00    -0.231 NA
ATOM     15  N   UNL A   1      32.720  23.294  25.625  1.00  0.00    -0.216 NA
ATOM     16  C   UNL A   1      33.000  20.762  24.702  1.00  0.00     0.094 A 
ATOM     17  C   UNL A   1      32.502  21.731  23.857  1.00  0.00     0.077 A 
BRANCH  16  18
ATOM     18  C   UNL A   1      33.279  19.414  24.200  1.00  0.00     0.089 A 
ATOM     19  C   UNL A   1      34.402  18.703  24.628  1.00  0.00     0.030 A 
ATOM     20  N   UNL A   1      32.428  18.929  23.260  1.00  0.00    -0.255 NA
ATOM     21  C   UNL A   1      34.659  17.450  24.078  1.00  0.00     0.004 A 
ATOM     22  C   UNL A   1      32.693  17.704  22.757  1.00  0.00     0.112 A 
ATOM     23  C   UNL A   1      33.786  16.938  23.126  1.00  0.00     0.020 A 
ENDBRANCH  16  18
ENDBRANCH   6  11
ENDBRANCH   3   5
ENDBRANCH   2   3
ENDBRANCH   1   2
BRANCH   1  24
ATOM     24  C   UNL A   1      31.740  29.674  26.246  1.00  0.00     0.275 C 
BRANCH  24  25
ATOM     25  O   UNL A   1      33.069  30.213  26.126  1.00  0.00    -0.458 OA
BRANCH  25  26
ATOM     26  C   UNL A   1      33.349  31.233  26.970  1.00  0.00     0.338 C 
ATOM     27  O   UNL A   1      32.645  32.186  27.250  1.00  0.00    -0.246 OA
BRANCH  26  28
ATOM     28  C   UNL A   1      34.623  30.956  27.649  1.00  0.00     0.060 A 
ATOM     29  C   UNL A   1      34.905  29.633  27.994  1.00  0.00     0.016 A 
ATOM     30  C   UNL A   1      35.493  31.987  28.004  1.00  0.00     0.016 A 
ATOM     31  C   UNL A   1      36.065  29.327  28.698  1.00  0.00     0.010 A 
ATOM     32  C   UNL A   1      36.656  31.680  28.718  1.00  0.00     0.010 A 
ATOM     33  C   UNL A   1      36.940  30.351  29.076  1.00  0.00    -0.014 A 
BRANCH  33  34
ATOM     34  C   UNL A   1      38.123  30.028  29.907  1.00  0.00     0.031 A 
ATOM     35  C   UNL A   1      39.182  29.115  29.362  1.00  0.00     0.074 A 
ATOM     36  C   UNL A   1      38.255  30.573  31.129  1.00  0.00     0.049 A 
ATOM     37  N   UNL A   1      40.258  28.654  29.946  1.00  0.00    -0.248 NA
ATOM     38  C   UNL A   1      39.007  28.662  27.974  1.00  0.00     0.031 C 
ATOM     39  C   UNL A   1      37.311  31.507  31.740  1.00  0.00     0.029 A 
ATOM     40  N   UNL A   1      39.235  30.415  32.075  1.00  0.00    -0.354 N 
ATOM     41  C   UNL A   1      40.878  27.841  29.007  1.00  0.00     0.074 A 
ATOM     42  C   UNL A   1      40.053  27.862  27.818  1.00  0.00     0.031 C 
ATOM     43  C   UNL A   1      37.754  31.835  32.965  1.00  0.00     0.029 A 
ATOM     44  C   UNL A   1      38.990  31.105  33.236  1.00  0.00     0.049 A 
ATOM     45  H   UNL A   1      40.036  29.861  31.936  1.00  0.00     0.167 HD
ATOM     46  C   UNL A   1      42.032  27.144  29.130  1.00  0.00     0.037 A 
ATOM     47  C   UNL A   1      39.675  31.122  34.395  1.00  0.00     0.037 A 
ATOM     48  C   UNL A   1      42.856  27.142  30.309  1.00  0.00     0.049 A 
ATOM     49  C   UNL A   1      40.931  30.302  34.520  1.00  0.00     0.074 A 
ATOM     50  C   UNL A   1      44.054  26.482  30.526  1.00  0.00     0.029 A 
ATOM     51  N   UNL A   1      42.566  27.837  31.474  1.00  0.00    -0.354 N 
ATOM     52  N   UNL A   1      41.510  29.538  33.627  1.00  0.00    -0.248 NA
ATOM     53  C   UNL A   1      41.625  30.346  35.814  1.00  0.00     0.031 C 
ATOM     54  C   UNL A   1      44.469  26.746  31.835  1.00  0.00     0.029 A 
ATOM     55  C   UNL A   1      43.553  27.606  32.419  1.00  0.00     0.049 A 
ATOM     56  H   UNL A   1      41.778  28.410  31.609  1.00  0.00     0.167 HD
ATOM     57  C   UNL A   1      42.644  29.025  34.242  1.00  0.00     0.074 A 
ATOM     58  C   UNL A   1      42.680  29.577  35.580  1.00  0.00     0.031 C 
ATOM     59  C   UNL A   1      43.571  28.171  33.744  1.00  0.00     0.037 A 
BRANCH  46  60
ATOM     60  C   UNL A   1      42.458  26.300  27.967  1.00  0.00     0.064 A 
ATOM     61  C   UNL A   1      43.352  26.778  26.998  1.00  0.00     0.173 A 
ATOM     62  C   UNL A   1      41.997  24.982  27.844  1.00  0.00     0.173 A 
ATOM     63  F   UNL A   1      43.810  28.038  27.063  1.00  0.00    -0.203 F 
ATOM     64  C   UNL A   1      43.757  25.970  25.938  1.00  0.00     0.198 A 
ATOM     65  C   UNL A   1      42.421  24.168  26.797  1.00  0.00     0.198 A 
ATOM     66  F   UNL A   1      41.142  24.477  28.747  1.00  0.00    -0.203 F 
ATOM     67  F   UNL A   1      44.583  26.456  25.003  1.00  0.00    -0.200 F 
ATOM     68  C   UNL A   1      43.296  24.664  25.842  1.00  0.00     0.200 A 
ATOM     69  F   UNL A   1      41.981  22.905  26.710  1.00  0.00    -0.200 F 
ATOM     70  F   UNL A   1      43.691  23.886  24.825  1.00  0.00    -0.200 F 
ENDBRANCH  46  60
BRANCH  47  71
ATOM     71  C   UNL A   1      39.173  31.925  35.540  1.00  0.00     0.064 A 
ATOM     72  C   UNL A   1      39.541  33.267  35.698  1.00  0.00     0.173 A 
ATOM     73  C   UNL A   1      38.322  31.362  36.503  1.00  0.00     0.173 A 
ATOM     74  F   UNL A   1      40.373  33.842  34.818  1.00  0.00    -0.203 F 
ATOM     75  C   UNL A   1      39.090  34.013  36.786  1.00  0.00     0.198 A 
ATOM     76  C   UNL A   1      37.851  32.115  37.575  1.00  0.00     0.198 A 
ATOM     77  F   UNL A   1      37.945  30.079  36.397  1.00  0.00    -0.203 F 
ATOM     78  F   UNL A   1      39.492  35.282  36.940  1.00  0.00    -0.200 F 
ATOM     79  C   UNL A   1      38.240  33.438  37.720  1.00  0.00     0.200 A 
ATOM     80  F   UNL A   1      37.023  31.558  38.470  1.00  0.00    -0.200 F 
ATOM     81  F   UNL A   1      37.806  34.155  38.765  1.00  0.00    -0.200 F 
ENDBRANCH  47  71
BRANCH  59  82
ATOM     82  C   UNL A   1      44.716  27.803  34.641  1.00  0.00     0.064 A 
ATOM     83  C   UNL A   1      44.664  26.673  35.468  1.00  0.00     0.173 A 
ATOM     84  C   UNL A   1      45.891  28.569  34.643  1.00  0.00     0.173 A 
ATOM     85  F   UNL A   1      43.556  25.918  35.512  1.00  0.00    -0.203 F 
ATOM     86  C   UNL A   1      45.742  26.332  36.281  1.00  0.00     0.198 A 
ATOM     87  C   UNL A   1      46.976  28.213  35.439  1.00  0.00     0.198 A 
ATOM     88  F   UNL A   1      45.990  29.657  33.865  1.00  0.00    -0.203 F 
ATOM     89  F   UNL A   1      45.658  25.270  37.094  1.00  0.00    -0.200 F 
ATOM     90  C   UNL A   1      46.898  27.099  36.261  1.00  0.00     0.200 A 
ATOM     91  F   UNL A   1      48.097  28.947  35.410  1.00  0.00    -0.200 F 
ATOM     92  F   UNL A   1      47.937  26.766  37.040  1.00  0.00    -0.200 F 
ENDBRANCH  59  82
ENDBRANCH  33  34
ENDBRANCH  26  28
ENDBRANCH  25  26
ENDBRANCH  24  25
ENDBRANCH   1  24
TORSDOF 13
ENDMDL
MODEL 3
REMARK VINA RESULT:     -12.8      4.343      9.780
REMARK SMILES Cc1nc(-c2ccccn2)cc(N2CCC[C@H](C(=O)OCCOC(=O)c3ccc(-c4c5nc(c(-c6c(F)c(F)c(F)c(F)c6F)c6ccc([nH]6)c(-c6c(F)c(F)c(F)c(F)c6F)c6nc(c(-c7c(F)c(F)c(F)c(F)c7F)c7ccc4[nH]7)C=C6)C=C5)cc3)C2)n1
REMARK SMILES IDX 21 1 20 2 18 3 19 4 17 5 13 6 14 7 89 8 15 9 16 10 12 11
REMARK SMILES IDX 1 12 2 13 3 14 90 15 4 16 11 17 5 18 6 19 10 20 7 21 9 22
REMARK SMILES IDX 8 23 22 24 23 25 24 26 25 27 26 28 27 29 88 30 28 31 87 32
REMARK SMILES IDX 29 33 30 34 31 35 81 36 32 37 86 38 80 39 82 40 33 41 85 42
REMARK SMILES IDX 79 43 78 44 34 46 66 47 46 48 65 49 47 50 50 51 64 52 83 53
REMARK SMILES IDX 48 54 49 55 63 57 84 58 51 59 35 60 36 61 44 62 37 63 38 64
REMARK SMILES IDX 42 65 45 66 39 67 40 68 43 69 41 70 67 71 68 72 76 73 69 74
REMARK SMILES IDX 70 75 74 76 77 77 71 78 72 79 75 80 73 81 52 82 53 83 61 84
REMARK SMILES IDX 54 85 55 86 59 87 62 88 56 89 57 90 60 91 58 92
REMARK H PARENT 82 45 50 56
REMARK Flexibility Score: inf
ROOT
ATOM      1  C   UNL A   1      36.610  22.665  23.646  1.00  0.00     0.274 C 
ENDROOT
BRANCH   1   2
ATOM      2  O   UNL A   1      35.494  23.297  24.302  1.00  0.00    -0.462 OA
BRANCH   2   3
ATOM      3  C   UNL A   1      34.305  23.291  23.647  1.00  0.00     0.310 C 
ATOM      4  O   UNL A   1      34.066  23.944  22.637  1.00  0.00    -0.252 OA
BRANCH   3   5
ATOM      5  C   UNL A   1      33.261  22.392  24.295  1.00  0.00     0.118 C 
ATOM      6  N   UNL A   1      32.004  24.025  25.555  1.00  0.00    -0.356 N 
ATOM      7  C   UNL A   1      32.236  23.442  26.862  1.00  0.00     0.118 C 
ATOM      8  C   UNL A   1      31.938  23.149  24.401  1.00  0.00     0.133 C 
ATOM      9  C   UNL A   1      33.558  22.681  26.841  1.00  0.00     0.022 C 
ATOM     10  C   UNL A   1      33.674  21.750  25.630  1.00  0.00     0.019 C 
BRANCH   6  11
ATOM     11  C   UNL A   1      31.694  25.353  25.397  1.00  0.00     0.132 A 
ATOM     12  C   UNL A   1      29.354  27.378  23.453  1.00  0.00     0.090 C 
ATOM     13  C   UNL A   1      30.503  27.001  24.333  1.00  0.00     0.128 A 
ATOM     14  N   UNL A   1      31.186  27.996  24.920  1.00  0.00    -0.231 NA
ATOM     15  N   UNL A   1      30.752  25.692  24.506  1.00  0.00    -0.216 NA
ATOM     16  C   UNL A   1      32.147  27.627  25.791  1.00  0.00     0.094 A 
ATOM     17  C   UNL A   1      32.411  26.305  26.084  1.00  0.00     0.077 A 
BRANCH  16  18
ATOM     18  C   UNL A   1      32.965  28.693  26.376  1.00  0.00     0.089 A 
ATOM     19  C   UNL A   1      34.304  28.476  26.706  1.00  0.00     0.030 A 
ATOM     20  N   UNL A   1      32.335  29.868  26.633  1.00  0.00    -0.255 NA
ATOM     21  C   UNL A   1      35.024  29.500  27.315  1.00  0.00     0.004 A 
ATOM     22  C   UNL A   1      33.064  30.848  27.209  1.00  0.00     0.112 A 
ATOM     23  C   UNL A   1      34.394  30.712  27.569  1.00  0.00     0.020 A 
ENDBRANCH  16  18
ENDBRANCH   6  11
ENDBRANCH   3   5
ENDBRANCH   2   3
ENDBRANCH   1   2
BRANCH   1  24
ATOM     24  C   UNL A   1      37.106  21.453  24.437  1.00  0.00     0.275 C 
BRANCH  24  25
ATOM     25  O   UNL A   1      37.490  21.832  25.771  1.00  0.00    -0.458 OA
BRANCH  25  26
ATOM     26  C   UNL A   1      38.760  21.515  26.111  1.00  0.00     0.338 C 
ATOM     27  O   UNL A   1      39.336  20.454  25.944  1.00  0.00    -0.246 OA
BRANCH  26  28
ATOM     28  C   UNL A   1      39.439  22.720  26.607  1.00  0.00     0.060 A 
ATOM     29  C   UNL A   1      39.007  23.958  26.126  1.00  0.00     0.016 A 
ATOM     30  C   UNL A   1      40.527  22.633  27.475  1.00  0.00     0.016 A 
ATOM     31  C   UNL A   1      39.661  25.123  26.511  1.00  0.00     0.010 A 
ATOM     32  C   UNL A   1      41.189  23.804  27.858  1.00  0.00     0.010 A 
ATOM     33  C   UNL A   1      40.765  25.052  27.369  1.00  0.00    -0.014 A 
BRANCH  33  34
ATOM     34  C   UNL A   1      41.511  26.287  27.698  1.00  0.00     0.031 A 
ATOM     35  C   UNL A   1      40.842  27.365  28.499  1.00  0.00     0.074 A 
ATOM     36  C   UNL A   1      42.789  26.425  27.302  1.00  0.00     0.049 A 
ATOM     37  N   UNL A   1      41.292  28.546  28.837  1.00  0.00    -0.248 NA
ATOM     38  C   UNL A   1      39.484  27.074  28.985  1.00  0.00     0.031 C 
ATOM     39  C   UNL A   1      43.553  25.425  26.559  1.00  0.00     0.029 A 
ATOM     40  N   UNL A   1      43.667  27.466  27.469  1.00  0.00    -0.354 N 
ATOM     41  C   UNL A   1      40.268  29.147  29.557  1.00  0.00     0.074 A 
ATOM     42  C   UNL A   1      39.169  28.207  29.597  1.00  0.00     0.031 C 
ATOM     43  C   UNL A   1      44.786  25.902  26.326  1.00  0.00     0.029 A 
ATOM     44  C   UNL A   1      44.884  27.255  26.869  1.00  0.00     0.049 A 
ATOM     45  H   UNL A   1      43.447  28.284  27.969  1.00  0.00     0.167 HD
ATOM     46  C   UNL A   1      40.254  30.373  30.132  1.00  0.00     0.037 A 
ATOM     47  C   UNL A   1      45.946  28.074  26.753  1.00  0.00     0.037 A 
ATOM     48  C   UNL A   1      41.357  31.296  30.102  1.00  0.00     0.049 A 
ATOM     49  C   UNL A   1      45.885  29.449  27.362  1.00  0.00     0.074 A 
ATOM     50  C   UNL A   1      41.446  32.555  30.671  1.00  0.00     0.029 A 
ATOM     51  N   UNL A   1      42.567  31.057  29.469  1.00  0.00    -0.354 N 
ATOM     52  N   UNL A   1      44.915  30.009  28.042  1.00  0.00    -0.248 NA
ATOM     53  C   UNL A   1      47.067  30.305  27.186  1.00  0.00     0.031 C 
ATOM     54  C   UNL A   1      42.696  33.093  30.348  1.00  0.00     0.029 A 
ATOM     55  C   UNL A   1      43.402  32.153  29.616  1.00  0.00     0.049 A 
ATOM     56  H   UNL A   1      42.800  30.231  28.987  1.00  0.00     0.167 HD
ATOM     57  C   UNL A   1      45.373  31.272  28.390  1.00  0.00     0.074 A 
ATOM     58  C   UNL A   1      46.715  31.391  27.860  1.00  0.00     0.031 C 
ATOM     59  C   UNL A   1      44.737  32.248  29.085  1.00  0.00     0.037 A 
BRANCH  46  60
ATOM     60  C   UNL A   1      38.992  30.800  30.818  1.00  0.00     0.064 A 
ATOM     61  C   UNL A   1      37.920  31.361  30.110  1.00  0.00     0.173 A 
ATOM     62  C   UNL A   1      38.839  30.607  32.199  1.00  0.00     0.173 A 
ATOM     63  F   UNL A   1      38.024  31.581  28.790  1.00  0.00    -0.203 F 
ATOM     64  C   UNL A   1      36.746  31.728  30.762  1.00  0.00     0.198 A 
ATOM     65  C   UNL A   1      37.655  30.953  32.845  1.00  0.00     0.198 A 
ATOM     66  F   UNL A   1      39.835  30.072  32.922  1.00  0.00    -0.203 F 
ATOM     67  F   UNL A   1      35.747  32.296  30.073  1.00  0.00    -0.200 F 
ATOM     68  C   UNL A   1      36.611  31.518  32.127  1.00  0.00     0.200 A 
ATOM     69  F   UNL A   1      37.525  30.742  34.162  1.00  0.00    -0.200 F 
ATOM     70  F   UNL A   1      35.478  31.866  32.752  1.00  0.00    -0.200 F 
ENDBRANCH  46  60
BRANCH  47  71
ATOM     71  C   UNL A   1      47.149  27.625  26.005  1.00  0.00     0.064 A 
ATOM     72  C   UNL A   1      47.211  27.722  24.609  1.00  0.00     0.173 A 
ATOM     73  C   UNL A   1      48.256  27.081  26.673  1.00  0.00     0.173 A 
ATOM     74  F   UNL A   1      46.167  28.211  23.925  1.00  0.00    -0.203 F 
ATOM     75  C   UNL A   1      48.330  27.277  23.907  1.00  0.00     0.198 A 
ATOM     76  C   UNL A   1      49.384  26.661  25.973  1.00  0.00     0.198 A 
ATOM     77  F   UNL A   1      48.243  26.964  28.009  1.00  0.00    -0.203 F 
ATOM     78  F   UNL A   1      48.346  27.339  22.568  1.00  0.00    -0.200 F 
ATOM     79  C   UNL A   1      49.417  26.753  24.589  1.00  0.00     0.200 A 
ATOM     80  F   UNL A   1      50.436  26.164  26.637  1.00  0.00    -0.200 F 
ATOM     81  F   UNL A   1      50.493  26.327  23.914  1.00  0.00    -0.200 F 
ENDBRANCH  47  71
BRANCH  59  82
ATOM     82  C   UNL A   1      45.497  33.518  29.333  1.00  0.00     0.064 A 
ATOM     83  C   UNL A   1      45.421  34.601  28.446  1.00  0.00     0.173 A 
ATOM     84  C   UNL A   1      46.276  33.664  30.490  1.00  0.00     0.173 A 
ATOM     85  F   UNL A   1      44.700  34.502  27.320  1.00  0.00    -0.203 F 
ATOM     86  C   UNL A   1      46.115  35.781  28.700  1.00  0.00     0.198 A 
ATOM     87  C   UNL A   1      46.950  34.854  30.752  1.00  0.00     0.198 A 
ATOM     88  F   UNL A   1      46.375  32.657  31.370  1.00  0.00    -0.203 F 
ATOM     89  F   UNL A   1      46.061  36.791  27.821  1.00  0.00    -0.200 F 
ATOM     90  C   UNL A   1      46.874  35.908  29.855  1.00  0.00     0.200 A 
ATOM     91  F   UNL A   1      47.673  34.979  31.874  1.00  0.00    -0.200 F 
ATOM     92  F   UNL A   1      47.537  37.047  30.100  1.00  0.00    -0.200 F 
ENDBRANCH  59  82
ENDBRANCH  33  34
ENDBRANCH  26  28
ENDBRANCH  25  26
ENDBRANCH  24  25
ENDBRANCH   1  24
TORSDOF 13
ENDMDL
