MODEL 1
REMARK VINA RESULT:     -10.4      0.000      0.000
REMARK SMILES CC[C@@H](Nc1ccn(C)n1)C(=O)OCCOC(=O)c1ccc(-c2c3nc(c(-c4c(F)c(F)c(F)c(F)c4F)c4ccc([nH]4)c(-c4c(F)c(F)c(F)c(F)c4F)c4nc(c(-c5c(F)c(F)c(F)c(F)c5F)c5ccc2[nH]5)C=C4)C=C3)cc1
REMARK SMILES IDX 14 1 13 2 11 3 12 4 3 5 2 6 1 7 4 8 5 10 6 11 10 12 7 13
REMARK SMILES IDX 8 14 9 15 15 16 16 17 17 18 18 19 19 20 20 21 81 22 21 23
REMARK SMILES IDX 80 24 22 25 23 26 24 27 74 28 25 29 79 30 73 31 75 32 26 33
REMARK SMILES IDX 78 34 72 35 71 36 27 38 59 39 39 40 58 41 40 42 43 43 57 44
REMARK SMILES IDX 76 45 41 46 42 47 56 49 77 50 44 51 28 52 29 53 37 54 30 55
REMARK SMILES IDX 31 56 35 57 38 58 32 59 33 60 36 61 34 62 60 63 61 64 69 65
REMARK SMILES IDX 62 66 63 67 67 68 70 69 64 70 65 71 68 72 66 73 45 74 46 75
REMARK SMILES IDX 54 76 47 77 48 78 52 79 55 80 49 81 50 82 53 83 51 84
REMARK H PARENT 4 9 75 37 43 48
REMARK Flexibility Score: inf
ROOT
ATOM      1  C   UNL A   1      33.258  34.049  28.157  1.00  0.00     0.274 C 
ENDROOT
BRANCH   1   2
ATOM      2  O   UNL A   1      32.543  34.591  29.284  1.00  0.00    -0.461 OA
BRANCH   2   3
ATOM      3  C   UNL A   1      32.904  35.848  29.665  1.00  0.00     0.328 C 
ATOM      4  O   UNL A   1      32.795  36.843  28.953  1.00  0.00    -0.250 OA
BRANCH   3   5
ATOM      5  C   UNL A   1      33.494  35.902  31.085  1.00  0.00     0.191 C 
BRANCH   5   6
ATOM      6  C   UNL A   1      32.946  37.120  31.854  1.00  0.00     0.033 C 
ATOM      7  C   UNL A   1      34.028  37.877  32.614  1.00  0.00     0.007 C 
ENDBRANCH   5   6
BRANCH   5   8
ATOM      8  N   UNL A   1      33.272  34.693  31.880  1.00  0.00    -0.356 N 
ATOM      9  H   UNL A   1      32.356  34.332  31.897  1.00  0.00     0.163 HD
BRANCH   8  10
ATOM     10  C   UNL A   1      34.201  34.029  32.587  1.00  0.00     0.148 A 
ATOM     11  C   UNL A   1      34.814  34.423  33.796  1.00  0.00     0.068 A 
ATOM     12  N   UNL A   1      34.653  32.850  32.172  1.00  0.00    -0.156 NA
ATOM     13  C   UNL A   1      35.759  33.454  34.048  1.00  0.00     0.110 A 
ATOM     14  N   UNL A   1      35.631  32.551  33.039  1.00  0.00    -0.274 N 
ATOM     15  C   UNL A   1      36.432  31.375  32.809  1.00  0.00     0.173 C 
ENDBRANCH   8  10
ENDBRANCH   5   8
ENDBRANCH   3   5
ENDBRANCH   2   3
ENDBRANCH   1   2
BRANCH   1  16
ATOM     16  C   UNL A   1      34.294  32.994  28.563  1.00  0.00     0.275 C 
BRANCH  16  17
ATOM     17  O   UNL A   1      34.611  32.102  27.478  1.00  0.00    -0.458 OA
BRANCH  17  18
ATOM     18  C   UNL A   1      34.464  30.786  27.757  1.00  0.00     0.338 C 
ATOM     19  O   UNL A   1      33.457  30.112  27.625  1.00  0.00    -0.246 OA
BRANCH  18  20
ATOM     20  C   UNL A   1      35.767  30.196  28.107  1.00  0.00     0.060 A 
ATOM     21  C   UNL A   1      35.929  29.697  29.404  1.00  0.00     0.016 A 
ATOM     22  C   UNL A   1      36.835  30.195  27.209  1.00  0.00     0.016 A 
ATOM     23  C   UNL A   1      37.158  29.189  29.811  1.00  0.00     0.010 A 
ATOM     24  C   UNL A   1      38.076  29.703  27.624  1.00  0.00     0.010 A 
ATOM     25  C   UNL A   1      38.244  29.208  28.930  1.00  0.00    -0.014 A 
BRANCH  25  26
ATOM     26  C   UNL A   1      39.579  28.792  29.416  1.00  0.00     0.031 A 
ATOM     27  C   UNL A   1      40.302  29.655  30.407  1.00  0.00     0.074 A 
ATOM     28  C   UNL A   1      40.119  27.634  29.000  1.00  0.00     0.049 A 
ATOM     29  N   UNL A   1      41.503  29.518  30.907  1.00  0.00    -0.248 NA
ATOM     30  C   UNL A   1      39.569  30.830  30.904  1.00  0.00     0.031 C 
ATOM     31  C   UNL A   1      39.481  26.685  28.088  1.00  0.00     0.029 A 
ATOM     32  N   UNL A   1      41.331  27.060  29.289  1.00  0.00    -0.354 N 
ATOM     33  C   UNL A   1      41.676  30.593  31.767  1.00  0.00     0.074 A 
ATOM     34  C   UNL A   1      40.464  31.384  31.711  1.00  0.00     0.031 C 
ATOM     35  C   UNL A   1      40.313  25.652  27.881  1.00  0.00     0.029 A 
ATOM     36  C   UNL A   1      41.556  25.886  28.614  1.00  0.00     0.049 A 
ATOM     37  H   UNL A   1      41.978  27.453  29.919  1.00  0.00     0.167 HD
ATOM     38  C   UNL A   1      42.751  30.890  32.536  1.00  0.00     0.037 A 
ATOM     39  C   UNL A   1      42.653  25.107  28.572  1.00  0.00     0.037 A 
ATOM     40  C   UNL A   1      43.951  30.099  32.588  1.00  0.00     0.049 A 
ATOM     41  C   UNL A   1      43.862  25.497  29.382  1.00  0.00     0.074 A 
ATOM     42  C   UNL A   1      45.100  30.317  33.328  1.00  0.00     0.029 A 
ATOM     43  N   UNL A   1      44.157  28.932  31.866  1.00  0.00    -0.354 N 
ATOM     44  N   UNL A   1      44.026  26.522  30.183  1.00  0.00    -0.248 NA
ATOM     45  C   UNL A   1      45.039  24.623  29.278  1.00  0.00     0.031 C 
ATOM     46  C   UNL A   1      46.015  29.304  33.024  1.00  0.00     0.029 A 
ATOM     47  C   UNL A   1      45.421  28.429  32.128  1.00  0.00     0.049 A 
ATOM     48  H   UNL A   1      43.501  28.522  31.257  1.00  0.00     0.167 HD
ATOM     49  C   UNL A   1      45.312  26.408  30.692  1.00  0.00     0.074 A 
ATOM     50  C   UNL A   1      45.882  25.203  30.122  1.00  0.00     0.031 C 
ATOM     51  C   UNL A   1      45.965  27.226  31.554  1.00  0.00     0.037 A 
BRANCH  38  52
ATOM     52  C   UNL A   1      42.686  32.143  33.357  1.00  0.00     0.064 A 
ATOM     53  C   UNL A   1      42.249  32.129  34.689  1.00  0.00     0.173 A 
ATOM     54  C   UNL A   1      43.087  33.370  32.808  1.00  0.00     0.173 A 
ATOM     55  F   UNL A   1      41.838  30.984  35.254  1.00  0.00    -0.203 F 
ATOM     56  C   UNL A   1      42.195  33.304  35.437  1.00  0.00     0.198 A 
ATOM     57  C   UNL A   1      43.056  34.538  33.566  1.00  0.00     0.198 A 
ATOM     58  F   UNL A   1      43.513  33.436  31.538  1.00  0.00    -0.203 F 
ATOM     59  F   UNL A   1      41.734  33.276  36.694  1.00  0.00    -0.200 F 
ATOM     60  C   UNL A   1      42.604  34.505  34.876  1.00  0.00     0.200 A 
ATOM     61  F   UNL A   1      43.459  35.697  33.025  1.00  0.00    -0.200 F 
ATOM     62  F   UNL A   1      42.555  35.633  35.597  1.00  0.00    -0.200 F 
ENDBRANCH  38  52
BRANCH  39  63
ATOM     63  C   UNL A   1      42.670  23.897  27.711  1.00  0.00     0.064 A 
ATOM     64  C   UNL A   1      43.051  23.971  26.365  1.00  0.00     0.173 A 
ATOM     65  C   UNL A   1      42.294  22.644  28.217  1.00  0.00     0.173 A 
ATOM     66  F   UNL A   1      43.391  25.152  25.829  1.00  0.00    -0.203 F 
ATOM     67  C   UNL A   1      43.045  22.838  25.554  1.00  0.00     0.198 A 
ATOM     68  C   UNL A   1      42.315  21.507  27.412  1.00  0.00     0.198 A 
ATOM     69  F   UNL A   1      41.915  22.522  29.497  1.00  0.00    -0.203 F 
ATOM     70  F   UNL A   1      43.373  22.942  24.258  1.00  0.00    -0.200 F 
ATOM     71  C   UNL A   1      42.683  21.606  26.080  1.00  0.00     0.200 A 
ATOM     72  F   UNL A   1      41.973  20.318  27.927  1.00  0.00    -0.200 F 
ATOM     73  F   UNL A   1      42.680  20.517  25.299  1.00  0.00    -0.200 F 
ENDBRANCH  39  63
BRANCH  51  74
ATOM     74  C   UNL A   1      47.357  26.831  31.953  1.00  0.00     0.064 A 
ATOM     75  C   UNL A   1      47.590  25.906  32.982  1.00  0.00     0.173 A 
ATOM     76  C   UNL A   1      48.466  27.352  31.270  1.00  0.00     0.173 A 
ATOM     77  F   UNL A   1      46.562  25.392  33.673  1.00  0.00    -0.203 F 
ATOM     78  C   UNL A   1      48.886  25.534  33.326  1.00  0.00     0.198 A 
ATOM     79  C   UNL A   1      49.759  26.957  31.599  1.00  0.00     0.198 A 
ATOM     80  F   UNL A   1      48.293  28.234  30.275  1.00  0.00    -0.203 F 
ATOM     81  F   UNL A   1      49.089  24.680  34.339  1.00  0.00    -0.200 F 
ATOM     82  C   UNL A   1      49.969  26.054  32.631  1.00  0.00     0.200 A 
ATOM     83  F   UNL A   1      50.803  27.452  30.920  1.00  0.00    -0.200 F 
ATOM     84  F   UNL A   1      51.215  25.689  32.960  1.00  0.00    -0.200 F 
ENDBRANCH  51  74
ENDBRANCH  25  26
ENDBRANCH  18  20
ENDBRANCH  17  18
ENDBRANCH  16  17
ENDBRANCH   1  16
TORSDOF 14
ENDMDL
MODEL 2
REMARK VINA RESULT:     -10.2      3.591      6.256
REMARK SMILES CC[C@@H](Nc1ccn(C)n1)C(=O)OCCOC(=O)c1ccc(-c2c3nc(c(-c4c(F)c(F)c(F)c(F)c4F)c4ccc([nH]4)c(-c4c(F)c(F)c(F)c(F)c4F)c4nc(c(-c5c(F)c(F)c(F)c(F)c5F)c5ccc2[nH]5)C=C4)C=C3)cc1
REMARK SMILES IDX 14 1 13 2 11 3 12 4 3 5 2 6 1 7 4 8 5 10 6 11 10 12 7 13
REMARK SMILES IDX 8 14 9 15 15 16 16 17 17 18 18 19 19 20 20 21 81 22 21 23
REMARK SMILES IDX 80 24 22 25 23 26 24 27 74 28 25 29 79 30 73 31 75 32 26 33
REMARK SMILES IDX 78 34 72 35 71 36 27 38 59 39 39 40 58 41 40 42 43 43 57 44
REMARK SMILES IDX 76 45 41 46 42 47 56 49 77 50 44 51 28 52 29 53 37 54 30 55
REMARK SMILES IDX 31 56 35 57 38 58 32 59 33 60 36 61 34 62 60 63 61 64 69 65
REMARK SMILES IDX 62 66 63 67 67 68 70 69 64 70 65 71 68 72 66 73 45 74 46 75
REMARK SMILES IDX 54 76 47 77 48 78 52 79 55 80 49 81 50 82 53 83 51 84
REMARK H PARENT 4 9 75 37 43 48
REMARK Flexibility Score: inf
ROOT
ATOM      1  C   UNL A   1      33.928  35.262  28.899  1.00  0.00     0.274 C 
ENDROOT
BRANCH   1   2
ATOM      2  O   UNL A   1      33.423  33.969  28.516  1.00  0.00    -0.461 OA
BRANCH   2   3
ATOM      3  C   UNL A   1      34.125  32.898  28.978  1.00  0.00     0.328 C 
ATOM      4  O   UNL A   1      34.376  32.695  30.164  1.00  0.00    -0.250 OA
BRANCH   3   5
ATOM      5  C   UNL A   1      34.608  31.962  27.855  1.00  0.00     0.191 C 
BRANCH   5   6
ATOM      6  C   UNL A   1      36.111  31.660  28.009  1.00  0.00     0.033 C 
ATOM      7  C   UNL A   1      36.441  30.184  27.826  1.00  0.00     0.007 C 
ENDBRANCH   5   6
BRANCH   5   8
ATOM      8  N   UNL A   1      33.872  30.700  27.762  1.00  0.00    -0.356 N 
ATOM      9  H   UNL A   1      33.955  30.077  28.519  1.00  0.00     0.163 HD
BRANCH   8  10
ATOM     10  C   UNL A   1      33.092  30.313  26.739  1.00  0.00     0.148 A 
ATOM     11  C   UNL A   1      31.840  30.840  26.356  1.00  0.00     0.068 A 
ATOM     12  N   UNL A   1      33.469  29.322  25.938  1.00  0.00    -0.156 NA
ATOM     13  C   UNL A   1      31.415  30.035  25.324  1.00  0.00     0.110 A 
ATOM     14  N   UNL A   1      32.417  29.136  25.128  1.00  0.00    -0.274 N 
ATOM     15  C   UNL A   1      32.437  28.036  24.197  1.00  0.00     0.173 C 
ENDBRANCH   8  10
ENDBRANCH   5   8
ENDBRANCH   3   5
ENDBRANCH   2   3
ENDBRANCH   1   2
BRANCH   1  16
ATOM     16  C   UNL A   1      32.932  36.059  29.751  1.00  0.00     0.275 C 
BRANCH  16  17
ATOM     17  O   UNL A   1      32.471  35.307  30.890  1.00  0.00    -0.458 OA
BRANCH  17  18
ATOM     18  C   UNL A   1      32.824  35.816  32.092  1.00  0.00     0.338 C 
ATOM     19  O   UNL A   1      32.226  36.657  32.741  1.00  0.00    -0.246 OA
BRANCH  18  20
ATOM     20  C   UNL A   1      33.986  35.088  32.627  1.00  0.00     0.060 A 
ATOM     21  C   UNL A   1      35.255  35.636  32.409  1.00  0.00     0.016 A 
ATOM     22  C   UNL A   1      33.847  33.856  33.266  1.00  0.00     0.016 A 
ATOM     23  C   UNL A   1      36.393  34.958  32.832  1.00  0.00     0.010 A 
ATOM     24  C   UNL A   1      34.992  33.165  33.675  1.00  0.00     0.010 A 
ATOM     25  C   UNL A   1      36.269  33.709  33.450  1.00  0.00    -0.014 A 
BRANCH  25  26
ATOM     26  C   UNL A   1      37.489  32.936  33.773  1.00  0.00     0.031 A 
ATOM     27  C   UNL A   1      38.202  33.196  35.066  1.00  0.00     0.074 A 
ATOM     28  C   UNL A   1      37.929  31.985  32.931  1.00  0.00     0.049 A 
ATOM     29  N   UNL A   1      39.322  32.688  35.514  1.00  0.00    -0.248 NA
ATOM     30  C   UNL A   1      37.566  34.157  35.980  1.00  0.00     0.031 C 
ATOM     31  C   UNL A   1      37.281  31.603  31.678  1.00  0.00     0.029 A 
ATOM     32  N   UNL A   1      39.030  31.169  33.004  1.00  0.00    -0.354 N 
ATOM     33  C   UNL A   1      39.531  33.274  36.754  1.00  0.00     0.074 A 
ATOM     34  C   UNL A   1      38.432  34.189  36.983  1.00  0.00     0.031 C 
ATOM     35  C   UNL A   1      38.004  30.635  31.091  1.00  0.00     0.029 A 
ATOM     36  C   UNL A   1      39.183  30.358  31.908  1.00  0.00     0.049 A 
ATOM     37  H   UNL A   1      39.650  31.166  33.769  1.00  0.00     0.167 HD
ATOM     38  C   UNL A   1      40.549  33.064  37.622  1.00  0.00     0.037 A 
ATOM     39  C   UNL A   1      40.180  29.511  31.590  1.00  0.00     0.037 A 
ATOM     40  C   UNL A   1      41.636  32.152  37.389  1.00  0.00     0.049 A 
ATOM     41  C   UNL A   1      41.337  29.348  32.540  1.00  0.00     0.074 A 
ATOM     42  C   UNL A   1      42.721  31.873  38.201  1.00  0.00     0.029 A 
ATOM     43  N   UNL A   1      41.777  31.370  36.252  1.00  0.00    -0.354 N 
ATOM     44  N   UNL A   1      41.537  29.915  33.705  1.00  0.00    -0.248 NA
ATOM     45  C   UNL A   1      42.409  28.429  32.129  1.00  0.00     0.031 C 
ATOM     46  C   UNL A   1      43.538  30.951  37.539  1.00  0.00     0.029 A 
ATOM     47  C   UNL A   1      42.940  30.621  36.333  1.00  0.00     0.049 A 
ATOM     48  H   UNL A   1      41.143  31.350  35.498  1.00  0.00     0.167 HD
ATOM     49  C   UNL A   1      42.743  29.411  34.175  1.00  0.00     0.074 A 
ATOM     50  C   UNL A   1      43.222  28.478  33.175  1.00  0.00     0.031 C 
ATOM     51  C   UNL A   1      43.395  29.695  35.329  1.00  0.00     0.037 A 
BRANCH  38  52
ATOM     52  C   UNL A   1      40.547  33.863  38.892  1.00  0.00     0.064 A 
ATOM     53  C   UNL A   1      39.878  33.418  40.041  1.00  0.00     0.173 A 
ATOM     54  C   UNL A   1      41.242  35.078  38.964  1.00  0.00     0.173 A 
ATOM     55  F   UNL A   1      39.185  32.271  40.018  1.00  0.00    -0.203 F 
ATOM     56  C   UNL A   1      39.888  34.174  41.212  1.00  0.00     0.198 A 
ATOM     57  C   UNL A   1      41.271  35.820  40.143  1.00  0.00     0.198 A 
ATOM     58  F   UNL A   1      41.899  35.548  37.891  1.00  0.00    -0.203 F 
ATOM     59  F   UNL A   1      39.207  33.752  42.286  1.00  0.00    -0.200 F 
ATOM     60  C   UNL A   1      40.589  35.369  41.263  1.00  0.00     0.200 A 
ATOM     61  F   UNL A   1      41.955  36.971  40.192  1.00  0.00    -0.200 F 
ATOM     62  F   UNL A   1      40.600  36.094  42.390  1.00  0.00    -0.200 F 
ENDBRANCH  38  52
BRANCH  39  63
ATOM     63  C   UNL A   1      40.143  28.775  30.300  1.00  0.00     0.064 A 
ATOM     64  C   UNL A   1      40.723  29.311  29.142  1.00  0.00     0.173 A 
ATOM     65  C   UNL A   1      39.517  27.523  30.199  1.00  0.00     0.173 A 
ATOM     66  F   UNL A   1      41.309  30.517  29.184  1.00  0.00    -0.203 F 
ATOM     67  C   UNL A   1      40.668  28.628  27.929  1.00  0.00     0.198 A 
ATOM     68  C   UNL A   1      39.486  26.830  28.992  1.00  0.00     0.198 A 
ATOM     69  F   UNL A   1      38.942  26.971  31.276  1.00  0.00    -0.203 F 
ATOM     70  F   UNL A   1      41.193  29.181  26.827  1.00  0.00    -0.200 F 
ATOM     71  C   UNL A   1      40.056  27.385  27.856  1.00  0.00     0.200 A 
ATOM     72  F   UNL A   1      38.902  25.626  28.928  1.00  0.00    -0.200 F 
ATOM     73  F   UNL A   1      40.006  26.728  26.689  1.00  0.00    -0.200 F 
ENDBRANCH  39  63
BRANCH  51  74
ATOM     74  C   UNL A   1      44.683  28.967  35.585  1.00  0.00     0.064 A 
ATOM     75  C   UNL A   1      44.707  27.730  36.243  1.00  0.00     0.173 A 
ATOM     76  C   UNL A   1      45.899  29.496  35.128  1.00  0.00     0.173 A 
ATOM     77  F   UNL A   1      43.571  27.191  36.711  1.00  0.00    -0.203 F 
ATOM     78  C   UNL A   1      45.908  27.057  36.454  1.00  0.00     0.198 A 
ATOM     79  C   UNL A   1      47.094  28.808  35.317  1.00  0.00     0.198 A 
ATOM     80  F   UNL A   1      45.926  30.673  34.487  1.00  0.00    -0.203 F 
ATOM     81  F   UNL A   1      45.914  25.895  37.122  1.00  0.00    -0.200 F 
ATOM     82  C   UNL A   1      47.099  27.593  35.986  1.00  0.00     0.200 A 
ATOM     83  F   UNL A   1      48.242  29.322  34.855  1.00  0.00    -0.200 F 
ATOM     84  F   UNL A   1      48.252  26.941  36.184  1.00  0.00    -0.200 F 
ENDBRANCH  51  74
ENDBRANCH  25  26
ENDBRANCH  18  20
ENDBRANCH  17  18
ENDBRANCH  16  17
ENDBRANCH   1  16
TORSDOF 14
ENDMDL
MODEL 3
REMARK VINA RESULT:     -10.2      4.277     11.529
REMARK SMILES CC[C@@H](Nc1ccn(C)n1)C(=O)OCCOC(=O)c1ccc(-c2c3nc(c(-c4c(F)c(F)c(F)c(F)c4F)c4ccc([nH]4)c(-c4c(F)c(F)c(F)c(F)c4F)c4nc(c(-c5c(F)c(F)c(F)c(F)c5F)c5ccc2[nH]5)C=C4)C=C3)cc1
REMARK SMILES IDX 14 1 13 2 11 3 12 4 3 5 2 6 1 7 4 8 5 10 6 11 10 12 7 13
REMARK SMILES IDX 8 14 9 15 15 16 16 17 17 18 18 19 19 20 20 21 81 22 21 23
REMARK SMILES IDX 80 24 22 25 23 26 24 27 74 28 25 29 79 30 73 31 75 32 26 33
REMARK SMILES IDX 78 34 72 35 71 36 27 38 59 39 39 40 58 41 40 42 43 43 57 44
REMARK SMILES IDX 76 45 41 46 42 47 56 49 77 50 44 51 28 52 29 53 37 54 30 55
REMARK SMILES IDX 31 56 35 57 38 58 32 59 33 60 36 61 34 62 60 63 61 64 69 65
REMARK SMILES IDX 62 66 63 67 67 68 70 69 64 70 65 71 68 72 66 73 45 74 46 75
REMARK SMILES IDX 54 76 47 77 48 78 52 79 55 80 49 81 50 82 53 83 51 84
REMARK H PARENT 4 9 75 37 43 48
REMARK Flexibility Score: inf
ROOT
ATOM      1  C   UNL A   1      40.832  19.808  26.381  1.00  0.00     0.274 C 
ENDROOT
BRANCH   1   2
ATOM      2  O   UNL A   1      41.832  19.786  25.346  1.00  0.00    -0.461 OA
BRANCH   2   3
ATOM      3  C   UNL A   1      42.986  19.128  25.650  1.00  0.00     0.328 C 
ATOM      4  O   UNL A   1      43.030  18.019  26.177  1.00  0.00    -0.250 OA
BRANCH   3   5
ATOM      5  C   UNL A   1      44.250  19.929  25.291  1.00  0.00     0.191 C 
BRANCH   5   6
ATOM      6  C   UNL A   1      45.318  19.006  24.672  1.00  0.00     0.033 C 
ATOM      7  C   UNL A   1      46.559  18.869  25.545  1.00  0.00     0.007 C 
ENDBRANCH   5   6
BRANCH   5   8
ATOM      8  N   UNL A   1      44.015  21.061  24.393  1.00  0.00    -0.356 N 
ATOM      9  H   UNL A   1      43.439  20.899  23.611  1.00  0.00     0.163 HD
BRANCH   8  10
ATOM     10  C   UNL A   1      44.510  22.300  24.537  1.00  0.00     0.148 A 
ATOM     11  C   UNL A   1      45.865  22.694  24.571  1.00  0.00     0.068 A 
ATOM     12  N   UNL A   1      43.697  23.344  24.668  1.00  0.00    -0.156 NA
ATOM     13  C   UNL A   1      45.839  24.043  24.839  1.00  0.00     0.110 A 
ATOM     14  N   UNL A   1      44.521  24.374  24.905  1.00  0.00    -0.274 N 
ATOM     15  C   UNL A   1      43.956  25.661  25.222  1.00  0.00     0.173 C 
ENDBRANCH   8  10
ENDBRANCH   5   8
ENDBRANCH   3   5
ENDBRANCH   2   3
ENDBRANCH   1   2
BRANCH   1  16
ATOM     16  C   UNL A   1      40.727  21.172  27.075  1.00  0.00     0.275 C 
BRANCH  16  17
ATOM     17  O   UNL A   1      40.561  22.247  26.131  1.00  0.00    -0.458 OA
BRANCH  17  18
ATOM     18  C   UNL A   1      39.390  22.917  26.227  1.00  0.00     0.338 C 
ATOM     19  O   UNL A   1      38.277  22.498  25.962  1.00  0.00    -0.246 OA
BRANCH  18  20
ATOM     20  C   UNL A   1      39.607  24.224  26.870  1.00  0.00     0.060 A 
ATOM     21  C   UNL A   1      40.303  25.199  26.146  1.00  0.00     0.016 A 
ATOM     22  C   UNL A   1      39.203  24.469  28.183  1.00  0.00     0.016 A 
ATOM     23  C   UNL A   1      40.596  26.427  26.729  1.00  0.00     0.010 A 
ATOM     24  C   UNL A   1      39.514  25.698  28.775  1.00  0.00     0.010 A 
ATOM     25  C   UNL A   1      40.220  26.676  28.053  1.00  0.00    -0.014 A 
BRANCH  25  26
ATOM     26  C   UNL A   1      40.655  27.931  28.706  1.00  0.00     0.031 A 
ATOM     27  C   UNL A   1      42.091  28.093  29.105  1.00  0.00     0.074 A 
ATOM     28  C   UNL A   1      39.776  28.929  28.904  1.00  0.00     0.049 A 
ATOM     29  N   UNL A   1      42.668  29.074  29.750  1.00  0.00    -0.248 NA
ATOM     30  C   UNL A   1      43.001  27.002  28.723  1.00  0.00     0.031 C 
ATOM     31  C   UNL A   1      38.371  28.908  28.500  1.00  0.00     0.029 A 
ATOM     32  N   UNL A   1      39.938  30.155  29.498  1.00  0.00    -0.354 N 
ATOM     33  C   UNL A   1      44.005  28.715  29.861  1.00  0.00     0.074 A 
ATOM     34  C   UNL A   1      44.151  27.419  29.233  1.00  0.00     0.031 C 
ATOM     35  C   UNL A   1      37.794  30.063  28.870  1.00  0.00     0.029 A 
ATOM     36  C   UNL A   1      38.778  30.885  29.570  1.00  0.00     0.049 A 
ATOM     37  H   UNL A   1      40.802  30.479  29.841  1.00  0.00     0.167 HD
ATOM     38  C   UNL A   1      45.016  29.409  30.436  1.00  0.00     0.037 A 
ATOM     39  C   UNL A   1      38.536  32.070  30.162  1.00  0.00     0.037 A 
ATOM     40  C   UNL A   1      44.863  30.697  31.057  1.00  0.00     0.049 A 
ATOM     41  C   UNL A   1      39.663  32.789  30.856  1.00  0.00     0.074 A 
ATOM     42  C   UNL A   1      45.823  31.479  31.675  1.00  0.00     0.029 A 
ATOM     43  N   UNL A   1      43.666  31.393  31.141  1.00  0.00    -0.354 N 
ATOM     44  N   UNL A   1      40.921  32.439  30.971  1.00  0.00    -0.248 NA
ATOM     45  C   UNL A   1      39.334  34.066  31.506  1.00  0.00     0.031 C 
ATOM     46  C   UNL A   1      45.200  32.630  32.166  1.00  0.00     0.029 A 
ATOM     47  C   UNL A   1      43.859  32.587  31.816  1.00  0.00     0.049 A 
ATOM     48  H   UNL A   1      42.806  31.084  30.774  1.00  0.00     0.167 HD
ATOM     49  C   UNL A   1      41.538  33.456  31.687  1.00  0.00     0.074 A 
ATOM     50  C   UNL A   1      40.518  34.447  31.967  1.00  0.00     0.031 C 
ATOM     51  C   UNL A   1      42.831  33.561  32.079  1.00  0.00     0.037 A 
BRANCH  38  52
ATOM     52  C   UNL A   1      46.371  28.768  30.446  1.00  0.00     0.064 A 
ATOM     53  C   UNL A   1      47.301  28.992  29.420  1.00  0.00     0.173 A 
ATOM     54  C   UNL A   1      46.753  27.935  31.508  1.00  0.00     0.173 A 
ATOM     55  F   UNL A   1      46.978  29.765  28.373  1.00  0.00    -0.203 F 
ATOM     56  C   UNL A   1      48.556  28.387  29.447  1.00  0.00     0.198 A 
ATOM     57  C   UNL A   1      48.017  27.352  31.545  1.00  0.00     0.198 A 
ATOM     58  F   UNL A   1      45.900  27.689  32.515  1.00  0.00    -0.203 F 
ATOM     59  F   UNL A   1      49.413  28.580  28.434  1.00  0.00    -0.200 F 
ATOM     60  C   UNL A   1      48.914  27.574  30.511  1.00  0.00     0.200 A 
ATOM     61  F   UNL A   1      48.365  26.573  32.579  1.00  0.00    -0.200 F 
ATOM     62  F   UNL A   1      50.123  26.996  30.538  1.00  0.00    -0.200 F 
ENDBRANCH  38  52
BRANCH  39  63
ATOM     63  C   UNL A   1      37.163  32.637  30.150  1.00  0.00     0.064 A 
ATOM     64  C   UNL A   1      36.245  32.336  31.165  1.00  0.00     0.173 A 
ATOM     65  C   UNL A   1      36.739  33.484  29.115  1.00  0.00     0.173 A 
ATOM     66  F   UNL A   1      36.595  31.508  32.161  1.00  0.00    -0.203 F 
ATOM     67  C   UNL A   1      34.951  32.852  31.139  1.00  0.00     0.198 A 
ATOM     68  C   UNL A   1      35.454  34.020  29.104  1.00  0.00     0.198 A 
ATOM     69  F   UNL A   1      37.577  33.797  28.117  1.00  0.00    -0.203 F 
ATOM     70  F   UNL A   1      34.078  32.515  32.099  1.00  0.00    -0.200 F 
ATOM     71  C   UNL A   1      34.558  33.699  30.113  1.00  0.00     0.200 A 
ATOM     72  F   UNL A   1      35.081  34.845  28.116  1.00  0.00    -0.200 F 
ATOM     73  F   UNL A   1      33.314  34.196  30.091  1.00  0.00    -0.200 F 
ENDBRANCH  39  63
BRANCH  51  74
ATOM     74  C   UNL A   1      43.222  34.803  32.826  1.00  0.00     0.064 A 
ATOM     75  C   UNL A   1      43.275  34.828  34.227  1.00  0.00     0.173 A 
ATOM     76  C   UNL A   1      43.587  35.965  32.130  1.00  0.00     0.173 A 
ATOM     77  F   UNL A   1      42.922  33.746  34.937  1.00  0.00    -0.203 F 
ATOM     78  C   UNL A   1      43.661  35.982  34.905  1.00  0.00     0.198 A 
ATOM     79  C   UNL A   1      43.997  37.107  32.811  1.00  0.00     0.198 A 
ATOM     80  F   UNL A   1      43.558  35.987  30.790  1.00  0.00    -0.203 F 
ATOM     81  F   UNL A   1      43.666  35.998  36.246  1.00  0.00    -0.200 F 
ATOM     82  C   UNL A   1      44.027  37.117  34.197  1.00  0.00     0.200 A 
ATOM     83  F   UNL A   1      44.360  38.200  32.125  1.00  0.00    -0.200 F 
ATOM     84  F   UNL A   1      44.403  38.224  34.852  1.00  0.00    -0.200 F 
ENDBRANCH  51  74
ENDBRANCH  25  26
ENDBRANCH  18  20
ENDBRANCH  17  18
ENDBRANCH  16  17
ENDBRANCH   1  16
TORSDOF 14
ENDMDL
