MODEL 1
REMARK VINA RESULT:     -12.8      0.000      0.000
REMARK SMILES Cc1cc2c(=O)c3ccccc3oc2c(C(=O)OCCOC(=O)c2ccc(-c3c4nc(c(-c5c(F)c(F)c(F)c(F)c5F)c5ccc([nH]5)c(-c5c(F)c(F)c(F)c(F)c5F)c5nc(c(-c6c(F)c(F)c(F)c(F)c6F)c6ccc3[nH]6)C=C5)C=C4)cc2)c1C
REMARK SMILES IDX 20 1 19 2 18 3 16 4 17 5 15 6 1 7 2 8 3 9 87 10 4 11 88 12
REMARK SMILES IDX 5 13 14 14 6 15 7 16 13 17 8 18 12 19 9 20 11 21 10 22 21 23
REMARK SMILES IDX 22 24 23 25 24 26 25 27 86 28 26 29 85 30 27 31 28 32 29 33
REMARK SMILES IDX 79 34 30 35 84 36 78 37 80 38 31 39 83 40 77 41 76 42 32 44
REMARK SMILES IDX 64 45 44 46 63 47 45 48 48 49 62 50 81 51 46 52 47 53 61 55
REMARK SMILES IDX 82 56 49 57 33 58 34 59 42 60 35 61 36 62 40 63 43 64 37 65
REMARK SMILES IDX 38 66 41 67 39 68 65 69 66 70 74 71 67 72 68 73 72 74 75 75
REMARK SMILES IDX 69 76 70 77 73 78 71 79 50 80 51 81 59 82 52 83 53 84 57 85
REMARK SMILES IDX 60 86 54 87 55 88 58 89 56 90
REMARK H PARENT 80 43 48 54
REMARK Flexibility Score: inf
ROOT
ATOM      1  C   UNL A   1      33.102  29.519  24.962  1.00  0.00     0.275 C 
ENDROOT
BRANCH   1   2
ATOM      2  C   UNL A   1      33.690  28.160  24.578  1.00  0.00     0.275 C 
BRANCH   2   3
ATOM      3  O   UNL A   1      33.588  27.951  23.154  1.00  0.00    -0.458 OA
BRANCH   3   4
ATOM      4  C   UNL A   1      33.146  26.742  22.716  1.00  0.00     0.342 C 
ATOM      5  O   UNL A   1      33.667  26.070  21.848  1.00  0.00    -0.246 OA
BRANCH   4   6
ATOM      6  C   UNL A   1      31.928  26.333  23.491  1.00  0.00     0.106 A 
ATOM      7  C   UNL A   1      28.162  27.089  23.881  1.00  0.00     0.044 C 
ATOM      8  C   UNL A   1      29.552  26.538  24.071  1.00  0.00    -0.046 A 
ATOM      9  C   UNL A   1      29.737  25.579  25.073  1.00  0.00     0.019 A 
ATOM     10  C   UNL A   1      30.661  26.966  23.301  1.00  0.00    -0.030 A 
ATOM     11  C   UNL A   1      30.980  24.976  25.255  1.00  0.00     0.067 A 
ATOM     12  C   UNL A   1      30.496  28.105  22.320  1.00  0.00     0.046 C 
ATOM     13  C   UNL A   1      31.169  24.040  26.374  1.00  0.00     0.200 A 
ATOM     14  C   UNL A   1      32.056  25.281  24.424  1.00  0.00     0.153 A 
ATOM     15  O   UNL A   1      30.274  23.805  27.176  1.00  0.00    -0.288 OA
ATOM     16  C   UNL A   1      32.484  23.411  26.492  1.00  0.00     0.065 A 
ATOM     17  O   UNL A   1      33.237  24.569  24.482  1.00  0.00    -0.455 OA
ATOM     18  C   UNL A   1      32.799  22.595  27.583  1.00  0.00     0.016 A 
ATOM     19  C   UNL A   1      33.408  23.638  25.479  1.00  0.00     0.138 A 
ATOM     20  C   UNL A   1      34.041  21.965  27.633  1.00  0.00     0.001 A 
ATOM     21  C   UNL A   1      34.618  22.942  25.494  1.00  0.00     0.048 A 
ATOM     22  C   UNL A   1      34.938  22.114  26.576  1.00  0.00     0.004 A 
ENDBRANCH   4   6
ENDBRANCH   3   4
ENDBRANCH   2   3
ENDBRANCH   1   2
BRANCH   1  23
ATOM     23  O   UNL A   1      33.026  29.633  26.394  1.00  0.00    -0.458 OA
BRANCH  23  24
ATOM     24  C   UNL A   1      33.319  30.860  26.886  1.00  0.00     0.338 C 
ATOM     25  O   UNL A   1      32.624  31.862  26.844  1.00  0.00    -0.246 OA
BRANCH  24  26
ATOM     26  C   UNL A   1      34.536  30.747  27.708  1.00  0.00     0.060 A 
ATOM     27  C   UNL A   1      35.473  31.780  27.819  1.00  0.00     0.016 A 
ATOM     28  C   UNL A   1      34.745  29.531  28.358  1.00  0.00     0.016 A 
ATOM     29  C   UNL A   1      36.655  31.568  28.544  1.00  0.00     0.010 A 
ATOM     30  C   UNL A   1      35.915  29.329  29.079  1.00  0.00     0.010 A 
ATOM     31  C   UNL A   1      36.898  30.325  29.145  1.00  0.00    -0.014 A 
BRANCH  31  32
ATOM     32  C   UNL A   1      38.147  30.023  29.881  1.00  0.00     0.031 A 
ATOM     33  C   UNL A   1      39.157  29.059  29.326  1.00  0.00     0.074 A 
ATOM     34  C   UNL A   1      38.294  30.500  31.129  1.00  0.00     0.049 A 
ATOM     35  N   UNL A   1      40.262  28.612  29.871  1.00  0.00    -0.248 NA
ATOM     36  C   UNL A   1      38.865  28.486  28.005  1.00  0.00     0.031 C 
ATOM     37  C   UNL A   1      37.331  31.362  31.811  1.00  0.00     0.029 A 
ATOM     38  N   UNL A   1      39.288  30.301  32.051  1.00  0.00    -0.354 N 
ATOM     39  C   UNL A   1      40.793  27.700  28.968  1.00  0.00     0.074 A 
ATOM     40  C   UNL A   1      39.865  27.624  27.858  1.00  0.00     0.031 C 
ATOM     41  C   UNL A   1      37.783  31.621  33.048  1.00  0.00     0.029 A 
ATOM     42  C   UNL A   1      39.065  30.944  33.240  1.00  0.00     0.049 A 
ATOM     43  H   UNL A   1      40.084  29.750  31.875  1.00  0.00     0.167 HD
ATOM     44  C   UNL A   1      41.952  27.001  29.059  1.00  0.00     0.037 A 
ATOM     45  C   UNL A   1      39.818  31.000  34.353  1.00  0.00     0.037 A 
ATOM     46  C   UNL A   1      42.883  27.106  30.157  1.00  0.00     0.049 A 
ATOM     47  C   UNL A   1      41.141  30.288  34.392  1.00  0.00     0.074 A 
ATOM     48  C   UNL A   1      44.136  26.528  30.284  1.00  0.00     0.029 A 
ATOM     49  N   UNL A   1      42.664  27.831  31.320  1.00  0.00    -0.354 N 
ATOM     50  N   UNL A   1      41.693  29.517  33.488  1.00  0.00    -0.248 NA
ATOM     51  C   UNL A   1      41.957  30.478  35.600  1.00  0.00     0.031 C 
ATOM     52  C   UNL A   1      44.654  26.865  31.539  1.00  0.00     0.029 A 
ATOM     53  C   UNL A   1      43.750  27.699  32.173  1.00  0.00     0.049 A 
ATOM     54  H   UNL A   1      41.857  28.361  31.510  1.00  0.00     0.167 HD
ATOM     55  C   UNL A   1      42.927  29.147  34.005  1.00  0.00     0.074 A 
ATOM     56  C   UNL A   1      43.052  29.798  35.292  1.00  0.00     0.031 C 
ATOM     57  C   UNL A   1      43.868  28.338  33.459  1.00  0.00     0.037 A 
BRANCH  44  58
ATOM     58  C   UNL A   1      42.319  26.077  27.930  1.00  0.00     0.064 A 
ATOM     59  C   UNL A   1      41.732  24.808  27.803  1.00  0.00     0.173 A 
ATOM     60  C   UNL A   1      43.173  26.507  26.902  1.00  0.00     0.173 A 
ATOM     61  F   UNL A   1      40.908  24.347  28.754  1.00  0.00    -0.203 F 
ATOM     62  C   UNL A   1      41.997  24.002  26.699  1.00  0.00     0.198 A 
ATOM     63  C   UNL A   1      43.409  25.711  25.782  1.00  0.00     0.198 A 
ATOM     64  F   UNL A   1      43.751  27.715  26.963  1.00  0.00    -0.203 F 
ATOM     65  F   UNL A   1      41.444  22.784  26.614  1.00  0.00    -0.200 F 
ATOM     66  C   UNL A   1      42.823  24.458  25.683  1.00  0.00     0.200 A 
ATOM     67  F   UNL A   1      44.188  26.165  24.791  1.00  0.00    -0.200 F 
ATOM     68  F   UNL A   1      43.050  23.694  24.607  1.00  0.00    -0.200 F 
ENDBRANCH  44  58
BRANCH  45  69
ATOM     69  C   UNL A   1      39.375  31.852  35.482  1.00  0.00     0.064 A 
ATOM     70  C   UNL A   1      39.748  33.202  35.531  1.00  0.00     0.173 A 
ATOM     71  C   UNL A   1      38.539  31.363  36.493  1.00  0.00     0.173 A 
ATOM     72  F   UNL A   1      40.559  33.707  34.589  1.00  0.00    -0.203 F 
ATOM     73  C   UNL A   1      39.310  34.031  36.559  1.00  0.00     0.198 A 
ATOM     74  C   UNL A   1      38.082  32.199  37.509  1.00  0.00     0.198 A 
ATOM     75  F   UNL A   1      38.146  30.080  36.479  1.00  0.00    -0.203 F 
ATOM     76  F   UNL A   1      39.705  35.311  36.599  1.00  0.00    -0.200 F 
ATOM     77  C   UNL A   1      38.470  33.531  37.543  1.00  0.00     0.200 A 
ATOM     78  F   UNL A   1      37.258  31.719  38.451  1.00  0.00    -0.200 F 
ATOM     79  F   UNL A   1      38.038  34.333  38.525  1.00  0.00    -0.200 F 
ENDBRANCH  45  69
BRANCH  57  80
ATOM     80  C   UNL A   1      45.128  28.115  34.249  1.00  0.00     0.064 A 
ATOM     81  C   UNL A   1      46.214  29.001  34.167  1.00  0.00     0.173 A 
ATOM     82  C   UNL A   1      45.241  27.020  35.120  1.00  0.00     0.173 A 
ATOM     83  F   UNL A   1      46.161  30.056  33.341  1.00  0.00    -0.203 F 
ATOM     84  C   UNL A   1      47.376  28.782  34.902  1.00  0.00     0.198 A 
ATOM     85  C   UNL A   1      46.394  26.822  35.878  1.00  0.00     0.198 A 
ATOM     86  F   UNL A   1      44.232  26.146  35.244  1.00  0.00    -0.203 F 
ATOM     87  F   UNL A   1      48.419  29.614  34.767  1.00  0.00    -0.200 F 
ATOM     88  C   UNL A   1      47.463  27.697  35.761  1.00  0.00     0.200 A 
ATOM     89  F   UNL A   1      46.470  25.780  36.718  1.00  0.00    -0.200 F 
ATOM     90  F   UNL A   1      48.580  27.491  36.471  1.00  0.00    -0.200 F 
ENDBRANCH  57  80
ENDBRANCH  31  32
ENDBRANCH  24  26
ENDBRANCH  23  24
ENDBRANCH   1  23
TORSDOF 11
ENDMDL
MODEL 2
REMARK VINA RESULT:     -12.8      1.132      2.340
REMARK SMILES Cc1cc2c(=O)c3ccccc3oc2c(C(=O)OCCOC(=O)c2ccc(-c3c4nc(c(-c5c(F)c(F)c(F)c(F)c5F)c5ccc([nH]5)c(-c5c(F)c(F)c(F)c(F)c5F)c5nc(c(-c6c(F)c(F)c(F)c(F)c6F)c6ccc3[nH]6)C=C5)C=C4)cc2)c1C
REMARK SMILES IDX 20 1 19 2 18 3 16 4 17 5 15 6 1 7 2 8 3 9 87 10 4 11 88 12
REMARK SMILES IDX 5 13 14 14 6 15 7 16 13 17 8 18 12 19 9 20 11 21 10 22 21 23
REMARK SMILES IDX 22 24 23 25 24 26 25 27 86 28 26 29 85 30 27 31 28 32 29 33
REMARK SMILES IDX 79 34 30 35 84 36 78 37 80 38 31 39 83 40 77 41 76 42 32 44
REMARK SMILES IDX 64 45 44 46 63 47 45 48 48 49 62 50 81 51 46 52 47 53 61 55
REMARK SMILES IDX 82 56 49 57 33 58 34 59 42 60 35 61 36 62 40 63 43 64 37 65
REMARK SMILES IDX 38 66 41 67 39 68 65 69 66 70 74 71 67 72 68 73 72 74 75 75
REMARK SMILES IDX 69 76 70 77 73 78 71 79 50 80 51 81 59 82 52 83 53 84 57 85
REMARK SMILES IDX 60 86 54 87 55 88 58 89 56 90
REMARK H PARENT 80 43 48 54
REMARK Flexibility Score: inf
ROOT
ATOM      1  C   UNL A   1      32.744  29.548  24.749  1.00  0.00     0.275 C 
ENDROOT
BRANCH   1   2
ATOM      2  C   UNL A   1      33.422  29.083  23.458  1.00  0.00     0.275 C 
BRANCH   2   3
ATOM      3  O   UNL A   1      33.769  27.686  23.547  1.00  0.00    -0.458 OA
BRANCH   3   4
ATOM      4  C   UNL A   1      33.066  26.804  22.787  1.00  0.00     0.342 C 
ATOM      5  O   UNL A   1      33.378  26.420  21.678  1.00  0.00    -0.246 OA
BRANCH   4   6
ATOM      6  C   UNL A   1      31.853  26.339  23.536  1.00  0.00     0.106 A 
ATOM      7  C   UNL A   1      28.052  26.934  23.861  1.00  0.00     0.044 C 
ATOM      8  C   UNL A   1      29.459  26.440  24.074  1.00  0.00    -0.046 A 
ATOM      9  C   UNL A   1      29.666  25.483  25.073  1.00  0.00     0.019 A 
ATOM     10  C   UNL A   1      30.564  26.920  23.327  1.00  0.00    -0.030 A 
ATOM     11  C   UNL A   1      30.930  24.932  25.275  1.00  0.00     0.067 A 
ATOM     12  C   UNL A   1      30.369  28.057  22.350  1.00  0.00     0.046 C 
ATOM     13  C   UNL A   1      31.137  23.996  26.391  1.00  0.00     0.200 A 
ATOM     14  C   UNL A   1      32.008  25.287  24.466  1.00  0.00     0.153 A 
ATOM     15  O   UNL A   1      30.239  23.719  27.175  1.00  0.00    -0.288 OA
ATOM     16  C   UNL A   1      32.476  23.422  26.530  1.00  0.00     0.065 A 
ATOM     17  O   UNL A   1      33.216  24.625  24.541  1.00  0.00    -0.455 OA
ATOM     18  C   UNL A   1      32.804  22.613  27.622  1.00  0.00     0.016 A 
ATOM     19  C   UNL A   1      33.407  23.695  25.536  1.00  0.00     0.138 A 
ATOM     20  C   UNL A   1      34.070  22.035  27.691  1.00  0.00     0.001 A 
ATOM     21  C   UNL A   1      34.644  23.050  25.569  1.00  0.00     0.048 A 
ATOM     22  C   UNL A   1      34.979  22.229  26.652  1.00  0.00     0.004 A 
ENDBRANCH   4   6
ENDBRANCH   3   4
ENDBRANCH   2   3
ENDBRANCH   1   2
BRANCH   1  23
ATOM     23  O   UNL A   1      33.687  29.520  25.834  1.00  0.00    -0.458 OA
BRANCH  23  24
ATOM     24  C   UNL A   1      33.504  30.475  26.776  1.00  0.00     0.338 C 
ATOM     25  O   UNL A   1      32.461  31.034  27.074  1.00  0.00    -0.246 OA
BRANCH  24  26
ATOM     26  C   UNL A   1      34.740  30.580  27.571  1.00  0.00     0.060 A 
ATOM     27  C   UNL A   1      35.435  31.783  27.737  1.00  0.00     0.016 A 
ATOM     28  C   UNL A   1      35.224  29.401  28.138  1.00  0.00     0.016 A 
ATOM     29  C   UNL A   1      36.654  31.789  28.429  1.00  0.00     0.010 A 
ATOM     30  C   UNL A   1      36.430  29.414  28.827  1.00  0.00     0.010 A 
ATOM     31  C   UNL A   1      37.176  30.594  28.943  1.00  0.00    -0.014 A 
BRANCH  31  32
ATOM     32  C   UNL A   1      38.481  30.526  29.641  1.00  0.00     0.031 A 
ATOM     33  C   UNL A   1      39.630  29.755  29.055  1.00  0.00     0.074 A 
ATOM     34  C   UNL A   1      38.578  31.031  30.882  1.00  0.00     0.049 A 
ATOM     35  N   UNL A   1      40.814  29.518  29.566  1.00  0.00    -0.248 NA
ATOM     36  C   UNL A   1      39.406  29.130  27.745  1.00  0.00     0.031 C 
ATOM     37  C   UNL A   1      37.498  31.711  31.594  1.00  0.00     0.029 A 
ATOM     38  N   UNL A   1      39.620  31.020  31.773  1.00  0.00    -0.354 N 
ATOM     39  C   UNL A   1      41.472  28.709  28.649  1.00  0.00     0.074 A 
ATOM     40  C   UNL A   1      40.539  28.461  27.568  1.00  0.00     0.031 C 
ATOM     41  C   UNL A   1      37.934  32.056  32.816  1.00  0.00     0.029 A 
ATOM     42  C   UNL A   1      39.321  31.621  32.968  1.00  0.00     0.049 A 
ATOM     43  H   UNL A   1      40.497  30.620  31.573  1.00  0.00     0.167 HD
ATOM     44  C   UNL A   1      42.740  28.231  28.704  1.00  0.00     0.037 A 
ATOM     45  C   UNL A   1      40.086  31.819  34.056  1.00  0.00     0.037 A 
ATOM     46  C   UNL A   1      43.670  28.508  29.772  1.00  0.00     0.049 A 
ATOM     47  C   UNL A   1      41.517  31.356  34.055  1.00  0.00     0.074 A 
ATOM     48  C   UNL A   1      45.010  28.165  29.860  1.00  0.00     0.029 A 
ATOM     49  N   UNL A   1      43.361  29.191  30.940  1.00  0.00    -0.354 N 
ATOM     50  N   UNL A   1      42.170  30.690  33.135  1.00  0.00    -0.248 NA
ATOM     51  C   UNL A   1      42.321  31.698  35.236  1.00  0.00     0.031 C 
ATOM     52  C   UNL A   1      45.498  28.599  31.097  1.00  0.00     0.029 A 
ATOM     53  C   UNL A   1      44.479  29.262  31.759  1.00  0.00     0.049 A 
ATOM     54  H   UNL A   1      42.477  29.568  31.155  1.00  0.00     0.167 HD
ATOM     55  C   UNL A   1      43.465  30.552  33.613  1.00  0.00     0.074 A 
ATOM     56  C   UNL A   1      43.511  31.223  34.895  1.00  0.00     0.031 C 
ATOM     57  C   UNL A   1      44.520  29.920  33.040  1.00  0.00     0.037 A 
BRANCH  44  58
ATOM     58  C   UNL A   1      43.232  27.379  27.565  1.00  0.00     0.064 A 
ATOM     59  C   UNL A   1      44.008  27.919  26.529  1.00  0.00     0.173 A 
ATOM     60  C   UNL A   1      43.026  25.989  27.571  1.00  0.00     0.173 A 
ATOM     61  F   UNL A   1      44.238  29.238  26.474  1.00  0.00    -0.203 F 
ATOM     62  C   UNL A   1      44.548  27.105  25.536  1.00  0.00     0.198 A 
ATOM     63  C   UNL A   1      43.595  25.173  26.594  1.00  0.00     0.198 A 
ATOM     64  F   UNL A   1      42.303  25.416  28.544  1.00  0.00    -0.203 F 
ATOM     65  F   UNL A   1      45.265  27.649  24.543  1.00  0.00    -0.200 F 
ATOM     66  C   UNL A   1      44.353  25.732  25.577  1.00  0.00     0.200 A 
ATOM     67  F   UNL A   1      43.426  23.845  26.650  1.00  0.00    -0.200 F 
ATOM     68  F   UNL A   1      44.900  24.948  24.638  1.00  0.00    -0.200 F 
ENDBRANCH  44  58
BRANCH  45  69
ATOM     69  C   UNL A   1      39.532  32.586  35.197  1.00  0.00     0.064 A 
ATOM     70  C   UNL A   1      38.838  31.924  36.218  1.00  0.00     0.173 A 
ATOM     71  C   UNL A   1      39.723  33.968  35.320  1.00  0.00     0.173 A 
ATOM     72  F   UNL A   1      38.621  30.602  36.132  1.00  0.00    -0.203 F 
ATOM     73  C   UNL A   1      38.345  32.617  37.318  1.00  0.00     0.198 A 
ATOM     74  C   UNL A   1      39.250  34.658  36.434  1.00  0.00     0.198 A 
ATOM     75  F   UNL A   1      40.393  34.641  34.372  1.00  0.00    -0.203 F 
ATOM     76  F   UNL A   1      37.660  31.965  38.267  1.00  0.00    -0.200 F 
ATOM     77  C   UNL A   1      38.559  33.983  37.429  1.00  0.00     0.200 A 
ATOM     78  F   UNL A   1      39.470  35.975  36.547  1.00  0.00    -0.200 F 
ATOM     79  F   UNL A   1      38.096  34.649  38.496  1.00  0.00    -0.200 F 
ENDBRANCH  45  69
BRANCH  57  80
ATOM     80  C   UNL A   1      45.822  29.933  33.789  1.00  0.00     0.064 A 
ATOM     81  C   UNL A   1      46.132  28.950  34.743  1.00  0.00     0.173 A 
ATOM     82  C   UNL A   1      46.786  30.920  33.531  1.00  0.00     0.173 A 
ATOM     83  F   UNL A   1      45.240  27.992  35.036  1.00  0.00    -0.203 F 
ATOM     84  C   UNL A   1      47.341  28.974  35.432  1.00  0.00     0.198 A 
ATOM     85  C   UNL A   1      48.009  30.923  34.200  1.00  0.00     0.198 A 
ATOM     86  F   UNL A   1      46.548  31.878  32.624  1.00  0.00    -0.203 F 
ATOM     87  F   UNL A   1      47.591  28.056  36.376  1.00  0.00    -0.200 F 
ATOM     88  C   UNL A   1      48.281  29.956  35.156  1.00  0.00     0.200 A 
ATOM     89  F   UNL A   1      48.921  31.864  33.921  1.00  0.00    -0.200 F 
ATOM     90  F   UNL A   1      49.446  29.975  35.817  1.00  0.00    -0.200 F 
ENDBRANCH  57  80
ENDBRANCH  31  32
ENDBRANCH  24  26
ENDBRANCH  23  24
ENDBRANCH   1  23
TORSDOF 11
ENDMDL
MODEL 3
REMARK VINA RESULT:     -12.7      3.032      7.742
REMARK SMILES Cc1cc2c(=O)c3ccccc3oc2c(C(=O)OCCOC(=O)c2ccc(-c3c4nc(c(-c5c(F)c(F)c(F)c(F)c5F)c5ccc([nH]5)c(-c5c(F)c(F)c(F)c(F)c5F)c5nc(c(-c6c(F)c(F)c(F)c(F)c6F)c6ccc3[nH]6)C=C5)C=C4)cc2)c1C
REMARK SMILES IDX 20 1 19 2 18 3 16 4 17 5 15 6 1 7 2 8 3 9 87 10 4 11 88 12
REMARK SMILES IDX 5 13 14 14 6 15 7 16 13 17 8 18 12 19 9 20 11 21 10 22 21 23
REMARK SMILES IDX 22 24 23 25 24 26 25 27 86 28 26 29 85 30 27 31 28 32 29 33
REMARK SMILES IDX 79 34 30 35 84 36 78 37 80 38 31 39 83 40 77 41 76 42 32 44
REMARK SMILES IDX 64 45 44 46 63 47 45 48 48 49 62 50 81 51 46 52 47 53 61 55
REMARK SMILES IDX 82 56 49 57 33 58 34 59 42 60 35 61 36 62 40 63 43 64 37 65
REMARK SMILES IDX 38 66 41 67 39 68 65 69 66 70 74 71 67 72 68 73 72 74 75 75
REMARK SMILES IDX 69 76 70 77 73 78 71 79 50 80 51 81 59 82 52 83 53 84 57 85
REMARK SMILES IDX 60 86 54 87 55 88 58 89 56 90
REMARK H PARENT 80 43 48 54
REMARK Flexibility Score: inf
ROOT
ATOM      1  C   UNL A   1      33.472  29.682  26.035  1.00  0.00     0.275 C 
ENDROOT
BRANCH   1   2
ATOM      2  C   UNL A   1      33.983  28.576  25.108  1.00  0.00     0.275 C 
BRANCH   2   3
ATOM      3  O   UNL A   1      33.449  28.748  23.779  1.00  0.00    -0.458 OA
BRANCH   3   4
ATOM      4  C   UNL A   1      33.117  27.632  23.076  1.00  0.00     0.342 C 
ATOM      5  O   UNL A   1      33.758  27.154  22.162  1.00  0.00    -0.246 OA
BRANCH   4   6
ATOM      6  C   UNL A   1      31.847  27.047  23.619  1.00  0.00     0.106 A 
ATOM      7  C   UNL A   1      28.008  27.447  23.504  1.00  0.00     0.044 C 
ATOM      8  C   UNL A   1      29.403  26.996  23.851  1.00  0.00    -0.046 A 
ATOM      9  C   UNL A   1      29.536  25.957  24.779  1.00  0.00     0.019 A 
ATOM     10  C   UNL A   1      30.564  27.590  23.298  1.00  0.00    -0.030 A 
ATOM     11  C   UNL A   1      30.793  25.443  25.092  1.00  0.00     0.067 A 
ATOM     12  C   UNL A   1      30.431  28.806  22.409  1.00  0.00     0.046 C 
ATOM     13  C   UNL A   1      30.910  24.416  26.138  1.00  0.00     0.200 A 
ATOM     14  C   UNL A   1      31.942  25.919  24.463  1.00  0.00     0.153 A 
ATOM     15  O   UNL A   1      29.938  24.027  26.772  1.00  0.00    -0.288 OA
ATOM     16  C   UNL A   1      32.250  23.888  26.396  1.00  0.00     0.065 A 
ATOM     17  O   UNL A   1      33.165  25.304  24.634  1.00  0.00    -0.455 OA
ATOM     18  C   UNL A   1      32.484  22.993  27.444  1.00  0.00     0.016 A 
ATOM     19  C   UNL A   1      33.282  24.293  25.558  1.00  0.00     0.138 A 
ATOM     20  C   UNL A   1      33.761  22.466  27.625  1.00  0.00     0.001 A 
ATOM     21  C   UNL A   1      34.538  23.701  25.692  1.00  0.00     0.048 A 
ATOM     22  C   UNL A   1      34.780  22.795  26.732  1.00  0.00     0.004 A 
ENDBRANCH   4   6
ENDBRANCH   3   4
ENDBRANCH   2   3
ENDBRANCH   1   2
BRANCH   1  23
ATOM     23  O   UNL A   1      33.947  29.457  27.374  1.00  0.00    -0.458 OA
BRANCH  23  24
ATOM     24  C   UNL A   1      34.667  30.473  27.903  1.00  0.00     0.338 C 
ATOM     25  O   UNL A   1      34.267  31.582  28.218  1.00  0.00    -0.246 OA
BRANCH  24  26
ATOM     26  C   UNL A   1      35.996  29.953  28.270  1.00  0.00     0.060 A 
ATOM     27  C   UNL A   1      36.271  29.393  29.522  1.00  0.00     0.016 A 
ATOM     28  C   UNL A   1      37.003  30.074  27.314  1.00  0.00     0.016 A 
ATOM     29  C   UNL A   1      37.582  29.004  29.834  1.00  0.00     0.010 A 
ATOM     30  C   UNL A   1      38.299  29.682  27.626  1.00  0.00     0.010 A 
ATOM     31  C   UNL A   1      38.610  29.185  28.898  1.00  0.00    -0.014 A 
BRANCH  31  32
ATOM     32  C   UNL A   1      40.021  28.840  29.185  1.00  0.00     0.031 A 
ATOM     33  C   UNL A   1      40.937  29.827  29.851  1.00  0.00     0.074 A 
ATOM     34  C   UNL A   1      40.518  27.689  28.699  1.00  0.00     0.049 A 
ATOM     35  N   UNL A   1      42.220  29.728  30.102  1.00  0.00    -0.248 NA
ATOM     36  C   UNL A   1      40.346  31.113  30.246  1.00  0.00     0.031 C 
ATOM     37  C   UNL A   1      39.749  26.700  27.948  1.00  0.00     0.029 A 
ATOM     38  N   UNL A   1      41.789  27.178  28.736  1.00  0.00    -0.354 N 
ATOM     39  C   UNL A   1      42.593  30.937  30.673  1.00  0.00     0.074 A 
ATOM     40  C   UNL A   1      41.409  31.772  30.693  1.00  0.00     0.031 C 
ATOM     41  C   UNL A   1      40.566  25.695  27.594  1.00  0.00     0.029 A 
ATOM     42  C   UNL A   1      41.910  25.973  28.095  1.00  0.00     0.049 A 
ATOM     43  H   UNL A   1      42.541  27.633  29.180  1.00  0.00     0.167 HD
ATOM     44  C   UNL A   1      43.810  31.307  31.145  1.00  0.00     0.037 A 
ATOM     45  C   UNL A   1      42.980  25.171  27.947  1.00  0.00     0.037 A 
ATOM     46  C   UNL A   1      44.976  30.457  31.146  1.00  0.00     0.049 A 
ATOM     47  C   UNL A   1      44.296  25.565  28.558  1.00  0.00     0.074 A 
ATOM     48  C   UNL A   1      46.221  30.700  31.707  1.00  0.00     0.029 A 
ATOM     49  N   UNL A   1      45.048  29.203  30.557  1.00  0.00    -0.354 N 
ATOM     50  N   UNL A   1      44.615  26.662  29.199  1.00  0.00    -0.248 NA
ATOM     51  C   UNL A   1      45.392  24.593  28.446  1.00  0.00     0.031 C 
ATOM     52  C   UNL A   1      47.056  29.616  31.417  1.00  0.00     0.029 A 
ATOM     53  C   UNL A   1      46.319  28.671  30.725  1.00  0.00     0.049 A 
ATOM     54  H   UNL A   1      44.306  28.757  30.088  1.00  0.00     0.167 HD
ATOM     55  C   UNL A   1      45.939  26.506  29.585  1.00  0.00     0.074 A 
ATOM     56  C   UNL A   1      46.356  25.198  29.126  1.00  0.00     0.031 C 
ATOM     57  C   UNL A   1      46.736  27.373  30.257  1.00  0.00     0.037 A 
BRANCH  44  58
ATOM     58  C   UNL A   1      43.959  32.682  31.738  1.00  0.00     0.064 A 
ATOM     59  C   UNL A   1      44.290  33.790  30.945  1.00  0.00     0.173 A 
ATOM     60  C   UNL A   1      43.651  32.915  33.089  1.00  0.00     0.173 A 
ATOM     61  F   UNL A   1      44.592  33.627  29.649  1.00  0.00    -0.203 F 
ATOM     62  C   UNL A   1      44.321  35.075  31.481  1.00  0.00     0.198 A 
ATOM     63  C   UNL A   1      43.651  34.206  33.615  1.00  0.00     0.198 A 
ATOM     64  F   UNL A   1      43.315  31.895  33.892  1.00  0.00    -0.203 F 
ATOM     65  F   UNL A   1      44.666  36.114  30.707  1.00  0.00    -0.200 F 
ATOM     66  C   UNL A   1      43.988  35.284  32.811  1.00  0.00     0.200 A 
ATOM     67  F   UNL A   1      43.305  34.408  34.893  1.00  0.00    -0.200 F 
ATOM     68  F   UNL A   1      43.988  36.525  33.317  1.00  0.00    -0.200 F 
ENDBRANCH  44  58
BRANCH  45  69
ATOM     69  C   UNL A   1      42.811  23.862  27.273  1.00  0.00     0.064 A 
ATOM     70  C   UNL A   1      43.184  23.709  25.931  1.00  0.00     0.173 A 
ATOM     71  C   UNL A   1      42.331  22.737  27.956  1.00  0.00     0.173 A 
ATOM     72  F   UNL A   1      43.636  24.765  25.238  1.00  0.00    -0.203 F 
ATOM     73  C   UNL A   1      43.073  22.479  25.291  1.00  0.00     0.198 A 
ATOM     74  C   UNL A   1      42.243  21.500  27.320  1.00  0.00     0.198 A 
ATOM     75  F   UNL A   1      41.974  22.834  29.245  1.00  0.00    -0.203 F 
ATOM     76  F   UNL A   1      43.410  22.366  23.999  1.00  0.00    -0.200 F 
ATOM     77  C   UNL A   1      42.610  21.373  25.989  1.00  0.00     0.200 A 
ATOM     78  F   UNL A   1      41.809  20.430  27.999  1.00  0.00    -0.200 F 
ATOM     79  F   UNL A   1      42.516  20.186  25.375  1.00  0.00    -0.200 F 
ENDBRANCH  45  69
BRANCH  57  80
ATOM     80  C   UNL A   1      48.143  26.933  30.549  1.00  0.00     0.064 A 
ATOM     81  C   UNL A   1      49.210  27.270  29.702  1.00  0.00     0.173 A 
ATOM     82  C   UNL A   1      48.434  26.191  31.705  1.00  0.00     0.173 A 
ATOM     83  F   UNL A   1      48.983  27.968  28.579  1.00  0.00    -0.203 F 
ATOM     84  C   UNL A   1      50.509  26.854  29.982  1.00  0.00     0.198 A 
ATOM     85  C   UNL A   1      49.740  25.803  31.999  1.00  0.00     0.198 A 
ATOM     86  F   UNL A   1      47.456  25.848  32.554  1.00  0.00    -0.203 F 
ATOM     87  F   UNL A   1      51.502  27.144  29.130  1.00  0.00    -0.200 F 
ATOM     88  C   UNL A   1      50.774  26.127  31.134  1.00  0.00     0.200 A 
ATOM     89  F   UNL A   1      49.996  25.113  33.118  1.00  0.00    -0.200 F 
ATOM     90  F   UNL A   1      52.025  25.732  31.404  1.00  0.00    -0.200 F 
ENDBRANCH  57  80
ENDBRANCH  31  32
ENDBRANCH  24  26
ENDBRANCH  23  24
ENDBRANCH   1  23
TORSDOF 11
ENDMDL
