MODEL 1
REMARK VINA RESULT:     -11.1      0.000      0.000
REMARK SMILES C[C@H](CC(=O)OCCOC(=O)c1ccc(-c2c3nc(c(-c4c(F)c(F)c(F)c(F)c4F)c4ccc([nH]4)c(-c4c(F)c(F)c(F)c(F)c4F)c4nc(c(-c5c(F)c(F)c(F)c(F)c5F)c5ccc2[nH]5)C=C4)C=C3)cc1)c1ccc(O)cc1
REMARK SMILES IDX 7 1 6 2 4 3 5 4 3 5 2 6 1 7 75 8 76 9 81 10 77 11 80 12
REMARK SMILES IDX 78 13 79 14 8 16 9 17 10 18 11 19 12 20 13 21 74 22 14 23
REMARK SMILES IDX 73 24 15 25 16 26 17 27 67 28 18 29 72 30 66 31 68 32 19 33
REMARK SMILES IDX 71 34 65 35 64 36 20 38 52 39 32 40 51 41 33 42 36 43 50 44
REMARK SMILES IDX 69 45 34 46 35 47 49 49 70 50 37 51 21 52 22 53 30 54 23 55
REMARK SMILES IDX 24 56 28 57 31 58 25 59 26 60 29 61 27 62 53 63 54 64 62 65
REMARK SMILES IDX 55 66 56 67 60 68 63 69 57 70 58 71 61 72 59 73 38 74 39 75
REMARK SMILES IDX 47 76 40 77 41 78 45 79 48 80 42 81 43 82 46 83 44 84
REMARK H PARENT 79 15 68 37 36 48
REMARK Flexibility Score: inf
ROOT
ATOM      1  C   UNL A   1      36.306  20.238  24.931  1.00  0.00     0.274 C 
ENDROOT
BRANCH   1   2
ATOM      2  O   UNL A   1      35.645  21.057  25.917  1.00  0.00    -0.462 OA
BRANCH   2   3
ATOM      3  C   UNL A   1      34.304  21.183  25.798  1.00  0.00     0.306 C 
ATOM      4  O   UNL A   1      33.531  21.319  26.742  1.00  0.00    -0.252 OA
BRANCH   3   5
ATOM      5  C   UNL A   1      33.796  21.055  24.379  1.00  0.00     0.130 C 
BRANCH   5   6
ATOM      6  C   UNL A   1      32.653  20.078  24.053  1.00  0.00     0.027 C 
ATOM      7  C   UNL A   1      32.064  20.261  22.652  1.00  0.00     0.013 C 
BRANCH   6   8
ATOM      8  C   UNL A   1      32.989  18.644  24.421  1.00  0.00    -0.044 A 
ATOM      9  C   UNL A   1      32.574  18.051  25.622  1.00  0.00     0.008 A 
ATOM     10  C   UNL A   1      33.714  17.861  23.505  1.00  0.00     0.008 A 
ATOM     11  C   UNL A   1      32.846  16.706  25.883  1.00  0.00     0.046 A 
ATOM     12  C   UNL A   1      33.998  16.521  23.770  1.00  0.00     0.046 A 
ATOM     13  C   UNL A   1      33.550  15.952  24.956  1.00  0.00     0.115 A 
BRANCH  13  14
ATOM     14  O   UNL A   1      33.778  14.640  25.245  1.00  0.00    -0.508 OA
ATOM     15  H   UNL A   1      33.784  14.002  24.558  1.00  0.00     0.293 HD
ENDBRANCH  13  14
ENDBRANCH   6   8
ENDBRANCH   5   6
ENDBRANCH   3   5
ENDBRANCH   2   3
ENDBRANCH   1   2
BRANCH   1  16
ATOM     16  C   UNL A   1      37.791  20.578  24.839  1.00  0.00     0.275 C 
BRANCH  16  17
ATOM     17  O   UNL A   1      38.199  21.275  26.029  1.00  0.00    -0.458 OA
BRANCH  17  18
ATOM     18  C   UNL A   1      39.490  21.117  26.391  1.00  0.00     0.338 C 
ATOM     19  O   UNL A   1      40.160  20.101  26.368  1.00  0.00    -0.246 OA
BRANCH  18  20
ATOM     20  C   UNL A   1      40.019  22.414  26.829  1.00  0.00     0.060 A 
ATOM     21  C   UNL A   1      39.582  23.586  26.209  1.00  0.00     0.016 A 
ATOM     22  C   UNL A   1      41.033  22.450  27.786  1.00  0.00     0.016 A 
ATOM     23  C   UNL A   1      40.188  24.802  26.516  1.00  0.00     0.010 A 
ATOM     24  C   UNL A   1      41.610  23.674  28.125  1.00  0.00     0.010 A 
ATOM     25  C   UNL A   1      41.211  24.853  27.472  1.00  0.00    -0.014 A 
BRANCH  25  26
ATOM     26  C   UNL A   1      41.902  26.133  27.757  1.00  0.00     0.031 A 
ATOM     27  C   UNL A   1      41.203  27.196  28.556  1.00  0.00     0.074 A 
ATOM     28  C   UNL A   1      43.148  26.342  27.296  1.00  0.00     0.049 A 
ATOM     29  N   UNL A   1      41.585  28.419  28.824  1.00  0.00    -0.248 NA
ATOM     30  C   UNL A   1      39.895  26.836  29.127  1.00  0.00     0.031 C 
ATOM     31  C   UNL A   1      43.936  25.378  26.529  1.00  0.00     0.029 A 
ATOM     32  N   UNL A   1      43.964  27.440  27.396  1.00  0.00    -0.354 N 
ATOM     33  C   UNL A   1      40.555  28.984  29.562  1.00  0.00     0.074 A 
ATOM     34  C   UNL A   1      39.527  27.973  29.698  1.00  0.00     0.031 C 
ATOM     35  C   UNL A   1      45.124  25.927  26.227  1.00  0.00     0.029 A 
ATOM     36  C   UNL A   1      45.161  27.293  26.742  1.00  0.00     0.049 A 
ATOM     37  H   UNL A   1      43.715  28.254  27.892  1.00  0.00     0.167 HD
ATOM     38  C   UNL A   1      40.477  30.233  30.078  1.00  0.00     0.037 A 
ATOM     39  C   UNL A   1      46.163  28.172  26.557  1.00  0.00     0.037 A 
ATOM     40  C   UNL A   1      41.512  31.227  29.966  1.00  0.00     0.049 A 
ATOM     41  C   UNL A   1      46.050  29.553  27.141  1.00  0.00     0.074 A 
ATOM     42  C   UNL A   1      41.531  32.516  30.468  1.00  0.00     0.029 A 
ATOM     43  N   UNL A   1      42.719  31.034  29.310  1.00  0.00    -0.354 N 
ATOM     44  N   UNL A   1      45.068  30.081  27.832  1.00  0.00    -0.248 NA
ATOM     45  C   UNL A   1      47.185  30.461  26.921  1.00  0.00     0.031 C 
ATOM     46  C   UNL A   1      42.740  33.114  30.092  1.00  0.00     0.029 A 
ATOM     47  C   UNL A   1      43.487  32.184  29.388  1.00  0.00     0.049 A 
ATOM     48  H   UNL A   1      42.989  30.203  28.856  1.00  0.00     0.167 HD
ATOM     49  C   UNL A   1      45.472  31.371  28.142  1.00  0.00     0.074 A 
ATOM     50  C   UNL A   1      46.795  31.543  27.579  1.00  0.00     0.031 C 
ATOM     51  C   UNL A   1      44.805  32.331  28.829  1.00  0.00     0.037 A 
BRANCH  38  52
ATOM     52  C   UNL A   1      39.214  30.607  30.795  1.00  0.00     0.064 A 
ATOM     53  C   UNL A   1      39.077  30.440  32.180  1.00  0.00     0.173 A 
ATOM     54  C   UNL A   1      38.144  31.177  30.090  1.00  0.00     0.173 A 
ATOM     55  F   UNL A   1      40.067  29.885  32.894  1.00  0.00    -0.203 F 
ATOM     56  C   UNL A   1      37.905  30.817  32.832  1.00  0.00     0.198 A 
ATOM     57  C   UNL A   1      36.983  31.572  30.748  1.00  0.00     0.198 A 
ATOM     58  F   UNL A   1      38.229  31.359  28.763  1.00  0.00    -0.203 F 
ATOM     59  F   UNL A   1      37.781  30.618  34.152  1.00  0.00    -0.200 F 
ATOM     60  C   UNL A   1      36.862  31.388  32.117  1.00  0.00     0.200 A 
ATOM     61  F   UNL A   1      35.979  32.131  30.057  1.00  0.00    -0.200 F 
ATOM     62  F   UNL A   1      35.739  31.757  32.747  1.00  0.00    -0.200 F 
ENDBRANCH  38  52
BRANCH  39  63
ATOM     63  C   UNL A   1      47.358  27.774  25.774  1.00  0.00     0.064 A 
ATOM     64  C   UNL A   1      48.539  27.370  26.412  1.00  0.00     0.173 A 
ATOM     65  C   UNL A   1      47.344  27.790  24.371  1.00  0.00     0.173 A 
ATOM     66  F   UNL A   1      48.605  27.363  27.751  1.00  0.00    -0.203 F 
ATOM     67  C   UNL A   1      49.666  27.013  25.676  1.00  0.00     0.198 A 
ATOM     68  C   UNL A   1      48.464  27.408  23.637  1.00  0.00     0.198 A 
ATOM     69  F   UNL A   1      46.237  28.168  23.715  1.00  0.00    -0.203 F 
ATOM     70  F   UNL A   1      50.796  26.671  26.310  1.00  0.00    -0.200 F 
ATOM     71  C   UNL A   1      49.627  27.026  24.290  1.00  0.00     0.200 A 
ATOM     72  F   UNL A   1      48.418  27.413  22.298  1.00  0.00    -0.200 F 
ATOM     73  F   UNL A   1      50.711  26.679  23.584  1.00  0.00    -0.200 F 
ENDBRANCH  39  63
BRANCH  51  74
ATOM     74  C   UNL A   1      45.512  33.636  29.034  1.00  0.00     0.064 A 
ATOM     75  C   UNL A   1      46.343  33.853  30.142  1.00  0.00     0.173 A 
ATOM     76  C   UNL A   1      45.375  34.672  28.098  1.00  0.00     0.173 A 
ATOM     77  F   UNL A   1      46.492  32.897  31.071  1.00  0.00    -0.203 F 
ATOM     78  C   UNL A   1      46.991  35.072  30.321  1.00  0.00     0.198 A 
ATOM     79  C   UNL A   1      46.043  35.882  28.268  1.00  0.00     0.198 A 
ATOM     80  F   UNL A   1      44.595  34.509  27.019  1.00  0.00    -0.203 F 
ATOM     81  F   UNL A   1      47.746  35.275  31.409  1.00  0.00    -0.200 F 
ATOM     82  C   UNL A   1      46.844  36.083  29.381  1.00  0.00     0.200 A 
ATOM     83  F   UNL A   1      45.906  36.854  27.357  1.00  0.00    -0.200 F 
ATOM     84  F   UNL A   1      47.469  37.255  29.555  1.00  0.00    -0.200 F 
ENDBRANCH  51  74
ENDBRANCH  25  26
ENDBRANCH  18  20
ENDBRANCH  17  18
ENDBRANCH  16  17
ENDBRANCH   1  16
TORSDOF 14
ENDMDL
MODEL 2
REMARK VINA RESULT:     -11.0      0.523      7.672
REMARK SMILES C[C@H](CC(=O)OCCOC(=O)c1ccc(-c2c3nc(c(-c4c(F)c(F)c(F)c(F)c4F)c4ccc([nH]4)c(-c4c(F)c(F)c(F)c(F)c4F)c4nc(c(-c5c(F)c(F)c(F)c(F)c5F)c5ccc2[nH]5)C=C4)C=C3)cc1)c1ccc(O)cc1
REMARK SMILES IDX 7 1 6 2 4 3 5 4 3 5 2 6 1 7 75 8 76 9 81 10 77 11 80 12
REMARK SMILES IDX 78 13 79 14 8 16 9 17 10 18 11 19 12 20 13 21 74 22 14 23
REMARK SMILES IDX 73 24 15 25 16 26 17 27 67 28 18 29 72 30 66 31 68 32 19 33
REMARK SMILES IDX 71 34 65 35 64 36 20 38 52 39 32 40 51 41 33 42 36 43 50 44
REMARK SMILES IDX 69 45 34 46 35 47 49 49 70 50 37 51 21 52 22 53 30 54 23 55
REMARK SMILES IDX 24 56 28 57 31 58 25 59 26 60 29 61 27 62 53 63 54 64 62 65
REMARK SMILES IDX 55 66 56 67 60 68 63 69 57 70 58 71 61 72 59 73 38 74 39 75
REMARK SMILES IDX 47 76 40 77 41 78 45 79 48 80 42 81 43 82 46 83 44 84
REMARK H PARENT 79 15 68 37 36 48
REMARK Flexibility Score: inf
ROOT
ATOM      1  C   UNL A   1      36.389  20.201  24.923  1.00  0.00     0.274 C 
ENDROOT
BRANCH   1   2
ATOM      2  O   UNL A   1      35.766  21.049  25.909  1.00  0.00    -0.462 OA
BRANCH   2   3
ATOM      3  C   UNL A   1      34.420  21.167  25.842  1.00  0.00     0.306 C 
ATOM      4  O   UNL A   1      33.682  21.283  26.816  1.00  0.00    -0.252 OA
BRANCH   3   5
ATOM      5  C   UNL A   1      33.861  21.058  24.440  1.00  0.00     0.130 C 
BRANCH   5   6
ATOM      6  C   UNL A   1      32.707  20.085  24.143  1.00  0.00     0.027 C 
ATOM      7  C   UNL A   1      32.080  20.273  22.760  1.00  0.00     0.013 C 
BRANCH   6   8
ATOM      8  C   UNL A   1      33.049  18.648  24.498  1.00  0.00    -0.044 A 
ATOM      9  C   UNL A   1      32.622  18.037  25.686  1.00  0.00     0.008 A 
ATOM     10  C   UNL A   1      33.793  17.883  23.583  1.00  0.00     0.008 A 
ATOM     11  C   UNL A   1      32.901  16.692  25.934  1.00  0.00     0.046 A 
ATOM     12  C   UNL A   1      34.084  16.542  23.836  1.00  0.00     0.046 A 
ATOM     13  C   UNL A   1      33.624  15.955  25.008  1.00  0.00     0.115 A 
BRANCH  13  14
ATOM     14  O   UNL A   1      33.858  14.641  25.284  1.00  0.00    -0.508 OA
ATOM     15  H   UNL A   1      34.167  14.067  24.609  1.00  0.00     0.293 HD
ENDBRANCH  13  14
ENDBRANCH   6   8
ENDBRANCH   5   6
ENDBRANCH   3   5
ENDBRANCH   2   3
ENDBRANCH   1   2
BRANCH   1  16
ATOM     16  C   UNL A   1      37.909  20.338  24.961  1.00  0.00     0.275 C 
BRANCH  16  17
ATOM     17  O   UNL A   1      38.274  21.377  25.885  1.00  0.00    -0.458 OA
BRANCH  17  18
ATOM     18  C   UNL A   1      39.499  21.267  26.441  1.00  0.00     0.338 C 
ATOM     19  O   UNL A   1      40.178  20.266  26.577  1.00  0.00    -0.246 OA
BRANCH  18  20
ATOM     20  C   UNL A   1      39.942  22.598  26.875  1.00  0.00     0.060 A 
ATOM     21  C   UNL A   1      39.393  23.737  26.284  1.00  0.00     0.016 A 
ATOM     22  C   UNL A   1      40.985  22.704  27.795  1.00  0.00     0.016 A 
ATOM     23  C   UNL A   1      39.913  24.995  26.583  1.00  0.00     0.010 A 
ATOM     24  C   UNL A   1      41.477  23.967  28.127  1.00  0.00     0.010 A 
ATOM     25  C   UNL A   1      40.964  25.117  27.502  1.00  0.00    -0.014 A 
BRANCH  25  26
ATOM     26  C   UNL A   1      41.563  26.445  27.777  1.00  0.00     0.031 A 
ATOM     27  C   UNL A   1      42.961  26.741  27.315  1.00  0.00     0.074 A 
ATOM     28  C   UNL A   1      40.857  27.376  28.442  1.00  0.00     0.049 A 
ATOM     29  N   UNL A   1      43.705  27.794  27.546  1.00  0.00    -0.248 NA
ATOM     30  C   UNL A   1      43.612  25.714  26.487  1.00  0.00     0.031 C 
ATOM     31  C   UNL A   1      39.485  27.213  28.920  1.00  0.00     0.029 A 
ATOM     32  N   UNL A   1      41.204  28.642  28.841  1.00  0.00    -0.354 N 
ATOM     33  C   UNL A   1      44.919  27.542  26.922  1.00  0.00     0.074 A 
ATOM     34  C   UNL A   1      44.817  26.235  26.307  1.00  0.00     0.031 C 
ATOM     35  C   UNL A   1      39.105  28.337  29.549  1.00  0.00     0.029 A 
ATOM     36  C   UNL A   1      40.221  29.279  29.555  1.00  0.00     0.049 A 
ATOM     37  H   UNL A   1      42.074  29.054  28.634  1.00  0.00     0.167 HD
ATOM     38  C   UNL A   1      46.018  28.331  26.870  1.00  0.00     0.037 A 
ATOM     39  C   UNL A   1      40.229  30.478  30.166  1.00  0.00     0.037 A 
ATOM     40  C   UNL A   1      46.108  29.641  27.459  1.00  0.00     0.049 A 
ATOM     41  C   UNL A   1      41.463  31.334  30.093  1.00  0.00     0.074 A 
ATOM     42  C   UNL A   1      47.173  30.523  27.447  1.00  0.00     0.029 A 
ATOM     43  N   UNL A   1      45.083  30.260  28.160  1.00  0.00    -0.354 N 
ATOM     44  N   UNL A   1      42.609  31.084  29.507  1.00  0.00    -0.248 NA
ATOM     45  C   UNL A   1      41.404  32.640  30.765  1.00  0.00     0.031 C 
ATOM     46  C   UNL A   1      46.804  31.667  28.165  1.00  0.00     0.029 A 
ATOM     47  C   UNL A   1      45.494  31.511  28.591  1.00  0.00     0.049 A 
ATOM     48  H   UNL A   1      44.195  29.869  28.325  1.00  0.00     0.167 HD
ATOM     49  C   UNL A   1      43.399  32.204  29.724  1.00  0.00     0.074 A 
ATOM     50  C   UNL A   1      42.598  33.142  30.481  1.00  0.00     0.031 C 
ATOM     51  C   UNL A   1      44.678  32.433  29.335  1.00  0.00     0.037 A 
BRANCH  38  52
ATOM     52  C   UNL A   1      47.227  27.787  26.169  1.00  0.00     0.064 A 
ATOM     53  C   UNL A   1      47.379  27.889  24.780  1.00  0.00     0.173 A 
ATOM     54  C   UNL A   1      48.264  27.195  26.906  1.00  0.00     0.173 A 
ATOM     55  F   UNL A   1      46.409  28.433  24.032  1.00  0.00    -0.203 F 
ATOM     56  C   UNL A   1      48.522  27.399  24.150  1.00  0.00     0.198 A 
ATOM     57  C   UNL A   1      49.412  26.727  26.275  1.00  0.00     0.198 A 
ATOM     58  F   UNL A   1      48.164  27.078  28.239  1.00  0.00    -0.203 F 
ATOM     59  F   UNL A   1      48.633  27.476  22.816  1.00  0.00    -0.200 F 
ATOM     60  C   UNL A   1      49.539  26.826  24.898  1.00  0.00     0.200 A 
ATOM     61  F   UNL A   1      50.398  26.180  27.000  1.00  0.00    -0.200 F 
ATOM     62  F   UNL A   1      50.640  26.364  24.290  1.00  0.00    -0.200 F 
ENDBRANCH  38  52
BRANCH  39  63
ATOM     63  C   UNL A   1      39.030  30.934  30.911  1.00  0.00     0.064 A 
ATOM     64  C   UNL A   1      38.893  30.683  32.283  1.00  0.00     0.173 A 
ATOM     65  C   UNL A   1      37.997  31.630  30.266  1.00  0.00     0.173 A 
ATOM     66  F   UNL A   1      39.846  30.001  32.936  1.00  0.00    -0.203 F 
ATOM     67  C   UNL A   1      37.760  31.097  32.979  1.00  0.00     0.198 A 
ATOM     68  C   UNL A   1      36.876  32.064  30.968  1.00  0.00     0.198 A 
ATOM     69  F   UNL A   1      38.083  31.894  28.954  1.00  0.00    -0.203 F 
ATOM     70  F   UNL A   1      37.634  30.808  34.281  1.00  0.00    -0.200 F 
ATOM     71  C   UNL A   1      36.755  31.792  32.323  1.00  0.00     0.200 A 
ATOM     72  F   UNL A   1      35.911  32.744  30.333  1.00  0.00    -0.200 F 
ATOM     73  F   UNL A   1      35.666  32.191  32.994  1.00  0.00    -0.200 F 
ENDBRANCH  39  63
BRANCH  51  74
ATOM     74  C   UNL A   1      45.270  33.762  29.695  1.00  0.00     0.064 A 
ATOM     75  C   UNL A   1      45.976  33.950  30.892  1.00  0.00     0.173 A 
ATOM     76  C   UNL A   1      45.150  34.852  28.820  1.00  0.00     0.173 A 
ATOM     77  F   UNL A   1      46.103  32.940  31.766  1.00  0.00    -0.203 F 
ATOM     78  C   UNL A   1      46.519  35.190  31.213  1.00  0.00     0.198 A 
ATOM     79  C   UNL A   1      45.714  36.085  29.135  1.00  0.00     0.198 A 
ATOM     80  F   UNL A   1      44.488  34.719  27.661  1.00  0.00    -0.203 F 
ATOM     81  F   UNL A   1      47.151  35.361  32.382  1.00  0.00    -0.200 F 
ATOM     82  C   UNL A   1      46.391  36.255  30.332  1.00  0.00     0.200 A 
ATOM     83  F   UNL A   1      45.596  37.110  28.280  1.00  0.00    -0.200 F 
ATOM     84  F   UNL A   1      46.914  37.449  30.644  1.00  0.00    -0.200 F 
ENDBRANCH  51  74
ENDBRANCH  25  26
ENDBRANCH  18  20
ENDBRANCH  17  18
ENDBRANCH  16  17
ENDBRANCH   1  16
TORSDOF 14
ENDMDL
MODEL 3
REMARK VINA RESULT:     -11.0      5.981     11.007
REMARK SMILES C[C@H](CC(=O)OCCOC(=O)c1ccc(-c2c3nc(c(-c4c(F)c(F)c(F)c(F)c4F)c4ccc([nH]4)c(-c4c(F)c(F)c(F)c(F)c4F)c4nc(c(-c5c(F)c(F)c(F)c(F)c5F)c5ccc2[nH]5)C=C4)C=C3)cc1)c1ccc(O)cc1
REMARK SMILES IDX 7 1 6 2 4 3 5 4 3 5 2 6 1 7 75 8 76 9 81 10 77 11 80 12
REMARK SMILES IDX 78 13 79 14 8 16 9 17 10 18 11 19 12 20 13 21 74 22 14 23
REMARK SMILES IDX 73 24 15 25 16 26 17 27 67 28 18 29 72 30 66 31 68 32 19 33
REMARK SMILES IDX 71 34 65 35 64 36 20 38 52 39 32 40 51 41 33 42 36 43 50 44
REMARK SMILES IDX 69 45 34 46 35 47 49 49 70 50 37 51 21 52 22 53 30 54 23 55
REMARK SMILES IDX 24 56 28 57 31 58 25 59 26 60 29 61 27 62 53 63 54 64 62 65
REMARK SMILES IDX 55 66 56 67 60 68 63 69 57 70 58 71 61 72 59 73 38 74 39 75
REMARK SMILES IDX 47 76 40 77 41 78 45 79 48 80 42 81 43 82 46 83 44 84
REMARK H PARENT 79 15 68 37 36 48
REMARK Flexibility Score: inf
ROOT
ATOM      1  C   UNL A   1      31.794  28.864  26.114  1.00  0.00     0.274 C 
ENDROOT
BRANCH   1   2
ATOM      2  O   UNL A   1      32.384  28.802  24.800  1.00  0.00    -0.462 OA
BRANCH   2   3
ATOM      3  C   UNL A   1      31.999  27.773  24.011  1.00  0.00     0.306 C 
ATOM      4  O   UNL A   1      32.206  26.589  24.260  1.00  0.00    -0.252 OA
BRANCH   3   5
ATOM      5  C   UNL A   1      31.348  28.201  22.713  1.00  0.00     0.130 C 
BRANCH   5   6
ATOM      6  C   UNL A   1      29.817  28.319  22.619  1.00  0.00     0.027 C 
ATOM      7  C   UNL A   1      29.066  27.385  23.570  1.00  0.00     0.013 C 
BRANCH   6   8
ATOM      8  C   UNL A   1      29.342  29.761  22.634  1.00  0.00    -0.044 A 
ATOM      9  C   UNL A   1      29.511  30.605  23.741  1.00  0.00     0.008 A 
ATOM     10  C   UNL A   1      28.740  30.288  21.478  1.00  0.00     0.008 A 
ATOM     11  C   UNL A   1      29.122  31.945  23.681  1.00  0.00     0.046 A 
ATOM     12  C   UNL A   1      28.338  31.623  21.421  1.00  0.00     0.046 A 
ATOM     13  C   UNL A   1      28.544  32.444  22.523  1.00  0.00     0.115 A 
BRANCH  13  14
ATOM     14  O   UNL A   1      28.195  33.762  22.503  1.00  0.00    -0.508 OA
ATOM     15  H   UNL A   1      28.378  34.306  23.243  1.00  0.00     0.293 HD
ENDBRANCH  13  14
ENDBRANCH   6   8
ENDBRANCH   5   6
ENDBRANCH   3   5
ENDBRANCH   2   3
ENDBRANCH   1   2
BRANCH   1  16
ATOM     16  C   UNL A   1      31.801  30.291  26.654  1.00  0.00     0.275 C 
BRANCH  16  17
ATOM     17  O   UNL A   1      33.081  30.894  26.399  1.00  0.00    -0.458 OA
BRANCH  17  18
ATOM     18  C   UNL A   1      33.473  31.839  27.279  1.00  0.00     0.338 C 
ATOM     19  O   UNL A   1      32.902  32.870  27.582  1.00  0.00    -0.246 OA
BRANCH  18  20
ATOM     20  C   UNL A   1      34.752  31.431  27.873  1.00  0.00     0.060 A 
ATOM     21  C   UNL A   1      34.906  30.131  28.358  1.00  0.00     0.016 A 
ATOM     22  C   UNL A   1      35.761  32.379  28.042  1.00  0.00     0.016 A 
ATOM     23  C   UNL A   1      36.061  29.781  29.055  1.00  0.00     0.010 A 
ATOM     24  C   UNL A   1      36.936  32.016  28.702  1.00  0.00     0.010 A 
ATOM     25  C   UNL A   1      37.081  30.724  29.237  1.00  0.00    -0.014 A 
BRANCH  25  26
ATOM     26  C   UNL A   1      38.284  30.378  30.031  1.00  0.00     0.031 A 
ATOM     27  C   UNL A   1      39.331  29.476  29.442  1.00  0.00     0.074 A 
ATOM     28  C   UNL A   1      38.431  30.866  31.276  1.00  0.00     0.049 A 
ATOM     29  N   UNL A   1      40.398  28.967  30.004  1.00  0.00    -0.248 NA
ATOM     30  C   UNL A   1      39.151  29.091  28.034  1.00  0.00     0.031 C 
ATOM     31  C   UNL A   1      37.495  31.767  31.945  1.00  0.00     0.029 A 
ATOM     32  N   UNL A   1      39.422  30.661  32.202  1.00  0.00    -0.354 N 
ATOM     33  C   UNL A   1      40.997  28.177  29.032  1.00  0.00     0.074 A 
ATOM     34  C   UNL A   1      40.173  28.269  27.845  1.00  0.00     0.031 C 
ATOM     35  C   UNL A   1      37.955  32.038  33.177  1.00  0.00     0.029 A 
ATOM     36  C   UNL A   1      39.193  31.296  33.397  1.00  0.00     0.049 A 
ATOM     37  H   UNL A   1      40.220  30.111  32.027  1.00  0.00     0.167 HD
ATOM     38  C   UNL A   1      42.130  27.443  29.125  1.00  0.00     0.037 A 
ATOM     39  C   UNL A   1      39.891  31.262  34.547  1.00  0.00     0.037 A 
ATOM     40  C   UNL A   1      42.963  27.375  30.298  1.00  0.00     0.049 A 
ATOM     41  C   UNL A   1      41.147  30.438  34.622  1.00  0.00     0.074 A 
ATOM     42  C   UNL A   1      44.139  26.671  30.484  1.00  0.00     0.029 A 
ATOM     43  N   UNL A   1      42.707  28.048  31.484  1.00  0.00    -0.354 N 
ATOM     44  N   UNL A   1      41.701  29.689  33.700  1.00  0.00    -0.248 NA
ATOM     45  C   UNL A   1      41.875  30.456  35.899  1.00  0.00     0.031 C 
ATOM     46  C   UNL A   1      44.582  26.896  31.793  1.00  0.00     0.029 A 
ATOM     47  C   UNL A   1      43.700  27.770  32.408  1.00  0.00     0.049 A 
ATOM     48  H   UNL A   1      41.934  28.637  31.644  1.00  0.00     0.167 HD
ATOM     49  C   UNL A   1      42.848  29.161  34.277  1.00  0.00     0.074 A 
ATOM     50  C   UNL A   1      42.920  29.689  35.623  1.00  0.00     0.031 C 
ATOM     51  C   UNL A   1      43.758  28.312  33.740  1.00  0.00     0.037 A 
BRANCH  38  52
ATOM     52  C   UNL A   1      42.528  26.631  27.930  1.00  0.00     0.064 A 
ATOM     53  C   UNL A   1      42.036  25.335  27.724  1.00  0.00     0.173 A 
ATOM     54  C   UNL A   1      43.381  27.175  26.958  1.00  0.00     0.173 A 
ATOM     55  F   UNL A   1      41.231  24.766  28.632  1.00  0.00    -0.203 F 
ATOM     56  C   UNL A   1      42.399  24.605  26.594  1.00  0.00     0.198 A 
ATOM     57  C   UNL A   1      43.723  26.452  25.820  1.00  0.00     0.198 A 
ATOM     58  F   UNL A   1      43.876  28.414  27.110  1.00  0.00    -0.203 F 
ATOM     59  F   UNL A   1      41.944  23.354  26.432  1.00  0.00    -0.200 F 
ATOM     60  C   UNL A   1      43.236  25.166  25.640  1.00  0.00     0.200 A 
ATOM     61  F   UNL A   1      44.526  26.998  24.896  1.00  0.00    -0.200 F 
ATOM     62  F   UNL A   1      43.576  24.465  24.550  1.00  0.00    -0.200 F 
ENDBRANCH  38  52
BRANCH  39  63
ATOM     63  C   UNL A   1      39.411  32.025  35.724  1.00  0.00     0.064 A 
ATOM     64  C   UNL A   1      38.488  31.468  36.619  1.00  0.00     0.173 A 
ATOM     65  C   UNL A   1      39.864  33.329  35.977  1.00  0.00     0.173 A 
ATOM     66  F   UNL A   1      38.010  30.233  36.403  1.00  0.00    -0.203 F 
ATOM     67  C   UNL A   1      38.024  32.191  37.715  1.00  0.00     0.198 A 
ATOM     68  C   UNL A   1      39.418  34.041  37.087  1.00  0.00     0.198 A 
ATOM     69  F   UNL A   1      40.747  33.905  35.149  1.00  0.00    -0.203 F 
ATOM     70  F   UNL A   1      37.111  31.650  38.533  1.00  0.00    -0.200 F 
ATOM     71  C   UNL A   1      38.493  33.475  37.952  1.00  0.00     0.200 A 
ATOM     72  F   UNL A   1      39.880  35.277  37.317  1.00  0.00    -0.200 F 
ATOM     73  F   UNL A   1      38.048  34.168  39.008  1.00  0.00    -0.200 F 
ENDBRANCH  39  63
BRANCH  51  74
ATOM     74  C   UNL A   1      44.923  27.931  34.602  1.00  0.00     0.064 A 
ATOM     75  C   UNL A   1      46.097  28.696  34.628  1.00  0.00     0.173 A 
ATOM     76  C   UNL A   1      44.854  26.799  35.429  1.00  0.00     0.173 A 
ATOM     77  F   UNL A   1      46.215  29.778  33.843  1.00  0.00    -0.203 F 
ATOM     78  C   UNL A   1      47.172  28.328  35.432  1.00  0.00     0.198 A 
ATOM     79  C   UNL A   1      45.922  26.447  36.249  1.00  0.00     0.198 A 
ATOM     80  F   UNL A   1      43.749  26.038  35.442  1.00  0.00    -0.203 F 
ATOM     81  F   UNL A   1      48.301  29.048  35.409  1.00  0.00    -0.200 F 
ATOM     82  C   UNL A   1      47.081  27.207  36.244  1.00  0.00     0.200 A 
ATOM     83  F   UNL A   1      45.830  25.369  37.038  1.00  0.00    -0.200 F 
ATOM     84  F   UNL A   1      48.117  26.854  37.018  1.00  0.00    -0.200 F 
ENDBRANCH  51  74
ENDBRANCH  25  26
ENDBRANCH  18  20
ENDBRANCH  17  18
ENDBRANCH  16  17
ENDBRANCH   1  16
TORSDOF 14
ENDMDL
