MODEL 1
REMARK VINA RESULT:     -12.9      0.000      0.000
REMARK SMILES Cc1ccc(C(=O)OCCOC(=O)c2ccc(-c3c4nc(c(-c5c(F)c(F)c(F)c(F)c5F)c5ccc([nH]5)c(-c5c(F)c(F)c(F)c(F)c5F)c5nc(c(-c6c(F)c(F)c(F)c(F)c6F)c6ccc3[nH]6)C=C5)C=C4)cc2)cc1S(=O)(=O)N(CC1CC1)C(C)C
REMARK SMILES IDX 9 1 8 2 6 3 7 4 5 5 1 6 2 7 3 8 78 9 4 10 77 11 79 12 80 13
REMARK SMILES IDX 81 14 82 15 83 16 84 17 85 18 86 19 87 20 88 21 89 22 10 23
REMARK SMILES IDX 11 24 12 25 13 26 14 27 15 28 76 29 16 30 75 31 17 32 18 33
REMARK SMILES IDX 19 34 69 35 20 36 74 37 68 38 70 39 21 40 73 41 67 42 66 43
REMARK SMILES IDX 22 45 54 46 34 47 53 48 35 49 38 50 52 51 71 52 36 53 37 54
REMARK SMILES IDX 51 56 72 57 39 58 23 59 24 60 32 61 25 62 26 63 30 64 33 65
REMARK SMILES IDX 27 66 28 67 31 68 29 69 55 70 56 71 64 72 57 73 58 74 62 75
REMARK SMILES IDX 65 76 59 77 60 78 63 79 61 80 40 81 41 82 49 83 42 84 43 85
REMARK SMILES IDX 47 86 50 87 44 88 45 89 48 90 46 91
REMARK H PARENT 70 44 38 55
REMARK Flexibility Score: inf
ROOT
ATOM      1  C   UNL A   1      37.679  21.722  25.006  1.00  0.00     0.275 C 
ENDROOT
BRANCH   1   2
ATOM      2  O   UNL A   1      37.101  23.029  24.876  1.00  0.00    -0.458 OA
BRANCH   2   3
ATOM      3  C   UNL A   1      36.313  23.098  23.775  1.00  0.00     0.338 C 
ATOM      4  O   UNL A   1      36.692  22.955  22.619  1.00  0.00    -0.246 OA
BRANCH   3   5
ATOM      5  C   UNL A   1      34.900  23.423  24.047  1.00  0.00     0.061 A 
ATOM      6  C   UNL A   1      30.662  23.947  23.439  1.00  0.00     0.046 C 
ATOM      7  C   UNL A   1      32.135  23.901  23.739  1.00  0.00    -0.031 A 
ATOM      8  C   UNL A   1      32.613  22.810  24.500  1.00  0.00     0.006 A 
ATOM      9  C   UNL A   1      33.075  24.827  23.261  1.00  0.00     0.086 A 
ATOM     10  C   UNL A   1      33.988  22.577  24.668  1.00  0.00     0.016 A 
ATOM     11  C   UNL A   1      34.442  24.572  23.409  1.00  0.00     0.037 A 
BRANCH   9  12
ATOM     12  S   UNL A   1      32.716  26.242  22.250  1.00  0.00     0.243 S 
ATOM     13  O   UNL A   1      33.974  26.879  21.934  1.00  0.00    -0.207 OA
ATOM     14  O   UNL A   1      31.885  25.719  21.172  1.00  0.00    -0.207 OA
BRANCH  12  15
ATOM     15  N   UNL A   1      31.816  27.362  23.130  1.00  0.00    -0.195 NA
BRANCH  15  16
ATOM     16  C   UNL A   1      32.423  28.343  24.056  1.00  0.00     0.106 C 
BRANCH  16  17
ATOM     17  C   UNL A   1      32.342  28.084  25.532  1.00  0.00     0.004 C 
ATOM     18  C   UNL A   1      32.566  26.764  26.229  1.00  0.00     0.005 C 
ATOM     19  C   UNL A   1      33.640  27.806  26.263  1.00  0.00     0.005 C 
ENDBRANCH  16  17
ENDBRANCH  15  16
BRANCH  15  20
ATOM     20  C   UNL A   1      30.501  27.818  22.544  1.00  0.00     0.067 C 
ATOM     21  C   UNL A   1      29.309  27.408  23.407  1.00  0.00     0.025 C 
ATOM     22  C   UNL A   1      30.430  29.320  22.266  1.00  0.00     0.025 C 
ENDBRANCH  15  20
ENDBRANCH  12  15
ENDBRANCH   9  12
ENDBRANCH   3   5
ENDBRANCH   2   3
ENDBRANCH   1   2
BRANCH   1  23
ATOM     23  C   UNL A   1      38.934  21.671  25.878  1.00  0.00     0.275 C 
BRANCH  23  24
ATOM     24  O   UNL A   1      39.235  22.768  26.781  1.00  0.00    -0.458 OA
BRANCH  24  25
ATOM     25  C   UNL A   1      40.330  23.555  26.865  1.00  0.00     0.338 C 
ATOM     26  O   UNL A   1      41.435  23.163  26.512  1.00  0.00    -0.246 OA
BRANCH  25  27
ATOM     27  C   UNL A   1      40.179  24.924  27.379  1.00  0.00     0.060 A 
ATOM     28  C   UNL A   1      40.400  26.000  26.501  1.00  0.00     0.016 A 
ATOM     29  C   UNL A   1      39.788  25.143  28.695  1.00  0.00     0.016 A 
ATOM     30  C   UNL A   1      40.130  27.301  26.907  1.00  0.00     0.010 A 
ATOM     31  C   UNL A   1      39.437  26.418  29.077  1.00  0.00     0.010 A 
ATOM     32  C   UNL A   1      39.651  27.496  28.200  1.00  0.00    -0.014 A 
BRANCH  32  33
ATOM     33  C   UNL A   1      39.749  28.776  28.880  1.00  0.00     0.031 A 
ATOM     34  C   UNL A   1      38.691  29.794  28.893  1.00  0.00     0.074 A 
ATOM     35  C   UNL A   1      40.845  28.823  29.667  1.00  0.00     0.049 A 
ATOM     36  N   UNL A   1      38.888  31.015  29.260  1.00  0.00    -0.248 NA
ATOM     37  C   UNL A   1      37.318  29.537  28.474  1.00  0.00     0.031 C 
ATOM     38  C   UNL A   1      41.154  29.675  30.797  1.00  0.00     0.029 A 
ATOM     39  N   UNL A   1      42.017  28.068  29.467  1.00  0.00    -0.354 N 
ATOM     40  C   UNL A   1      37.652  31.602  29.433  1.00  0.00     0.074 A 
ATOM     41  C   UNL A   1      36.717  30.683  28.824  1.00  0.00     0.031 C 
ATOM     42  C   UNL A   1      42.481  29.615  31.021  1.00  0.00     0.029 A 
ATOM     43  C   UNL A   1      43.069  28.871  29.911  1.00  0.00     0.049 A 
ATOM     44  H   UNL A   1      42.080  27.161  29.091  1.00  0.00     0.167 HD
ATOM     45  C   UNL A   1      37.557  32.701  30.241  1.00  0.00     0.037 A 
ATOM     46  C   UNL A   1      43.933  29.390  28.989  1.00  0.00     0.037 A 
ATOM     47  C   UNL A   1      38.882  33.089  30.724  1.00  0.00     0.049 A 
ATOM     48  C   UNL A   1      43.899  30.894  29.002  1.00  0.00     0.074 A 
ATOM     49  C   UNL A   1      39.549  32.774  31.896  1.00  0.00     0.029 A 
ATOM     50  N   UNL A   1      39.842  33.565  29.836  1.00  0.00    -0.354 N 
ATOM     51  N   UNL A   1      42.825  31.596  29.242  1.00  0.00    -0.248 NA
ATOM     52  C   UNL A   1      45.086  31.713  28.794  1.00  0.00     0.031 C 
ATOM     53  C   UNL A   1      40.931  32.983  31.685  1.00  0.00     0.029 A 
ATOM     54  C   UNL A   1      41.103  33.453  30.393  1.00  0.00     0.049 A 
ATOM     55  H   UNL A   1      39.652  33.928  28.941  1.00  0.00     0.167 HD
ATOM     56  C   UNL A   1      43.172  32.917  29.317  1.00  0.00     0.074 A 
ATOM     57  C   UNL A   1      44.588  32.945  28.995  1.00  0.00     0.031 C 
ATOM     58  C   UNL A   1      42.291  33.892  29.685  1.00  0.00     0.037 A 
BRANCH  45  59
ATOM     59  C   UNL A   1      36.268  33.167  30.894  1.00  0.00     0.064 A 
ATOM     60  C   UNL A   1      35.382  34.033  30.208  1.00  0.00     0.173 A 
ATOM     61  C   UNL A   1      35.878  32.857  32.208  1.00  0.00     0.173 A 
ATOM     62  F   UNL A   1      35.541  34.320  28.910  1.00  0.00    -0.203 F 
ATOM     63  C   UNL A   1      34.290  34.646  30.828  1.00  0.00     0.198 A 
ATOM     64  C   UNL A   1      34.801  33.495  32.841  1.00  0.00     0.198 A 
ATOM     65  F   UNL A   1      36.497  31.894  32.904  1.00  0.00    -0.203 F 
ATOM     66  F   UNL A   1      33.513  35.485  30.128  1.00  0.00    -0.200 F 
ATOM     67  C   UNL A   1      34.021  34.406  32.157  1.00  0.00     0.200 A 
ATOM     68  F   UNL A   1      34.526  33.223  34.126  1.00  0.00    -0.200 F 
ATOM     69  F   UNL A   1      33.000  35.027  32.765  1.00  0.00    -0.200 F 
ENDBRANCH  45  59
BRANCH  46  70
ATOM     70  C   UNL A   1      44.118  28.556  27.758  1.00  0.00     0.064 A 
ATOM     71  C   UNL A   1      44.929  27.401  27.823  1.00  0.00     0.173 A 
ATOM     72  C   UNL A   1      43.326  28.706  26.613  1.00  0.00     0.173 A 
ATOM     73  F   UNL A   1      45.714  27.193  28.894  1.00  0.00    -0.203 F 
ATOM     74  C   UNL A   1      44.884  26.411  26.841  1.00  0.00     0.198 A 
ATOM     75  C   UNL A   1      43.291  27.717  25.622  1.00  0.00     0.198 A 
ATOM     76  F   UNL A   1      42.529  29.773  26.470  1.00  0.00    -0.203 F 
ATOM     77  F   UNL A   1      45.608  25.293  26.984  1.00  0.00    -0.200 F 
ATOM     78  C   UNL A   1      44.052  26.563  25.747  1.00  0.00     0.200 A 
ATOM     79  F   UNL A   1      42.471  27.852  24.569  1.00  0.00    -0.200 F 
ATOM     80  F   UNL A   1      43.957  25.591  24.828  1.00  0.00    -0.200 F 
ENDBRANCH  46  70
BRANCH  58  81
ATOM     81  C   UNL A   1      42.536  35.366  29.546  1.00  0.00     0.064 A 
ATOM     82  C   UNL A   1      43.427  36.071  30.369  1.00  0.00     0.173 A 
ATOM     83  C   UNL A   1      42.000  36.086  28.452  1.00  0.00     0.173 A 
ATOM     84  F   UNL A   1      44.078  35.463  31.371  1.00  0.00    -0.203 F 
ATOM     85  C   UNL A   1      43.719  37.417  30.148  1.00  0.00     0.198 A 
ATOM     86  C   UNL A   1      42.340  37.410  28.201  1.00  0.00     0.198 A 
ATOM     87  F   UNL A   1      41.153  35.515  27.583  1.00  0.00    -0.203 F 
ATOM     88  F   UNL A   1      44.545  38.060  30.983  1.00  0.00    -0.200 F 
ATOM     89  C   UNL A   1      43.189  38.081  29.056  1.00  0.00     0.200 A 
ATOM     90  F   UNL A   1      41.857  38.026  27.112  1.00  0.00    -0.200 F 
ATOM     91  F   UNL A   1      43.512  39.358  28.821  1.00  0.00    -0.200 F 
ENDBRANCH  58  81
ENDBRANCH  32  33
ENDBRANCH  25  27
ENDBRANCH  24  25
ENDBRANCH  23  24
ENDBRANCH   1  23
TORSDOF 16
ENDMDL
MODEL 2
REMARK VINA RESULT:     -12.8      3.951      9.959
REMARK SMILES Cc1ccc(C(=O)OCCOC(=O)c2ccc(-c3c4nc(c(-c5c(F)c(F)c(F)c(F)c5F)c5ccc([nH]5)c(-c5c(F)c(F)c(F)c(F)c5F)c5nc(c(-c6c(F)c(F)c(F)c(F)c6F)c6ccc3[nH]6)C=C5)C=C4)cc2)cc1S(=O)(=O)N(CC1CC1)C(C)C
REMARK SMILES IDX 9 1 8 2 6 3 7 4 5 5 1 6 2 7 3 8 78 9 4 10 77 11 79 12 80 13
REMARK SMILES IDX 81 14 82 15 83 16 84 17 85 18 86 19 87 20 88 21 89 22 10 23
REMARK SMILES IDX 11 24 12 25 13 26 14 27 15 28 76 29 16 30 75 31 17 32 18 33
REMARK SMILES IDX 19 34 69 35 20 36 74 37 68 38 70 39 21 40 73 41 67 42 66 43
REMARK SMILES IDX 22 45 54 46 34 47 53 48 35 49 38 50 52 51 71 52 36 53 37 54
REMARK SMILES IDX 51 56 72 57 39 58 23 59 24 60 32 61 25 62 26 63 30 64 33 65
REMARK SMILES IDX 27 66 28 67 31 68 29 69 55 70 56 71 64 72 57 73 58 74 62 75
REMARK SMILES IDX 65 76 59 77 60 78 63 79 61 80 40 81 41 82 49 83 42 84 43 85
REMARK SMILES IDX 47 86 50 87 44 88 45 89 48 90 46 91
REMARK H PARENT 70 44 38 55
REMARK Flexibility Score: inf
ROOT
ATOM      1  C   UNL A   1      32.530  30.366  27.109  1.00  0.00     0.275 C 
ENDROOT
BRANCH   1   2
ATOM      2  O   UNL A   1      31.831  29.465  26.238  1.00  0.00    -0.458 OA
BRANCH   2   3
ATOM      3  C   UNL A   1      31.844  28.206  26.740  1.00  0.00     0.338 C 
ATOM      4  O   UNL A   1      31.373  27.865  27.818  1.00  0.00    -0.246 OA
BRANCH   3   5
ATOM      5  C   UNL A   1      32.539  27.213  25.898  1.00  0.00     0.061 A 
ATOM      6  C   UNL A   1      33.196  24.133  22.951  1.00  0.00     0.046 C 
ATOM      7  C   UNL A   1      33.076  25.129  24.072  1.00  0.00    -0.031 A 
ATOM      8  C   UNL A   1      33.472  26.460  23.806  1.00  0.00     0.006 A 
ATOM      9  C   UNL A   1      32.537  24.846  25.335  1.00  0.00     0.086 A 
ATOM     10  C   UNL A   1      33.220  27.498  24.720  1.00  0.00     0.016 A 
ATOM     11  C   UNL A   1      32.265  25.889  26.226  1.00  0.00     0.037 A 
BRANCH   9  12
ATOM     12  S   UNL A   1      31.931  23.267  25.875  1.00  0.00     0.243 S 
ATOM     13  O   UNL A   1      31.891  23.288  27.319  1.00  0.00    -0.207 OA
ATOM     14  O   UNL A   1      30.696  23.075  25.125  1.00  0.00    -0.207 OA
BRANCH  12  15
ATOM     15  N   UNL A   1      33.019  22.055  25.441  1.00  0.00    -0.195 NA
BRANCH  15  16
ATOM     16  C   UNL A   1      34.395  21.971  25.978  1.00  0.00     0.106 C 
BRANCH  16  17
ATOM     17  C   UNL A   1      35.516  22.565  25.178  1.00  0.00     0.004 C 
ATOM     18  C   UNL A   1      36.329  23.786  25.532  1.00  0.00     0.005 C 
ATOM     19  C   UNL A   1      36.919  22.426  25.735  1.00  0.00     0.005 C 
ENDBRANCH  16  17
ENDBRANCH  15  16
BRANCH  15  20
ATOM     20  C   UNL A   1      32.450  20.720  25.023  1.00  0.00     0.067 C 
ATOM     21  C   UNL A   1      32.342  20.587  23.506  1.00  0.00     0.025 C 
ATOM     22  C   UNL A   1      33.208  19.517  25.583  1.00  0.00     0.025 C 
ENDBRANCH  15  20
ENDBRANCH  12  15
ENDBRANCH   9  12
ENDBRANCH   3   5
ENDBRANCH   2   3
ENDBRANCH   1   2
BRANCH   1  23
ATOM     23  C   UNL A   1      34.035  30.110  27.206  1.00  0.00     0.275 C 
BRANCH  23  24
ATOM     24  O   UNL A   1      34.927  31.179  27.620  1.00  0.00    -0.458 OA
BRANCH  24  25
ATOM     25  C   UNL A   1      35.763  31.258  28.677  1.00  0.00     0.338 C 
ATOM     26  O   UNL A   1      35.592  32.070  29.577  1.00  0.00    -0.246 OA
BRANCH  25  27
ATOM     27  C   UNL A   1      36.900  30.328  28.751  1.00  0.00     0.060 A 
ATOM     28  C   UNL A   1      36.945  29.405  29.811  1.00  0.00     0.016 A 
ATOM     29  C   UNL A   1      37.885  30.339  27.770  1.00  0.00     0.016 A 
ATOM     30  C   UNL A   1      37.923  28.418  29.838  1.00  0.00     0.010 A 
ATOM     31  C   UNL A   1      38.804  29.315  27.742  1.00  0.00     0.010 A 
ATOM     32  C   UNL A   1      38.848  28.386  28.797  1.00  0.00    -0.014 A 
BRANCH  32  33
ATOM     33  C   UNL A   1      40.136  27.724  28.922  1.00  0.00     0.031 A 
ATOM     34  C   UNL A   1      40.411  26.352  28.478  1.00  0.00     0.074 A 
ATOM     35  C   UNL A   1      41.094  28.597  29.302  1.00  0.00     0.049 A 
ATOM     36  N   UNL A   1      41.460  25.690  28.836  1.00  0.00    -0.248 NA
ATOM     37  C   UNL A   1      39.523  25.590  27.609  1.00  0.00     0.031 C 
ATOM     38  C   UNL A   1      42.535  28.522  29.178  1.00  0.00     0.029 A 
ATOM     39  N   UNL A   1      40.865  29.782  30.028  1.00  0.00    -0.354 N 
ATOM     40  C   UNL A   1      41.549  24.582  28.020  1.00  0.00     0.074 A 
ATOM     41  C   UNL A   1      40.268  24.505  27.357  1.00  0.00     0.031 C 
ATOM     42  C   UNL A   1      43.078  29.426  30.016  1.00  0.00     0.029 A 
ATOM     43  C   UNL A   1      41.992  29.960  30.833  1.00  0.00     0.049 A 
ATOM     44  H   UNL A   1      40.073  30.364  29.978  1.00  0.00     0.167 HD
ATOM     45  C   UNL A   1      42.768  23.980  27.865  1.00  0.00     0.037 A 
ATOM     46  C   UNL A   1      41.868  29.789  32.183  1.00  0.00     0.037 A 
ATOM     47  C   UNL A   1      43.767  24.638  28.708  1.00  0.00     0.049 A 
ATOM     48  C   UNL A   1      42.743  28.665  32.668  1.00  0.00     0.074 A 
ATOM     49  C   UNL A   1      44.671  25.649  28.423  1.00  0.00     0.029 A 
ATOM     50  N   UNL A   1      43.673  24.568  30.094  1.00  0.00    -0.354 N 
ATOM     51  N   UNL A   1      43.001  27.591  31.974  1.00  0.00    -0.248 NA
ATOM     52  C   UNL A   1      43.431  28.699  33.952  1.00  0.00     0.031 C 
ATOM     53  C   UNL A   1      45.060  26.245  29.644  1.00  0.00     0.029 A 
ATOM     54  C   UNL A   1      44.416  25.579  30.675  1.00  0.00     0.049 A 
ATOM     55  H   UNL A   1      43.153  23.895  30.591  1.00  0.00     0.167 HD
ATOM     56  C   UNL A   1      43.934  26.848  32.644  1.00  0.00     0.074 A 
ATOM     57  C   UNL A   1      44.145  27.563  33.891  1.00  0.00     0.031 C 
ATOM     58  C   UNL A   1      44.507  25.729  32.115  1.00  0.00     0.037 A 
BRANCH  45  59
ATOM     59  C   UNL A   1      43.132  23.086  26.693  1.00  0.00     0.064 A 
ATOM     60  C   UNL A   1      42.889  21.692  26.745  1.00  0.00     0.173 A 
ATOM     61  C   UNL A   1      43.780  23.522  25.524  1.00  0.00     0.173 A 
ATOM     62  F   UNL A   1      42.169  21.138  27.727  1.00  0.00    -0.203 F 
ATOM     63  C   UNL A   1      43.380  20.802  25.786  1.00  0.00     0.198 A 
ATOM     64  C   UNL A   1      44.301  22.627  24.578  1.00  0.00     0.198 A 
ATOM     65  F   UNL A   1      43.888  24.826  25.239  1.00  0.00    -0.203 F 
ATOM     66  F   UNL A   1      43.144  19.489  25.916  1.00  0.00    -0.200 F 
ATOM     67  C   UNL A   1      44.119  21.266  24.720  1.00  0.00     0.200 A 
ATOM     68  F   UNL A   1      44.986  23.095  23.523  1.00  0.00    -0.200 F 
ATOM     69  F   UNL A   1      44.628  20.409  23.824  1.00  0.00    -0.200 F 
ENDBRANCH  45  59
BRANCH  46  70
ATOM     70  C   UNL A   1      40.514  30.110  32.737  1.00  0.00     0.064 A 
ATOM     71  C   UNL A   1      40.124  31.462  32.865  1.00  0.00     0.173 A 
ATOM     72  C   UNL A   1      39.509  29.148  32.894  1.00  0.00     0.173 A 
ATOM     73  F   UNL A   1      41.037  32.439  32.726  1.00  0.00    -0.203 F 
ATOM     74  C   UNL A   1      38.792  31.832  33.051  1.00  0.00     0.198 A 
ATOM     75  C   UNL A   1      38.174  29.520  33.093  1.00  0.00     0.198 A 
ATOM     76  F   UNL A   1      39.793  27.842  32.790  1.00  0.00    -0.203 F 
ATOM     77  F   UNL A   1      38.455  33.129  33.083  1.00  0.00    -0.200 F 
ATOM     78  C   UNL A   1      37.814  30.859  33.149  1.00  0.00     0.200 A 
ATOM     79  F   UNL A   1      37.220  28.580  33.169  1.00  0.00    -0.200 F 
ATOM     80  F   UNL A   1      36.524  31.205  33.268  1.00  0.00    -0.200 F 
ENDBRANCH  46  70
BRANCH  58  81
ATOM     81  C   UNL A   1      45.337  24.744  32.885  1.00  0.00     0.064 A 
ATOM     82  C   UNL A   1      46.646  25.018  33.309  1.00  0.00     0.173 A 
ATOM     83  C   UNL A   1      44.765  23.545  33.371  1.00  0.00     0.173 A 
ATOM     84  F   UNL A   1      47.250  26.173  32.999  1.00  0.00    -0.203 F 
ATOM     85  C   UNL A   1      47.354  24.129  34.117  1.00  0.00     0.198 A 
ATOM     86  C   UNL A   1      45.454  22.691  34.225  1.00  0.00     0.198 A 
ATOM     87  F   UNL A   1      43.513  23.183  33.054  1.00  0.00    -0.203 F 
ATOM     88  F   UNL A   1      48.616  24.413  34.464  1.00  0.00    -0.200 F 
ATOM     89  C   UNL A   1      46.754  22.975  34.587  1.00  0.00     0.200 A 
ATOM     90  F   UNL A   1      44.842  21.601  34.712  1.00  0.00    -0.200 F 
ATOM     91  F   UNL A   1      47.422  22.150  35.403  1.00  0.00    -0.200 F 
ENDBRANCH  58  81
ENDBRANCH  32  33
ENDBRANCH  25  27
ENDBRANCH  24  25
ENDBRANCH  23  24
ENDBRANCH   1  23
TORSDOF 16
ENDMDL
MODEL 3
REMARK VINA RESULT:     -12.7      4.079     10.101
REMARK SMILES Cc1ccc(C(=O)OCCOC(=O)c2ccc(-c3c4nc(c(-c5c(F)c(F)c(F)c(F)c5F)c5ccc([nH]5)c(-c5c(F)c(F)c(F)c(F)c5F)c5nc(c(-c6c(F)c(F)c(F)c(F)c6F)c6ccc3[nH]6)C=C5)C=C4)cc2)cc1S(=O)(=O)N(CC1CC1)C(C)C
REMARK SMILES IDX 9 1 8 2 6 3 7 4 5 5 1 6 2 7 3 8 78 9 4 10 77 11 79 12 80 13
REMARK SMILES IDX 81 14 82 15 83 16 84 17 85 18 86 19 87 20 88 21 89 22 10 23
REMARK SMILES IDX 11 24 12 25 13 26 14 27 15 28 76 29 16 30 75 31 17 32 18 33
REMARK SMILES IDX 19 34 69 35 20 36 74 37 68 38 70 39 21 40 73 41 67 42 66 43
REMARK SMILES IDX 22 45 54 46 34 47 53 48 35 49 38 50 52 51 71 52 36 53 37 54
REMARK SMILES IDX 51 56 72 57 39 58 23 59 24 60 32 61 25 62 26 63 30 64 33 65
REMARK SMILES IDX 27 66 28 67 31 68 29 69 55 70 56 71 64 72 57 73 58 74 62 75
REMARK SMILES IDX 65 76 59 77 60 78 63 79 61 80 40 81 41 82 49 83 42 84 43 85
REMARK SMILES IDX 47 86 50 87 44 88 45 89 48 90 46 91
REMARK H PARENT 70 44 38 55
REMARK Flexibility Score: inf
ROOT
ATOM      1  C   UNL A   1      33.419  29.368  26.881  1.00  0.00     0.275 C 
ENDROOT
BRANCH   1   2
ATOM      2  O   UNL A   1      32.016  29.255  26.601  1.00  0.00    -0.458 OA
BRANCH   2   3
ATOM      3  C   UNL A   1      31.560  28.020  26.927  1.00  0.00     0.338 C 
ATOM      4  O   UNL A   1      31.148  27.683  28.031  1.00  0.00    -0.246 OA
BRANCH   3   5
ATOM      5  C   UNL A   1      31.636  27.027  25.839  1.00  0.00     0.061 A 
ATOM      6  C   UNL A   1      30.562  23.754  23.245  1.00  0.00     0.046 C 
ATOM      7  C   UNL A   1      31.089  24.839  24.143  1.00  0.00    -0.031 A 
ATOM      8  C   UNL A   1      31.001  26.171  23.677  1.00  0.00     0.006 A 
ATOM      9  C   UNL A   1      31.598  24.629  25.432  1.00  0.00     0.086 A 
ATOM     10  C   UNL A   1      31.287  27.263  24.514  1.00  0.00     0.016 A 
ATOM     11  C   UNL A   1      31.853  25.721  26.268  1.00  0.00     0.037 A 
BRANCH   9  12
ATOM     12  S   UNL A   1      31.756  23.056  26.242  1.00  0.00     0.243 S 
ATOM     13  O   UNL A   1      32.240  23.305  27.581  1.00  0.00    -0.207 OA
ATOM     14  O   UNL A   1      30.460  22.417  26.054  1.00  0.00    -0.207 OA
BRANCH  12  15
ATOM     15  N   UNL A   1      32.933  22.129  25.470  1.00  0.00    -0.195 NA
BRANCH  15  16
ATOM     16  C   UNL A   1      32.616  21.078  24.479  1.00  0.00     0.106 C 
BRANCH  16  17
ATOM     17  C   UNL A   1      32.633  19.645  24.920  1.00  0.00     0.004 C 
ATOM     18  C   UNL A   1      32.514  18.427  24.036  1.00  0.00     0.005 C 
ATOM     19  C   UNL A   1      33.856  18.821  24.568  1.00  0.00     0.005 C 
ENDBRANCH  16  17
ENDBRANCH  15  16
BRANCH  15  20
ATOM     20  C   UNL A   1      34.297  22.748  25.280  1.00  0.00     0.067 C 
ATOM     21  C   UNL A   1      35.407  21.905  25.904  1.00  0.00     0.025 C 
ATOM     22  C   UNL A   1      34.649  23.046  23.822  1.00  0.00     0.025 C 
ENDBRANCH  15  20
ENDBRANCH  12  15
ENDBRANCH   9  12
ENDBRANCH   3   5
ENDBRANCH   2   3
ENDBRANCH   1   2
BRANCH   1  23
ATOM     23  C   UNL A   1      33.861  30.758  27.343  1.00  0.00     0.275 C 
BRANCH  23  24
ATOM     24  O   UNL A   1      34.792  30.892  28.448  1.00  0.00    -0.458 OA
BRANCH  24  25
ATOM     25  C   UNL A   1      36.062  31.353  28.470  1.00  0.00     0.338 C 
ATOM     26  O   UNL A   1      36.315  32.549  28.404  1.00  0.00    -0.246 OA
BRANCH  25  27
ATOM     27  C   UNL A   1      37.163  30.387  28.591  1.00  0.00     0.060 A 
ATOM     28  C   UNL A   1      37.163  29.501  29.684  1.00  0.00     0.016 A 
ATOM     29  C   UNL A   1      38.160  30.328  27.624  1.00  0.00     0.016 A 
ATOM     30  C   UNL A   1      38.105  28.483  29.759  1.00  0.00     0.010 A 
ATOM     31  C   UNL A   1      39.042  29.272  27.645  1.00  0.00     0.010 A 
ATOM     32  C   UNL A   1      39.040  28.381  28.732  1.00  0.00    -0.014 A 
BRANCH  32  33
ATOM     33  C   UNL A   1      40.302  27.679  28.899  1.00  0.00     0.031 A 
ATOM     34  C   UNL A   1      40.560  26.311  28.432  1.00  0.00     0.074 A 
ATOM     35  C   UNL A   1      41.265  28.514  29.345  1.00  0.00     0.049 A 
ATOM     36  N   UNL A   1      41.572  25.610  28.819  1.00  0.00    -0.248 NA
ATOM     37  C   UNL A   1      39.692  25.598  27.503  1.00  0.00     0.031 C 
ATOM     38  C   UNL A   1      42.708  28.401  29.285  1.00  0.00     0.029 A 
ATOM     39  N   UNL A   1      41.036  29.686  30.090  1.00  0.00    -0.354 N 
ATOM     40  C   UNL A   1      41.668  24.521  27.978  1.00  0.00     0.074 A 
ATOM     41  C   UNL A   1      40.417  24.497  27.256  1.00  0.00     0.031 C 
ATOM     42  C   UNL A   1      43.237  29.268  30.170  1.00  0.00     0.029 A 
ATOM     43  C   UNL A   1      42.129  29.811  30.950  1.00  0.00     0.049 A 
ATOM     44  H   UNL A   1      40.264  30.293  30.020  1.00  0.00     0.167 HD
ATOM     45  C   UNL A   1      42.876  23.888  27.863  1.00  0.00     0.037 A 
ATOM     46  C   UNL A   1      41.938  29.611  32.288  1.00  0.00     0.037 A 
ATOM     47  C   UNL A   1      43.852  24.495  28.768  1.00  0.00     0.049 A 
ATOM     48  C   UNL A   1      42.759  28.450  32.783  1.00  0.00     0.074 A 
ATOM     49  C   UNL A   1      44.796  25.487  28.552  1.00  0.00     0.029 A 
ATOM     50  N   UNL A   1      43.693  24.393  30.146  1.00  0.00    -0.354 N 
ATOM     51  N   UNL A   1      43.018  27.387  32.073  1.00  0.00    -0.248 NA
ATOM     52  C   UNL A   1      43.387  28.431  34.098  1.00  0.00     0.031 C 
ATOM     53  C   UNL A   1      45.145  26.040  29.805  1.00  0.00     0.029 A 
ATOM     54  C   UNL A   1      44.436  25.368  30.786  1.00  0.00     0.049 A 
ATOM     55  H   UNL A   1      43.132  23.724  30.601  1.00  0.00     0.167 HD
ATOM     56  C   UNL A   1      43.899  26.601  32.765  1.00  0.00     0.074 A 
ATOM     57  C   UNL A   1      44.072  27.277  34.039  1.00  0.00     0.031 C 
ATOM     58  C   UNL A   1      44.464  25.479  32.232  1.00  0.00     0.037 A 
BRANCH  45  59
ATOM     59  C   UNL A   1      43.268  23.014  26.686  1.00  0.00     0.064 A 
ATOM     60  C   UNL A   1      42.975  21.629  26.685  1.00  0.00     0.173 A 
ATOM     61  C   UNL A   1      43.991  23.458  25.565  1.00  0.00     0.173 A 
ATOM     62  F   UNL A   1      42.186  21.075  27.613  1.00  0.00    -0.203 F 
ATOM     63  C   UNL A   1      43.484  20.748  25.727  1.00  0.00     0.198 A 
ATOM     64  C   UNL A   1      44.529  22.571  24.621  1.00  0.00     0.198 A 
ATOM     65  F   UNL A   1      44.159  24.764  25.324  1.00  0.00    -0.203 F 
ATOM     66  F   UNL A   1      43.195  19.441  25.806  1.00  0.00    -0.200 F 
ATOM     67  C   UNL A   1      44.292  21.213  24.714  1.00  0.00     0.200 A 
ATOM     68  F   UNL A   1      45.283  23.042  23.616  1.00  0.00    -0.200 F 
ATOM     69  F   UNL A   1      44.817  20.364  23.820  1.00  0.00    -0.200 F 
ENDBRANCH  45  59
BRANCH  46  70
ATOM     70  C   UNL A   1      40.569  29.956  32.789  1.00  0.00     0.064 A 
ATOM     71  C   UNL A   1      40.202  31.316  32.906  1.00  0.00     0.173 A 
ATOM     72  C   UNL A   1      39.541  29.013  32.901  1.00  0.00     0.173 A 
ATOM     73  F   UNL A   1      41.139  32.274  32.808  1.00  0.00    -0.203 F 
ATOM     74  C   UNL A   1      38.870  31.711  33.040  1.00  0.00     0.198 A 
ATOM     75  C   UNL A   1      38.206  29.411  33.048  1.00  0.00     0.198 A 
ATOM     76  F   UNL A   1      39.803  27.703  32.804  1.00  0.00    -0.203 F 
ATOM     77  F   UNL A   1      38.558  33.014  33.063  1.00  0.00    -0.200 F 
ATOM     78  C   UNL A   1      37.871  30.757  33.095  1.00  0.00     0.200 A 
ATOM     79  F   UNL A   1      37.232  28.490  33.082  1.00  0.00    -0.200 F 
ATOM     80  F   UNL A   1      36.584  31.128  33.163  1.00  0.00    -0.200 F 
ENDBRANCH  46  70
BRANCH  58  81
ATOM     81  C   UNL A   1      45.230  24.451  33.013  1.00  0.00     0.064 A 
ATOM     82  C   UNL A   1      46.519  24.682  33.517  1.00  0.00     0.173 A 
ATOM     83  C   UNL A   1      44.608  23.250  33.427  1.00  0.00     0.173 A 
ATOM     84  F   UNL A   1      47.163  25.833  33.279  1.00  0.00    -0.203 F 
ATOM     85  C   UNL A   1      47.164  23.752  34.332  1.00  0.00     0.198 A 
ATOM     86  C   UNL A   1      45.231  22.354  34.289  1.00  0.00     0.198 A 
ATOM     87  F   UNL A   1      43.369  22.927  33.030  1.00  0.00    -0.203 F 
ATOM     88  F   UNL A   1      48.410  23.997  34.757  1.00  0.00    -0.200 F 
ATOM     89  C   UNL A   1      46.515  22.597  34.730  1.00  0.00     0.200 A 
ATOM     90  F   UNL A   1      44.572  21.263  34.705  1.00  0.00    -0.200 F 
ATOM     91  F   UNL A   1      47.120  21.732  35.553  1.00  0.00    -0.200 F 
ENDBRANCH  58  81
ENDBRANCH  32  33
ENDBRANCH  25  27
ENDBRANCH  24  25
ENDBRANCH  23  24
ENDBRANCH   1  23
TORSDOF 16
ENDMDL
