MODEL 1
REMARK VINA RESULT:     -12.8      0.000      0.000
REMARK SMILES CC1=C(C(=O)OCCOC(=O)c2ccc(-c3c4nc(c(-c5c(F)c(F)c(F)c(F)c5F)c5ccc([nH]5)c(-c5c(F)c(F)c(F)c(F)c5F)c5nc(c(-c6c(F)c(F)c(F)c(F)c6F)c6ccc3[nH]6)C=C5)C=C4)cc2)[C@H](c2ccc(Cl)cc2)n2ncnc2N1
REMARK SMILES IDX 8 1 7 2 6 3 4 4 5 5 3 6 1 7 2 8 88 9 75 10 87 11 83 13 86 14
REMARK SMILES IDX 84 15 85 16 76 17 77 18 82 19 78 20 81 21 79 22 80 23 9 24
REMARK SMILES IDX 10 25 11 26 12 27 13 28 74 29 14 30 73 31 15 32 16 33 17 34
REMARK SMILES IDX 67 35 18 36 72 37 66 38 68 39 19 40 71 41 65 42 64 43 20 45
REMARK SMILES IDX 52 46 32 47 51 48 33 49 36 50 50 51 69 52 34 53 35 54 49 56
REMARK SMILES IDX 70 57 37 58 21 59 22 60 30 61 23 62 24 63 28 64 31 65 25 66
REMARK SMILES IDX 26 67 29 68 27 69 53 70 54 71 62 72 55 73 56 74 60 75 63 76
REMARK SMILES IDX 57 77 58 78 61 79 59 80 38 81 39 82 47 83 40 84 41 85 45 86
REMARK SMILES IDX 48 87 42 88 43 89 46 90 44 91
REMARK H PARENT 88 12 68 44 36 55
REMARK Flexibility Score: inf
ROOT
ATOM      1  C   UNL A   1      38.359  21.783  25.749  1.00  0.00     0.275 C 
ENDROOT
BRANCH   1   2
ATOM      2  C   UNL A   1      37.224  22.292  24.875  1.00  0.00     0.275 C 
BRANCH   2   3
ATOM      3  O   UNL A   1      36.537  23.381  25.516  1.00  0.00    -0.459 OA
BRANCH   3   4
ATOM      4  C   UNL A   1      35.222  23.179  25.806  1.00  0.00     0.338 C 
ATOM      5  O   UNL A   1      34.808  22.976  26.926  1.00  0.00    -0.246 OA
BRANCH   4   6
ATOM      6  C   UNL A   1      34.341  23.410  24.619  1.00  0.00     0.085 C 
ATOM      7  C   UNL A   1      33.791  20.948  24.279  1.00  0.00     0.065 C 
ATOM      8  C   UNL A   1      33.756  22.411  23.906  1.00  0.00     0.028 C 
ATOM      9  N   UNL A   1      33.098  22.692  22.715  1.00  0.00    -0.328 N 
ATOM     10  C   UNL A   1      34.275  24.874  24.127  1.00  0.00     0.181 C 
ATOM     11  C   UNL A   1      33.135  23.894  22.118  1.00  0.00     0.226 A 
ATOM     12  H   UNL A   1      32.578  21.975  22.288  1.00  0.00     0.169 HD
ATOM     13  N   UNL A   1      33.769  24.933  22.743  1.00  0.00    -0.219 N 
ATOM     14  N   UNL A   1      32.650  24.298  20.972  1.00  0.00    -0.200 NA
ATOM     15  N   UNL A   1      33.756  26.044  21.970  1.00  0.00    -0.157 NA
ATOM     16  C   UNL A   1      33.047  25.608  20.921  1.00  0.00     0.248 A 
BRANCH  10  17
ATOM     17  C   UNL A   1      33.454  25.804  25.041  1.00  0.00    -0.018 A 
ATOM     18  C   UNL A   1      32.176  25.466  25.525  1.00  0.00     0.008 A 
ATOM     19  C   UNL A   1      33.991  27.043  25.440  1.00  0.00     0.008 A 
ATOM     20  C   UNL A   1      31.490  26.311  26.404  1.00  0.00     0.021 A 
ATOM     21  C   UNL A   1      33.333  27.860  26.363  1.00  0.00     0.021 A 
ATOM     22  C   UNL A   1      32.085  27.489  26.845  1.00  0.00     0.041 A 
ATOM     23  Cl  UNL A   1      31.277  28.485  27.989  1.00  0.00    -0.084 Cl
ENDBRANCH  10  17
ENDBRANCH   4   6
ENDBRANCH   3   4
ENDBRANCH   2   3
ENDBRANCH   1   2
BRANCH   1  24
ATOM     24  O   UNL A   1      38.877  22.820  26.583  1.00  0.00    -0.458 OA
BRANCH  24  25
ATOM     25  C   UNL A   1      40.199  22.750  26.847  1.00  0.00     0.338 C 
ATOM     26  O   UNL A   1      40.852  21.755  27.120  1.00  0.00    -0.246 OA
BRANCH  25  27
ATOM     27  C   UNL A   1      40.725  24.107  27.003  1.00  0.00     0.060 A 
ATOM     28  C   UNL A   1      41.656  24.310  28.028  1.00  0.00     0.016 A 
ATOM     29  C   UNL A   1      40.075  25.174  26.366  1.00  0.00     0.016 A 
ATOM     30  C   UNL A   1      41.786  25.578  28.550  1.00  0.00     0.010 A 
ATOM     31  C   UNL A   1      40.193  26.433  26.899  1.00  0.00     0.010 A 
ATOM     32  C   UNL A   1      40.985  26.601  28.032  1.00  0.00    -0.014 A 
BRANCH  32  33
ATOM     33  C   UNL A   1      41.044  27.896  28.671  1.00  0.00     0.031 A 
ATOM     34  C   UNL A   1      42.162  28.743  28.197  1.00  0.00     0.074 A 
ATOM     35  C   UNL A   1      40.076  28.317  29.504  1.00  0.00     0.049 A 
ATOM     36  N   UNL A   1      43.116  29.270  28.890  1.00  0.00    -0.248 NA
ATOM     37  C   UNL A   1      42.298  28.925  26.742  1.00  0.00     0.031 C 
ATOM     38  C   UNL A   1      38.786  27.684  29.794  1.00  0.00     0.029 A 
ATOM     39  N   UNL A   1      40.006  29.486  30.191  1.00  0.00    -0.354 N 
ATOM     40  C   UNL A   1      43.886  29.987  27.980  1.00  0.00     0.074 A 
ATOM     41  C   UNL A   1      43.431  29.620  26.666  1.00  0.00     0.031 C 
ATOM     42  C   UNL A   1      37.982  28.580  30.412  1.00  0.00     0.029 A 
ATOM     43  C   UNL A   1      38.741  29.794  30.664  1.00  0.00     0.049 A 
ATOM     44  H   UNL A   1      40.787  30.066  30.341  1.00  0.00     0.167 HD
ATOM     45  C   UNL A   1      44.686  31.009  28.381  1.00  0.00     0.037 A 
ATOM     46  C   UNL A   1      38.343  31.000  31.142  1.00  0.00     0.037 A 
ATOM     47  C   UNL A   1      45.018  30.903  29.777  1.00  0.00     0.049 A 
ATOM     48  C   UNL A   1      39.567  31.771  31.484  1.00  0.00     0.074 A 
ATOM     49  C   UNL A   1      45.674  29.954  30.536  1.00  0.00     0.029 A 
ATOM     50  N   UNL A   1      44.343  31.693  30.674  1.00  0.00    -0.354 N 
ATOM     51  N   UNL A   1      40.369  31.470  32.469  1.00  0.00    -0.248 NA
ATOM     52  C   UNL A   1      40.142  32.620  30.451  1.00  0.00     0.031 C 
ATOM     53  C   UNL A   1      44.973  29.923  31.777  1.00  0.00     0.029 A 
ATOM     54  C   UNL A   1      43.965  30.885  31.717  1.00  0.00     0.049 A 
ATOM     55  H   UNL A   1      44.165  32.657  30.585  1.00  0.00     0.167 HD
ATOM     56  C   UNL A   1      41.642  31.728  31.981  1.00  0.00     0.074 A 
ATOM     57  C   UNL A   1      41.435  32.519  30.771  1.00  0.00     0.031 C 
ATOM     58  C   UNL A   1      42.726  31.040  32.442  1.00  0.00     0.037 A 
BRANCH  45  59
ATOM     59  C   UNL A   1      44.866  32.272  27.580  1.00  0.00     0.064 A 
ATOM     60  C   UNL A   1      46.055  32.464  26.852  1.00  0.00     0.173 A 
ATOM     61  C   UNL A   1      44.049  33.415  27.729  1.00  0.00     0.173 A 
ATOM     62  F   UNL A   1      46.920  31.455  26.678  1.00  0.00    -0.203 F 
ATOM     63  C   UNL A   1      46.422  33.721  26.364  1.00  0.00     0.198 A 
ATOM     64  C   UNL A   1      44.391  34.653  27.191  1.00  0.00     0.198 A 
ATOM     65  F   UNL A   1      42.949  33.414  28.493  1.00  0.00    -0.203 F 
ATOM     66  F   UNL A   1      47.619  33.884  25.785  1.00  0.00    -0.200 F 
ATOM     67  C   UNL A   1      45.592  34.814  26.536  1.00  0.00     0.200 A 
ATOM     68  F   UNL A   1      43.581  35.703  27.389  1.00  0.00    -0.200 F 
ATOM     69  F   UNL A   1      45.969  36.030  26.121  1.00  0.00    -0.200 F 
ENDBRANCH  45  59
BRANCH  46  70
ATOM     70  C   UNL A   1      37.015  31.641  30.997  1.00  0.00     0.064 A 
ATOM     71  C   UNL A   1      36.203  31.883  32.115  1.00  0.00     0.173 A 
ATOM     72  C   UNL A   1      36.631  32.272  29.796  1.00  0.00     0.173 A 
ATOM     73  F   UNL A   1      36.524  31.359  33.307  1.00  0.00    -0.203 F 
ATOM     74  C   UNL A   1      35.088  32.725  32.044  1.00  0.00     0.198 A 
ATOM     75  C   UNL A   1      35.513  33.103  29.723  1.00  0.00     0.198 A 
ATOM     76  F   UNL A   1      37.386  32.174  28.693  1.00  0.00    -0.203 F 
ATOM     77  F   UNL A   1      34.373  32.983  33.147  1.00  0.00    -0.200 F 
ATOM     78  C   UNL A   1      34.749  33.340  30.850  1.00  0.00     0.200 A 
ATOM     79  F   UNL A   1      35.219  33.720  28.570  1.00  0.00    -0.200 F 
ATOM     80  F   UNL A   1      33.717  34.193  30.794  1.00  0.00    -0.200 F 
ENDBRANCH  46  70
BRANCH  58  81
ATOM     81  C   UNL A   1      42.538  30.176  33.660  1.00  0.00     0.064 A 
ATOM     82  C   UNL A   1      42.646  30.649  34.979  1.00  0.00     0.173 A 
ATOM     83  C   UNL A   1      42.095  28.859  33.485  1.00  0.00     0.173 A 
ATOM     84  F   UNL A   1      42.957  31.927  35.231  1.00  0.00    -0.203 F 
ATOM     85  C   UNL A   1      42.376  29.826  36.070  1.00  0.00     0.198 A 
ATOM     86  C   UNL A   1      41.788  28.049  34.576  1.00  0.00     0.198 A 
ATOM     87  F   UNL A   1      41.915  28.368  32.249  1.00  0.00    -0.203 F 
ATOM     88  F   UNL A   1      42.504  30.299  37.318  1.00  0.00    -0.200 F 
ATOM     89  C   UNL A   1      41.940  28.528  35.867  1.00  0.00     0.200 A 
ATOM     90  F   UNL A   1      41.318  26.810  34.374  1.00  0.00    -0.200 F 
ATOM     91  F   UNL A   1      41.641  27.746  36.914  1.00  0.00    -0.200 F 
ENDBRANCH  58  81
ENDBRANCH  32  33
ENDBRANCH  25  27
ENDBRANCH  24  25
ENDBRANCH   1  24
TORSDOF 12
ENDMDL
MODEL 2
REMARK VINA RESULT:     -12.8      3.512      8.645
REMARK SMILES CC1=C(C(=O)OCCOC(=O)c2ccc(-c3c4nc(c(-c5c(F)c(F)c(F)c(F)c5F)c5ccc([nH]5)c(-c5c(F)c(F)c(F)c(F)c5F)c5nc(c(-c6c(F)c(F)c(F)c(F)c6F)c6ccc3[nH]6)C=C5)C=C4)cc2)[C@H](c2ccc(Cl)cc2)n2ncnc2N1
REMARK SMILES IDX 8 1 7 2 6 3 4 4 5 5 3 6 1 7 2 8 88 9 75 10 87 11 83 13 86 14
REMARK SMILES IDX 84 15 85 16 76 17 77 18 82 19 78 20 81 21 79 22 80 23 9 24
REMARK SMILES IDX 10 25 11 26 12 27 13 28 74 29 14 30 73 31 15 32 16 33 17 34
REMARK SMILES IDX 67 35 18 36 72 37 66 38 68 39 19 40 71 41 65 42 64 43 20 45
REMARK SMILES IDX 52 46 32 47 51 48 33 49 36 50 50 51 69 52 34 53 35 54 49 56
REMARK SMILES IDX 70 57 37 58 21 59 22 60 30 61 23 62 24 63 28 64 31 65 25 66
REMARK SMILES IDX 26 67 29 68 27 69 53 70 54 71 62 72 55 73 56 74 60 75 63 76
REMARK SMILES IDX 57 77 58 78 61 79 59 80 38 81 39 82 47 83 40 84 41 85 45 86
REMARK SMILES IDX 48 87 42 88 43 89 46 90 44 91
REMARK H PARENT 88 12 68 44 36 55
REMARK Flexibility Score: inf
ROOT
ATOM      1  C   UNL A   1      33.170  30.834  27.244  1.00  0.00     0.275 C 
ENDROOT
BRANCH   1   2
ATOM      2  C   UNL A   1      32.447  29.844  26.344  1.00  0.00     0.275 C 
BRANCH   2   3
ATOM      3  O   UNL A   1      33.207  28.630  26.210  1.00  0.00    -0.459 OA
BRANCH   3   4
ATOM      4  C   UNL A   1      33.050  27.946  25.043  1.00  0.00     0.338 C 
ATOM      5  O   UNL A   1      33.709  28.159  24.049  1.00  0.00    -0.246 OA
BRANCH   4   6
ATOM      6  C   UNL A   1      32.104  26.796  25.187  1.00  0.00     0.085 C 
ATOM      7  C   UNL A   1      30.163  27.971  24.031  1.00  0.00     0.065 C 
ATOM      8  C   UNL A   1      30.804  26.833  24.791  1.00  0.00     0.028 C 
ATOM      9  N   UNL A   1      29.942  25.793  25.117  1.00  0.00    -0.328 N 
ATOM     10  C   UNL A   1      32.649  25.595  25.993  1.00  0.00     0.181 C 
ATOM     11  C   UNL A   1      30.270  24.798  25.955  1.00  0.00     0.226 A 
ATOM     12  H   UNL A   1      29.045  25.785  24.711  1.00  0.00     0.169 HD
ATOM     13  N   UNL A   1      31.543  24.734  26.453  1.00  0.00    -0.219 N 
ATOM     14  N   UNL A   1      29.562  23.804  26.427  1.00  0.00    -0.200 NA
ATOM     15  N   UNL A   1      31.673  23.705  27.323  1.00  0.00    -0.157 NA
ATOM     16  C   UNL A   1      30.450  23.165  27.251  1.00  0.00     0.248 A 
BRANCH  10  17
ATOM     17  C   UNL A   1      33.702  24.761  25.238  1.00  0.00    -0.018 A 
ATOM     18  C   UNL A   1      33.572  24.416  23.880  1.00  0.00     0.008 A 
ATOM     19  C   UNL A   1      34.864  24.331  25.907  1.00  0.00     0.008 A 
ATOM     20  C   UNL A   1      34.581  23.711  23.214  1.00  0.00     0.021 A 
ATOM     21  C   UNL A   1      35.898  23.680  25.229  1.00  0.00     0.021 A 
ATOM     22  C   UNL A   1      35.753  23.374  23.882  1.00  0.00     0.041 A 
ATOM     23  Cl  UNL A   1      37.027  22.583  23.041  1.00  0.00    -0.084 Cl
ENDBRANCH  10  17
ENDBRANCH   4   6
ENDBRANCH   3   4
ENDBRANCH   2   3
ENDBRANCH   1   2
BRANCH   1  24
ATOM     24  O   UNL A   1      34.587  30.688  27.144  1.00  0.00    -0.458 OA
BRANCH  24  25
ATOM     25  C   UNL A   1      35.315  31.619  27.794  1.00  0.00     0.338 C 
ATOM     26  O   UNL A   1      35.297  32.829  27.628  1.00  0.00    -0.246 OA
BRANCH  25  27
ATOM     27  C   UNL A   1      36.344  30.947  28.591  1.00  0.00     0.060 A 
ATOM     28  C   UNL A   1      37.418  31.730  29.026  1.00  0.00     0.016 A 
ATOM     29  C   UNL A   1      36.386  29.546  28.617  1.00  0.00     0.016 A 
ATOM     30  C   UNL A   1      38.613  31.104  29.304  1.00  0.00     0.010 A 
ATOM     31  C   UNL A   1      37.582  28.925  28.877  1.00  0.00     0.010 A 
ATOM     32  C   UNL A   1      38.696  29.718  29.139  1.00  0.00    -0.014 A 
BRANCH  32  33
ATOM     33  C   UNL A   1      39.987  29.091  29.316  1.00  0.00     0.031 A 
ATOM     34  C   UNL A   1      40.367  28.901  30.733  1.00  0.00     0.074 A 
ATOM     35  C   UNL A   1      40.685  28.607  28.273  1.00  0.00     0.049 A 
ATOM     36  N   UNL A   1      41.413  29.344  31.348  1.00  0.00    -0.248 NA
ATOM     37  C   UNL A   1      39.390  28.228  31.607  1.00  0.00     0.031 C 
ATOM     38  C   UNL A   1      40.259  28.472  26.876  1.00  0.00     0.029 A 
ATOM     39  N   UNL A   1      41.909  28.021  28.279  1.00  0.00    -0.354 N 
ATOM     40  C   UNL A   1      41.309  28.868  32.651  1.00  0.00     0.074 A 
ATOM     41  C   UNL A   1      39.985  28.324  32.794  1.00  0.00     0.031 C 
ATOM     42  C   UNL A   1      41.115  27.646  26.231  1.00  0.00     0.029 A 
ATOM     43  C   UNL A   1      42.202  27.301  27.132  1.00  0.00     0.049 A 
ATOM     44  H   UNL A   1      42.536  28.100  29.033  1.00  0.00     0.167 HD
ATOM     45  C   UNL A   1      42.401  28.746  33.449  1.00  0.00     0.037 A 
ATOM     46  C   UNL A   1      43.222  26.418  26.986  1.00  0.00     0.037 A 
ATOM     47  C   UNL A   1      43.474  29.597  33.008  1.00  0.00     0.049 A 
ATOM     48  C   UNL A   1      44.203  26.686  28.070  1.00  0.00     0.074 A 
ATOM     49  C   UNL A   1      43.612  30.963  32.851  1.00  0.00     0.029 A 
ATOM     50  N   UNL A   1      44.506  29.038  32.296  1.00  0.00    -0.354 N 
ATOM     51  N   UNL A   1      44.937  27.762  28.142  1.00  0.00    -0.248 NA
ATOM     52  C   UNL A   1      44.045  25.957  29.321  1.00  0.00     0.031 C 
ATOM     53  C   UNL A   1      44.401  31.124  31.675  1.00  0.00     0.029 A 
ATOM     54  C   UNL A   1      44.737  29.851  31.215  1.00  0.00     0.049 A 
ATOM     55  H   UNL A   1      44.989  28.211  32.520  1.00  0.00     0.167 HD
ATOM     56  C   UNL A   1      44.980  28.074  29.494  1.00  0.00     0.074 A 
ATOM     57  C   UNL A   1      44.492  26.879  30.177  1.00  0.00     0.031 C 
ATOM     58  C   UNL A   1      45.134  29.363  29.915  1.00  0.00     0.037 A 
BRANCH  45  59
ATOM     59  C   UNL A   1      42.593  27.601  34.407  1.00  0.00     0.064 A 
ATOM     60  C   UNL A   1      43.111  26.382  33.932  1.00  0.00     0.173 A 
ATOM     61  C   UNL A   1      42.025  27.560  35.701  1.00  0.00     0.173 A 
ATOM     62  F   UNL A   1      43.644  26.299  32.704  1.00  0.00    -0.203 F 
ATOM     63  C   UNL A   1      43.011  25.202  34.674  1.00  0.00     0.198 A 
ATOM     64  C   UNL A   1      41.980  26.394  36.461  1.00  0.00     0.198 A 
ATOM     65  F   UNL A   1      41.390  28.610  36.237  1.00  0.00    -0.203 F 
ATOM     66  F   UNL A   1      43.406  24.042  34.132  1.00  0.00    -0.200 F 
ATOM     67  C   UNL A   1      42.444  25.209  35.935  1.00  0.00     0.200 A 
ATOM     68  F   UNL A   1      41.406  26.420  37.672  1.00  0.00    -0.200 F 
ATOM     69  F   UNL A   1      42.294  24.069  36.623  1.00  0.00    -0.200 F 
ENDBRANCH  45  59
BRANCH  46  70
ATOM     70  C   UNL A   1      43.231  25.163  26.200  1.00  0.00     0.064 A 
ATOM     71  C   UNL A   1      44.266  24.885  25.294  1.00  0.00     0.173 A 
ATOM     72  C   UNL A   1      42.371  24.092  26.515  1.00  0.00     0.173 A 
ATOM     73  F   UNL A   1      45.157  25.837  24.976  1.00  0.00    -0.203 F 
ATOM     74  C   UNL A   1      44.446  23.607  24.755  1.00  0.00     0.198 A 
ATOM     75  C   UNL A   1      42.544  22.819  25.969  1.00  0.00     0.198 A 
ATOM     76  F   UNL A   1      41.404  24.230  27.433  1.00  0.00    -0.203 F 
ATOM     77  F   UNL A   1      45.483  23.363  23.942  1.00  0.00    -0.200 F 
ATOM     78  C   UNL A   1      43.590  22.574  25.099  1.00  0.00     0.200 A 
ATOM     79  F   UNL A   1      41.730  21.822  26.340  1.00  0.00    -0.200 F 
ATOM     80  F   UNL A   1      43.795  21.335  24.630  1.00  0.00    -0.200 F 
ENDBRANCH  46  70
BRANCH  58  81
ATOM     81  C   UNL A   1      45.503  30.394  28.884  1.00  0.00     0.064 A 
ATOM     82  C   UNL A   1      44.565  31.075  28.088  1.00  0.00     0.173 A 
ATOM     83  C   UNL A   1      46.839  30.807  28.797  1.00  0.00     0.173 A 
ATOM     84  F   UNL A   1      43.256  30.816  28.191  1.00  0.00    -0.203 F 
ATOM     85  C   UNL A   1      44.956  32.084  27.210  1.00  0.00     0.198 A 
ATOM     86  C   UNL A   1      47.221  31.842  27.947  1.00  0.00     0.198 A 
ATOM     87  F   UNL A   1      47.771  30.236  29.575  1.00  0.00    -0.203 F 
ATOM     88  F   UNL A   1      44.042  32.705  26.449  1.00  0.00    -0.200 F 
ATOM     89  C   UNL A   1      46.283  32.471  27.145  1.00  0.00     0.200 A 
ATOM     90  F   UNL A   1      48.499  32.248  27.925  1.00  0.00    -0.200 F 
ATOM     91  F   UNL A   1      46.655  33.469  26.330  1.00  0.00    -0.200 F 
ENDBRANCH  58  81
ENDBRANCH  32  33
ENDBRANCH  25  27
ENDBRANCH  24  25
ENDBRANCH   1  24
TORSDOF 12
ENDMDL
MODEL 3
REMARK VINA RESULT:     -12.6      1.849      3.294
REMARK SMILES CC1=C(C(=O)OCCOC(=O)c2ccc(-c3c4nc(c(-c5c(F)c(F)c(F)c(F)c5F)c5ccc([nH]5)c(-c5c(F)c(F)c(F)c(F)c5F)c5nc(c(-c6c(F)c(F)c(F)c(F)c6F)c6ccc3[nH]6)C=C5)C=C4)cc2)[C@H](c2ccc(Cl)cc2)n2ncnc2N1
REMARK SMILES IDX 8 1 7 2 6 3 4 4 5 5 3 6 1 7 2 8 88 9 75 10 87 11 83 13 86 14
REMARK SMILES IDX 84 15 85 16 76 17 77 18 82 19 78 20 81 21 79 22 80 23 9 24
REMARK SMILES IDX 10 25 11 26 12 27 13 28 74 29 14 30 73 31 15 32 16 33 17 34
REMARK SMILES IDX 67 35 18 36 72 37 66 38 68 39 19 40 71 41 65 42 64 43 20 45
REMARK SMILES IDX 52 46 32 47 51 48 33 49 36 50 50 51 69 52 34 53 35 54 49 56
REMARK SMILES IDX 70 57 37 58 21 59 22 60 30 61 23 62 24 63 28 64 31 65 25 66
REMARK SMILES IDX 26 67 29 68 27 69 53 70 54 71 62 72 55 73 56 74 60 75 63 76
REMARK SMILES IDX 57 77 58 78 61 79 59 80 38 81 39 82 47 83 40 84 41 85 45 86
REMARK SMILES IDX 48 87 42 88 43 89 46 90 44 91
REMARK H PARENT 88 12 68 44 36 55
REMARK Flexibility Score: inf
ROOT
ATOM      1  C   UNL A   1      38.042  21.821  25.810  1.00  0.00     0.275 C 
ENDROOT
BRANCH   1   2
ATOM      2  C   UNL A   1      37.410  22.130  24.462  1.00  0.00     0.275 C 
BRANCH   2   3
ATOM      3  O   UNL A   1      36.411  23.156  24.593  1.00  0.00    -0.459 OA
BRANCH   3   4
ATOM      4  C   UNL A   1      35.580  23.330  23.528  1.00  0.00     0.338 C 
ATOM      5  O   UNL A   1      35.940  23.230  22.376  1.00  0.00    -0.246 OA
BRANCH   4   6
ATOM      6  C   UNL A   1      34.152  23.482  23.946  1.00  0.00     0.085 C 
ATOM      7  C   UNL A   1      33.683  25.444  22.391  1.00  0.00     0.065 C 
ATOM      8  C   UNL A   1      33.330  24.462  23.483  1.00  0.00     0.028 C 
ATOM      9  N   UNL A   1      32.073  24.646  24.048  1.00  0.00    -0.328 N 
ATOM     10  C   UNL A   1      33.702  22.552  25.095  1.00  0.00     0.181 C 
ATOM     11  C   UNL A   1      31.662  24.012  25.156  1.00  0.00     0.226 A 
ATOM     12  H   UNL A   1      31.453  25.274  23.612  1.00  0.00     0.169 HD
ATOM     13  N   UNL A   1      32.468  23.062  25.722  1.00  0.00    -0.219 N 
ATOM     14  N   UNL A   1      30.562  24.131  25.855  1.00  0.00    -0.200 NA
ATOM     15  N   UNL A   1      31.919  22.574  26.859  1.00  0.00    -0.157 NA
ATOM     16  C   UNL A   1      30.757  23.241  26.878  1.00  0.00     0.248 A 
BRANCH  10  17
ATOM     17  C   UNL A   1      33.524  21.080  24.675  1.00  0.00    -0.018 A 
ATOM     18  C   UNL A   1      32.458  20.639  23.870  1.00  0.00     0.008 A 
ATOM     19  C   UNL A   1      34.468  20.118  25.085  1.00  0.00     0.008 A 
ATOM     20  C   UNL A   1      32.367  19.305  23.458  1.00  0.00     0.021 A 
ATOM     21  C   UNL A   1      34.411  18.799  24.626  1.00  0.00     0.021 A 
ATOM     22  C   UNL A   1      33.361  18.398  23.811  1.00  0.00     0.041 A 
ATOM     23  Cl  UNL A   1      33.294  16.780  23.234  1.00  0.00    -0.084 Cl
ENDBRANCH  10  17
ENDBRANCH   4   6
ENDBRANCH   3   4
ENDBRANCH   2   3
ENDBRANCH   1   2
BRANCH   1  24
ATOM     24  O   UNL A   1      38.699  22.967  26.352  1.00  0.00    -0.458 OA
BRANCH  24  25
ATOM     25  C   UNL A   1      40.003  22.803  26.654  1.00  0.00     0.338 C 
ATOM     26  O   UNL A   1      40.585  21.757  26.897  1.00  0.00    -0.246 OA
BRANCH  25  27
ATOM     27  C   UNL A   1      40.604  24.116  26.897  1.00  0.00     0.060 A 
ATOM     28  C   UNL A   1      41.546  24.200  27.927  1.00  0.00     0.016 A 
ATOM     29  C   UNL A   1      40.012  25.257  26.335  1.00  0.00     0.016 A 
ATOM     30  C   UNL A   1      41.748  25.421  28.531  1.00  0.00     0.010 A 
ATOM     31  C   UNL A   1      40.200  26.469  26.950  1.00  0.00     0.010 A 
ATOM     32  C   UNL A   1      41.003  26.518  28.087  1.00  0.00    -0.014 A 
BRANCH  32  33
ATOM     33  C   UNL A   1      41.135  27.763  28.809  1.00  0.00     0.031 A 
ATOM     34  C   UNL A   1      42.318  28.559  28.412  1.00  0.00     0.074 A 
ATOM     35  C   UNL A   1      40.178  28.196  29.649  1.00  0.00     0.049 A 
ATOM     36  N   UNL A   1      43.289  28.974  29.155  1.00  0.00    -0.248 NA
ATOM     37  C   UNL A   1      42.499  28.824  26.974  1.00  0.00     0.031 C 
ATOM     38  C   UNL A   1      38.842  27.636  29.874  1.00  0.00     0.029 A 
ATOM     39  N   UNL A   1      40.171  29.321  30.410  1.00  0.00    -0.354 N 
ATOM     40  C   UNL A   1      44.126  29.693  28.308  1.00  0.00     0.074 A 
ATOM     41  C   UNL A   1      43.677  29.442  26.964  1.00  0.00     0.031 C 
ATOM     42  C   UNL A   1      38.087  28.544  30.534  1.00  0.00     0.029 A 
ATOM     43  C   UNL A   1      38.920  29.685  30.878  1.00  0.00     0.049 A 
ATOM     44  H   UNL A   1      40.987  29.835  30.611  1.00  0.00     0.167 HD
ATOM     45  C   UNL A   1      44.984  30.630  28.788  1.00  0.00     0.037 A 
ATOM     46  C   UNL A   1      38.593  30.882  31.426  1.00  0.00     0.037 A 
ATOM     47  C   UNL A   1      45.276  30.414  30.180  1.00  0.00     0.049 A 
ATOM     48  C   UNL A   1      39.858  31.544  31.840  1.00  0.00     0.074 A 
ATOM     49  C   UNL A   1      45.849  29.375  30.889  1.00  0.00     0.029 A 
ATOM     50  N   UNL A   1      44.636  31.189  31.114  1.00  0.00    -0.354 N 
ATOM     51  N   UNL A   1      40.615  31.127  32.817  1.00  0.00    -0.248 NA
ATOM     52  C   UNL A   1      40.513  32.415  30.874  1.00  0.00     0.031 C 
ATOM     53  C   UNL A   1      45.119  29.314  32.112  1.00  0.00     0.029 A 
ATOM     54  C   UNL A   1      44.181  30.345  32.096  1.00  0.00     0.049 A 
ATOM     55  H   UNL A   1      44.525  32.167  31.085  1.00  0.00     0.167 HD
ATOM     56  C   UNL A   1      41.914  31.327  32.371  1.00  0.00     0.074 A 
ATOM     57  C   UNL A   1      41.788  32.205  31.211  1.00  0.00     0.031 C 
ATOM     58  C   UNL A   1      42.938  30.538  32.806  1.00  0.00     0.037 A 
BRANCH  45  59
ATOM     59  C   UNL A   1      45.267  31.926  28.075  1.00  0.00     0.064 A 
ATOM     60  C   UNL A   1      44.213  32.825  27.831  1.00  0.00     0.173 A 
ATOM     61  C   UNL A   1      46.466  32.186  27.373  1.00  0.00     0.173 A 
ATOM     62  F   UNL A   1      43.020  32.654  28.418  1.00  0.00    -0.203 F 
ATOM     63  C   UNL A   1      44.335  33.868  26.909  1.00  0.00     0.198 A 
ATOM     64  C   UNL A   1      46.603  33.261  26.499  1.00  0.00     0.198 A 
ATOM     65  F   UNL A   1      47.514  31.353  27.413  1.00  0.00    -0.203 F 
ATOM     66  F   UNL A   1      43.269  34.625  26.617  1.00  0.00    -0.200 F 
ATOM     67  C   UNL A   1      45.528  34.083  26.243  1.00  0.00     0.200 A 
ATOM     68  F   UNL A   1      47.761  33.437  25.848  1.00  0.00    -0.200 F 
ATOM     69  F   UNL A   1      45.629  35.045  25.316  1.00  0.00    -0.200 F 
ENDBRANCH  45  59
BRANCH  46  70
ATOM     70  C   UNL A   1      37.315  31.622  31.298  1.00  0.00     0.064 A 
ATOM     71  C   UNL A   1      36.507  31.866  32.419  1.00  0.00     0.173 A 
ATOM     72  C   UNL A   1      36.993  32.334  30.126  1.00  0.00     0.173 A 
ATOM     73  F   UNL A   1      36.775  31.265  33.587  1.00  0.00    -0.203 F 
ATOM     74  C   UNL A   1      35.454  32.787  32.376  1.00  0.00     0.198 A 
ATOM     75  C   UNL A   1      35.936  33.243  30.080  1.00  0.00     0.198 A 
ATOM     76  F   UNL A   1      37.754  32.235  29.026  1.00  0.00    -0.203 F 
ATOM     77  F   UNL A   1      34.744  33.042  33.483  1.00  0.00    -0.200 F 
ATOM     78  C   UNL A   1      35.176  33.480  31.210  1.00  0.00     0.200 A 
ATOM     79  F   UNL A   1      35.702  33.933  28.956  1.00  0.00    -0.200 F 
ATOM     80  F   UNL A   1      34.205  34.405  31.184  1.00  0.00    -0.200 F 
ENDBRANCH  46  70
BRANCH  58  81
ATOM     81  C   UNL A   1      42.664  29.614  33.962  1.00  0.00     0.064 A 
ATOM     82  C   UNL A   1      42.042  28.360  33.830  1.00  0.00     0.173 A 
ATOM     83  C   UNL A   1      43.174  29.948  35.223  1.00  0.00     0.173 A 
ATOM     84  F   UNL A   1      41.625  27.918  32.637  1.00  0.00    -0.203 F 
ATOM     85  C   UNL A   1      41.892  27.507  34.921  1.00  0.00     0.198 A 
ATOM     86  C   UNL A   1      43.057  29.077  36.303  1.00  0.00     0.198 A 
ATOM     87  F   UNL A   1      43.830  31.106  35.397  1.00  0.00    -0.203 F 
ATOM     88  F   UNL A   1      41.278  26.323  34.771  1.00  0.00    -0.200 F 
ATOM     89  C   UNL A   1      42.405  27.864  36.156  1.00  0.00     0.200 A 
ATOM     90  F   UNL A   1      43.600  29.405  37.484  1.00  0.00    -0.200 F 
ATOM     91  F   UNL A   1      42.297  27.027  37.198  1.00  0.00    -0.200 F 
ENDBRANCH  58  81
ENDBRANCH  32  33
ENDBRANCH  25  27
ENDBRANCH  24  25
ENDBRANCH   1  24
TORSDOF 12
ENDMDL
