MODEL 1
REMARK VINA RESULT:     -12.9      0.000      0.000
REMARK SMILES Cc1oc(C)c(C(=O)Nc2cc(C(=O)OCCOC(=O)c3ccc(-c4c5nc(c(-c6c(F)c(F)c(F)c(F)c6F)c6ccc([nH]6)c(-c6c(F)c(F)c(F)c(F)c6F)c6nc(c(-c7c(F)c(F)c(F)c(F)c7F)c7ccc4[nH]7)C=C6)C=C5)cc3)ccc2Cl)c1C
REMARK SMILES IDX 16 1 15 2 13 3 14 4 12 5 10 6 11 7 86 8 85 9 87 10 84 11
REMARK SMILES IDX 9 12 7 13 8 14 6 16 1 17 2 18 3 19 88 20 4 21 89 22 5 23
REMARK SMILES IDX 17 24 18 25 19 26 20 27 21 28 22 29 83 30 23 31 82 32 24 33
REMARK SMILES IDX 25 34 26 35 76 36 27 37 81 38 75 39 77 40 28 41 80 42 74 43
REMARK SMILES IDX 73 44 29 46 61 47 41 48 60 49 42 50 45 51 59 52 78 53 43 54
REMARK SMILES IDX 44 55 58 57 79 58 46 59 30 60 31 61 39 62 32 63 33 64 37 65
REMARK SMILES IDX 40 66 34 67 35 68 38 69 36 70 62 71 63 72 71 73 64 74 65 75
REMARK SMILES IDX 69 76 72 77 66 78 67 79 70 80 68 81 47 82 48 83 56 84 49 85
REMARK SMILES IDX 50 86 54 87 57 88 51 89 52 90 55 91 53 92
REMARK H PARENT 9 15 77 45 45 56
REMARK Flexibility Score: inf
ROOT
ATOM      1  C   UNL A   1      37.448  22.076  24.960  1.00  0.00     0.275 C 
ENDROOT
BRANCH   1   2
ATOM      2  O   UNL A   1      36.500  22.866  25.701  1.00  0.00    -0.458 OA
BRANCH   2   3
ATOM      3  C   UNL A   1      35.316  22.260  25.957  1.00  0.00     0.338 C 
ATOM      4  O   UNL A   1      35.123  21.380  26.787  1.00  0.00    -0.246 OA
BRANCH   3   5
ATOM      5  C   UNL A   1      34.215  22.839  25.146  1.00  0.00     0.062 A 
ATOM      6  C   UNL A   1      32.232  24.228  25.208  1.00  0.00     0.061 A 
ATOM      7  C   UNL A   1      33.485  23.888  25.722  1.00  0.00     0.043 A 
ATOM      8  C   UNL A   1      31.808  23.671  23.993  1.00  0.00     0.064 A 
ATOM      9  C   UNL A   1      32.618  22.738  23.333  1.00  0.00     0.023 A 
ATOM     10  Cl  UNL A   1      30.331  24.143  23.235  1.00  0.00    -0.082 Cl
ATOM     11  C   UNL A   1      33.807  22.296  23.923  1.00  0.00     0.017 A 
BRANCH   6  12
ATOM     12  N   UNL A   1      31.442  25.035  26.041  1.00  0.00    -0.320 N 
ATOM     13  C   UNL A   1      31.448  26.414  26.178  1.00  0.00     0.259 C 
ATOM     14  O   UNL A   1      30.687  26.892  27.022  1.00  0.00    -0.269 OA
ATOM     15  H   UNL A   1      30.793  24.555  26.606  1.00  0.00     0.170 HD
BRANCH  13  16
ATOM     16  C   UNL A   1      32.291  27.259  25.331  1.00  0.00     0.084 A 
ATOM     17  C   UNL A   1      34.072  28.581  22.365  1.00  0.00     0.088 C 
ATOM     18  C   UNL A   1      33.429  28.205  23.640  1.00  0.00     0.104 A 
ATOM     19  O   UNL A   1      34.090  28.515  24.780  1.00  0.00    -0.466 OA
ATOM     20  C   UNL A   1      32.205  27.647  23.944  1.00  0.00     0.003 A 
ATOM     21  C   UNL A   1      33.338  28.037  25.811  1.00  0.00     0.114 A 
ATOM     22  C   UNL A   1      31.088  27.546  22.978  1.00  0.00     0.049 C 
ATOM     23  C   UNL A   1      33.780  28.472  27.155  1.00  0.00     0.088 C 
ENDBRANCH  13  16
ENDBRANCH   6  12
ENDBRANCH   3   5
ENDBRANCH   2   3
ENDBRANCH   1   2
BRANCH   1  24
ATOM     24  C   UNL A   1      38.679  21.781  25.809  1.00  0.00     0.275 C 
BRANCH  24  25
ATOM     25  O   UNL A   1      38.960  22.867  26.691  1.00  0.00    -0.458 OA
BRANCH  25  26
ATOM     26  C   UNL A   1      40.197  22.852  27.231  1.00  0.00     0.338 C 
ATOM     27  O   UNL A   1      40.742  21.932  27.818  1.00  0.00    -0.246 OA
BRANCH  26  28
ATOM     28  C   UNL A   1      40.771  24.195  27.185  1.00  0.00     0.060 A 
ATOM     29  C   UNL A   1      41.750  24.490  28.137  1.00  0.00     0.016 A 
ATOM     30  C   UNL A   1      40.077  25.190  26.484  1.00  0.00     0.016 A 
ATOM     31  C   UNL A   1      41.862  25.793  28.561  1.00  0.00     0.010 A 
ATOM     32  C   UNL A   1      40.182  26.486  26.916  1.00  0.00     0.010 A 
ATOM     33  C   UNL A   1      41.001  26.749  28.011  1.00  0.00    -0.014 A 
BRANCH  33  34
ATOM     34  C   UNL A   1      41.034  28.084  28.564  1.00  0.00     0.031 A 
ATOM     35  C   UNL A   1      42.189  28.859  28.077  1.00  0.00     0.074 A 
ATOM     36  C   UNL A   1      40.047  28.557  29.350  1.00  0.00     0.049 A 
ATOM     37  N   UNL A   1      43.177  29.311  28.773  1.00  0.00    -0.248 NA
ATOM     38  C   UNL A   1      42.361  28.999  26.622  1.00  0.00     0.031 C 
ATOM     39  C   UNL A   1      38.759  27.916  29.640  1.00  0.00     0.029 A 
ATOM     40  N   UNL A   1      39.939  29.763  29.974  1.00  0.00    -0.354 N 
ATOM     41  C   UNL A   1      43.982  29.989  27.865  1.00  0.00     0.074 A 
ATOM     42  C   UNL A   1      43.549  29.600  26.552  1.00  0.00     0.031 C 
ATOM     43  C   UNL A   1      37.918  28.827  30.177  1.00  0.00     0.029 A 
ATOM     44  C   UNL A   1      38.652  30.061  30.400  1.00  0.00     0.049 A 
ATOM     45  H   UNL A   1      40.703  30.369  30.110  1.00  0.00     0.167 HD
ATOM     46  C   UNL A   1      44.710  31.060  28.279  1.00  0.00     0.037 A 
ATOM     47  C   UNL A   1      38.211  31.257  30.859  1.00  0.00     0.037 A 
ATOM     48  C   UNL A   1      44.832  31.074  29.714  1.00  0.00     0.049 A 
ATOM     49  C   UNL A   1      39.388  32.036  31.306  1.00  0.00     0.074 A 
ATOM     50  C   UNL A   1      45.596  30.427  30.659  1.00  0.00     0.029 A 
ATOM     51  N   UNL A   1      43.757  31.622  30.359  1.00  0.00    -0.354 N 
ATOM     52  N   UNL A   1      40.105  31.713  32.345  1.00  0.00    -0.248 NA
ATOM     53  C   UNL A   1      40.004  32.996  30.394  1.00  0.00     0.031 C 
ATOM     54  C   UNL A   1      44.864  30.497  31.883  1.00  0.00     0.029 A 
ATOM     55  C   UNL A   1      43.685  31.204  31.660  1.00  0.00     0.049 A 
ATOM     56  H   UNL A   1      43.114  32.241  29.940  1.00  0.00     0.167 HD
ATOM     57  C   UNL A   1      41.390  32.077  31.995  1.00  0.00     0.074 A 
ATOM     58  C   UNL A   1      41.245  33.016  30.893  1.00  0.00     0.031 C 
ATOM     59  C   UNL A   1      42.454  31.331  32.402  1.00  0.00     0.037 A 
BRANCH  46  60
ATOM     60  C   UNL A   1      44.849  32.338  27.481  1.00  0.00     0.064 A 
ATOM     61  C   UNL A   1      46.042  32.558  26.766  1.00  0.00     0.173 A 
ATOM     62  C   UNL A   1      44.029  33.474  27.660  1.00  0.00     0.173 A 
ATOM     63  F   UNL A   1      46.905  31.553  26.552  1.00  0.00    -0.203 F 
ATOM     64  C   UNL A   1      46.419  33.833  26.336  1.00  0.00     0.198 A 
ATOM     65  C   UNL A   1      44.384  34.734  27.184  1.00  0.00     0.198 A 
ATOM     66  F   UNL A   1      42.915  33.448  28.400  1.00  0.00    -0.203 F 
ATOM     67  F   UNL A   1      47.620  34.017  25.770  1.00  0.00    -0.200 F 
ATOM     68  C   UNL A   1      45.593  34.921  26.551  1.00  0.00     0.200 A 
ATOM     69  F   UNL A   1      43.580  35.780  27.426  1.00  0.00    -0.200 F 
ATOM     70  F   UNL A   1      45.981  36.153  26.197  1.00  0.00    -0.200 F 
ENDBRANCH  46  60
BRANCH  47  71
ATOM     71  C   UNL A   1      36.868  31.858  30.729  1.00  0.00     0.064 A 
ATOM     72  C   UNL A   1      36.016  31.994  31.836  1.00  0.00     0.173 A 
ATOM     73  C   UNL A   1      36.506  32.563  29.564  1.00  0.00     0.173 A 
ATOM     74  F   UNL A   1      36.313  31.384  32.992  1.00  0.00    -0.203 F 
ATOM     75  C   UNL A   1      34.884  32.812  31.790  1.00  0.00     0.198 A 
ATOM     76  C   UNL A   1      35.375  33.376  29.518  1.00  0.00     0.198 A 
ATOM     77  F   UNL A   1      37.300  32.549  28.483  1.00  0.00    -0.203 F 
ATOM     78  F   UNL A   1      34.126  32.967  32.886  1.00  0.00    -0.200 F 
ATOM     79  C   UNL A   1      34.571  33.513  30.636  1.00  0.00     0.200 A 
ATOM     80  F   UNL A   1      35.105  34.078  28.409  1.00  0.00    -0.200 F 
ATOM     81  F   UNL A   1      33.524  34.348  30.613  1.00  0.00    -0.200 F 
ENDBRANCH  47  71
BRANCH  59  82
ATOM     82  C   UNL A   1      42.252  30.470  33.607  1.00  0.00     0.064 A 
ATOM     83  C   UNL A   1      42.370  30.921  34.931  1.00  0.00     0.173 A 
ATOM     84  C   UNL A   1      41.878  29.136  33.404  1.00  0.00     0.173 A 
ATOM     85  F   UNL A   1      42.651  32.204  35.198  1.00  0.00    -0.203 F 
ATOM     86  C   UNL A   1      42.166  30.057  36.004  1.00  0.00     0.198 A 
ATOM     87  C   UNL A   1      41.642  28.284  34.477  1.00  0.00     0.198 A 
ATOM     88  F   UNL A   1      41.714  28.667  32.157  1.00  0.00    -0.203 F 
ATOM     89  F   UNL A   1      42.309  30.500  37.262  1.00  0.00    -0.200 F 
ATOM     90  C   UNL A   1      41.799  28.740  35.776  1.00  0.00     0.200 A 
ATOM     91  F   UNL A   1      41.248  27.023  34.250  1.00  0.00    -0.200 F 
ATOM     92  F   UNL A   1      41.576  27.915  36.807  1.00  0.00    -0.200 F 
ENDBRANCH  59  82
ENDBRANCH  33  34
ENDBRANCH  26  28
ENDBRANCH  25  26
ENDBRANCH  24  25
ENDBRANCH   1  24
TORSDOF 13
ENDMDL
MODEL 2
REMARK VINA RESULT:     -12.8      4.950     10.568
REMARK SMILES Cc1oc(C)c(C(=O)Nc2cc(C(=O)OCCOC(=O)c3ccc(-c4c5nc(c(-c6c(F)c(F)c(F)c(F)c6F)c6ccc([nH]6)c(-c6c(F)c(F)c(F)c(F)c6F)c6nc(c(-c7c(F)c(F)c(F)c(F)c7F)c7ccc4[nH]7)C=C6)C=C5)cc3)ccc2Cl)c1C
REMARK SMILES IDX 16 1 15 2 13 3 14 4 12 5 10 6 11 7 86 8 85 9 87 10 84 11
REMARK SMILES IDX 9 12 7 13 8 14 6 16 1 17 2 18 3 19 88 20 4 21 89 22 5 23
REMARK SMILES IDX 17 24 18 25 19 26 20 27 21 28 22 29 83 30 23 31 82 32 24 33
REMARK SMILES IDX 25 34 26 35 76 36 27 37 81 38 75 39 77 40 28 41 80 42 74 43
REMARK SMILES IDX 73 44 29 46 61 47 41 48 60 49 42 50 45 51 59 52 78 53 43 54
REMARK SMILES IDX 44 55 58 57 79 58 46 59 30 60 31 61 39 62 32 63 33 64 37 65
REMARK SMILES IDX 40 66 34 67 35 68 38 69 36 70 62 71 63 72 71 73 64 74 65 75
REMARK SMILES IDX 69 76 72 77 66 78 67 79 70 80 68 81 47 82 48 83 56 84 49 85
REMARK SMILES IDX 50 86 54 87 57 88 51 89 52 90 55 91 53 92
REMARK H PARENT 9 15 77 45 45 56
REMARK Flexibility Score: inf
ROOT
ATOM      1  C   UNL A   1      34.634  33.749  30.085  1.00  0.00     0.275 C 
ENDROOT
BRANCH   1   2
ATOM      2  O   UNL A   1      34.640  32.564  30.902  1.00  0.00    -0.458 OA
BRANCH   2   3
ATOM      3  C   UNL A   1      34.516  32.778  32.233  1.00  0.00     0.338 C 
ATOM      4  O   UNL A   1      33.524  33.219  32.802  1.00  0.00    -0.246 OA
BRANCH   3   5
ATOM      5  C   UNL A   1      35.727  32.345  32.976  1.00  0.00     0.062 A 
ATOM      6  C   UNL A   1      37.568  33.089  34.362  1.00  0.00     0.061 A 
ATOM      7  C   UNL A   1      36.256  33.248  33.908  1.00  0.00     0.043 A 
ATOM      8  C   UNL A   1      38.269  31.913  34.055  1.00  0.00     0.064 A 
ATOM      9  C   UNL A   1      37.671  30.935  33.251  1.00  0.00     0.023 A 
ATOM     10  Cl  UNL A   1      39.841  31.593  34.689  1.00  0.00    -0.082 Cl
ATOM     11  C   UNL A   1      36.413  31.161  32.683  1.00  0.00     0.017 A 
BRANCH   6  12
ATOM     12  N   UNL A   1      38.117  34.206  35.009  1.00  0.00    -0.320 N 
ATOM     13  C   UNL A   1      39.276  34.904  34.709  1.00  0.00     0.259 C 
ATOM     14  O   UNL A   1      39.579  35.831  35.463  1.00  0.00    -0.269 OA
ATOM     15  H   UNL A   1      37.609  34.541  35.784  1.00  0.00     0.170 HD
BRANCH  13  16
ATOM     16  C   UNL A   1      40.075  34.577  33.527  1.00  0.00     0.084 A 
ATOM     17  C   UNL A   1      41.104  33.107  30.287  1.00  0.00     0.088 C 
ATOM     18  C   UNL A   1      40.859  33.788  31.574  1.00  0.00     0.104 A 
ATOM     19  O   UNL A   1      41.934  34.032  32.359  1.00  0.00    -0.466 OA
ATOM     20  C   UNL A   1      39.726  34.325  32.150  1.00  0.00     0.003 A 
ATOM     21  C   UNL A   1      41.465  34.615  33.498  1.00  0.00     0.114 A 
ATOM     22  C   UNL A   1      38.472  34.579  31.406  1.00  0.00     0.049 C 
ATOM     23  C   UNL A   1      42.510  35.163  34.390  1.00  0.00     0.088 C 
ENDBRANCH  13  16
ENDBRANCH   6  12
ENDBRANCH   3   5
ENDBRANCH   2   3
ENDBRANCH   1   2
BRANCH   1  24
ATOM     24  C   UNL A   1      34.375  33.392  28.625  1.00  0.00     0.275 C 
BRANCH  24  25
ATOM     25  O   UNL A   1      35.529  32.796  28.036  1.00  0.00    -0.458 OA
BRANCH  25  26
ATOM     26  C   UNL A   1      35.459  31.456  27.882  1.00  0.00     0.338 C 
ATOM     27  O   UNL A   1      34.631  30.823  27.249  1.00  0.00    -0.246 OA
BRANCH  26  28
ATOM     28  C   UNL A   1      36.435  30.809  28.754  1.00  0.00     0.060 A 
ATOM     29  C   UNL A   1      37.475  31.610  29.234  1.00  0.00     0.016 A 
ATOM     30  C   UNL A   1      36.502  29.410  28.753  1.00  0.00     0.016 A 
ATOM     31  C   UNL A   1      38.684  31.009  29.491  1.00  0.00     0.010 A 
ATOM     32  C   UNL A   1      37.712  28.814  28.998  1.00  0.00     0.010 A 
ATOM     33  C   UNL A   1      38.805  29.633  29.268  1.00  0.00    -0.014 A 
BRANCH  33  34
ATOM     34  C   UNL A   1      40.115  29.039  29.407  1.00  0.00     0.031 A 
ATOM     35  C   UNL A   1      40.527  28.928  30.818  1.00  0.00     0.074 A 
ATOM     36  C   UNL A   1      40.801  28.564  28.350  1.00  0.00     0.049 A 
ATOM     37  N   UNL A   1      41.515  29.525  31.394  1.00  0.00    -0.248 NA
ATOM     38  C   UNL A   1      39.636  28.208  31.742  1.00  0.00     0.031 C 
ATOM     39  C   UNL A   1      40.317  28.415  26.973  1.00  0.00     0.029 A 
ATOM     40  N   UNL A   1      42.046  28.013  28.301  1.00  0.00    -0.354 N 
ATOM     41  C   UNL A   1      41.498  29.073  32.709  1.00  0.00     0.074 A 
ATOM     42  C   UNL A   1      40.227  28.437  32.914  1.00  0.00     0.031 C 
ATOM     43  C   UNL A   1      41.158  27.607  26.289  1.00  0.00     0.029 A 
ATOM     44  C   UNL A   1      42.302  27.308  27.134  1.00  0.00     0.049 A 
ATOM     45  H   UNL A   1      42.703  28.105  29.028  1.00  0.00     0.167 HD
ATOM     46  C   UNL A   1      42.663  28.974  33.401  1.00  0.00     0.037 A 
ATOM     47  C   UNL A   1      43.360  26.496  26.898  1.00  0.00     0.037 A 
ATOM     48  C   UNL A   1      43.703  29.745  32.771  1.00  0.00     0.049 A 
ATOM     49  C   UNL A   1      44.434  26.857  27.849  1.00  0.00     0.074 A 
ATOM     50  C   UNL A   1      44.069  31.071  32.713  1.00  0.00     0.029 A 
ATOM     51  N   UNL A   1      44.325  29.101  31.736  1.00  0.00    -0.354 N 
ATOM     52  N   UNL A   1      45.079  27.988  27.802  1.00  0.00    -0.248 NA
ATOM     53  C   UNL A   1      44.572  26.111  29.097  1.00  0.00     0.031 C 
ATOM     54  C   UNL A   1      44.835  31.224  31.518  1.00  0.00     0.029 A 
ATOM     55  C   UNL A   1      44.937  29.986  30.890  1.00  0.00     0.049 A 
ATOM     56  H   UNL A   1      44.333  28.124  31.615  1.00  0.00     0.167 HD
ATOM     57  C   UNL A   1      45.330  28.290  29.125  1.00  0.00     0.074 A 
ATOM     58  C   UNL A   1      45.174  27.038  29.850  1.00  0.00     0.031 C 
ATOM     59  C   UNL A   1      45.309  29.583  29.555  1.00  0.00     0.037 A 
BRANCH  46  60
ATOM     60  C   UNL A   1      43.008  27.806  34.300  1.00  0.00     0.064 A 
ATOM     61  C   UNL A   1      43.322  26.569  33.705  1.00  0.00     0.173 A 
ATOM     62  C   UNL A   1      42.716  27.760  35.681  1.00  0.00     0.173 A 
ATOM     63  F   UNL A   1      43.599  26.493  32.394  1.00  0.00    -0.203 F 
ATOM     64  C   UNL A   1      43.269  25.371  34.422  1.00  0.00     0.198 A 
ATOM     65  C   UNL A   1      42.715  26.569  36.404  1.00  0.00     0.198 A 
ATOM     66  F   UNL A   1      42.304  28.832  36.366  1.00  0.00    -0.203 F 
ATOM     67  F   UNL A   1      43.453  24.206  33.787  1.00  0.00    -0.200 F 
ATOM     68  C   UNL A   1      42.958  25.371  35.770  1.00  0.00     0.200 A 
ATOM     69  F   UNL A   1      42.387  26.590  37.705  1.00  0.00    -0.200 F 
ATOM     70  F   UNL A   1      42.844  24.221  36.444  1.00  0.00    -0.200 F 
ENDBRANCH  46  60
BRANCH  47  71
ATOM     71  C   UNL A   1      43.423  25.282  26.058  1.00  0.00     0.064 A 
ATOM     72  C   UNL A   1      44.511  25.037  25.205  1.00  0.00     0.173 A 
ATOM     73  C   UNL A   1      42.545  24.204  26.287  1.00  0.00     0.173 A 
ATOM     74  F   UNL A   1      45.411  26.001  24.969  1.00  0.00    -0.203 F 
ATOM     75  C   UNL A   1      44.724  23.777  24.638  1.00  0.00     0.198 A 
ATOM     76  C   UNL A   1      42.757  22.949  25.717  1.00  0.00     0.198 A 
ATOM     77  F   UNL A   1      41.520  24.328  27.144  1.00  0.00    -0.203 F 
ATOM     78  F   UNL A   1      45.807  23.561  23.877  1.00  0.00    -0.200 F 
ATOM     79  C   UNL A   1      43.855  22.731  24.905  1.00  0.00     0.200 A 
ATOM     80  F   UNL A   1      41.931  21.937  26.014  1.00  0.00    -0.200 F 
ATOM     81  F   UNL A   1      44.097  21.508  24.415  1.00  0.00    -0.200 F 
ENDBRANCH  47  71
BRANCH  59  82
ATOM     82  C   UNL A   1      45.524  30.641  28.521  1.00  0.00     0.064 A 
ATOM     83  C   UNL A   1      44.494  31.257  27.794  1.00  0.00     0.173 A 
ATOM     84  C   UNL A   1      46.834  31.076  28.293  1.00  0.00     0.173 A 
ATOM     85  F   UNL A   1      43.211  30.941  28.016  1.00  0.00    -0.203 F 
ATOM     86  C   UNL A   1      44.773  32.238  26.844  1.00  0.00     0.198 A 
ATOM     87  C   UNL A   1      47.108  32.080  27.369  1.00  0.00     0.198 A 
ATOM     88  F   UNL A   1      47.850  30.546  28.991  1.00  0.00    -0.203 F 
ATOM     89  F   UNL A   1      43.778  32.797  26.142  1.00  0.00    -0.200 F 
ATOM     90  C   UNL A   1      46.080  32.651  26.636  1.00  0.00     0.200 A 
ATOM     91  F   UNL A   1      48.368  32.503  27.201  1.00  0.00    -0.200 F 
ATOM     92  F   UNL A   1      46.348  33.612  25.743  1.00  0.00    -0.200 F 
ENDBRANCH  59  82
ENDBRANCH  33  34
ENDBRANCH  26  28
ENDBRANCH  25  26
ENDBRANCH  24  25
ENDBRANCH   1  24
TORSDOF 13
ENDMDL
MODEL 3
REMARK VINA RESULT:     -12.7      2.075      2.899
REMARK SMILES Cc1oc(C)c(C(=O)Nc2cc(C(=O)OCCOC(=O)c3ccc(-c4c5nc(c(-c6c(F)c(F)c(F)c(F)c6F)c6ccc([nH]6)c(-c6c(F)c(F)c(F)c(F)c6F)c6nc(c(-c7c(F)c(F)c(F)c(F)c7F)c7ccc4[nH]7)C=C6)C=C5)cc3)ccc2Cl)c1C
REMARK SMILES IDX 16 1 15 2 13 3 14 4 12 5 10 6 11 7 86 8 85 9 87 10 84 11
REMARK SMILES IDX 9 12 7 13 8 14 6 16 1 17 2 18 3 19 88 20 4 21 89 22 5 23
REMARK SMILES IDX 17 24 18 25 19 26 20 27 21 28 22 29 83 30 23 31 82 32 24 33
REMARK SMILES IDX 25 34 26 35 76 36 27 37 81 38 75 39 77 40 28 41 80 42 74 43
REMARK SMILES IDX 73 44 29 46 61 47 41 48 60 49 42 50 45 51 59 52 78 53 43 54
REMARK SMILES IDX 44 55 58 57 79 58 46 59 30 60 31 61 39 62 32 63 33 64 37 65
REMARK SMILES IDX 40 66 34 67 35 68 38 69 36 70 62 71 63 72 71 73 64 74 65 75
REMARK SMILES IDX 69 76 72 77 66 78 67 79 70 80 68 81 47 82 48 83 56 84 49 85
REMARK SMILES IDX 50 86 54 87 57 88 51 89 52 90 55 91 53 92
REMARK H PARENT 9 15 77 45 45 56
REMARK Flexibility Score: inf
ROOT
ATOM      1  C   UNL A   1      39.874  22.230  26.455  1.00  0.00     0.275 C 
ENDROOT
BRANCH   1   2
ATOM      2  O   UNL A   1      38.497  22.243  26.035  1.00  0.00    -0.458 OA
BRANCH   2   3
ATOM      3  C   UNL A   1      37.897  23.458  26.056  1.00  0.00     0.338 C 
ATOM      4  O   UNL A   1      38.283  24.441  26.677  1.00  0.00    -0.246 OA
BRANCH   3   5
ATOM      5  C   UNL A   1      36.714  23.502  25.160  1.00  0.00     0.062 A 
ATOM      6  C   UNL A   1      34.315  23.823  25.067  1.00  0.00     0.061 A 
ATOM      7  C   UNL A   1      35.545  24.073  25.681  1.00  0.00     0.043 A 
ATOM      8  C   UNL A   1      34.282  23.187  23.818  1.00  0.00     0.064 A 
ATOM      9  C   UNL A   1      35.475  22.758  23.222  1.00  0.00     0.023 A 
ATOM     10  Cl  UNL A   1      32.812  22.962  22.943  1.00  0.00    -0.082 Cl
ATOM     11  C   UNL A   1      36.689  22.885  23.905  1.00  0.00     0.017 A 
BRANCH   6  12
ATOM     12  N   UNL A   1      33.185  24.141  25.837  1.00  0.00    -0.320 N 
ATOM     13  C   UNL A   1      32.536  25.358  25.969  1.00  0.00     0.259 C 
ATOM     14  O   UNL A   1      31.585  25.399  26.753  1.00  0.00    -0.269 OA
ATOM     15  H   UNL A   1      32.801  23.397  26.354  1.00  0.00     0.170 HD
BRANCH  13  16
ATOM     16  C   UNL A   1      32.940  26.525  25.183  1.00  0.00     0.084 A 
ATOM     17  C   UNL A   1      34.087  28.618  22.351  1.00  0.00     0.088 C 
ATOM     18  C   UNL A   1      33.612  27.946  23.576  1.00  0.00     0.104 A 
ATOM     19  O   UNL A   1      33.975  28.492  24.761  1.00  0.00    -0.466 OA
ATOM     20  C   UNL A   1      32.773  26.872  23.793  1.00  0.00     0.003 A 
ATOM     21  C   UNL A   1      33.468  27.686  25.736  1.00  0.00     0.114 A 
ATOM     22  C   UNL A   1      31.899  26.293  22.748  1.00  0.00     0.049 C 
ATOM     23  C   UNL A   1      33.566  28.235  27.107  1.00  0.00     0.088 C 
ENDBRANCH  13  16
ENDBRANCH   6  12
ENDBRANCH   3   5
ENDBRANCH   2   3
ENDBRANCH   1   2
BRANCH   1  24
ATOM     24  C   UNL A   1      40.499  20.864  26.199  1.00  0.00     0.275 C 
BRANCH  24  25
ATOM     25  O   UNL A   1      41.831  20.811  26.710  1.00  0.00    -0.458 OA
BRANCH  25  26
ATOM     26  C   UNL A   1      42.796  21.069  25.801  1.00  0.00     0.338 C 
ATOM     27  O   UNL A   1      43.277  20.297  24.988  1.00  0.00    -0.246 OA
BRANCH  26  28
ATOM     28  C   UNL A   1      43.351  22.399  26.037  1.00  0.00     0.060 A 
ATOM     29  C   UNL A   1      43.945  22.617  27.283  1.00  0.00     0.016 A 
ATOM     30  C   UNL A   1      42.941  23.447  25.203  1.00  0.00     0.016 A 
ATOM     31  C   UNL A   1      43.906  23.891  27.799  1.00  0.00     0.010 A 
ATOM     32  C   UNL A   1      42.893  24.714  25.725  1.00  0.00     0.010 A 
ATOM     33  C   UNL A   1      43.287  24.895  27.048  1.00  0.00    -0.014 A 
BRANCH  33  34
ATOM     34  C   UNL A   1      43.130  26.196  27.660  1.00  0.00     0.031 A 
ATOM     35  C   UNL A   1      44.201  27.128  27.267  1.00  0.00     0.074 A 
ATOM     36  C   UNL A   1      42.058  26.505  28.414  1.00  0.00     0.049 A 
ATOM     37  N   UNL A   1      45.094  27.661  28.030  1.00  0.00    -0.248 NA
ATOM     38  C   UNL A   1      44.419  27.360  25.830  1.00  0.00     0.031 C 
ATOM     39  C   UNL A   1      40.848  25.699  28.610  1.00  0.00     0.029 A 
ATOM     40  N   UNL A   1      41.773  27.657  29.085  1.00  0.00    -0.354 N 
ATOM     41  C   UNL A   1      45.849  28.477  27.195  1.00  0.00     0.074 A 
ATOM     42  C   UNL A   1      45.526  28.103  25.847  1.00  0.00     0.031 C 
ATOM     43  C   UNL A   1      39.877  26.474  29.144  1.00  0.00     0.029 A 
ATOM     44  C   UNL A   1      40.442  27.775  29.457  1.00  0.00     0.049 A 
ATOM     45  H   UNL A   1      42.450  28.343  29.285  1.00  0.00     0.167 HD
ATOM     46  C   UNL A   1      46.419  29.605  27.692  1.00  0.00     0.037 A 
ATOM     47  C   UNL A   1      39.837  28.885  29.945  1.00  0.00     0.037 A 
ATOM     48  C   UNL A   1      46.474  29.563  29.130  1.00  0.00     0.049 A 
ATOM     49  C   UNL A   1      40.886  29.777  30.485  1.00  0.00     0.074 A 
ATOM     50  C   UNL A   1      47.268  28.968  30.084  1.00  0.00     0.029 A 
ATOM     51  N   UNL A   1      45.311  29.944  29.744  1.00  0.00    -0.354 N 
ATOM     52  N   UNL A   1      41.590  29.492  31.544  1.00  0.00    -0.248 NA
ATOM     53  C   UNL A   1      41.420  30.849  29.649  1.00  0.00     0.031 C 
ATOM     54  C   UNL A   1      46.480  28.888  31.271  1.00  0.00     0.029 A 
ATOM     55  C   UNL A   1      45.233  29.457  31.020  1.00  0.00     0.049 A 
ATOM     56  H   UNL A   1      44.617  30.500  29.321  1.00  0.00     0.167 HD
ATOM     57  C   UNL A   1      42.835  30.026  31.276  1.00  0.00     0.074 A 
ATOM     58  C   UNL A   1      42.625  30.995  30.210  1.00  0.00     0.031 C 
ATOM     59  C   UNL A   1      43.964  29.396  31.703  1.00  0.00     0.037 A 
BRANCH  46  60
ATOM     60  C   UNL A   1      46.435  30.929  26.959  1.00  0.00     0.064 A 
ATOM     61  C   UNL A   1      47.635  31.665  26.926  1.00  0.00     0.173 A 
ATOM     62  C   UNL A   1      45.272  31.644  26.595  1.00  0.00     0.173 A 
ATOM     63  F   UNL A   1      48.798  31.091  27.270  1.00  0.00    -0.203 F 
ATOM     64  C   UNL A   1      47.654  33.031  26.629  1.00  0.00     0.198 A 
ATOM     65  C   UNL A   1      45.304  32.993  26.249  1.00  0.00     0.198 A 
ATOM     66  F   UNL A   1      44.047  31.113  26.672  1.00  0.00    -0.203 F 
ATOM     67  F   UNL A   1      48.800  33.718  26.731  1.00  0.00    -0.200 F 
ATOM     68  C   UNL A   1      46.487  33.695  26.298  1.00  0.00     0.200 A 
ATOM     69  F   UNL A   1      44.156  33.623  25.954  1.00  0.00    -0.200 F 
ATOM     70  F   UNL A   1      46.493  35.015  26.075  1.00  0.00    -0.200 F 
ENDBRANCH  46  60
BRANCH  47  71
ATOM     71  C   UNL A   1      38.436  29.323  29.773  1.00  0.00     0.064 A 
ATOM     72  C   UNL A   1      37.650  29.708  30.871  1.00  0.00     0.173 A 
ATOM     73  C   UNL A   1      37.934  29.637  28.496  1.00  0.00     0.173 A 
ATOM     74  F   UNL A   1      38.079  29.478  32.120  1.00  0.00    -0.203 F 
ATOM     75  C   UNL A   1      36.444  30.395  30.700  1.00  0.00     0.198 A 
ATOM     76  C   UNL A   1      36.729  30.319  28.326  1.00  0.00     0.198 A 
ATOM     77  F   UNL A   1      38.653  29.372  27.395  1.00  0.00    -0.203 F 
ATOM     78  F   UNL A   1      35.748  30.801  31.771  1.00  0.00    -0.200 F 
ATOM     79  C   UNL A   1      35.991  30.711  29.428  1.00  0.00     0.200 A 
ATOM     80  F   UNL A   1      36.322  30.652  27.094  1.00  0.00    -0.200 F 
ATOM     81  F   UNL A   1      34.870  31.427  29.267  1.00  0.00    -0.200 F 
ENDBRANCH  47  71
BRANCH  59  82
ATOM     82  C   UNL A   1      43.816  28.457  32.858  1.00  0.00     0.064 A 
ATOM     83  C   UNL A   1      43.691  27.065  32.734  1.00  0.00     0.173 A 
ATOM     84  C   UNL A   1      43.847  28.997  34.149  1.00  0.00     0.173 A 
ATOM     85  F   UNL A   1      43.729  26.475  31.531  1.00  0.00    -0.203 F 
ATOM     86  C   UNL A   1      43.556  26.254  33.859  1.00  0.00     0.198 A 
ATOM     87  C   UNL A   1      43.747  28.182  35.272  1.00  0.00     0.198 A 
ATOM     88  F   UNL A   1      44.003  30.319  34.321  1.00  0.00    -0.203 F 
ATOM     89  F   UNL A   1      43.413  24.928  33.719  1.00  0.00    -0.200 F 
ATOM     90  C   UNL A   1      43.589  26.813  35.126  1.00  0.00     0.200 A 
ATOM     91  F   UNL A   1      43.819  28.725  36.495  1.00  0.00    -0.200 F 
ATOM     92  F   UNL A   1      43.487  26.032  36.210  1.00  0.00    -0.200 F 
ENDBRANCH  59  82
ENDBRANCH  33  34
ENDBRANCH  26  28
ENDBRANCH  25  26
ENDBRANCH  24  25
ENDBRANCH   1  24
TORSDOF 13
ENDMDL
