MODEL 1
REMARK VINA RESULT:     -10.9      0.000      0.000
REMARK SMILES COc1cc(S(=O)(=O)CCC(C)C)cc(C(=O)OCCOC(=O)c2ccc(-c3c4nc(c(-c5c(F)c(F)c(F)c(F)c5F)c5ccc([nH]5)c(-c5c(F)c(F)c(F)c(F)c5F)c5nc(c(-c6c(F)c(F)c(F)c(F)c6F)c6ccc3[nH]6)C=C5)C=C4)cc2)c1OC
REMARK SMILES IDX 19 1 18 2 16 3 17 4 15 5 3 6 4 7 87 8 5 9 14 10 2 11 1 12
REMARK SMILES IDX 88 13 89 14 6 15 7 16 8 17 9 18 10 19 11 20 12 21 13 22
REMARK SMILES IDX 20 23 21 24 22 25 23 26 24 27 25 28 86 29 26 30 85 31 27 32
REMARK SMILES IDX 28 33 29 34 79 35 30 36 84 37 78 38 80 39 31 40 83 41 77 42
REMARK SMILES IDX 76 43 32 45 64 46 44 47 63 48 45 49 48 50 62 51 81 52 46 53
REMARK SMILES IDX 47 54 61 56 82 57 49 58 33 59 34 60 42 61 35 62 36 63 40 64
REMARK SMILES IDX 43 65 37 66 38 67 41 68 39 69 65 70 66 71 74 72 67 73 68 74
REMARK SMILES IDX 72 75 75 76 69 77 70 78 73 79 71 80 50 81 51 82 59 83 52 84
REMARK SMILES IDX 53 85 57 86 60 87 54 88 55 89 58 90 56 91
REMARK H PARENT 80 44 48 55
REMARK Flexibility Score: inf
ROOT
ATOM      1  C   UNL A   1      32.281  29.477  24.470  1.00  0.00     0.275 C 
ENDROOT
BRANCH   1   2
ATOM      2  O   UNL A   1      33.254  28.463  24.779  1.00  0.00    -0.458 OA
BRANCH   2   3
ATOM      3  C   UNL A   1      33.109  27.296  24.117  1.00  0.00     0.342 C 
ATOM      4  O   UNL A   1      33.060  27.139  22.906  1.00  0.00    -0.246 OA
BRANCH   3   5
ATOM      5  C   UNL A   1      33.167  26.139  25.030  1.00  0.00     0.107 A 
ATOM      6  C   UNL A   1      32.198  24.478  26.460  1.00  0.00     0.162 A 
ATOM      7  C   UNL A   1      33.374  23.707  26.362  1.00  0.00     0.070 A 
ATOM      8  C   UNL A   1      32.073  25.709  25.789  1.00  0.00     0.175 A 
ATOM      9  C   UNL A   1      34.437  24.156  25.577  1.00  0.00     0.072 A 
ATOM     10  C   UNL A   1      34.343  25.385  24.954  1.00  0.00     0.040 A 
BRANCH   6  11
ATOM     11  O   UNL A   1      31.194  24.003  27.265  1.00  0.00    -0.493 OA
ATOM     12  C   UNL A   1      30.524  22.890  26.672  1.00  0.00     0.278 C 
ENDBRANCH   6  11
BRANCH   8  13
ATOM     13  O   UNL A   1      30.985  26.532  25.737  1.00  0.00    -0.492 OA
ATOM     14  C   UNL A   1      29.853  26.155  24.973  1.00  0.00     0.278 C 
ENDBRANCH   8  13
BRANCH   9  15
ATOM     15  S   UNL A   1      35.860  23.111  25.365  1.00  0.00     0.178 S 
ATOM     16  O   UNL A   1      36.010  22.978  23.927  1.00  0.00    -0.224 OA
ATOM     17  O   UNL A   1      36.914  23.697  26.168  1.00  0.00    -0.224 OA
BRANCH  15  18
ATOM     18  C   UNL A   1      35.498  21.482  25.991  1.00  0.00     0.142 C 
BRANCH  18  19
ATOM     19  C   UNL A   1      35.049  20.411  24.995  1.00  0.00     0.019 C 
BRANCH  19  20
ATOM     20  C   UNL A   1      33.550  20.051  24.937  1.00  0.00    -0.016 C 
ATOM     21  C   UNL A   1      32.728  20.988  24.048  1.00  0.00     0.007 C 
ATOM     22  C   UNL A   1      33.380  18.635  24.375  1.00  0.00     0.007 C 
ENDBRANCH  19  20
ENDBRANCH  18  19
ENDBRANCH  15  18
ENDBRANCH   9  15
ENDBRANCH   3   5
ENDBRANCH   2   3
ENDBRANCH   1   2
BRANCH   1  23
ATOM     23  C   UNL A   1      31.870  30.240  25.729  1.00  0.00     0.275 C 
BRANCH  23  24
ATOM     24  O   UNL A   1      32.855  30.096  26.773  1.00  0.00    -0.458 OA
BRANCH  24  25
ATOM     25  C   UNL A   1      33.370  31.259  27.241  1.00  0.00     0.338 C 
ATOM     26  O   UNL A   1      32.816  32.338  27.287  1.00  0.00    -0.246 OA
BRANCH  25  27
ATOM     27  C   UNL A   1      34.707  31.026  27.836  1.00  0.00     0.060 A 
ATOM     28  C   UNL A   1      34.975  29.730  28.280  1.00  0.00     0.016 A 
ATOM     29  C   UNL A   1      35.678  32.025  27.980  1.00  0.00     0.016 A 
ATOM     30  C   UNL A   1      36.223  29.416  28.811  1.00  0.00     0.010 A 
ATOM     31  C   UNL A   1      36.921  31.717  28.557  1.00  0.00     0.010 A 
ATOM     32  C   UNL A   1      37.203  30.406  28.965  1.00  0.00    -0.014 A 
BRANCH  32  33
ATOM     33  C   UNL A   1      38.453  30.028  29.672  1.00  0.00     0.031 A 
ATOM     34  C   UNL A   1      38.677  30.558  31.058  1.00  0.00     0.074 A 
ATOM     35  C   UNL A   1      39.290  29.107  29.162  1.00  0.00     0.049 A 
ATOM     36  N   UNL A   1      39.619  30.264  31.916  1.00  0.00    -0.248 NA
ATOM     37  C   UNL A   1      37.681  31.520  31.558  1.00  0.00     0.031 C 
ATOM     38  C   UNL A   1      39.122  28.440  27.875  1.00  0.00     0.029 A 
ATOM     39  N   UNL A   1      40.428  28.539  29.682  1.00  0.00    -0.354 N 
ATOM     40  C   UNL A   1      39.307  30.974  33.067  1.00  0.00     0.074 A 
ATOM     41  C   UNL A   1      38.089  31.707  32.803  1.00  0.00     0.031 C 
ATOM     42  C   UNL A   1      40.094  27.527  27.719  1.00  0.00     0.029 A 
ATOM     43  C   UNL A   1      41.000  27.594  28.864  1.00  0.00     0.049 A 
ATOM     44  H   UNL A   1      40.799  28.787  30.560  1.00  0.00     0.167 HD
ATOM     45  C   UNL A   1      39.991  31.032  34.232  1.00  0.00     0.037 A 
ATOM     46  C   UNL A   1      42.142  26.893  29.008  1.00  0.00     0.037 A 
ATOM     47  C   UNL A   1      41.259  30.395  34.456  1.00  0.00     0.049 A 
ATOM     48  C   UNL A   1      42.979  27.117  30.244  1.00  0.00     0.074 A 
ATOM     49  C   UNL A   1      42.103  30.508  35.544  1.00  0.00     0.029 A 
ATOM     50  N   UNL A   1      41.878  29.545  33.550  1.00  0.00    -0.354 N 
ATOM     51  N   UNL A   1      42.706  27.831  31.309  1.00  0.00    -0.248 NA
ATOM     52  C   UNL A   1      44.294  26.460  30.285  1.00  0.00     0.031 C 
ATOM     53  C   UNL A   1      43.261  29.769  35.273  1.00  0.00     0.029 A 
ATOM     54  C   UNL A   1      43.111  29.150  34.042  1.00  0.00     0.049 A 
ATOM     55  H   UNL A   1      41.497  29.265  32.687  1.00  0.00     0.167 HD
ATOM     56  C   UNL A   1      43.804  27.701  32.149  1.00  0.00     0.074 A 
ATOM     57  C   UNL A   1      44.740  26.822  31.481  1.00  0.00     0.031 C 
ATOM     58  C   UNL A   1      44.024  28.267  33.362  1.00  0.00     0.037 A 
BRANCH  45  59
ATOM     59  C   UNL A   1      39.415  31.906  35.302  1.00  0.00     0.064 A 
ATOM     60  C   UNL A   1      39.756  33.263  35.404  1.00  0.00     0.173 A 
ATOM     61  C   UNL A   1      38.551  31.367  36.264  1.00  0.00     0.173 A 
ATOM     62  F   UNL A   1      40.607  33.814  34.526  1.00  0.00    -0.203 F 
ATOM     63  C   UNL A   1      39.268  34.043  36.450  1.00  0.00     0.198 A 
ATOM     64  C   UNL A   1      38.049  32.154  37.295  1.00  0.00     0.198 A 
ATOM     65  F   UNL A   1      38.209  30.071  36.214  1.00  0.00    -0.203 F 
ATOM     66  F   UNL A   1      39.647  35.323  36.564  1.00  0.00    -0.200 F 
ATOM     67  C   UNL A   1      38.414  33.488  37.393  1.00  0.00     0.200 A 
ATOM     68  F   UNL A   1      37.228  31.616  38.207  1.00  0.00    -0.200 F 
ATOM     69  F   UNL A   1      37.957  34.236  38.407  1.00  0.00    -0.200 F 
ENDBRANCH  45  59
BRANCH  46  70
ATOM     70  C   UNL A   1      42.608  25.971  27.935  1.00  0.00     0.064 A 
ATOM     71  C   UNL A   1      42.221  24.623  27.908  1.00  0.00     0.173 A 
ATOM     72  C   UNL A   1      43.495  26.408  26.939  1.00  0.00     0.173 A 
ATOM     73  F   UNL A   1      41.402  24.142  28.856  1.00  0.00    -0.203 F 
ATOM     74  C   UNL A   1      42.714  23.749  26.939  1.00  0.00     0.198 A 
ATOM     75  C   UNL A   1      43.961  25.543  25.952  1.00  0.00     0.198 A 
ATOM     76  F   UNL A   1      43.913  27.683  26.924  1.00  0.00    -0.203 F 
ATOM     77  F   UNL A   1      42.371  22.454  26.970  1.00  0.00    -0.200 F 
ATOM     78  C   UNL A   1      43.578  24.211  25.958  1.00  0.00     0.200 A 
ATOM     79  F   UNL A   1      44.790  25.999  25.003  1.00  0.00    -0.200 F 
ATOM     80  F   UNL A   1      44.054  23.371  25.028  1.00  0.00    -0.200 F 
ENDBRANCH  46  70
BRANCH  58  81
ATOM     81  C   UNL A   1      45.311  27.939  34.057  1.00  0.00     0.064 A 
ATOM     82  C   UNL A   1      45.428  26.824  34.899  1.00  0.00     0.173 A 
ATOM     83  C   UNL A   1      46.460  28.709  33.820  1.00  0.00     0.173 A 
ATOM     84  F   UNL A   1      44.354  26.064  35.166  1.00  0.00    -0.203 F 
ATOM     85  C   UNL A   1      46.645  26.500  35.492  1.00  0.00     0.198 A 
ATOM     86  C   UNL A   1      47.682  28.366  34.392  1.00  0.00     0.198 A 
ATOM     87  F   UNL A   1      46.402  29.781  33.015  1.00  0.00    -0.203 F 
ATOM     88  F   UNL A   1      46.727  25.450  36.321  1.00  0.00    -0.200 F 
ATOM     89  C   UNL A   1      47.772  27.265  35.231  1.00  0.00     0.200 A 
ATOM     90  F   UNL A   1      48.772  29.099  34.128  1.00  0.00    -0.200 F 
ATOM     91  F   UNL A   1      48.946  26.943  35.790  1.00  0.00    -0.200 F 
ENDBRANCH  58  81
ENDBRANCH  32  33
ENDBRANCH  25  27
ENDBRANCH  24  25
ENDBRANCH  23  24
ENDBRANCH   1  23
TORSDOF 17
ENDMDL
MODEL 2
REMARK VINA RESULT:     -10.8      1.238      2.269
REMARK SMILES COc1cc(S(=O)(=O)CCC(C)C)cc(C(=O)OCCOC(=O)c2ccc(-c3c4nc(c(-c5c(F)c(F)c(F)c(F)c5F)c5ccc([nH]5)c(-c5c(F)c(F)c(F)c(F)c5F)c5nc(c(-c6c(F)c(F)c(F)c(F)c6F)c6ccc3[nH]6)C=C5)C=C4)cc2)c1OC
REMARK SMILES IDX 19 1 18 2 16 3 17 4 15 5 3 6 4 7 87 8 5 9 14 10 2 11 1 12
REMARK SMILES IDX 88 13 89 14 6 15 7 16 8 17 9 18 10 19 11 20 12 21 13 22
REMARK SMILES IDX 20 23 21 24 22 25 23 26 24 27 25 28 86 29 26 30 85 31 27 32
REMARK SMILES IDX 28 33 29 34 79 35 30 36 84 37 78 38 80 39 31 40 83 41 77 42
REMARK SMILES IDX 76 43 32 45 64 46 44 47 63 48 45 49 48 50 62 51 81 52 46 53
REMARK SMILES IDX 47 54 61 56 82 57 49 58 33 59 34 60 42 61 35 62 36 63 40 64
REMARK SMILES IDX 43 65 37 66 38 67 41 68 39 69 65 70 66 71 74 72 67 73 68 74
REMARK SMILES IDX 72 75 75 76 69 77 70 78 73 79 71 80 50 81 51 82 59 83 52 84
REMARK SMILES IDX 53 85 57 86 60 87 54 88 55 89 58 90 56 91
REMARK H PARENT 80 44 48 55
REMARK Flexibility Score: inf
ROOT
ATOM      1  C   UNL A   1      31.829  28.900  27.243  1.00  0.00     0.275 C 
ENDROOT
BRANCH   1   2
ATOM      2  O   UNL A   1      31.893  28.001  26.121  1.00  0.00    -0.458 OA
BRANCH   2   3
ATOM      3  C   UNL A   1      33.106  27.466  25.871  1.00  0.00     0.342 C 
ATOM      4  O   UNL A   1      34.137  27.657  26.500  1.00  0.00    -0.246 OA
BRANCH   3   5
ATOM      5  C   UNL A   1      33.048  26.455  24.799  1.00  0.00     0.107 A 
ATOM      6  C   UNL A   1      33.427  25.662  22.569  1.00  0.00     0.162 A 
ATOM      7  C   UNL A   1      33.283  24.333  23.018  1.00  0.00     0.070 A 
ATOM      8  C   UNL A   1      33.316  26.748  23.457  1.00  0.00     0.175 A 
ATOM      9  C   UNL A   1      33.038  24.077  24.367  1.00  0.00     0.072 A 
ATOM     10  C   UNL A   1      32.880  25.138  25.238  1.00  0.00     0.040 A 
BRANCH   6  11
ATOM     11  O   UNL A   1      33.640  25.859  21.229  1.00  0.00    -0.493 OA
ATOM     12  C   UNL A   1      32.469  25.578  20.461  1.00  0.00     0.278 C 
ENDBRANCH   6  11
BRANCH   8  13
ATOM     13  O   UNL A   1      33.491  28.076  23.188  1.00  0.00    -0.492 OA
ATOM     14  C   UNL A   1      32.401  28.849  22.720  1.00  0.00     0.278 C 
ENDBRANCH   8  13
BRANCH   9  15
ATOM     15  S   UNL A   1      32.985  22.392  24.935  1.00  0.00     0.178 S 
ATOM     16  O   UNL A   1      32.026  22.398  26.024  1.00  0.00    -0.224 OA
ATOM     17  O   UNL A   1      32.763  21.576  23.757  1.00  0.00    -0.224 OA
BRANCH  15  18
ATOM     18  C   UNL A   1      34.560  21.957  25.647  1.00  0.00     0.142 C 
BRANCH  18  19
ATOM     19  C   UNL A   1      35.716  22.949  25.499  1.00  0.00     0.019 C 
BRANCH  19  20
ATOM     20  C   UNL A   1      36.921  22.541  24.626  1.00  0.00    -0.016 C 
ATOM     21  C   UNL A   1      37.198  21.035  24.630  1.00  0.00     0.007 C 
ATOM     22  C   UNL A   1      36.665  22.946  23.170  1.00  0.00     0.007 C 
ENDBRANCH  19  20
ENDBRANCH  18  19
ENDBRANCH  15  18
ENDBRANCH   9  15
ENDBRANCH   3   5
ENDBRANCH   2   3
ENDBRANCH   1   2
BRANCH   1  23
ATOM     23  C   UNL A   1      31.825  30.356  26.776  1.00  0.00     0.275 C 
BRANCH  23  24
ATOM     24  O   UNL A   1      33.165  30.829  26.526  1.00  0.00    -0.458 OA
BRANCH  24  25
ATOM     25  C   UNL A   1      33.579  31.834  27.334  1.00  0.00     0.338 C 
ATOM     26  O   UNL A   1      32.957  32.830  27.641  1.00  0.00    -0.246 OA
BRANCH  25  27
ATOM     27  C   UNL A   1      34.895  31.502  27.932  1.00  0.00     0.060 A 
ATOM     28  C   UNL A   1      35.053  30.200  28.407  1.00  0.00     0.016 A 
ATOM     29  C   UNL A   1      35.947  32.419  28.049  1.00  0.00     0.016 A 
ATOM     30  C   UNL A   1      36.272  29.794  28.943  1.00  0.00     0.010 A 
ATOM     31  C   UNL A   1      37.162  32.020  28.631  1.00  0.00     0.010 A 
ATOM     32  C   UNL A   1      37.334  30.700  29.070  1.00  0.00    -0.014 A 
BRANCH  32  33
ATOM     33  C   UNL A   1      38.550  30.235  29.783  1.00  0.00     0.031 A 
ATOM     34  C   UNL A   1      38.776  30.705  31.191  1.00  0.00     0.074 A 
ATOM     35  C   UNL A   1      39.348  29.289  29.255  1.00  0.00     0.049 A 
ATOM     36  N   UNL A   1      39.686  30.334  32.053  1.00  0.00    -0.248 NA
ATOM     37  C   UNL A   1      37.821  31.699  31.708  1.00  0.00     0.031 C 
ATOM     38  C   UNL A   1      39.170  28.677  27.943  1.00  0.00     0.029 A 
ATOM     39  N   UNL A   1      40.446  28.647  29.773  1.00  0.00    -0.354 N 
ATOM     40  C   UNL A   1      39.390  31.019  33.223  1.00  0.00     0.074 A 
ATOM     41  C   UNL A   1      38.216  31.822  32.965  1.00  0.00     0.031 C 
ATOM     42  C   UNL A   1      40.096  27.721  27.770  1.00  0.00     0.029 A 
ATOM     43  C   UNL A   1      40.984  27.702  28.931  1.00  0.00     0.049 A 
ATOM     44  H   UNL A   1      40.814  28.845  30.665  1.00  0.00     0.167 HD
ATOM     45  C   UNL A   1      40.055  31.002  34.400  1.00  0.00     0.037 A 
ATOM     46  C   UNL A   1      42.087  26.939  29.070  1.00  0.00     0.037 A 
ATOM     47  C   UNL A   1      41.285  30.293  34.622  1.00  0.00     0.049 A 
ATOM     48  C   UNL A   1      42.911  27.077  30.326  1.00  0.00     0.074 A 
ATOM     49  C   UNL A   1      42.114  30.325  35.727  1.00  0.00     0.029 A 
ATOM     50  N   UNL A   1      41.876  29.444  33.697  1.00  0.00    -0.354 N 
ATOM     51  N   UNL A   1      42.656  27.768  31.411  1.00  0.00    -0.248 NA
ATOM     52  C   UNL A   1      44.190  26.352  30.365  1.00  0.00     0.031 C 
ATOM     53  C   UNL A   1      43.237  29.538  35.449  1.00  0.00     0.029 A 
ATOM     54  C   UNL A   1      43.078  28.970  34.195  1.00  0.00     0.049 A 
ATOM     55  H   UNL A   1      41.497  29.213  32.818  1.00  0.00     0.167 HD
ATOM     56  C   UNL A   1      43.731  27.553  32.263  1.00  0.00     0.074 A 
ATOM     57  C   UNL A   1      44.633  26.650  31.580  1.00  0.00     0.031 C 
ATOM     58  C   UNL A   1      43.957  28.065  33.498  1.00  0.00     0.037 A 
BRANCH  45  59
ATOM     59  C   UNL A   1      39.505  31.867  35.490  1.00  0.00     0.064 A 
ATOM     60  C   UNL A   1      39.928  33.195  35.658  1.00  0.00     0.173 A 
ATOM     61  C   UNL A   1      38.582  31.347  36.406  1.00  0.00     0.173 A 
ATOM     62  F   UNL A   1      40.835  33.725  34.826  1.00  0.00    -0.203 F 
ATOM     63  C   UNL A   1      39.460  33.962  36.723  1.00  0.00     0.198 A 
ATOM     64  C   UNL A   1      38.102  32.121  37.457  1.00  0.00     0.198 A 
ATOM     65  F   UNL A   1      38.161  30.078  36.293  1.00  0.00    -0.203 F 
ATOM     66  F   UNL A   1      39.916  35.209  36.900  1.00  0.00    -0.200 F 
ATOM     67  C   UNL A   1      38.547  33.425  37.620  1.00  0.00     0.200 A 
ATOM     68  F   UNL A   1      37.223  31.600  38.324  1.00  0.00    -0.200 F 
ATOM     69  F   UNL A   1      38.109  34.159  38.653  1.00  0.00    -0.200 F 
ENDBRANCH  45  59
BRANCH  46  70
ATOM     70  C   UNL A   1      42.524  26.031  27.973  1.00  0.00     0.064 A 
ATOM     71  C   UNL A   1      43.440  26.450  26.996  1.00  0.00     0.173 A 
ATOM     72  C   UNL A   1      41.992  24.738  27.848  1.00  0.00     0.173 A 
ATOM     73  F   UNL A   1      43.952  27.688  27.046  1.00  0.00    -0.203 F 
ATOM     74  C   UNL A   1      43.793  25.618  25.934  1.00  0.00     0.198 A 
ATOM     75  C   UNL A   1      42.371  23.895  26.805  1.00  0.00     0.198 A 
ATOM     76  F   UNL A   1      41.101  24.288  28.743  1.00  0.00    -0.203 F 
ATOM     77  F   UNL A   1      44.628  26.064  24.984  1.00  0.00    -0.200 F 
ATOM     78  C   UNL A   1      43.265  24.339  25.843  1.00  0.00     0.200 A 
ATOM     79  F   UNL A   1      41.861  22.658  26.728  1.00  0.00    -0.200 F 
ATOM     80  F   UNL A   1      43.602  23.540  24.821  1.00  0.00    -0.200 F 
ENDBRANCH  46  70
BRANCH  58  81
ATOM     81  C   UNL A   1      45.214  27.647  34.202  1.00  0.00     0.064 A 
ATOM     82  C   UNL A   1      45.239  26.546  35.069  1.00  0.00     0.173 A 
ATOM     83  C   UNL A   1      46.421  28.315  33.950  1.00  0.00     0.173 A 
ATOM     84  F   UNL A   1      44.106  25.884  35.352  1.00  0.00    -0.203 F 
ATOM     85  C   UNL A   1      46.426  26.137  35.671  1.00  0.00     0.198 A 
ATOM     86  C   UNL A   1      47.611  27.886  34.531  1.00  0.00     0.198 A 
ATOM     87  F   UNL A   1      46.451  29.370  33.121  1.00  0.00    -0.203 F 
ATOM     88  F   UNL A   1      46.421  25.102  36.523  1.00  0.00    -0.200 F 
ATOM     89  C   UNL A   1      47.611  26.800  35.394  1.00  0.00     0.200 A 
ATOM     90  F   UNL A   1      48.759  28.520  34.251  1.00  0.00    -0.200 F 
ATOM     91  F   UNL A   1      48.756  26.395  35.962  1.00  0.00    -0.200 F 
ENDBRANCH  58  81
ENDBRANCH  32  33
ENDBRANCH  25  27
ENDBRANCH  24  25
ENDBRANCH  23  24
ENDBRANCH   1  23
TORSDOF 17
ENDMDL
MODEL 3
REMARK VINA RESULT:     -10.7      1.309      2.332
REMARK SMILES COc1cc(S(=O)(=O)CCC(C)C)cc(C(=O)OCCOC(=O)c2ccc(-c3c4nc(c(-c5c(F)c(F)c(F)c(F)c5F)c5ccc([nH]5)c(-c5c(F)c(F)c(F)c(F)c5F)c5nc(c(-c6c(F)c(F)c(F)c(F)c6F)c6ccc3[nH]6)C=C5)C=C4)cc2)c1OC
REMARK SMILES IDX 19 1 18 2 16 3 17 4 15 5 3 6 4 7 87 8 5 9 14 10 2 11 1 12
REMARK SMILES IDX 88 13 89 14 6 15 7 16 8 17 9 18 10 19 11 20 12 21 13 22
REMARK SMILES IDX 20 23 21 24 22 25 23 26 24 27 25 28 86 29 26 30 85 31 27 32
REMARK SMILES IDX 28 33 29 34 79 35 30 36 84 37 78 38 80 39 31 40 83 41 77 42
REMARK SMILES IDX 76 43 32 45 64 46 44 47 63 48 45 49 48 50 62 51 81 52 46 53
REMARK SMILES IDX 47 54 61 56 82 57 49 58 33 59 34 60 42 61 35 62 36 63 40 64
REMARK SMILES IDX 43 65 37 66 38 67 41 68 39 69 65 70 66 71 74 72 67 73 68 74
REMARK SMILES IDX 72 75 75 76 69 77 70 78 73 79 71 80 50 81 51 82 59 83 52 84
REMARK SMILES IDX 53 85 57 86 60 87 54 88 55 89 58 90 56 91
REMARK H PARENT 80 44 48 55
REMARK Flexibility Score: inf
ROOT
ATOM      1  C   UNL A   1      31.806  29.144  27.224  1.00  0.00     0.275 C 
ENDROOT
BRANCH   1   2
ATOM      2  O   UNL A   1      31.891  28.254  26.096  1.00  0.00    -0.458 OA
BRANCH   2   3
ATOM      3  C   UNL A   1      33.093  27.674  25.901  1.00  0.00     0.342 C 
ATOM      4  O   UNL A   1      34.101  27.826  26.577  1.00  0.00    -0.246 OA
BRANCH   3   5
ATOM      5  C   UNL A   1      33.046  26.666  24.827  1.00  0.00     0.107 A 
ATOM      6  C   UNL A   1      33.366  25.905  22.576  1.00  0.00     0.162 A 
ATOM      7  C   UNL A   1      33.326  24.568  23.023  1.00  0.00     0.070 A 
ATOM      8  C   UNL A   1      33.232  26.979  23.476  1.00  0.00     0.175 A 
ATOM      9  C   UNL A   1      33.161  24.292  24.380  1.00  0.00     0.072 A 
ATOM     10  C   UNL A   1      32.980  25.339  25.264  1.00  0.00     0.040 A 
BRANCH   6  11
ATOM     11  O   UNL A   1      33.503  26.119  21.229  1.00  0.00    -0.493 OA
ATOM     12  C   UNL A   1      32.533  25.388  20.477  1.00  0.00     0.278 C 
ENDBRANCH   6  11
BRANCH   8  13
ATOM     13  O   UNL A   1      33.312  28.316  23.207  1.00  0.00    -0.492 OA
ATOM     14  C   UNL A   1      32.179  29.003  22.705  1.00  0.00     0.278 C 
ENDBRANCH   8  13
BRANCH   9  15
ATOM     15  S   UNL A   1      33.238  22.606  24.939  1.00  0.00     0.178 S 
ATOM     16  O   UNL A   1      31.952  22.364  25.566  1.00  0.00    -0.224 OA
ATOM     17  O   UNL A   1      33.664  21.821  23.796  1.00  0.00    -0.224 OA
BRANCH  15  18
ATOM     18  C   UNL A   1      34.466  22.463  26.224  1.00  0.00     0.142 C 
BRANCH  18  19
ATOM     19  C   UNL A   1      35.729  23.319  26.111  1.00  0.00     0.019 C 
BRANCH  19  20
ATOM     20  C   UNL A   1      37.060  22.616  25.772  1.00  0.00    -0.016 C 
ATOM     21  C   UNL A   1      37.206  22.261  24.290  1.00  0.00     0.007 C 
ATOM     22  C   UNL A   1      38.234  23.532  26.134  1.00  0.00     0.007 C 
ENDBRANCH  19  20
ENDBRANCH  18  19
ENDBRANCH  15  18
ENDBRANCH   9  15
ENDBRANCH   3   5
ENDBRANCH   2   3
ENDBRANCH   1   2
BRANCH   1  23
ATOM     23  C   UNL A   1      31.782  30.603  26.767  1.00  0.00     0.275 C 
BRANCH  23  24
ATOM     24  O   UNL A   1      33.111  31.082  26.477  1.00  0.00    -0.458 OA
BRANCH  24  25
ATOM     25  C   UNL A   1      33.564  32.056  27.303  1.00  0.00     0.338 C 
ATOM     26  O   UNL A   1      32.972  33.061  27.642  1.00  0.00    -0.246 OA
BRANCH  25  27
ATOM     27  C   UNL A   1      34.878  31.676  27.874  1.00  0.00     0.060 A 
ATOM     28  C   UNL A   1      35.014  30.354  28.299  1.00  0.00     0.016 A 
ATOM     29  C   UNL A   1      35.951  32.566  28.013  1.00  0.00     0.016 A 
ATOM     30  C   UNL A   1      36.230  29.904  28.807  1.00  0.00     0.010 A 
ATOM     31  C   UNL A   1      37.163  32.122  28.566  1.00  0.00     0.010 A 
ATOM     32  C   UNL A   1      37.311  30.784  28.956  1.00  0.00    -0.014 A 
BRANCH  32  33
ATOM     33  C   UNL A   1      38.525  30.267  29.638  1.00  0.00     0.031 A 
ATOM     34  C   UNL A   1      38.791  30.705  31.048  1.00  0.00     0.074 A 
ATOM     35  C   UNL A   1      39.282  29.307  29.079  1.00  0.00     0.049 A 
ATOM     36  N   UNL A   1      39.704  30.291  31.888  1.00  0.00    -0.248 NA
ATOM     37  C   UNL A   1      37.878  31.720  31.601  1.00  0.00     0.031 C 
ATOM     38  C   UNL A   1      39.061  28.723  27.760  1.00  0.00     0.029 A 
ATOM     39  N   UNL A   1      40.369  28.621  29.565  1.00  0.00    -0.354 N 
ATOM     40  C   UNL A   1      39.451  30.964  33.074  1.00  0.00     0.074 A 
ATOM     41  C   UNL A   1      38.299  31.809  32.852  1.00  0.00     0.031 C 
ATOM     42  C   UNL A   1      39.954  27.742  27.554  1.00  0.00     0.029 A 
ATOM     43  C   UNL A   1      40.861  27.674  28.698  1.00  0.00     0.049 A 
ATOM     44  H   UNL A   1      40.759  28.792  30.454  1.00  0.00     0.167 HD
ATOM     45  C   UNL A   1      40.137  30.906  34.238  1.00  0.00     0.037 A 
ATOM     46  C   UNL A   1      41.941  26.874  28.803  1.00  0.00     0.037 A 
ATOM     47  C   UNL A   1      41.347  30.155  34.425  1.00  0.00     0.049 A 
ATOM     48  C   UNL A   1      42.792  26.965  30.046  1.00  0.00     0.074 A 
ATOM     49  C   UNL A   1      42.196  30.142  35.515  1.00  0.00     0.029 A 
ATOM     50  N   UNL A   1      41.894  29.304  33.475  1.00  0.00    -0.354 N 
ATOM     51  N   UNL A   1      42.579  27.644  31.147  1.00  0.00    -0.248 NA
ATOM     52  C   UNL A   1      44.048  26.199  30.049  1.00  0.00     0.031 C 
ATOM     53  C   UNL A   1      43.289  29.324  35.203  1.00  0.00     0.029 A 
ATOM     54  C   UNL A   1      43.089  28.784  33.942  1.00  0.00     0.049 A 
ATOM     55  H   UNL A   1      41.492  29.101  32.600  1.00  0.00     0.167 HD
ATOM     56  C   UNL A   1      43.662  27.380  31.975  1.00  0.00     0.074 A 
ATOM     57  C   UNL A   1      44.522  26.461  31.260  1.00  0.00     0.031 C 
ATOM     58  C   UNL A   1      43.926  27.864  33.215  1.00  0.00     0.037 A 
BRANCH  45  59
ATOM     59  C   UNL A   1      39.635  31.769  35.353  1.00  0.00     0.064 A 
ATOM     60  C   UNL A   1      38.655  31.316  36.249  1.00  0.00     0.173 A 
ATOM     61  C   UNL A   1      40.103  33.082  35.494  1.00  0.00     0.173 A 
ATOM     62  F   UNL A   1      38.154  30.078  36.132  1.00  0.00    -0.203 F 
ATOM     63  C   UNL A   1      38.147  32.159  37.235  1.00  0.00     0.198 A 
ATOM     64  C   UNL A   1      39.606  33.915  36.491  1.00  0.00     0.198 A 
ATOM     65  F   UNL A   1      41.027  33.564  34.650  1.00  0.00    -0.203 F 
ATOM     66  F   UNL A   1      37.173  31.727  38.048  1.00  0.00    -0.200 F 
ATOM     67  C   UNL A   1      38.623  33.456  37.355  1.00  0.00     0.200 A 
ATOM     68  F   UNL A   1      40.065  35.169  36.604  1.00  0.00    -0.200 F 
ATOM     69  F   UNL A   1      38.122  34.271  38.294  1.00  0.00    -0.200 F 
ENDBRANCH  45  59
BRANCH  46  70
ATOM     70  C   UNL A   1      42.329  25.973  27.683  1.00  0.00     0.064 A 
ATOM     71  C   UNL A   1      41.740  24.710  27.520  1.00  0.00     0.173 A 
ATOM     72  C   UNL A   1      43.339  26.336  26.778  1.00  0.00     0.173 A 
ATOM     73  F   UNL A   1      40.794  24.297  28.377  1.00  0.00    -0.203 F 
ATOM     74  C   UNL A   1      42.156  23.844  26.509  1.00  0.00     0.198 A 
ATOM     75  C   UNL A   1      43.731  25.484  25.748  1.00  0.00     0.198 A 
ATOM     76  F   UNL A   1      43.950  27.524  26.894  1.00  0.00    -0.203 F 
ATOM     77  F   UNL A   1      41.614  22.622  26.411  1.00  0.00    -0.200 F 
ATOM     78  C   UNL A   1      43.145  24.234  25.619  1.00  0.00     0.200 A 
ATOM     79  F   UNL A   1      44.683  25.871  24.888  1.00  0.00    -0.200 F 
ATOM     80  F   UNL A   1      43.547  23.401  24.649  1.00  0.00    -0.200 F 
ENDBRANCH  46  70
BRANCH  58  81
ATOM     81  C   UNL A   1      45.181  27.394  33.888  1.00  0.00     0.064 A 
ATOM     82  C   UNL A   1      45.202  26.237  34.680  1.00  0.00     0.173 A 
ATOM     83  C   UNL A   1      46.392  28.071  33.679  1.00  0.00     0.173 A 
ATOM     84  F   UNL A   1      44.066  25.563  34.919  1.00  0.00    -0.203 F 
ATOM     85  C   UNL A   1      46.387  25.783  35.251  1.00  0.00     0.198 A 
ATOM     86  C   UNL A   1      47.580  27.599  34.229  1.00  0.00     0.198 A 
ATOM     87  F   UNL A   1      46.426  29.179  32.923  1.00  0.00    -0.203 F 
ATOM     88  F   UNL A   1      46.378  24.694  36.033  1.00  0.00    -0.200 F 
ATOM     89  C   UNL A   1      47.576  26.458  35.018  1.00  0.00     0.200 A 
ATOM     90  F   UNL A   1      48.730  28.246  33.992  1.00  0.00    -0.200 F 
ATOM     91  F   UNL A   1      48.718  26.011  35.557  1.00  0.00    -0.200 F 
ENDBRANCH  58  81
ENDBRANCH  32  33
ENDBRANCH  25  27
ENDBRANCH  24  25
ENDBRANCH  23  24
ENDBRANCH   1  23
TORSDOF 17
ENDMDL
