MODEL 1
REMARK VINA RESULT:     -12.3      0.000      0.000
REMARK SMILES CC1=C(C)C[C@@H](C(=O)OCCOC(=O)c2ccc(-c3c4nc(c(-c5c(F)c(F)c(F)c(F)c5F)c5ccc([nH]5)c(-c5c(F)c(F)c(F)c(F)c5F)c5nc(c(-c6c(F)c(F)c(F)c(F)c6F)c6ccc3[nH]6)C=C5)C=C4)cc2)[C@H](C(=O)NCc2cccnc2)C1
REMARK SMILES IDX 10 1 9 2 7 3 8 4 6 5 1 6 2 7 3 8 89 9 4 10 5 11 78 12 79 13
REMARK SMILES IDX 80 14 81 15 82 17 83 18 84 19 88 20 85 21 87 22 86 23 11 24
REMARK SMILES IDX 12 25 13 26 14 27 15 28 16 29 77 30 17 31 76 32 18 33 19 34
REMARK SMILES IDX 20 35 70 36 21 37 75 38 69 39 71 40 22 41 74 42 68 43 67 44
REMARK SMILES IDX 23 46 55 47 35 48 54 49 36 50 39 51 53 52 72 53 37 54 38 55
REMARK SMILES IDX 52 57 73 58 40 59 24 60 25 61 33 62 26 63 27 64 31 65 34 66
REMARK SMILES IDX 28 67 29 68 32 69 30 70 56 71 57 72 65 73 58 74 59 75 63 76
REMARK SMILES IDX 66 77 60 78 61 79 64 80 62 81 41 82 42 83 50 84 43 85 44 86
REMARK SMILES IDX 48 87 51 88 45 89 46 90 49 91 47 92
REMARK H PARENT 81 16 71 45 39 56
REMARK Flexibility Score: inf
ROOT
ATOM      1  C   UNL A   1      31.659  28.690  27.065  1.00  0.00     0.274 C 
ENDROOT
BRANCH   1   2
ATOM      2  O   UNL A   1      32.337  27.581  26.442  1.00  0.00    -0.462 OA
BRANCH   2   3
ATOM      3  C   UNL A   1      31.585  26.466  26.263  1.00  0.00     0.310 C 
ATOM      4  O   UNL A   1      30.535  26.230  26.852  1.00  0.00    -0.252 OA
BRANCH   3   5
ATOM      5  C   UNL A   1      32.185  25.472  25.281  1.00  0.00     0.116 C 
ATOM      6  C   UNL A   1      36.007  23.261  25.959  1.00  0.00     0.039 C 
ATOM      7  C   UNL A   1      34.682  23.945  25.737  1.00  0.00    -0.074 C 
ATOM      8  C   UNL A   1      33.515  23.419  26.159  1.00  0.00    -0.073 C 
ATOM      9  C   UNL A   1      34.777  25.252  24.993  1.00  0.00     0.045 C 
ATOM     10  C   UNL A   1      33.390  22.087  26.858  1.00  0.00     0.039 C 
ATOM     11  C   UNL A   1      32.188  24.093  25.942  1.00  0.00     0.046 C 
ATOM     12  C   UNL A   1      33.474  25.951  24.600  1.00  0.00     0.097 C 
BRANCH  12  13
ATOM     13  C   UNL A   1      33.310  26.085  23.083  1.00  0.00     0.224 C 
ATOM     14  O   UNL A   1      33.652  25.158  22.342  1.00  0.00    -0.275 OA
ATOM     15  N   UNL A   1      32.849  27.195  22.464  1.00  0.00    -0.352 N 
ATOM     16  H   UNL A   1      32.867  27.143  21.481  1.00  0.00     0.163 HD
BRANCH  15  17
ATOM     17  C   UNL A   1      32.335  28.444  22.975  1.00  0.00     0.153 C 
BRANCH  17  18
ATOM     18  C   UNL A   1      30.866  28.632  22.725  1.00  0.00    -0.010 A 
ATOM     19  C   UNL A   1      29.936  27.762  23.303  1.00  0.00     0.009 A 
ATOM     20  C   UNL A   1      30.353  29.703  22.000  1.00  0.00     0.116 A 
ATOM     21  C   UNL A   1      28.572  27.982  23.131  1.00  0.00     0.020 A 
ATOM     22  N   UNL A   1      29.034  29.949  21.822  1.00  0.00    -0.264 NA
ATOM     23  C   UNL A   1      28.173  29.081  22.391  1.00  0.00     0.111 A 
ENDBRANCH  17  18
ENDBRANCH  15  17
ENDBRANCH  12  13
ENDBRANCH   3   5
ENDBRANCH   2   3
ENDBRANCH   1   2
BRANCH   1  24
ATOM     24  C   UNL A   1      31.766  29.962  26.222  1.00  0.00     0.275 C 
BRANCH  24  25
ATOM     25  O   UNL A   1      33.117  30.457  26.207  1.00  0.00    -0.458 OA
BRANCH  25  26
ATOM     26  C   UNL A   1      33.384  31.471  27.061  1.00  0.00     0.338 C 
ATOM     27  O   UNL A   1      32.714  32.475  27.256  1.00  0.00    -0.246 OA
BRANCH  26  28
ATOM     28  C   UNL A   1      34.634  31.174  27.771  1.00  0.00     0.060 A 
ATOM     29  C   UNL A   1      34.853  29.886  28.261  1.00  0.00     0.016 A 
ATOM     30  C   UNL A   1      35.571  32.182  27.998  1.00  0.00     0.016 A 
ATOM     31  C   UNL A   1      36.009  29.590  28.980  1.00  0.00     0.010 A 
ATOM     32  C   UNL A   1      36.742  31.883  28.701  1.00  0.00     0.010 A 
ATOM     33  C   UNL A   1      36.968  30.586  29.196  1.00  0.00    -0.014 A 
BRANCH  33  34
ATOM     34  C   UNL A   1      38.211  30.282  29.943  1.00  0.00     0.031 A 
ATOM     35  C   UNL A   1      39.229  29.349  29.359  1.00  0.00     0.074 A 
ATOM     36  C   UNL A   1      38.415  30.832  31.154  1.00  0.00     0.049 A 
ATOM     37  N   UNL A   1      40.277  28.806  29.926  1.00  0.00    -0.248 NA
ATOM     38  C   UNL A   1      39.045  28.976  27.948  1.00  0.00     0.031 C 
ATOM     39  C   UNL A   1      37.532  31.805  31.798  1.00  0.00     0.029 A 
ATOM     40  N   UNL A   1      39.423  30.637  32.065  1.00  0.00    -0.354 N 
ATOM     41  C   UNL A   1      40.866  28.016  28.951  1.00  0.00     0.074 A 
ATOM     42  C   UNL A   1      40.058  28.142  27.756  1.00  0.00     0.031 C 
ATOM     43  C   UNL A   1      38.027  32.109  33.009  1.00  0.00     0.029 A 
ATOM     44  C   UNL A   1      39.226  31.309  33.246  1.00  0.00     0.049 A 
ATOM     45  H   UNL A   1      40.209  30.072  31.890  1.00  0.00     0.167 HD
ATOM     46  C   UNL A   1      41.983  27.256  29.049  1.00  0.00     0.037 A 
ATOM     47  C   UNL A   1      39.904  31.246  34.407  1.00  0.00     0.037 A 
ATOM     48  C   UNL A   1      42.789  27.146  30.236  1.00  0.00     0.049 A 
ATOM     49  C   UNL A   1      41.085  30.322  34.520  1.00  0.00     0.074 A 
ATOM     50  C   UNL A   1      43.938  26.399  30.435  1.00  0.00     0.029 A 
ATOM     51  N   UNL A   1      42.531  27.806  31.428  1.00  0.00    -0.354 N 
ATOM     52  N   UNL A   1      41.614  29.541  33.611  1.00  0.00    -0.248 NA
ATOM     53  C   UNL A   1      41.751  30.254  35.830  1.00  0.00     0.031 C 
ATOM     54  C   UNL A   1      44.357  26.583  31.757  1.00  0.00     0.029 A 
ATOM     55  C   UNL A   1      43.486  27.468  32.373  1.00  0.00     0.049 A 
ATOM     56  H   UNL A   1      41.779  28.423  31.580  1.00  0.00     0.167 HD
ATOM     57  C   UNL A   1      42.670  28.891  34.232  1.00  0.00     0.074 A 
ATOM     58  C   UNL A   1      42.724  29.385  35.593  1.00  0.00     0.031 C 
ATOM     59  C   UNL A   1      43.515  27.961  33.724  1.00  0.00     0.037 A 
BRANCH  46  60
ATOM     60  C   UNL A   1      42.389  26.462  27.847  1.00  0.00     0.064 A 
ATOM     61  C   UNL A   1      43.357  26.935  26.949  1.00  0.00     0.173 A 
ATOM     62  C   UNL A   1      41.844  25.190  27.621  1.00  0.00     0.173 A 
ATOM     63  F   UNL A   1      43.899  28.149  27.119  1.00  0.00    -0.203 F 
ATOM     64  C   UNL A   1      43.759  26.164  25.861  1.00  0.00     0.198 A 
ATOM     65  C   UNL A   1      42.261  24.414  26.543  1.00  0.00     0.198 A 
ATOM     66  F   UNL A   1      40.919  24.693  28.455  1.00  0.00    -0.203 F 
ATOM     67  F   UNL A   1      44.669  26.642  25.002  1.00  0.00    -0.200 F 
ATOM     68  C   UNL A   1      43.215  24.902  25.662  1.00  0.00     0.200 A 
ATOM     69  F   UNL A   1      41.743  23.192  26.358  1.00  0.00    -0.200 F 
ATOM     70  F   UNL A   1      43.610  24.157  24.621  1.00  0.00    -0.200 F 
ENDBRANCH  46  60
BRANCH  47  71
ATOM     71  C   UNL A   1      39.437  32.029  35.578  1.00  0.00     0.064 A 
ATOM     72  C   UNL A   1      39.906  33.327  35.815  1.00  0.00     0.173 A 
ATOM     73  C   UNL A   1      38.518  31.487  36.491  1.00  0.00     0.173 A 
ATOM     74  F   UNL A   1      40.811  33.874  34.989  1.00  0.00    -0.203 F 
ATOM     75  C   UNL A   1      39.481  34.052  36.926  1.00  0.00     0.198 A 
ATOM     76  C   UNL A   1      38.074  32.223  37.587  1.00  0.00     0.198 A 
ATOM     77  F   UNL A   1      38.047  30.245  36.313  1.00  0.00    -0.203 F 
ATOM     78  F   UNL A   1      39.976  35.277  37.154  1.00  0.00    -0.200 F 
ATOM     79  C   UNL A   1      38.560  33.503  37.807  1.00  0.00     0.200 A 
ATOM     80  F   UNL A   1      37.180  31.690  38.431  1.00  0.00    -0.200 F 
ATOM     81  F   UNL A   1      38.151  34.201  38.875  1.00  0.00    -0.200 F 
ENDBRANCH  47  71
BRANCH  59  82
ATOM     82  C   UNL A   1      44.565  27.419  34.644  1.00  0.00     0.064 A 
ATOM     83  C   UNL A   1      44.343  26.251  35.389  1.00  0.00     0.173 A 
ATOM     84  C   UNL A   1      45.813  28.047  34.754  1.00  0.00     0.173 A 
ATOM     85  F   UNL A   1      43.157  25.627  35.328  1.00  0.00    -0.203 F 
ATOM     86  C   UNL A   1      45.333  25.738  36.222  1.00  0.00     0.198 A 
ATOM     87  C   UNL A   1      46.807  27.520  35.573  1.00  0.00     0.198 A 
ATOM     88  F   UNL A   1      46.072  29.165  34.060  1.00  0.00    -0.203 F 
ATOM     89  F   UNL A   1      45.091  24.640  36.950  1.00  0.00    -0.200 F 
ATOM     90  C   UNL A   1      46.565  26.369  36.308  1.00  0.00     0.200 A 
ATOM     91  F   UNL A   1      48.000  28.125  35.651  1.00  0.00    -0.200 F 
ATOM     92  F   UNL A   1      47.519  25.870  37.107  1.00  0.00    -0.200 F 
ENDBRANCH  59  82
ENDBRANCH  33  34
ENDBRANCH  26  28
ENDBRANCH  25  26
ENDBRANCH  24  25
ENDBRANCH   1  24
TORSDOF 14
ENDMDL
MODEL 2
REMARK VINA RESULT:     -12.2      0.097      1.676
REMARK SMILES CC1=C(C)C[C@@H](C(=O)OCCOC(=O)c2ccc(-c3c4nc(c(-c5c(F)c(F)c(F)c(F)c5F)c5ccc([nH]5)c(-c5c(F)c(F)c(F)c(F)c5F)c5nc(c(-c6c(F)c(F)c(F)c(F)c6F)c6ccc3[nH]6)C=C5)C=C4)cc2)[C@H](C(=O)NCc2cccnc2)C1
REMARK SMILES IDX 10 1 9 2 7 3 8 4 6 5 1 6 2 7 3 8 89 9 4 10 5 11 78 12 79 13
REMARK SMILES IDX 80 14 81 15 82 17 83 18 84 19 88 20 85 21 87 22 86 23 11 24
REMARK SMILES IDX 12 25 13 26 14 27 15 28 16 29 77 30 17 31 76 32 18 33 19 34
REMARK SMILES IDX 20 35 70 36 21 37 75 38 69 39 71 40 22 41 74 42 68 43 67 44
REMARK SMILES IDX 23 46 55 47 35 48 54 49 36 50 39 51 53 52 72 53 37 54 38 55
REMARK SMILES IDX 52 57 73 58 40 59 24 60 25 61 33 62 26 63 27 64 31 65 34 66
REMARK SMILES IDX 28 67 29 68 32 69 30 70 56 71 57 72 65 73 58 74 59 75 63 76
REMARK SMILES IDX 66 77 60 78 61 79 64 80 62 81 41 82 42 83 50 84 43 85 44 86
REMARK SMILES IDX 48 87 51 88 45 89 46 90 49 91 47 92
REMARK H PARENT 81 16 71 45 39 56
REMARK Flexibility Score: inf
ROOT
ATOM      1  C   UNL A   1      31.699  28.683  27.177  1.00  0.00     0.274 C 
ENDROOT
BRANCH   1   2
ATOM      2  O   UNL A   1      32.347  27.597  26.486  1.00  0.00    -0.462 OA
BRANCH   2   3
ATOM      3  C   UNL A   1      31.581  26.494  26.289  1.00  0.00     0.310 C 
ATOM      4  O   UNL A   1      30.527  26.263  26.871  1.00  0.00    -0.252 OA
BRANCH   3   5
ATOM      5  C   UNL A   1      32.172  25.507  25.294  1.00  0.00     0.116 C 
ATOM      6  C   UNL A   1      35.964  23.238  25.952  1.00  0.00     0.039 C 
ATOM      7  C   UNL A   1      34.648  23.942  25.736  1.00  0.00    -0.074 C 
ATOM      8  C   UNL A   1      33.473  23.425  26.147  1.00  0.00    -0.073 C 
ATOM      9  C   UNL A   1      34.761  25.259  25.010  1.00  0.00     0.045 C 
ATOM     10  C   UNL A   1      33.329  22.085  26.827  1.00  0.00     0.039 C 
ATOM     11  C   UNL A   1      32.156  24.118  25.936  1.00  0.00     0.046 C 
ATOM     12  C   UNL A   1      33.469  25.979  24.624  1.00  0.00     0.097 C 
BRANCH  12  13
ATOM     13  C   UNL A   1      33.311  26.137  23.108  1.00  0.00     0.224 C 
ATOM     14  O   UNL A   1      33.655  25.221  22.355  1.00  0.00    -0.275 OA
ATOM     15  N   UNL A   1      32.853  27.257  22.505  1.00  0.00    -0.352 N 
ATOM     16  H   UNL A   1      32.875  27.219  21.521  1.00  0.00     0.163 HD
BRANCH  15  17
ATOM     17  C   UNL A   1      32.338  28.497  23.033  1.00  0.00     0.153 C 
BRANCH  17  18
ATOM     18  C   UNL A   1      30.872  28.696  22.770  1.00  0.00    -0.010 A 
ATOM     19  C   UNL A   1      29.924  27.922  23.447  1.00  0.00     0.009 A 
ATOM     20  C   UNL A   1      30.382  29.692  21.930  1.00  0.00     0.116 A 
ATOM     21  C   UNL A   1      28.565  28.158  23.257  1.00  0.00     0.020 A 
ATOM     22  N   UNL A   1      29.069  29.951  21.732  1.00  0.00    -0.264 NA
ATOM     23  C   UNL A   1      28.190  29.178  22.399  1.00  0.00     0.111 A 
ENDBRANCH  17  18
ENDBRANCH  15  17
ENDBRANCH  12  13
ENDBRANCH   3   5
ENDBRANCH   2   3
ENDBRANCH   1   2
BRANCH   1  24
ATOM     24  C   UNL A   1      31.767  29.983  26.373  1.00  0.00     0.275 C 
BRANCH  24  25
ATOM     25  O   UNL A   1      33.116  30.480  26.312  1.00  0.00    -0.458 OA
BRANCH  25  26
ATOM     26  C   UNL A   1      33.399  31.524  27.122  1.00  0.00     0.338 C 
ATOM     27  O   UNL A   1      32.763  32.562  27.246  1.00  0.00    -0.246 OA
BRANCH  26  28
ATOM     28  C   UNL A   1      34.614  31.216  27.885  1.00  0.00     0.060 A 
ATOM     29  C   UNL A   1      35.608  32.188  28.009  1.00  0.00     0.016 A 
ATOM     30  C   UNL A   1      34.797  29.948  28.436  1.00  0.00     0.016 A 
ATOM     31  C   UNL A   1      36.791  31.906  28.688  1.00  0.00     0.010 A 
ATOM     32  C   UNL A   1      35.975  29.668  29.135  1.00  0.00     0.010 A 
ATOM     33  C   UNL A   1      36.979  30.645  29.265  1.00  0.00    -0.014 A 
BRANCH  33  34
ATOM     34  C   UNL A   1      38.225  30.336  30.005  1.00  0.00     0.031 A 
ATOM     35  C   UNL A   1      39.241  29.408  29.412  1.00  0.00     0.074 A 
ATOM     36  C   UNL A   1      38.433  30.879  31.219  1.00  0.00     0.049 A 
ATOM     37  N   UNL A   1      40.291  28.862  29.972  1.00  0.00    -0.248 NA
ATOM     38  C   UNL A   1      39.052  29.043  27.999  1.00  0.00     0.031 C 
ATOM     39  C   UNL A   1      37.552  31.847  31.872  1.00  0.00     0.029 A 
ATOM     40  N   UNL A   1      39.445  30.679  32.125  1.00  0.00    -0.354 N 
ATOM     41  C   UNL A   1      40.877  28.078  28.990  1.00  0.00     0.074 A 
ATOM     42  C   UNL A   1      40.064  28.210  27.799  1.00  0.00     0.031 C 
ATOM     43  C   UNL A   1      38.052  32.144  33.083  1.00  0.00     0.029 A 
ATOM     44  C   UNL A   1      39.251  31.344  33.311  1.00  0.00     0.049 A 
ATOM     45  H   UNL A   1      40.230  30.115  31.943  1.00  0.00     0.167 HD
ATOM     46  C   UNL A   1      41.994  27.317  29.079  1.00  0.00     0.037 A 
ATOM     47  C   UNL A   1      39.933  31.273  34.470  1.00  0.00     0.037 A 
ATOM     48  C   UNL A   1      42.805  27.199  30.263  1.00  0.00     0.049 A 
ATOM     49  C   UNL A   1      41.115  30.349  34.573  1.00  0.00     0.074 A 
ATOM     50  C   UNL A   1      43.954  26.452  30.453  1.00  0.00     0.029 A 
ATOM     51  N   UNL A   1      42.550  27.853  31.460  1.00  0.00    -0.354 N 
ATOM     52  N   UNL A   1      41.641  29.574  33.657  1.00  0.00    -0.248 NA
ATOM     53  C   UNL A   1      41.786  30.273  35.880  1.00  0.00     0.031 C 
ATOM     54  C   UNL A   1      44.378  26.628  31.775  1.00  0.00     0.029 A 
ATOM     55  C   UNL A   1      43.509  27.509  32.399  1.00  0.00     0.049 A 
ATOM     56  H   UNL A   1      41.799  28.468  31.618  1.00  0.00     0.167 HD
ATOM     57  C   UNL A   1      42.699  28.920  34.270  1.00  0.00     0.074 A 
ATOM     58  C   UNL A   1      42.758  29.405  35.634  1.00  0.00     0.031 C 
ATOM     59  C   UNL A   1      43.542  27.994  33.753  1.00  0.00     0.037 A 
BRANCH  46  60
ATOM     60  C   UNL A   1      42.397  26.531  27.871  1.00  0.00     0.064 A 
ATOM     61  C   UNL A   1      43.316  27.036  26.940  1.00  0.00     0.173 A 
ATOM     62  C   UNL A   1      41.899  25.234  27.671  1.00  0.00     0.173 A 
ATOM     63  F   UNL A   1      43.810  28.274  27.084  1.00  0.00    -0.203 F 
ATOM     64  C   UNL A   1      43.716  26.273  25.845  1.00  0.00     0.198 A 
ATOM     65  C   UNL A   1      42.315  24.468  26.586  1.00  0.00     0.198 A 
ATOM     66  F   UNL A   1      41.022  24.706  28.537  1.00  0.00    -0.203 F 
ATOM     67  F   UNL A   1      44.577  26.782  24.955  1.00  0.00    -0.200 F 
ATOM     68  C   UNL A   1      43.220  24.988  25.673  1.00  0.00     0.200 A 
ATOM     69  F   UNL A   1      41.844  23.224  26.426  1.00  0.00    -0.200 F 
ATOM     70  F   UNL A   1      43.614  24.252  24.625  1.00  0.00    -0.200 F 
ENDBRANCH  46  60
BRANCH  47  71
ATOM     71  C   UNL A   1      39.470  32.049  35.647  1.00  0.00     0.064 A 
ATOM     72  C   UNL A   1      38.522  31.525  36.533  1.00  0.00     0.173 A 
ATOM     73  C   UNL A   1      39.962  33.339  35.901  1.00  0.00     0.173 A 
ATOM     74  F   UNL A   1      37.998  30.309  36.312  1.00  0.00    -0.203 F 
ATOM     75  C   UNL A   1      38.075  32.265  37.626  1.00  0.00     0.198 A 
ATOM     76  C   UNL A   1      39.534  34.067  37.009  1.00  0.00     0.198 A 
ATOM     77  F   UNL A   1      40.865  33.890  35.076  1.00  0.00    -0.203 F 
ATOM     78  F   UNL A   1      37.136  31.757  38.437  1.00  0.00    -0.200 F 
ATOM     79  C   UNL A   1      38.586  33.531  37.867  1.00  0.00     0.200 A 
ATOM     80  F   UNL A   1      40.035  35.288  37.240  1.00  0.00    -0.200 F 
ATOM     81  F   UNL A   1      38.157  34.242  38.919  1.00  0.00    -0.200 F 
ENDBRANCH  47  71
BRANCH  59  82
ATOM     82  C   UNL A   1      44.596  27.446  34.666  1.00  0.00     0.064 A 
ATOM     83  C   UNL A   1      45.831  28.094  34.818  1.00  0.00     0.173 A 
ATOM     84  C   UNL A   1      44.357  26.290  35.423  1.00  0.00     0.173 A 
ATOM     85  F   UNL A   1      46.109  29.192  34.102  1.00  0.00    -0.203 F 
ATOM     86  C   UNL A   1      46.795  27.594  35.689  1.00  0.00     0.198 A 
ATOM     87  C   UNL A   1      45.316  25.805  36.306  1.00  0.00     0.198 A 
ATOM     88  F   UNL A   1      43.190  25.638  35.312  1.00  0.00    -0.203 F 
ATOM     89  F   UNL A   1      47.981  28.208  35.796  1.00  0.00    -0.200 F 
ATOM     90  C   UNL A   1      46.535  26.455  36.436  1.00  0.00     0.200 A 
ATOM     91  F   UNL A   1      45.061  24.708  37.034  1.00  0.00    -0.200 F 
ATOM     92  F   UNL A   1      47.463  25.978  37.278  1.00  0.00    -0.200 F 
ENDBRANCH  59  82
ENDBRANCH  33  34
ENDBRANCH  26  28
ENDBRANCH  25  26
ENDBRANCH  24  25
ENDBRANCH   1  24
TORSDOF 14
ENDMDL
MODEL 3
REMARK VINA RESULT:     -12.2      0.595      1.700
REMARK SMILES CC1=C(C)C[C@@H](C(=O)OCCOC(=O)c2ccc(-c3c4nc(c(-c5c(F)c(F)c(F)c(F)c5F)c5ccc([nH]5)c(-c5c(F)c(F)c(F)c(F)c5F)c5nc(c(-c6c(F)c(F)c(F)c(F)c6F)c6ccc3[nH]6)C=C5)C=C4)cc2)[C@H](C(=O)NCc2cccnc2)C1
REMARK SMILES IDX 10 1 9 2 7 3 8 4 6 5 1 6 2 7 3 8 89 9 4 10 5 11 78 12 79 13
REMARK SMILES IDX 80 14 81 15 82 17 83 18 84 19 88 20 85 21 87 22 86 23 11 24
REMARK SMILES IDX 12 25 13 26 14 27 15 28 16 29 77 30 17 31 76 32 18 33 19 34
REMARK SMILES IDX 20 35 70 36 21 37 75 38 69 39 71 40 22 41 74 42 68 43 67 44
REMARK SMILES IDX 23 46 55 47 35 48 54 49 36 50 39 51 53 52 72 53 37 54 38 55
REMARK SMILES IDX 52 57 73 58 40 59 24 60 25 61 33 62 26 63 27 64 31 65 34 66
REMARK SMILES IDX 28 67 29 68 32 69 30 70 56 71 57 72 65 73 58 74 59 75 63 76
REMARK SMILES IDX 66 77 60 78 61 79 64 80 62 81 41 82 42 83 50 84 43 85 44 86
REMARK SMILES IDX 48 87 51 88 45 89 46 90 49 91 47 92
REMARK H PARENT 81 16 71 45 39 56
REMARK Flexibility Score: inf
ROOT
ATOM      1  C   UNL A   1      31.760  28.196  26.814  1.00  0.00     0.274 C 
ENDROOT
BRANCH   1   2
ATOM      2  O   UNL A   1      32.211  27.278  25.799  1.00  0.00    -0.462 OA
BRANCH   2   3
ATOM      3  C   UNL A   1      31.396  26.217  25.572  1.00  0.00     0.310 C 
ATOM      4  O   UNL A   1      30.457  25.891  26.291  1.00  0.00    -0.252 OA
BRANCH   3   5
ATOM      5  C   UNL A   1      31.775  25.403  24.344  1.00  0.00     0.116 C 
ATOM      6  C   UNL A   1      35.090  22.409  24.235  1.00  0.00     0.039 C 
ATOM      7  C   UNL A   1      33.924  23.366  24.266  1.00  0.00    -0.074 C 
ATOM      8  C   UNL A   1      32.680  22.983  24.618  1.00  0.00    -0.073 C 
ATOM      9  C   UNL A   1      34.268  24.775  23.855  1.00  0.00     0.045 C 
ATOM     10  C   UNL A   1      32.302  21.567  24.981  1.00  0.00     0.039 C 
ATOM     11  C   UNL A   1      31.512  23.928  24.651  1.00  0.00     0.046 C 
ATOM     12  C   UNL A   1      33.126  25.783  23.723  1.00  0.00     0.097 C 
BRANCH  12  13
ATOM     13  C   UNL A   1      32.974  26.320  22.295  1.00  0.00     0.224 C 
ATOM     14  O   UNL A   1      33.331  25.628  21.337  1.00  0.00    -0.275 OA
ATOM     15  N   UNL A   1      32.508  27.552  21.993  1.00  0.00    -0.352 N 
ATOM     16  H   UNL A   1      32.536  27.767  21.032  1.00  0.00     0.163 HD
BRANCH  15  17
ATOM     17  C   UNL A   1      31.978  28.614  22.815  1.00  0.00     0.153 C 
BRANCH  17  18
ATOM     18  C   UNL A   1      30.529  28.907  22.552  1.00  0.00    -0.010 A 
ATOM     19  C   UNL A   1      29.533  28.237  23.272  1.00  0.00     0.009 A 
ATOM     20  C   UNL A   1      30.104  29.894  21.668  1.00  0.00     0.116 A 
ATOM     21  C   UNL A   1      28.193  28.563  23.079  1.00  0.00     0.020 A 
ATOM     22  N   UNL A   1      28.811  30.238  21.465  1.00  0.00    -0.264 NA
ATOM     23  C   UNL A   1      27.885  29.564  22.175  1.00  0.00     0.111 A 
ENDBRANCH  17  18
ENDBRANCH  15  17
ENDBRANCH  12  13
ENDBRANCH   3   5
ENDBRANCH   2   3
ENDBRANCH   1   2
BRANCH   1  24
ATOM     24  C   UNL A   1      31.770  29.641  26.311  1.00  0.00     0.275 C 
BRANCH  24  25
ATOM     25  O   UNL A   1      33.113  30.154  26.247  1.00  0.00    -0.458 OA
BRANCH  25  26
ATOM     26  C   UNL A   1      33.379  31.215  27.040  1.00  0.00     0.338 C 
ATOM     27  O   UNL A   1      32.699  32.221  27.190  1.00  0.00    -0.246 OA
BRANCH  26  28
ATOM     28  C   UNL A   1      34.642  30.971  27.749  1.00  0.00     0.060 A 
ATOM     29  C   UNL A   1      34.910  29.696  28.249  1.00  0.00     0.016 A 
ATOM     30  C   UNL A   1      35.541  32.016  27.964  1.00  0.00     0.016 A 
ATOM     31  C   UNL A   1      36.080  29.450  28.965  1.00  0.00     0.010 A 
ATOM     32  C   UNL A   1      36.725  31.767  28.665  1.00  0.00     0.010 A 
ATOM     33  C   UNL A   1      37.001  30.483  29.170  1.00  0.00    -0.014 A 
BRANCH  33  34
ATOM     34  C   UNL A   1      38.258  30.232  29.914  1.00  0.00     0.031 A 
ATOM     35  C   UNL A   1      39.296  29.314  29.346  1.00  0.00     0.074 A 
ATOM     36  C   UNL A   1      38.454  30.818  31.109  1.00  0.00     0.049 A 
ATOM     37  N   UNL A   1      40.363  28.814  29.918  1.00  0.00    -0.248 NA
ATOM     38  C   UNL A   1      39.113  28.900  27.946  1.00  0.00     0.031 C 
ATOM     39  C   UNL A   1      37.550  31.782  31.736  1.00  0.00     0.029 A 
ATOM     40  N   UNL A   1      39.474  30.674  32.017  1.00  0.00    -0.354 N 
ATOM     41  C   UNL A   1      40.967  28.016  28.958  1.00  0.00     0.074 A 
ATOM     42  C   UNL A   1      40.147  28.089  27.767  1.00  0.00     0.031 C 
ATOM     43  C   UNL A   1      38.045  32.130  32.935  1.00  0.00     0.029 A 
ATOM     44  C   UNL A   1      39.266  31.369  33.183  1.00  0.00     0.049 A 
ATOM     45  H   UNL A   1      40.274  30.127  31.850  1.00  0.00     0.167 HD
ATOM     46  C   UNL A   1      42.105  27.290  29.067  1.00  0.00     0.037 A 
ATOM     47  C   UNL A   1      39.954  31.354  34.340  1.00  0.00     0.037 A 
ATOM     48  C   UNL A   1      42.922  27.231  30.250  1.00  0.00     0.049 A 
ATOM     49  C   UNL A   1      41.161  30.466  34.467  1.00  0.00     0.074 A 
ATOM     50  C   UNL A   1      44.092  26.522  30.459  1.00  0.00     0.029 A 
ATOM     51  N   UNL A   1      42.654  27.914  31.427  1.00  0.00    -0.354 N 
ATOM     52  N   UNL A   1      41.705  29.678  33.573  1.00  0.00    -0.248 NA
ATOM     53  C   UNL A   1      41.838  30.449  35.773  1.00  0.00     0.031 C 
ATOM     54  C   UNL A   1      44.515  26.750  31.773  1.00  0.00     0.029 A 
ATOM     55  C   UNL A   1      43.625  27.626  32.373  1.00  0.00     0.049 A 
ATOM     56  H   UNL A   1      41.886  28.514  31.570  1.00  0.00     0.167 HD
ATOM     57  C   UNL A   1      42.783  29.072  34.202  1.00  0.00     0.074 A 
ATOM     58  C   UNL A   1      42.832  29.601  35.550  1.00  0.00     0.031 C 
ATOM     59  C   UNL A   1      43.649  28.153  33.711  1.00  0.00     0.037 A 
BRANCH  46  60
ATOM     60  C   UNL A   1      42.525  26.477  27.882  1.00  0.00     0.064 A 
ATOM     61  C   UNL A   1      42.020  25.188  27.661  1.00  0.00     0.173 A 
ATOM     62  C   UNL A   1      43.401  27.017  26.928  1.00  0.00     0.173 A 
ATOM     63  F   UNL A   1      41.188  24.628  28.550  1.00  0.00    -0.203 F 
ATOM     64  C   UNL A   1      42.385  24.463  26.529  1.00  0.00     0.198 A 
ATOM     65  C   UNL A   1      43.749  26.296  25.789  1.00  0.00     0.198 A 
ATOM     66  F   UNL A   1      43.906  28.248  27.093  1.00  0.00    -0.203 F 
ATOM     67  F   UNL A   1      41.909  23.224  26.347  1.00  0.00    -0.200 F 
ATOM     68  C   UNL A   1      43.244  25.020  25.591  1.00  0.00     0.200 A 
ATOM     69  F   UNL A   1      44.570  26.839  24.879  1.00  0.00    -0.200 F 
ATOM     70  F   UNL A   1      43.585  24.325  24.498  1.00  0.00    -0.200 F 
ENDBRANCH  46  60
BRANCH  47  71
ATOM     71  C   UNL A   1      39.474  32.154  35.495  1.00  0.00     0.064 A 
ATOM     72  C   UNL A   1      39.913  33.467  35.699  1.00  0.00     0.173 A 
ATOM     73  C   UNL A   1      38.573  31.611  36.424  1.00  0.00     0.173 A 
ATOM     74  F   UNL A   1      40.800  34.016  34.855  1.00  0.00    -0.203 F 
ATOM     75  C   UNL A   1      39.475  34.208  36.795  1.00  0.00     0.198 A 
ATOM     76  C   UNL A   1      38.116  32.362  37.505  1.00  0.00     0.198 A 
ATOM     77  F   UNL A   1      38.130  30.354  36.278  1.00  0.00    -0.203 F 
ATOM     78  F   UNL A   1      39.942  35.449  36.991  1.00  0.00    -0.200 F 
ATOM     79  C   UNL A   1      38.572  33.658  37.693  1.00  0.00     0.200 A 
ATOM     80  F   UNL A   1      37.239  31.828  38.366  1.00  0.00    -0.200 F 
ATOM     81  F   UNL A   1      38.151  34.371  38.746  1.00  0.00    -0.200 F 
ENDBRANCH  47  71
BRANCH  59  82
ATOM     82  C   UNL A   1      44.720  27.664  34.636  1.00  0.00     0.064 A 
ATOM     83  C   UNL A   1      45.922  28.369  34.791  1.00  0.00     0.173 A 
ATOM     84  C   UNL A   1      44.530  26.504  35.401  1.00  0.00     0.173 A 
ATOM     85  F   UNL A   1      46.155  29.474  34.067  1.00  0.00    -0.203 F 
ATOM     86  C   UNL A   1      46.903  27.923  35.673  1.00  0.00     0.198 A 
ATOM     87  C   UNL A   1      45.504  26.072  36.296  1.00  0.00     0.198 A 
ATOM     88  F   UNL A   1      43.396  25.798  35.288  1.00  0.00    -0.203 F 
ATOM     89  F   UNL A   1      48.057  28.593  35.783  1.00  0.00    -0.200 F 
ATOM     90  C   UNL A   1      46.690  26.779  36.428  1.00  0.00     0.200 A 
ATOM     91  F   UNL A   1      45.296  24.971  37.031  1.00  0.00    -0.200 F 
ATOM     92  F   UNL A   1      47.634  26.353  37.280  1.00  0.00    -0.200 F 
ENDBRANCH  59  82
ENDBRANCH  33  34
ENDBRANCH  26  28
ENDBRANCH  25  26
ENDBRANCH  24  25
ENDBRANCH   1  24
TORSDOF 14
ENDMDL
