MODEL 1
REMARK VINA RESULT:     -12.7      0.000      0.000
REMARK SMILES C=CC[C@@]1(C(=O)OCCOC(=O)c2ccc(-c3c4nc(c(-c5c(F)c(F)c(F)c(F)c5F)c5ccc([nH]5)c(-c5c(F)c(F)c(F)c(F)c5F)c5nc(c(-c6c(F)c(F)c(F)c(F)c6F)c6ccc3[nH]6)C=C5)C=C4)cc2)CCCN(C(=O)c2ccc3c(c2)OCO3)C1
REMARK SMILES IDX 8 1 7 2 5 3 6 4 4 5 76 6 91 7 77 8 79 9 78 10 3 11 2 12 1 13
REMARK SMILES IDX 80 14 81 15 82 16 83 17 87 18 84 19 86 20 85 21 88 22 90 23
REMARK SMILES IDX 89 24 9 25 10 26 11 27 12 28 13 29 14 30 75 31 15 32 74 33
REMARK SMILES IDX 16 34 17 35 18 36 68 37 19 38 73 39 67 40 69 41 20 42 72 43
REMARK SMILES IDX 66 44 65 45 21 47 53 48 33 49 52 50 34 51 37 52 51 53 70 54
REMARK SMILES IDX 35 55 36 56 50 58 71 59 38 60 22 61 23 62 31 63 24 64 25 65
REMARK SMILES IDX 29 66 32 67 26 68 27 69 30 70 28 71 54 72 55 73 63 74 56 75
REMARK SMILES IDX 57 76 61 77 64 78 58 79 59 80 62 81 60 82 39 83 40 84 48 85
REMARK SMILES IDX 41 86 42 87 46 88 49 89 43 90 44 91 47 92 45 93
REMARK H PARENT 69 46 37 57
REMARK Flexibility Score: inf
ROOT
ATOM      1  C   UNL A   1      32.024  28.732  26.401  1.00  0.00     0.274 C 
ENDROOT
BRANCH   1   2
ATOM      2  O   UNL A   1      31.048  28.477  25.368  1.00  0.00    -0.462 OA
BRANCH   2   3
ATOM      3  C   UNL A   1      31.500  28.356  24.089  1.00  0.00     0.314 C 
ATOM      4  O   UNL A   1      32.626  28.693  23.739  1.00  0.00    -0.252 OA
BRANCH   3   5
ATOM      5  C   UNL A   1      30.437  27.749  23.140  1.00  0.00     0.089 C 
ATOM      6  C   UNL A   1      29.462  26.857  23.945  1.00  0.00     0.023 C 
ATOM      7  C   UNL A   1      31.128  26.903  22.038  1.00  0.00     0.138 C 
ATOM      8  C   UNL A   1      30.063  25.526  24.397  1.00  0.00     0.023 C 
ATOM      9  N   UNL A   1      31.655  25.631  22.519  1.00  0.00    -0.337 N 
ATOM     10  C   UNL A   1      30.713  24.780  23.240  1.00  0.00     0.120 C 
BRANCH   5  11
ATOM     11  C   UNL A   1      29.704  28.944  22.419  1.00  0.00     0.047 C 
BRANCH  11  12
ATOM     12  C   UNL A   1      28.360  29.357  22.955  1.00  0.00    -0.034 C 
ATOM     13  C   UNL A   1      28.022  30.622  23.236  1.00  0.00     0.004 C 
ENDBRANCH  11  12
ENDBRANCH   5  11
BRANCH   9  14
ATOM     14  C   UNL A   1      32.949  25.264  22.154  1.00  0.00     0.254 C 
ATOM     15  O   UNL A   1      33.407  25.391  21.024  1.00  0.00    -0.269 OA
BRANCH  14  16
ATOM     16  C   UNL A   1      33.820  24.713  23.207  1.00  0.00     0.043 A 
ATOM     17  C   UNL A   1      34.132  25.505  24.335  1.00  0.00     0.018 A 
ATOM     18  C   UNL A   1      34.202  23.376  23.121  1.00  0.00     0.064 A 
ATOM     19  C   UNL A   1      34.783  24.942  25.432  1.00  0.00     0.051 A 
ATOM     20  C   UNL A   1      34.779  22.838  24.248  1.00  0.00     0.166 A 
ATOM     21  C   UNL A   1      35.050  23.594  25.371  1.00  0.00     0.165 A 
ATOM     22  O   UNL A   1      35.056  21.520  24.442  1.00  0.00    -0.454 OA
ATOM     23  O   UNL A   1      35.521  22.833  26.397  1.00  0.00    -0.454 OA
ATOM     24  C   UNL A   1      35.251  21.518  25.871  1.00  0.00     0.468 C 
ENDBRANCH  14  16
ENDBRANCH   9  14
ENDBRANCH   3   5
ENDBRANCH   2   3
ENDBRANCH   1   2
BRANCH   1  25
ATOM     25  C   UNL A   1      31.905  30.193  26.831  1.00  0.00     0.275 C 
BRANCH  25  26
ATOM     26  O   UNL A   1      33.165  30.810  26.557  1.00  0.00    -0.458 OA
BRANCH  26  27
ATOM     27  C   UNL A   1      33.533  31.803  27.399  1.00  0.00     0.338 C 
ATOM     28  O   UNL A   1      32.956  32.850  27.607  1.00  0.00    -0.246 OA
BRANCH  27  29
ATOM     29  C   UNL A   1      34.882  31.455  27.893  1.00  0.00     0.060 A 
ATOM     30  C   UNL A   1      35.885  32.424  28.021  1.00  0.00     0.016 A 
ATOM     31  C   UNL A   1      35.109  30.154  28.327  1.00  0.00     0.016 A 
ATOM     32  C   UNL A   1      37.108  32.109  28.602  1.00  0.00     0.010 A 
ATOM     33  C   UNL A   1      36.305  29.851  28.972  1.00  0.00     0.010 A 
ATOM     34  C   UNL A   1      37.305  30.829  29.127  1.00  0.00    -0.014 A 
BRANCH  34  35
ATOM     35  C   UNL A   1      38.528  30.495  29.889  1.00  0.00     0.031 A 
ATOM     36  C   UNL A   1      39.507  29.518  29.316  1.00  0.00     0.074 A 
ATOM     37  C   UNL A   1      38.691  30.994  31.129  1.00  0.00     0.049 A 
ATOM     38  N   UNL A   1      40.503  28.904  29.897  1.00  0.00    -0.248 NA
ATOM     39  C   UNL A   1      39.321  29.169  27.899  1.00  0.00     0.031 C 
ATOM     40  C   UNL A   1      37.807  31.967  31.775  1.00  0.00     0.029 A 
ATOM     41  N   UNL A   1      39.640  30.726  32.083  1.00  0.00    -0.354 N 
ATOM     42  C   UNL A   1      41.040  28.067  28.928  1.00  0.00     0.074 A 
ATOM     43  C   UNL A   1      40.248  28.237  27.730  1.00  0.00     0.031 C 
ATOM     44  C   UNL A   1      38.248  32.207  33.019  1.00  0.00     0.029 A 
ATOM     45  C   UNL A   1      39.402  31.355  33.281  1.00  0.00     0.049 A 
ATOM     46  H   UNL A   1      40.416  30.141  31.924  1.00  0.00     0.167 HD
ATOM     47  C   UNL A   1      42.102  27.233  29.041  1.00  0.00     0.037 A 
ATOM     48  C   UNL A   1      40.016  31.220  34.470  1.00  0.00     0.037 A 
ATOM     49  C   UNL A   1      42.877  27.087  30.247  1.00  0.00     0.049 A 
ATOM     50  C   UNL A   1      41.159  30.247  34.584  1.00  0.00     0.074 A 
ATOM     51  C   UNL A   1      43.990  26.297  30.468  1.00  0.00     0.029 A 
ATOM     52  N   UNL A   1      42.610  27.747  31.439  1.00  0.00    -0.354 N 
ATOM     53  N   UNL A   1      41.676  29.468  33.664  1.00  0.00    -0.248 NA
ATOM     54  C   UNL A   1      41.798  30.130  35.900  1.00  0.00     0.031 C 
ATOM     55  C   UNL A   1      44.362  26.435  31.809  1.00  0.00     0.029 A 
ATOM     56  C   UNL A   1      43.522  27.361  32.409  1.00  0.00     0.049 A 
ATOM     57  H   UNL A   1      41.881  28.395  31.577  1.00  0.00     0.167 HD
ATOM     58  C   UNL A   1      42.715  28.786  34.282  1.00  0.00     0.074 A 
ATOM     59  C   UNL A   1      42.765  29.259  35.650  1.00  0.00     0.031 C 
ATOM     60  C   UNL A   1      43.551  27.850  33.765  1.00  0.00     0.037 A 
BRANCH  47  61
ATOM     61  C   UNL A   1      42.459  26.398  27.846  1.00  0.00     0.064 A 
ATOM     62  C   UNL A   1      41.865  25.149  27.609  1.00  0.00     0.173 A 
ATOM     63  C   UNL A   1      43.398  26.863  26.912  1.00  0.00     0.173 A 
ATOM     64  F   UNL A   1      40.971  24.651  28.477  1.00  0.00    -0.203 F 
ATOM     65  C   UNL A   1      42.219  24.384  26.500  1.00  0.00     0.198 A 
ATOM     66  C   UNL A   1      43.726  26.110  25.787  1.00  0.00     0.198 A 
ATOM     67  F   UNL A   1      43.996  28.051  27.086  1.00  0.00    -0.203 F 
ATOM     68  F   UNL A   1      41.678  23.170  26.325  1.00  0.00    -0.200 F 
ATOM     69  C   UNL A   1      43.143  24.868  25.587  1.00  0.00     0.200 A 
ATOM     70  F   UNL A   1      44.609  26.586  24.898  1.00  0.00    -0.200 F 
ATOM     71  F   UNL A   1      43.479  24.133  24.517  1.00  0.00    -0.200 F 
ENDBRANCH  47  61
BRANCH  48  72
ATOM     72  C   UNL A   1      39.554  32.008  35.644  1.00  0.00     0.064 A 
ATOM     73  C   UNL A   1      40.104  33.265  35.927  1.00  0.00     0.173 A 
ATOM     74  C   UNL A   1      38.549  31.529  36.500  1.00  0.00     0.173 A 
ATOM     75  F   UNL A   1      41.082  33.756  35.152  1.00  0.00    -0.203 F 
ATOM     76  C   UNL A   1      39.682  34.004  37.030  1.00  0.00     0.198 A 
ATOM     77  C   UNL A   1      38.104  32.284  37.583  1.00  0.00     0.198 A 
ATOM     78  F   UNL A   1      37.986  30.333  36.274  1.00  0.00    -0.203 F 
ATOM     79  F   UNL A   1      40.259  35.183  37.303  1.00  0.00    -0.200 F 
ATOM     80  C   UNL A   1      38.677  33.518  37.852  1.00  0.00     0.200 A 
ATOM     81  F   UNL A   1      37.122  31.817  38.365  1.00  0.00    -0.200 F 
ATOM     82  F   UNL A   1      38.266  34.234  38.907  1.00  0.00    -0.200 F 
ENDBRANCH  48  72
BRANCH  60  83
ATOM     83  C   UNL A   1      44.613  27.310  34.678  1.00  0.00     0.064 A 
ATOM     84  C   UNL A   1      44.417  26.141  35.428  1.00  0.00     0.173 A 
ATOM     85  C   UNL A   1      45.855  27.955  34.777  1.00  0.00     0.173 A 
ATOM     86  F   UNL A   1      43.242  25.497  35.380  1.00  0.00    -0.203 F 
ATOM     87  C   UNL A   1      45.416  25.654  36.266  1.00  0.00     0.198 A 
ATOM     88  C   UNL A   1      46.863  27.446  35.589  1.00  0.00     0.198 A 
ATOM     89  F   UNL A   1      46.095  29.074  34.077  1.00  0.00    -0.203 F 
ATOM     90  F   UNL A   1      45.188  24.566  37.016  1.00  0.00    -0.200 F 
ATOM     91  C   UNL A   1      46.641  26.302  36.340  1.00  0.00     0.200 A 
ATOM     92  F   UNL A   1      48.051  28.064  35.647  1.00  0.00    -0.200 F 
ATOM     93  F   UNL A   1      47.604  25.827  37.141  1.00  0.00    -0.200 F 
ENDBRANCH  60  83
ENDBRANCH  34  35
ENDBRANCH  27  29
ENDBRANCH  26  27
ENDBRANCH  25  26
ENDBRANCH   1  25
TORSDOF 15
ENDMDL
MODEL 2
REMARK VINA RESULT:     -12.6      4.280      9.907
REMARK SMILES C=CC[C@@]1(C(=O)OCCOC(=O)c2ccc(-c3c4nc(c(-c5c(F)c(F)c(F)c(F)c5F)c5ccc([nH]5)c(-c5c(F)c(F)c(F)c(F)c5F)c5nc(c(-c6c(F)c(F)c(F)c(F)c6F)c6ccc3[nH]6)C=C5)C=C4)cc2)CCCN(C(=O)c2ccc3c(c2)OCO3)C1
REMARK SMILES IDX 8 1 7 2 5 3 6 4 4 5 76 6 91 7 77 8 79 9 78 10 3 11 2 12 1 13
REMARK SMILES IDX 80 14 81 15 82 16 83 17 87 18 84 19 86 20 85 21 88 22 90 23
REMARK SMILES IDX 89 24 9 25 10 26 11 27 12 28 13 29 14 30 75 31 15 32 74 33
REMARK SMILES IDX 16 34 17 35 18 36 68 37 19 38 73 39 67 40 69 41 20 42 72 43
REMARK SMILES IDX 66 44 65 45 21 47 53 48 33 49 52 50 34 51 37 52 51 53 70 54
REMARK SMILES IDX 35 55 36 56 50 58 71 59 38 60 22 61 23 62 31 63 24 64 25 65
REMARK SMILES IDX 29 66 32 67 26 68 27 69 30 70 28 71 54 72 55 73 63 74 56 75
REMARK SMILES IDX 57 76 61 77 64 78 58 79 59 80 62 81 60 82 39 83 40 84 48 85
REMARK SMILES IDX 41 86 42 87 46 88 49 89 43 90 44 91 47 92 45 93
REMARK H PARENT 69 46 37 57
REMARK Flexibility Score: inf
ROOT
ATOM      1  C   UNL A   1      36.146  20.468  24.975  1.00  0.00     0.274 C 
ENDROOT
BRANCH   1   2
ATOM      2  O   UNL A   1      35.022  21.246  24.510  1.00  0.00    -0.462 OA
BRANCH   2   3
ATOM      3  C   UNL A   1      33.986  21.438  25.373  1.00  0.00     0.314 C 
ATOM      4  O   UNL A   1      34.123  21.924  26.490  1.00  0.00    -0.252 OA
BRANCH   3   5
ATOM      5  C   UNL A   1      32.630  20.976  24.783  1.00  0.00     0.089 C 
ATOM      6  C   UNL A   1      32.564  21.329  23.277  1.00  0.00     0.023 C 
ATOM      7  C   UNL A   1      31.460  21.667  25.531  1.00  0.00     0.138 C 
ATOM      8  C   UNL A   1      32.372  22.819  22.993  1.00  0.00     0.023 C 
ATOM      9  N   UNL A   1      31.304  23.078  25.200  1.00  0.00    -0.337 N 
ATOM     10  C   UNL A   1      31.200  23.394  23.777  1.00  0.00     0.120 C 
BRANCH   5  11
ATOM     11  C   UNL A   1      32.500  19.427  25.044  1.00  0.00     0.047 C 
BRANCH  11  12
ATOM     12  C   UNL A   1      32.593  18.513  23.851  1.00  0.00    -0.034 C 
ATOM     13  C   UNL A   1      33.640  17.719  23.597  1.00  0.00     0.004 C 
ENDBRANCH  11  12
ENDBRANCH   5  11
BRANCH   9  14
ATOM     14  C   UNL A   1      31.135  23.993  26.237  1.00  0.00     0.254 C 
ATOM     15  O   UNL A   1      30.436  23.793  27.224  1.00  0.00    -0.269 OA
BRANCH  14  16
ATOM     16  C   UNL A   1      31.867  25.269  26.143  1.00  0.00     0.043 A 
ATOM     17  C   UNL A   1      33.276  25.254  26.020  1.00  0.00     0.018 A 
ATOM     18  C   UNL A   1      31.135  26.450  26.043  1.00  0.00     0.064 A 
ATOM     19  C   UNL A   1      33.969  26.427  25.729  1.00  0.00     0.051 A 
ATOM     20  C   UNL A   1      31.844  27.573  25.687  1.00  0.00     0.166 A 
ATOM     21  C   UNL A   1      33.216  27.560  25.524  1.00  0.00     0.165 A 
ATOM     22  O   UNL A   1      31.304  28.778  25.359  1.00  0.00    -0.454 OA
ATOM     23  O   UNL A   1      33.687  28.753  25.069  1.00  0.00    -0.454 OA
ATOM     24  C   UNL A   1      32.443  29.391  24.720  1.00  0.00     0.468 C 
ENDBRANCH  14  16
ENDBRANCH   9  14
ENDBRANCH   3   5
ENDBRANCH   2   3
ENDBRANCH   1   2
BRANCH   1  25
ATOM     25  C   UNL A   1      37.432  21.212  24.618  1.00  0.00     0.275 C 
BRANCH  25  26
ATOM     26  O   UNL A   1      37.927  21.789  25.829  1.00  0.00    -0.458 OA
BRANCH  26  27
ATOM     27  C   UNL A   1      39.204  21.479  26.152  1.00  0.00     0.338 C 
ATOM     28  O   UNL A   1      39.740  20.393  26.092  1.00  0.00    -0.246 OA
BRANCH  27  29
ATOM     29  C   UNL A   1      39.783  22.689  26.774  1.00  0.00     0.060 A 
ATOM     30  C   UNL A   1      40.817  22.602  27.715  1.00  0.00     0.016 A 
ATOM     31  C   UNL A   1      39.347  23.932  26.329  1.00  0.00     0.016 A 
ATOM     32  C   UNL A   1      41.436  23.749  28.199  1.00  0.00     0.010 A 
ATOM     33  C   UNL A   1      40.010  25.079  26.757  1.00  0.00     0.010 A 
ATOM     34  C   UNL A   1      41.067  24.994  27.682  1.00  0.00    -0.014 A 
BRANCH  34  35
ATOM     35  C   UNL A   1      41.802  26.223  28.052  1.00  0.00     0.031 A 
ATOM     36  C   UNL A   1      41.094  27.301  28.811  1.00  0.00     0.074 A 
ATOM     37  C   UNL A   1      43.062  26.397  27.611  1.00  0.00     0.049 A 
ATOM     38  N   UNL A   1      41.455  28.538  29.027  1.00  0.00    -0.248 NA
ATOM     39  C   UNL A   1      39.788  26.941  29.384  1.00  0.00     0.031 C 
ATOM     40  C   UNL A   1      43.850  25.403  26.880  1.00  0.00     0.029 A 
ATOM     41  N   UNL A   1      43.892  27.488  27.686  1.00  0.00    -0.354 N 
ATOM     42  C   UNL A   1      40.406  29.116  29.729  1.00  0.00     0.074 A 
ATOM     43  C   UNL A   1      39.387  28.101  29.884  1.00  0.00     0.031 C 
ATOM     44  C   UNL A   1      45.043  25.931  26.565  1.00  0.00     0.029 A 
ATOM     45  C   UNL A   1      45.076  27.319  27.009  1.00  0.00     0.049 A 
ATOM     46  H   UNL A   1      43.662  28.310  28.176  1.00  0.00     0.167 HD
ATOM     47  C   UNL A   1      40.312  30.383  30.197  1.00  0.00     0.037 A 
ATOM     48  C   UNL A   1      46.055  28.201  26.737  1.00  0.00     0.037 A 
ATOM     49  C   UNL A   1      41.346  31.373  30.033  1.00  0.00     0.049 A 
ATOM     50  C   UNL A   1      45.903  29.617  27.222  1.00  0.00     0.074 A 
ATOM     51  C   UNL A   1      41.374  32.678  30.490  1.00  0.00     0.029 A 
ATOM     52  N   UNL A   1      42.536  31.162  29.348  1.00  0.00    -0.354 N 
ATOM     53  N   UNL A   1      44.917  30.158  27.898  1.00  0.00    -0.248 NA
ATOM     54  C   UNL A   1      46.993  30.546  26.900  1.00  0.00     0.031 C 
ATOM     55  C   UNL A   1      42.554  33.273  30.034  1.00  0.00     0.029 A 
ATOM     56  C   UNL A   1      43.294  32.323  29.347  1.00  0.00     0.049 A 
ATOM     57  H   UNL A   1      42.803  30.314  28.926  1.00  0.00     0.167 HD
ATOM     58  C   UNL A   1      45.278  31.482  28.104  1.00  0.00     0.074 A 
ATOM     59  C   UNL A   1      46.581  31.656  27.497  1.00  0.00     0.031 C 
ATOM     60  C   UNL A   1      44.592  32.467  28.736  1.00  0.00     0.037 A 
BRANCH  47  61
ATOM     61  C   UNL A   1      39.042  30.774  30.895  1.00  0.00     0.064 A 
ATOM     62  C   UNL A   1      38.913  30.714  32.291  1.00  0.00     0.173 A 
ATOM     63  C   UNL A   1      37.940  31.234  30.157  1.00  0.00     0.173 A 
ATOM     64  F   UNL A   1      39.930  30.268  33.045  1.00  0.00    -0.203 F 
ATOM     65  C   UNL A   1      37.721  31.068  32.918  1.00  0.00     0.198 A 
ATOM     66  C   UNL A   1      36.761  31.620  30.789  1.00  0.00     0.198 A 
ATOM     67  F   UNL A   1      38.007  31.315  28.820  1.00  0.00    -0.203 F 
ATOM     68  F   UNL A   1      37.605  30.950  34.249  1.00  0.00    -0.200 F 
ATOM     69  C   UNL A   1      36.649  31.528  32.168  1.00  0.00     0.200 A 
ATOM     70  F   UNL A   1      35.731  32.077  30.064  1.00  0.00    -0.200 F 
ATOM     71  F   UNL A   1      35.505  31.875  32.774  1.00  0.00    -0.200 F 
ENDBRANCH  47  61
BRANCH  48  72
ATOM     72  C   UNL A   1      47.248  27.776  25.957  1.00  0.00     0.064 A 
ATOM     73  C   UNL A   1      48.427  27.384  26.604  1.00  0.00     0.173 A 
ATOM     74  C   UNL A   1      47.234  27.743  24.553  1.00  0.00     0.173 A 
ATOM     75  F   UNL A   1      48.498  27.419  27.943  1.00  0.00    -0.203 F 
ATOM     76  C   UNL A   1      49.551  26.993  25.879  1.00  0.00     0.198 A 
ATOM     77  C   UNL A   1      48.347  27.320  23.831  1.00  0.00     0.198 A 
ATOM     78  F   UNL A   1      46.131  28.106  23.883  1.00  0.00    -0.203 F 
ATOM     79  F   UNL A   1      50.681  26.668  26.524  1.00  0.00    -0.200 F 
ATOM     80  C   UNL A   1      49.508  26.953  24.494  1.00  0.00     0.200 A 
ATOM     81  F   UNL A   1      48.296  27.269  22.493  1.00  0.00    -0.200 F 
ATOM     82  F   UNL A   1      50.587  26.569  23.799  1.00  0.00    -0.200 F 
ENDBRANCH  48  72
BRANCH  60  83
ATOM     83  C   UNL A   1      45.261  33.807  28.832  1.00  0.00     0.064 A 
ATOM     84  C   UNL A   1      46.138  34.122  29.881  1.00  0.00     0.173 A 
ATOM     85  C   UNL A   1      45.047  34.778  27.841  1.00  0.00     0.173 A 
ATOM     86  F   UNL A   1      46.363  33.235  30.861  1.00  0.00    -0.203 F 
ATOM     87  C   UNL A   1      46.753  35.369  29.949  1.00  0.00     0.198 A 
ATOM     88  C   UNL A   1      45.690  36.010  27.894  1.00  0.00     0.198 A 
ATOM     89  F   UNL A   1      44.222  34.525  26.813  1.00  0.00    -0.203 F 
ATOM     90  F   UNL A   1      47.543  35.668  30.990  1.00  0.00    -0.200 F 
ATOM     91  C   UNL A   1      46.534  36.309  28.952  1.00  0.00     0.200 A 
ATOM     92  F   UNL A   1      45.491  36.911  26.922  1.00  0.00    -0.200 F 
ATOM     93  F   UNL A   1      47.133  37.506  29.016  1.00  0.00    -0.200 F 
ENDBRANCH  60  83
ENDBRANCH  34  35
ENDBRANCH  27  29
ENDBRANCH  26  27
ENDBRANCH  25  26
ENDBRANCH   1  25
TORSDOF 15
ENDMDL
MODEL 3
REMARK VINA RESULT:     -12.6      4.254      9.934
REMARK SMILES C=CC[C@@]1(C(=O)OCCOC(=O)c2ccc(-c3c4nc(c(-c5c(F)c(F)c(F)c(F)c5F)c5ccc([nH]5)c(-c5c(F)c(F)c(F)c(F)c5F)c5nc(c(-c6c(F)c(F)c(F)c(F)c6F)c6ccc3[nH]6)C=C5)C=C4)cc2)CCCN(C(=O)c2ccc3c(c2)OCO3)C1
REMARK SMILES IDX 8 1 7 2 5 3 6 4 4 5 76 6 91 7 77 8 79 9 78 10 3 11 2 12 1 13
REMARK SMILES IDX 80 14 81 15 82 16 83 17 87 18 84 19 86 20 85 21 88 22 90 23
REMARK SMILES IDX 89 24 9 25 10 26 11 27 12 28 13 29 14 30 75 31 15 32 74 33
REMARK SMILES IDX 16 34 17 35 18 36 68 37 19 38 73 39 67 40 69 41 20 42 72 43
REMARK SMILES IDX 66 44 65 45 21 47 53 48 33 49 52 50 34 51 37 52 51 53 70 54
REMARK SMILES IDX 35 55 36 56 50 58 71 59 38 60 22 61 23 62 31 63 24 64 25 65
REMARK SMILES IDX 29 66 32 67 26 68 27 69 30 70 28 71 54 72 55 73 63 74 56 75
REMARK SMILES IDX 57 76 61 77 64 78 58 79 59 80 62 81 60 82 39 83 40 84 48 85
REMARK SMILES IDX 41 86 42 87 46 88 49 89 43 90 44 91 47 92 45 93
REMARK H PARENT 69 46 37 57
REMARK Flexibility Score: inf
ROOT
ATOM      1  C   UNL A   1      36.119  20.350  24.907  1.00  0.00     0.274 C 
ENDROOT
BRANCH   1   2
ATOM      2  O   UNL A   1      35.005  21.189  24.532  1.00  0.00    -0.462 OA
BRANCH   2   3
ATOM      3  C   UNL A   1      33.976  21.305  25.417  1.00  0.00     0.314 C 
ATOM      4  O   UNL A   1      34.120  21.711  26.565  1.00  0.00    -0.252 OA
BRANCH   3   5
ATOM      5  C   UNL A   1      32.620  20.872  24.808  1.00  0.00     0.089 C 
ATOM      6  C   UNL A   1      32.575  21.240  23.306  1.00  0.00     0.023 C 
ATOM      7  C   UNL A   1      31.453  21.575  25.551  1.00  0.00     0.138 C 
ATOM      8  C   UNL A   1      32.410  22.736  23.034  1.00  0.00     0.023 C 
ATOM      9  N   UNL A   1      31.323  22.992  25.231  1.00  0.00    -0.337 N 
ATOM     10  C   UNL A   1      31.240  23.323  23.811  1.00  0.00     0.120 C 
BRANCH   5  11
ATOM     11  C   UNL A   1      32.461  19.323  25.053  1.00  0.00     0.047 C 
BRANCH  11  12
ATOM     12  C   UNL A   1      32.577  18.416  23.857  1.00  0.00    -0.034 C 
ATOM     13  C   UNL A   1      33.671  17.704  23.561  1.00  0.00     0.004 C 
ENDBRANCH  11  12
ENDBRANCH   5  11
BRANCH   9  14
ATOM     14  C   UNL A   1      31.159  23.900  26.276  1.00  0.00     0.254 C 
ATOM     15  O   UNL A   1      30.442  23.704  27.251  1.00  0.00    -0.269 OA
BRANCH  14  16
ATOM     16  C   UNL A   1      31.919  25.161  26.205  1.00  0.00     0.043 A 
ATOM     17  C   UNL A   1      33.317  25.119  26.005  1.00  0.00     0.018 A 
ATOM     18  C   UNL A   1      31.214  26.362  26.203  1.00  0.00     0.064 A 
ATOM     19  C   UNL A   1      34.025  26.288  25.735  1.00  0.00     0.051 A 
ATOM     20  C   UNL A   1      31.932  27.485  25.865  1.00  0.00     0.166 A 
ATOM     21  C   UNL A   1      33.292  27.448  25.627  1.00  0.00     0.165 A 
ATOM     22  O   UNL A   1      31.407  28.717  25.626  1.00  0.00    -0.454 OA
ATOM     23  O   UNL A   1      33.770  28.651  25.206  1.00  0.00    -0.454 OA
ATOM     24  C   UNL A   1      32.526  29.335  24.957  1.00  0.00     0.468 C 
ENDBRANCH  14  16
ENDBRANCH   9  14
ENDBRANCH   3   5
ENDBRANCH   2   3
ENDBRANCH   1   2
BRANCH   1  25
ATOM     25  C   UNL A   1      37.414  21.109  24.624  1.00  0.00     0.275 C 
BRANCH  25  26
ATOM     26  O   UNL A   1      37.897  21.590  25.881  1.00  0.00    -0.458 OA
BRANCH  26  27
ATOM     27  C   UNL A   1      39.201  21.348  26.145  1.00  0.00     0.338 C 
ATOM     28  O   UNL A   1      39.792  20.292  26.054  1.00  0.00    -0.246 OA
BRANCH  27  29
ATOM     29  C   UNL A   1      39.742  22.583  26.751  1.00  0.00     0.060 A 
ATOM     30  C   UNL A   1      40.720  22.538  27.752  1.00  0.00     0.016 A 
ATOM     31  C   UNL A   1      39.330  23.806  26.232  1.00  0.00     0.016 A 
ATOM     32  C   UNL A   1      41.308  23.706  28.224  1.00  0.00     0.010 A 
ATOM     33  C   UNL A   1      39.966  24.971  26.651  1.00  0.00     0.010 A 
ATOM     34  C   UNL A   1      40.968  24.927  27.638  1.00  0.00    -0.014 A 
BRANCH  34  35
ATOM     35  C   UNL A   1      41.679  26.174  27.999  1.00  0.00     0.031 A 
ATOM     36  C   UNL A   1      40.942  27.253  28.729  1.00  0.00     0.074 A 
ATOM     37  C   UNL A   1      42.943  26.359  27.578  1.00  0.00     0.049 A 
ATOM     38  N   UNL A   1      41.282  28.499  28.931  1.00  0.00    -0.248 NA
ATOM     39  C   UNL A   1      39.632  26.883  29.286  1.00  0.00     0.031 C 
ATOM     40  C   UNL A   1      43.758  25.365  26.876  1.00  0.00     0.029 A 
ATOM     41  N   UNL A   1      43.756  27.463  27.648  1.00  0.00    -0.354 N 
ATOM     42  C   UNL A   1      40.213  29.072  29.605  1.00  0.00     0.074 A 
ATOM     43  C   UNL A   1      39.206  28.045  29.760  1.00  0.00     0.031 C 
ATOM     44  C   UNL A   1      44.949  25.904  26.572  1.00  0.00     0.029 A 
ATOM     45  C   UNL A   1      44.954  27.300  26.994  1.00  0.00     0.049 A 
ATOM     46  H   UNL A   1      43.506  28.290  28.120  1.00  0.00     0.167 HD
ATOM     47  C   UNL A   1      40.093  30.346  30.050  1.00  0.00     0.037 A 
ATOM     48  C   UNL A   1      45.924  28.192  26.724  1.00  0.00     0.037 A 
ATOM     49  C   UNL A   1      41.115  31.348  29.887  1.00  0.00     0.049 A 
ATOM     50  C   UNL A   1      45.744  29.613  27.182  1.00  0.00     0.074 A 
ATOM     51  C   UNL A   1      41.116  32.660  30.323  1.00  0.00     0.029 A 
ATOM     52  N   UNL A   1      42.319  31.143  29.226  1.00  0.00    -0.354 N 
ATOM     53  N   UNL A   1      44.739  30.151  27.833  1.00  0.00    -0.248 NA
ATOM     54  C   UNL A   1      46.826  30.553  26.864  1.00  0.00     0.031 C 
ATOM     55  C   UNL A   1      42.295  33.265  29.878  1.00  0.00     0.029 A 
ATOM     56  C   UNL A   1      43.060  32.315  29.219  1.00  0.00     0.049 A 
ATOM     57  H   UNL A   1      42.606  30.292  28.822  1.00  0.00     0.167 HD
ATOM     58  C   UNL A   1      45.077  31.483  28.023  1.00  0.00     0.074 A 
ATOM     59  C   UNL A   1      46.388  31.666  27.435  1.00  0.00     0.031 C 
ATOM     60  C   UNL A   1      44.366  32.468  28.627  1.00  0.00     0.037 A 
BRANCH  47  61
ATOM     61  C   UNL A   1      38.806  30.728  30.721  1.00  0.00     0.064 A 
ATOM     62  C   UNL A   1      37.679  31.135  29.989  1.00  0.00     0.173 A 
ATOM     63  C   UNL A   1      38.690  30.669  32.118  1.00  0.00     0.173 A 
ATOM     64  F   UNL A   1      37.739  31.223  28.652  1.00  0.00    -0.203 F 
ATOM     65  C   UNL A   1      36.498  31.498  30.631  1.00  0.00     0.198 A 
ATOM     66  C   UNL A   1      37.497  31.001  32.756  1.00  0.00     0.198 A 
ATOM     67  F   UNL A   1      39.732  30.285  32.869  1.00  0.00    -0.203 F 
ATOM     68  F   UNL A   1      35.454  31.936  29.913  1.00  0.00    -0.200 F 
ATOM     69  C   UNL A   1      36.405  31.424  32.013  1.00  0.00     0.200 A 
ATOM     70  F   UNL A   1      37.404  30.915  34.090  1.00  0.00    -0.200 F 
ATOM     71  F   UNL A   1      35.265  31.768  32.629  1.00  0.00    -0.200 F 
ENDBRANCH  47  61
BRANCH  48  72
ATOM     72  C   UNL A   1      47.136  27.772  25.971  1.00  0.00     0.064 A 
ATOM     73  C   UNL A   1      48.292  27.354  26.645  1.00  0.00     0.173 A 
ATOM     74  C   UNL A   1      47.165  27.769  24.567  1.00  0.00     0.173 A 
ATOM     75  F   UNL A   1      48.323  27.360  27.985  1.00  0.00    -0.203 F 
ATOM     76  C   UNL A   1      49.434  26.968  25.946  1.00  0.00     0.198 A 
ATOM     77  C   UNL A   1      48.296  27.351  23.869  1.00  0.00     0.198 A 
ATOM     78  F   UNL A   1      46.086  28.156  23.872  1.00  0.00    -0.203 F 
ATOM     79  F   UNL A   1      50.540  26.618  26.617  1.00  0.00    -0.200 F 
ATOM     80  C   UNL A   1      49.433  26.959  24.559  1.00  0.00     0.200 A 
ATOM     81  F   UNL A   1      48.285  27.328  22.529  1.00  0.00    -0.200 F 
ATOM     82  F   UNL A   1      50.528  26.579  23.889  1.00  0.00    -0.200 F 
ENDBRANCH  48  72
BRANCH  60  83
ATOM     83  C   UNL A   1      45.015  33.819  28.712  1.00  0.00     0.064 A 
ATOM     84  C   UNL A   1      44.791  34.809  27.743  1.00  0.00     0.173 A 
ATOM     85  C   UNL A   1      45.846  34.138  29.798  1.00  0.00     0.173 A 
ATOM     86  F   UNL A   1      44.019  34.548  26.678  1.00  0.00    -0.203 F 
ATOM     87  C   UNL A   1      45.399  36.057  27.843  1.00  0.00     0.198 A 
ATOM     88  C   UNL A   1      46.424  35.398  29.912  1.00  0.00     0.198 A 
ATOM     89  F   UNL A   1      46.087  33.229  30.755  1.00  0.00    -0.203 F 
ATOM     90  F   UNL A   1      45.216  36.968  26.877  1.00  0.00    -0.200 F 
ATOM     91  C   UNL A   1      46.208  36.353  28.930  1.00  0.00     0.200 A 
ATOM     92  F   UNL A   1      47.191  35.688  30.971  1.00  0.00    -0.200 F 
ATOM     93  F   UNL A   1      46.786  37.558  29.028  1.00  0.00    -0.200 F 
ENDBRANCH  60  83
ENDBRANCH  34  35
ENDBRANCH  27  29
ENDBRANCH  26  27
ENDBRANCH  25  26
ENDBRANCH   1  25
TORSDOF 15
ENDMDL
