MODEL 1
REMARK VINA RESULT:     -12.2      0.000      0.000
REMARK SMILES C[C@]1(C(=O)N2CCC(CC(=O)OCCOC(=O)c3ccc(-c4c5nc(c(-c6c(F)c(F)c(F)c(F)c6F)c6ccc([nH]6)c(-c6c(F)c(F)c(F)c(F)c6F)c6nc(c(-c7c(F)c(F)c(F)c(F)c7F)c7ccc4[nH]7)C=C6)C=C5)cc3)CC2)CCC[NH2+]1
REMARK SMILES IDX 13 1 12 2 10 3 11 4 9 5 8 6 3 7 4 8 5 9 6 10 82 11 7 12
REMARK SMILES IDX 81 13 2 14 1 15 83 16 86 17 84 18 85 19 14 22 15 23 16 24
REMARK SMILES IDX 17 25 18 26 19 27 80 28 20 29 79 30 21 31 22 32 23 33 73 34
REMARK SMILES IDX 24 35 78 36 72 37 74 38 25 39 77 40 71 41 70 42 26 44 58 45
REMARK SMILES IDX 38 46 57 47 39 48 42 49 56 50 75 51 40 52 41 53 55 55 76 56
REMARK SMILES IDX 43 57 27 58 28 59 36 60 29 61 30 62 34 63 37 64 31 65 32 66
REMARK SMILES IDX 35 67 33 68 59 69 60 70 68 71 61 72 62 73 66 74 69 75 63 76
REMARK SMILES IDX 64 77 67 78 65 79 44 80 45 81 53 82 46 83 47 84 51 85 54 86
REMARK SMILES IDX 48 87 49 88 52 89 50 90
REMARK H PARENT 86 20 86 21 74 43 42 54
REMARK Flexibility Score: inf
ROOT
ATOM      1  C   UNL A   1      31.581  28.569  24.971  1.00  0.00     0.274 C 
ENDROOT
BRANCH   1   2
ATOM      2  O   UNL A   1      32.608  27.638  25.361  1.00  0.00    -0.462 OA
BRANCH   2   3
ATOM      3  C   UNL A   1      32.228  26.572  26.105  1.00  0.00     0.306 C 
ATOM      4  O   UNL A   1      31.233  26.536  26.820  1.00  0.00    -0.252 OA
BRANCH   3   5
ATOM      5  C   UNL A   1      33.206  25.419  26.008  1.00  0.00     0.126 C 
BRANCH   5   6
ATOM      6  C   UNL A   1      32.798  24.279  25.059  1.00  0.00     0.003 C 
ATOM      7  C   UNL A   1      33.829  20.515  24.781  1.00  0.00     0.283 C 
ATOM      8  O   UNL A   1      34.862  20.820  25.379  1.00  0.00    -0.268 OA
ATOM      9  N   UNL A   1      32.995  21.490  24.238  1.00  0.00    -0.337 N 
ATOM     10  C   UNL A   1      33.619  22.523  23.431  1.00  0.00     0.120 C 
ATOM     11  C   UNL A   1      31.815  21.925  24.969  1.00  0.00     0.120 C 
ATOM     12  C   UNL A   1      34.002  23.738  24.267  1.00  0.00     0.026 C 
ATOM     13  C   UNL A   1      32.135  23.134  25.854  1.00  0.00     0.026 C 
BRANCH   7  14
ATOM     14  C   UNL A   1      33.379  19.040  24.548  1.00  0.00     0.173 C 
ATOM     15  C   UNL A   1      32.398  18.931  23.377  1.00  0.00     0.090 C 
ATOM     16  C   UNL A   1      34.572  18.093  24.416  1.00  0.00     0.084 C 
ATOM     17  N   UNL A   1      32.761  18.529  25.795  1.00  0.00    -0.334 N 
ATOM     18  C   UNL A   1      34.037  16.746  24.875  1.00  0.00     0.068 C 
ATOM     19  C   UNL A   1      32.907  17.081  25.837  1.00  0.00     0.261 C 
ATOM     20  H   UNL A   1      31.771  18.774  25.812  1.00  0.00     0.347 HD
ATOM     21  H   UNL A   1      33.222  18.946  26.605  1.00  0.00     0.347 HD
ENDBRANCH   7  14
ENDBRANCH   5   6
ENDBRANCH   3   5
ENDBRANCH   2   3
ENDBRANCH   1   2
BRANCH   1  22
ATOM     22  C   UNL A   1      31.712  29.892  25.729  1.00  0.00     0.275 C 
BRANCH  22  23
ATOM     23  O   UNL A   1      33.093  30.205  25.984  1.00  0.00    -0.458 OA
BRANCH  23  24
ATOM     24  C   UNL A   1      33.310  31.196  26.879  1.00  0.00     0.338 C 
ATOM     25  O   UNL A   1      32.571  32.122  27.163  1.00  0.00    -0.246 OA
BRANCH  24  26
ATOM     26  C   UNL A   1      34.574  30.934  27.583  1.00  0.00     0.060 A 
ATOM     27  C   UNL A   1      34.862  29.622  27.969  1.00  0.00     0.016 A 
ATOM     28  C   UNL A   1      35.440  31.980  27.903  1.00  0.00     0.016 A 
ATOM     29  C   UNL A   1      36.031  29.349  28.677  1.00  0.00     0.010 A 
ATOM     30  C   UNL A   1      36.611  31.704  28.613  1.00  0.00     0.010 A 
ATOM     31  C   UNL A   1      36.909  30.388  29.009  1.00  0.00    -0.014 A 
BRANCH  31  32
ATOM     32  C   UNL A   1      38.133  30.108  29.796  1.00  0.00     0.031 A 
ATOM     33  C   UNL A   1      39.180  29.185  29.248  1.00  0.00     0.074 A 
ATOM     34  C   UNL A   1      38.293  30.672  31.006  1.00  0.00     0.049 A 
ATOM     35  N   UNL A   1      40.274  28.743  29.815  1.00  0.00    -0.248 NA
ATOM     36  C   UNL A   1      38.965  28.690  27.880  1.00  0.00     0.031 C 
ATOM     37  C   UNL A   1      37.354  31.603  31.633  1.00  0.00     0.029 A 
ATOM     38  N   UNL A   1      39.296  30.532  31.932  1.00  0.00    -0.354 N 
ATOM     39  C   UNL A   1      40.869  27.904  28.882  1.00  0.00     0.074 A 
ATOM     40  C   UNL A   1      40.007  27.886  27.718  1.00  0.00     0.031 C 
ATOM     41  C   UNL A   1      37.820  31.940  32.847  1.00  0.00     0.029 A 
ATOM     42  C   UNL A   1      39.066  31.221  33.096  1.00  0.00     0.049 A 
ATOM     43  H   UNL A   1      40.102  29.988  31.776  1.00  0.00     0.167 HD
ATOM     44  C   UNL A   1      42.029  27.215  28.991  1.00  0.00     0.037 A 
ATOM     45  C   UNL A   1      39.767  31.245  34.246  1.00  0.00     0.037 A 
ATOM     46  C   UNL A   1      42.889  27.248  30.145  1.00  0.00     0.049 A 
ATOM     47  C   UNL A   1      41.029  30.434  34.358  1.00  0.00     0.074 A 
ATOM     48  C   UNL A   1      44.108  26.618  30.332  1.00  0.00     0.029 A 
ATOM     49  N   UNL A   1      42.616  27.943  31.313  1.00  0.00    -0.354 N 
ATOM     50  N   UNL A   1      41.598  29.663  33.463  1.00  0.00    -0.248 NA
ATOM     51  C   UNL A   1      41.744  30.493  35.640  1.00  0.00     0.031 C 
ATOM     52  C   UNL A   1      44.551  26.897  31.630  1.00  0.00     0.029 A 
ATOM     53  C   UNL A   1      43.629  27.736  32.235  1.00  0.00     0.049 A 
ATOM     54  H   UNL A   1      41.820  28.503  31.464  1.00  0.00     0.167 HD
ATOM     55  C   UNL A   1      42.742  29.158  34.066  1.00  0.00     0.074 A 
ATOM     56  C   UNL A   1      42.796  29.721  35.399  1.00  0.00     0.031 C 
ATOM     57  C   UNL A   1      43.664  28.302  33.561  1.00  0.00     0.037 A 
BRANCH  44  58
ATOM     58  C   UNL A   1      42.426  26.343  27.837  1.00  0.00     0.064 A 
ATOM     59  C   UNL A   1      41.902  25.053  27.672  1.00  0.00     0.173 A 
ATOM     60  C   UNL A   1      43.317  26.821  26.864  1.00  0.00     0.173 A 
ATOM     61  F   UNL A   1      41.057  24.547  28.583  1.00  0.00    -0.203 F 
ATOM     62  C   UNL A   1      42.273  24.264  26.586  1.00  0.00     0.198 A 
ATOM     63  C   UNL A   1      43.666  26.039  25.766  1.00  0.00     0.198 A 
ATOM     64  F   UNL A   1      43.843  28.050  26.974  1.00  0.00    -0.203 F 
ATOM     65  F   UNL A   1      41.791  23.019  26.470  1.00  0.00    -0.200 F 
ATOM     66  C   UNL A   1      43.149  24.759  25.633  1.00  0.00     0.200 A 
ATOM     67  F   UNL A   1      44.506  26.521  24.841  1.00  0.00    -0.200 F 
ATOM     68  F   UNL A   1      43.501  24.000  24.586  1.00  0.00    -0.200 F 
ENDBRANCH  44  58
BRANCH  45  69
ATOM     69  C   UNL A   1      39.274  32.050  35.391  1.00  0.00     0.064 A 
ATOM     70  C   UNL A   1      38.462  31.479  36.379  1.00  0.00     0.173 A 
ATOM     71  C   UNL A   1      39.610  33.407  35.521  1.00  0.00     0.173 A 
ATOM     72  F   UNL A   1      38.093  30.194  36.282  1.00  0.00    -0.203 F 
ATOM     73  C   UNL A   1      37.996  32.238  37.452  1.00  0.00     0.198 A 
ATOM     74  C   UNL A   1      39.165  34.156  36.607  1.00  0.00     0.198 A 
ATOM     75  F   UNL A   1      40.382  33.998  34.599  1.00  0.00    -0.203 F 
ATOM     76  F   UNL A   1      37.190  31.678  38.364  1.00  0.00    -0.200 F 
ATOM     77  C   UNL A   1      38.354  33.572  37.569  1.00  0.00     0.200 A 
ATOM     78  F   UNL A   1      39.520  35.443  36.721  1.00  0.00    -0.200 F 
ATOM     79  F   UNL A   1      37.910  34.298  38.604  1.00  0.00    -0.200 F 
ENDBRANCH  45  69
BRANCH  57  80
ATOM     80  C   UNL A   1      44.817  27.936  34.446  1.00  0.00     0.064 A 
ATOM     81  C   UNL A   1      45.984  28.713  34.486  1.00  0.00     0.173 A 
ATOM     82  C   UNL A   1      44.739  26.821  35.295  1.00  0.00     0.173 A 
ATOM     83  F   UNL A   1      46.114  29.778  33.682  1.00  0.00    -0.203 F 
ATOM     84  C   UNL A   1      47.040  28.375  35.330  1.00  0.00     0.198 A 
ATOM     85  C   UNL A   1      45.785  26.502  36.155  1.00  0.00     0.198 A 
ATOM     86  F   UNL A   1      43.641  26.050  35.297  1.00  0.00    -0.203 F 
ATOM     87  F   UNL A   1      48.161  29.108  35.324  1.00  0.00    -0.200 F 
ATOM     88  C   UNL A   1      46.936  27.274  36.169  1.00  0.00     0.200 A 
ATOM     89  F   UNL A   1      45.679  25.444  36.972  1.00  0.00    -0.200 F 
ATOM     90  F   UNL A   1      47.949  26.956  36.985  1.00  0.00    -0.200 F 
ENDBRANCH  57  80
ENDBRANCH  31  32
ENDBRANCH  24  26
ENDBRANCH  23  24
ENDBRANCH  22  23
ENDBRANCH   1  22
TORSDOF 13
ENDMDL
MODEL 2
REMARK VINA RESULT:     -12.1      0.226      1.995
REMARK SMILES C[C@]1(C(=O)N2CCC(CC(=O)OCCOC(=O)c3ccc(-c4c5nc(c(-c6c(F)c(F)c(F)c(F)c6F)c6ccc([nH]6)c(-c6c(F)c(F)c(F)c(F)c6F)c6nc(c(-c7c(F)c(F)c(F)c(F)c7F)c7ccc4[nH]7)C=C6)C=C5)cc3)CC2)CCC[NH2+]1
REMARK SMILES IDX 13 1 12 2 10 3 11 4 9 5 8 6 3 7 4 8 5 9 6 10 82 11 7 12
REMARK SMILES IDX 81 13 2 14 1 15 83 16 86 17 84 18 85 19 14 22 15 23 16 24
REMARK SMILES IDX 17 25 18 26 19 27 80 28 20 29 79 30 21 31 22 32 23 33 73 34
REMARK SMILES IDX 24 35 78 36 72 37 74 38 25 39 77 40 71 41 70 42 26 44 58 45
REMARK SMILES IDX 38 46 57 47 39 48 42 49 56 50 75 51 40 52 41 53 55 55 76 56
REMARK SMILES IDX 43 57 27 58 28 59 36 60 29 61 30 62 34 63 37 64 31 65 32 66
REMARK SMILES IDX 35 67 33 68 59 69 60 70 68 71 61 72 62 73 66 74 69 75 63 76
REMARK SMILES IDX 64 77 67 78 65 79 44 80 45 81 53 82 46 83 47 84 51 85 54 86
REMARK SMILES IDX 48 87 49 88 52 89 50 90
REMARK H PARENT 86 20 86 21 74 43 42 54
REMARK Flexibility Score: inf
ROOT
ATOM      1  C   UNL A   1      31.400  28.492  25.268  1.00  0.00     0.274 C 
ENDROOT
BRANCH   1   2
ATOM      2  O   UNL A   1      32.472  27.628  25.689  1.00  0.00    -0.462 OA
BRANCH   2   3
ATOM      3  C   UNL A   1      32.129  26.426  26.211  1.00  0.00     0.306 C 
ATOM      4  O   UNL A   1      31.123  26.212  26.876  1.00  0.00    -0.252 OA
BRANCH   3   5
ATOM      5  C   UNL A   1      33.167  25.357  25.934  1.00  0.00     0.126 C 
BRANCH   5   6
ATOM      6  C   UNL A   1      32.709  24.211  25.013  1.00  0.00     0.003 C 
ATOM      7  C   UNL A   1      33.803  20.473  24.631  1.00  0.00     0.283 C 
ATOM      8  O   UNL A   1      34.874  20.801  25.144  1.00  0.00    -0.268 OA
ATOM      9  N   UNL A   1      32.905  21.431  24.163  1.00  0.00    -0.337 N 
ATOM     10  C   UNL A   1      33.436  22.481  23.314  1.00  0.00     0.120 C 
ATOM     11  C   UNL A   1      31.778  21.834  24.990  1.00  0.00     0.120 C 
ATOM     12  C   UNL A   1      33.857  23.702  24.123  1.00  0.00     0.026 C 
ATOM     13  C   UNL A   1      32.140  23.047  25.854  1.00  0.00     0.026 C 
BRANCH   7  14
ATOM     14  C   UNL A   1      33.371  18.989  24.426  1.00  0.00     0.173 C 
ATOM     15  C   UNL A   1      32.377  18.848  23.269  1.00  0.00     0.090 C 
ATOM     16  C   UNL A   1      34.574  18.056  24.295  1.00  0.00     0.084 C 
ATOM     17  N   UNL A   1      32.774  18.490  25.689  1.00  0.00    -0.334 N 
ATOM     18  C   UNL A   1      34.063  16.710  24.782  1.00  0.00     0.068 C 
ATOM     19  C   UNL A   1      32.940  17.045  25.751  1.00  0.00     0.261 C 
ATOM     20  H   UNL A   1      31.781  18.721  25.713  1.00  0.00     0.347 HD
ATOM     21  H   UNL A   1      33.239  18.925  26.486  1.00  0.00     0.347 HD
ENDBRANCH   7  14
ENDBRANCH   5   6
ENDBRANCH   3   5
ENDBRANCH   2   3
ENDBRANCH   1   2
BRANCH   1  22
ATOM     22  C   UNL A   1      31.776  29.966  25.434  1.00  0.00     0.275 C 
BRANCH  22  23
ATOM     23  O   UNL A   1      33.125  30.103  25.916  1.00  0.00    -0.458 OA
BRANCH  23  24
ATOM     24  C   UNL A   1      33.309  31.045  26.871  1.00  0.00     0.338 C 
ATOM     25  O   UNL A   1      32.541  31.928  27.208  1.00  0.00    -0.246 OA
BRANCH  24  26
ATOM     26  C   UNL A   1      34.580  30.780  27.561  1.00  0.00     0.060 A 
ATOM     27  C   UNL A   1      34.850  29.474  27.983  1.00  0.00     0.016 A 
ATOM     28  C   UNL A   1      35.472  31.818  27.834  1.00  0.00     0.016 A 
ATOM     29  C   UNL A   1      36.025  29.200  28.680  1.00  0.00     0.010 A 
ATOM     30  C   UNL A   1      36.649  31.540  28.533  1.00  0.00     0.010 A 
ATOM     31  C   UNL A   1      36.929  30.232  28.965  1.00  0.00    -0.014 A 
BRANCH  31  32
ATOM     32  C   UNL A   1      38.160  29.952  29.740  1.00  0.00     0.031 A 
ATOM     33  C   UNL A   1      39.198  29.023  29.185  1.00  0.00     0.074 A 
ATOM     34  C   UNL A   1      38.335  30.522  30.945  1.00  0.00     0.049 A 
ATOM     35  N   UNL A   1      40.297  28.581  29.742  1.00  0.00    -0.248 NA
ATOM     36  C   UNL A   1      38.968  28.522  27.822  1.00  0.00     0.031 C 
ATOM     37  C   UNL A   1      37.406  31.458  31.577  1.00  0.00     0.029 A 
ATOM     38  N   UNL A   1      39.348  30.383  31.861  1.00  0.00    -0.354 N 
ATOM     39  C   UNL A   1      40.880  27.735  28.807  1.00  0.00     0.074 A 
ATOM     40  C   UNL A   1      40.005  27.715  27.653  1.00  0.00     0.031 C 
ATOM     41  C   UNL A   1      37.886  31.801  32.784  1.00  0.00     0.029 A 
ATOM     42  C   UNL A   1      39.133  31.079  33.024  1.00  0.00     0.049 A 
ATOM     43  H   UNL A   1      40.151  29.836  31.699  1.00  0.00     0.167 HD
ATOM     44  C   UNL A   1      42.040  27.044  28.906  1.00  0.00     0.037 A 
ATOM     45  C   UNL A   1      39.847  31.106  34.166  1.00  0.00     0.037 A 
ATOM     46  C   UNL A   1      42.912  27.080  30.051  1.00  0.00     0.049 A 
ATOM     47  C   UNL A   1      41.107  30.292  34.268  1.00  0.00     0.074 A 
ATOM     48  C   UNL A   1      44.131  26.448  30.228  1.00  0.00     0.029 A 
ATOM     49  N   UNL A   1      42.653  27.782  31.219  1.00  0.00    -0.354 N 
ATOM     50  N   UNL A   1      41.664  29.515  33.370  1.00  0.00    -0.248 NA
ATOM     51  C   UNL A   1      41.837  30.355  35.542  1.00  0.00     0.031 C 
ATOM     52  C   UNL A   1      44.589  26.732  31.520  1.00  0.00     0.029 A 
ATOM     53  C   UNL A   1      43.676  27.577  32.130  1.00  0.00     0.049 A 
ATOM     54  H   UNL A   1      41.861  28.345  31.376  1.00  0.00     0.167 HD
ATOM     55  C   UNL A   1      42.814  29.010  33.964  1.00  0.00     0.074 A 
ATOM     56  C   UNL A   1      42.883  29.580  35.293  1.00  0.00     0.031 C 
ATOM     57  C   UNL A   1      43.728  28.149  33.453  1.00  0.00     0.037 A 
BRANCH  44  58
ATOM     58  C   UNL A   1      42.421  26.165  27.753  1.00  0.00     0.064 A 
ATOM     59  C   UNL A   1      43.232  26.629  26.708  1.00  0.00     0.173 A 
ATOM     60  C   UNL A   1      41.998  24.828  27.714  1.00  0.00     0.173 A 
ATOM     61  F   UNL A   1      43.651  27.903  26.694  1.00  0.00    -0.203 F 
ATOM     62  C   UNL A   1      43.586  25.793  25.652  1.00  0.00     0.198 A 
ATOM     63  C   UNL A   1      42.374  23.987  26.669  1.00  0.00     0.198 A 
ATOM     64  F   UNL A   1      41.224  24.334  28.692  1.00  0.00    -0.203 F 
ATOM     65  F   UNL A   1      44.329  26.269  24.643  1.00  0.00    -0.200 F 
ATOM     66  C   UNL A   1      43.162  24.473  25.637  1.00  0.00     0.200 A 
ATOM     67  F   UNL A   1      41.971  22.710  26.660  1.00  0.00    -0.200 F 
ATOM     68  F   UNL A   1      43.508  23.668  24.623  1.00  0.00    -0.200 F 
ENDBRANCH  44  58
BRANCH  45  69
ATOM     69  C   UNL A   1      39.368  31.919  35.312  1.00  0.00     0.064 A 
ATOM     70  C   UNL A   1      39.729  33.265  35.445  1.00  0.00     0.173 A 
ATOM     71  C   UNL A   1      38.533  31.364  36.295  1.00  0.00     0.173 A 
ATOM     72  F   UNL A   1      40.547  33.831  34.545  1.00  0.00    -0.203 F 
ATOM     73  C   UNL A   1      39.282  34.025  36.524  1.00  0.00     0.198 A 
ATOM     74  C   UNL A   1      38.066  32.132  37.358  1.00  0.00     0.198 A 
ATOM     75  F   UNL A   1      38.163  30.078  36.212  1.00  0.00    -0.203 F 
ATOM     76  F   UNL A   1      39.673  35.301  36.649  1.00  0.00    -0.200 F 
ATOM     77  C   UNL A   1      38.445  33.461  37.475  1.00  0.00     0.200 A 
ATOM     78  F   UNL A   1      37.251  31.585  38.270  1.00  0.00    -0.200 F 
ATOM     79  F   UNL A   1      38.011  34.195  38.508  1.00  0.00    -0.200 F 
ENDBRANCH  45  69
BRANCH  57  80
ATOM     80  C   UNL A   1      44.889  27.784  34.327  1.00  0.00     0.064 A 
ATOM     81  C   UNL A   1      44.853  26.656  35.159  1.00  0.00     0.173 A 
ATOM     82  C   UNL A   1      46.067  28.546  34.302  1.00  0.00     0.173 A 
ATOM     83  F   UNL A   1      43.745  25.905  35.230  1.00  0.00    -0.203 F 
ATOM     84  C   UNL A   1      45.949  26.314  35.949  1.00  0.00     0.198 A 
ATOM     85  C   UNL A   1      47.169  28.188  35.073  1.00  0.00     0.198 A 
ATOM     86  F   UNL A   1      46.153  29.632  33.518  1.00  0.00    -0.203 F 
ATOM     87  F   UNL A   1      45.879  25.255  36.766  1.00  0.00    -0.200 F 
ATOM     88  C   UNL A   1      47.107  27.077  35.900  1.00  0.00     0.200 A 
ATOM     89  F   UNL A   1      48.291  28.920  35.018  1.00  0.00    -0.200 F 
ATOM     90  F   UNL A   1      48.162  26.742  36.656  1.00  0.00    -0.200 F 
ENDBRANCH  57  80
ENDBRANCH  31  32
ENDBRANCH  24  26
ENDBRANCH  23  24
ENDBRANCH  22  23
ENDBRANCH   1  22
TORSDOF 13
ENDMDL
MODEL 3
REMARK VINA RESULT:     -12.0      3.181      8.303
REMARK SMILES C[C@]1(C(=O)N2CCC(CC(=O)OCCOC(=O)c3ccc(-c4c5nc(c(-c6c(F)c(F)c(F)c(F)c6F)c6ccc([nH]6)c(-c6c(F)c(F)c(F)c(F)c6F)c6nc(c(-c7c(F)c(F)c(F)c(F)c7F)c7ccc4[nH]7)C=C6)C=C5)cc3)CC2)CCC[NH2+]1
REMARK SMILES IDX 13 1 12 2 10 3 11 4 9 5 8 6 3 7 4 8 5 9 6 10 82 11 7 12
REMARK SMILES IDX 81 13 2 14 1 15 83 16 86 17 84 18 85 19 14 22 15 23 16 24
REMARK SMILES IDX 17 25 18 26 19 27 80 28 20 29 79 30 21 31 22 32 23 33 73 34
REMARK SMILES IDX 24 35 78 36 72 37 74 38 25 39 77 40 71 41 70 42 26 44 58 45
REMARK SMILES IDX 38 46 57 47 39 48 42 49 56 50 75 51 40 52 41 53 55 55 76 56
REMARK SMILES IDX 43 57 27 58 28 59 36 60 29 61 30 62 34 63 37 64 31 65 32 66
REMARK SMILES IDX 35 67 33 68 59 69 60 70 68 71 61 72 62 73 66 74 69 75 63 76
REMARK SMILES IDX 64 77 67 78 65 79 44 80 45 81 53 82 46 83 47 84 51 85 54 86
REMARK SMILES IDX 48 87 49 88 52 89 50 90
REMARK H PARENT 86 20 86 21 74 43 42 54
REMARK Flexibility Score: inf
ROOT
ATOM      1  C   UNL A   1      43.095  20.700  26.110  1.00  0.00     0.274 C 
ENDROOT
BRANCH   1   2
ATOM      2  O   UNL A   1      41.673  20.753  25.893  1.00  0.00    -0.462 OA
BRANCH   2   3
ATOM      3  C   UNL A   1      40.880  20.774  26.992  1.00  0.00     0.306 C 
ATOM      4  O   UNL A   1      40.793  19.866  27.811  1.00  0.00    -0.252 OA
BRANCH   3   5
ATOM      5  C   UNL A   1      40.048  22.037  27.082  1.00  0.00     0.126 C 
BRANCH   5   6
ATOM      6  C   UNL A   1      39.100  22.293  25.897  1.00  0.00     0.003 C 
ATOM      7  C   UNL A   1      35.204  22.330  25.533  1.00  0.00     0.283 C 
ATOM      8  O   UNL A   1      35.168  21.617  26.537  1.00  0.00    -0.268 OA
ATOM      9  N   UNL A   1      36.395  22.541  24.841  1.00  0.00    -0.337 N 
ATOM     10  C   UNL A   1      37.190  21.371  24.515  1.00  0.00     0.120 C 
ATOM     11  C   UNL A   1      37.169  23.750  25.081  1.00  0.00     0.120 C 
ATOM     12  C   UNL A   1      38.219  21.068  25.597  1.00  0.00     0.026 C 
ATOM     13  C   UNL A   1      38.210  23.523  26.181  1.00  0.00     0.026 C 
BRANCH   7  14
ATOM     14  C   UNL A   1      33.944  23.024  24.929  1.00  0.00     0.173 C 
ATOM     15  C   UNL A   1      33.725  24.414  25.533  1.00  0.00     0.090 C 
ATOM     16  C   UNL A   1      33.975  23.035  23.401  1.00  0.00     0.084 C 
ATOM     17  N   UNL A   1      32.764  22.158  25.173  1.00  0.00    -0.334 N 
ATOM     18  C   UNL A   1      32.512  23.077  22.995  1.00  0.00     0.068 C 
ATOM     19  C   UNL A   1      31.766  22.422  24.147  1.00  0.00     0.261 C 
ATOM     20  H   UNL A   1      32.373  22.364  26.092  1.00  0.00     0.347 HD
ATOM     21  H   UNL A   1      33.043  21.177  25.139  1.00  0.00     0.347 HD
ENDBRANCH   7  14
ENDBRANCH   5   6
ENDBRANCH   3   5
ENDBRANCH   2   3
ENDBRANCH   1   2
BRANCH   1  22
ATOM     22  C   UNL A   1      43.829  21.719  25.235  1.00  0.00     0.275 C 
BRANCH  22  23
ATOM     23  O   UNL A   1      43.059  22.927  25.094  1.00  0.00    -0.458 OA
BRANCH  23  24
ATOM     24  C   UNL A   1      43.773  24.076  25.088  1.00  0.00     0.338 C 
ATOM     25  O   UNL A   1      44.637  24.415  24.299  1.00  0.00    -0.246 OA
BRANCH  24  26
ATOM     26  C   UNL A   1      43.265  24.958  26.149  1.00  0.00     0.060 A 
ATOM     27  C   UNL A   1      43.696  26.288  26.174  1.00  0.00     0.016 A 
ATOM     28  C   UNL A   1      42.413  24.464  27.138  1.00  0.00     0.016 A 
ATOM     29  C   UNL A   1      43.268  27.136  27.194  1.00  0.00     0.010 A 
ATOM     30  C   UNL A   1      41.986  25.316  28.159  1.00  0.00     0.010 A 
ATOM     31  C   UNL A   1      42.416  26.655  28.196  1.00  0.00    -0.014 A 
BRANCH  31  32
ATOM     32  C   UNL A   1      41.991  27.542  29.303  1.00  0.00     0.031 A 
ATOM     33  C   UNL A   1      42.736  27.525  30.603  1.00  0.00     0.074 A 
ATOM     34  C   UNL A   1      40.928  28.350  29.141  1.00  0.00     0.049 A 
ATOM     35  N   UNL A   1      42.471  28.156  31.720  1.00  0.00    -0.248 NA
ATOM     36  C   UNL A   1      43.940  26.683  30.658  1.00  0.00     0.031 C 
ATOM     37  C   UNL A   1      40.139  28.469  27.915  1.00  0.00     0.029 A 
ATOM     38  N   UNL A   1      40.318  29.212  30.019  1.00  0.00    -0.354 N 
ATOM     39  C   UNL A   1      43.461  27.774  32.614  1.00  0.00     0.074 A 
ATOM     40  C   UNL A   1      44.326  26.844  31.916  1.00  0.00     0.031 C 
ATOM     41  C   UNL A   1      39.141  29.344  28.122  1.00  0.00     0.029 A 
ATOM     42  C   UNL A   1      39.199  29.815  29.503  1.00  0.00     0.049 A 
ATOM     43  H   UNL A   1      40.653  29.380  30.930  1.00  0.00     0.167 HD
ATOM     44  C   UNL A   1      43.632  28.167  33.898  1.00  0.00     0.037 A 
ATOM     45  C   UNL A   1      38.303  30.632  30.090  1.00  0.00     0.037 A 
ATOM     46  C   UNL A   1      42.778  29.102  34.582  1.00  0.00     0.049 A 
ATOM     47  C   UNL A   1      38.489  31.016  31.533  1.00  0.00     0.074 A 
ATOM     48  C   UNL A   1      42.895  29.596  35.870  1.00  0.00     0.029 A 
ATOM     49  N   UNL A   1      41.642  29.680  34.035  1.00  0.00    -0.354 N 
ATOM     50  N   UNL A   1      39.442  30.670  32.364  1.00  0.00    -0.248 NA
ATOM     51  C   UNL A   1      37.474  31.901  32.120  1.00  0.00     0.031 C 
ATOM     52  C   UNL A   1      41.805  30.439  36.117  1.00  0.00     0.029 A 
ATOM     53  C   UNL A   1      41.034  30.504  34.968  1.00  0.00     0.049 A 
ATOM     54  H   UNL A   1      41.317  29.529  33.118  1.00  0.00     0.167 HD
ATOM     55  C   UNL A   1      39.151  31.305  33.564  1.00  0.00     0.074 A 
ATOM     56  C   UNL A   1      37.940  32.070  33.350  1.00  0.00     0.031 C 
ATOM     57  C   UNL A   1      39.825  31.256  34.739  1.00  0.00     0.037 A 
BRANCH  44  58
ATOM     58  C   UNL A   1      44.774  27.564  34.660  1.00  0.00     0.064 A 
ATOM     59  C   UNL A   1      44.634  26.366  35.376  1.00  0.00     0.173 A 
ATOM     60  C   UNL A   1      46.037  28.176  34.641  1.00  0.00     0.173 A 
ATOM     61  F   UNL A   1      43.444  25.750  35.434  1.00  0.00    -0.203 F 
ATOM     62  C   UNL A   1      45.711  25.816  36.065  1.00  0.00     0.198 A 
ATOM     63  C   UNL A   1      47.118  27.609  35.312  1.00  0.00     0.198 A 
ATOM     64  F   UNL A   1      46.224  29.321  33.967  1.00  0.00    -0.203 F 
ATOM     65  F   UNL A   1      45.544  24.692  36.777  1.00  0.00    -0.200 F 
ATOM     66  C   UNL A   1      46.952  26.434  36.028  1.00  0.00     0.200 A 
ATOM     67  F   UNL A   1      48.318  28.203  35.268  1.00  0.00    -0.200 F 
ATOM     68  F   UNL A   1      47.988  25.899  36.689  1.00  0.00    -0.200 F 
ENDBRANCH  44  58
BRANCH  45  69
ATOM     69  C   UNL A   1      37.135  31.120  29.315  1.00  0.00     0.064 A 
ATOM     70  C   UNL A   1      37.075  32.441  28.855  1.00  0.00     0.173 A 
ATOM     71  C   UNL A   1      36.059  30.271  29.014  1.00  0.00     0.173 A 
ATOM     72  F   UNL A   1      38.067  33.296  29.142  1.00  0.00    -0.203 F 
ATOM     73  C   UNL A   1      35.977  32.899  28.130  1.00  0.00     0.198 A 
ATOM     74  C   UNL A   1      34.974  30.723  28.267  1.00  0.00     0.198 A 
ATOM     75  F   UNL A   1      36.070  28.999  29.435  1.00  0.00    -0.203 F 
ATOM     76  F   UNL A   1      35.925  34.179  27.734  1.00  0.00    -0.200 F 
ATOM     77  C   UNL A   1      34.931  32.039  27.831  1.00  0.00     0.200 A 
ATOM     78  F   UNL A   1      33.971  29.886  27.972  1.00  0.00    -0.200 F 
ATOM     79  F   UNL A   1      33.879  32.479  27.128  1.00  0.00    -0.200 F 
ENDBRANCH  45  69
BRANCH  57  80
ATOM     80  C   UNL A   1      39.279  32.063  35.877  1.00  0.00     0.064 A 
ATOM     81  C   UNL A   1      38.363  31.518  36.789  1.00  0.00     0.173 A 
ATOM     82  C   UNL A   1      39.707  33.384  36.085  1.00  0.00     0.173 A 
ATOM     83  F   UNL A   1      37.912  30.266  36.624  1.00  0.00    -0.203 F 
ATOM     84  C   UNL A   1      37.881  32.272  37.856  1.00  0.00     0.198 A 
ATOM     85  C   UNL A   1      39.243  34.126  37.167  1.00  0.00     0.198 A 
ATOM     86  F   UNL A   1      40.587  33.949  35.244  1.00  0.00    -0.203 F 
ATOM     87  F   UNL A   1      36.977  31.744  38.692  1.00  0.00    -0.200 F 
ATOM     88  C   UNL A   1      38.326  33.573  38.048  1.00  0.00     0.200 A 
ATOM     89  F   UNL A   1      39.682  35.378  37.356  1.00  0.00    -0.200 F 
ATOM     90  F   UNL A   1      37.866  34.294  39.079  1.00  0.00    -0.200 F 
ENDBRANCH  57  80
ENDBRANCH  31  32
ENDBRANCH  24  26
ENDBRANCH  23  24
ENDBRANCH  22  23
ENDBRANCH   1  22
TORSDOF 13
ENDMDL
