MODEL 1
REMARK VINA RESULT:     -13.2      0.000      0.000
REMARK SMILES O=C(Cn1c(=O)[nH]c2ccccc2c1=O)NC[C@H]1CC[C@@H](C(=O)N2CCC(C(=O)OCCOC(=O)c3ccc(-c4c5nc(c(-c6c(F)c(F)c(F)c(F)c6F)c6ccc([nH]6)c(-c6c(F)c(F)c(F)c(F)c6F)c6nc(c(-c7c(F)c(F)c(F)c(F)c7F)c7ccc4[nH]7)C=C6)C=C5)cc3)CC2)CC1
REMARK SMILES IDX 30 1 28 2 29 3 27 4 22 5 23 6 24 7 25 8 100 9 26 10 99 11
REMARK SMILES IDX 21 12 18 13 19 14 102 15 20 16 101 17 17 18 16 19 1 20 2 21
REMARK SMILES IDX 3 23 4 24 5 25 14 26 6 27 7 28 13 29 15 30 8 31 12 33 9 34
REMARK SMILES IDX 11 35 10 36 31 37 32 38 33 39 34 40 35 41 36 42 37 43 98 44
REMARK SMILES IDX 38 45 97 46 39 47 40 48 41 49 91 50 42 51 96 52 90 53 92 54
REMARK SMILES IDX 43 55 95 56 89 57 88 58 44 60 76 61 56 62 75 63 57 64 60 65
REMARK SMILES IDX 74 66 93 67 58 68 59 69 73 71 94 72 61 73 45 74 46 75 54 76
REMARK SMILES IDX 47 77 48 78 52 79 55 80 49 81 50 82 53 83 51 84 77 85 78 86
REMARK SMILES IDX 86 87 79 88 80 89 84 90 87 91 81 92 82 93 85 94 83 95 62 96
REMARK SMILES IDX 63 97 71 98 64 99 65 100 69 101 72 102 66 103 67 104 70 105
REMARK SMILES IDX 68 106
REMARK H PARENT 16 22 7 32 92 59 60 70
REMARK Flexibility Score: inf
ROOT
ATOM      1  O   UNL A   1      32.975  33.969  28.295  1.00  0.00    -0.462 OA
ENDROOT
BRANCH   1   2
ATOM      2  C   UNL A   1      33.695  32.826  28.395  1.00  0.00     0.309 C 
ATOM      3  O   UNL A   1      34.518  32.582  29.269  1.00  0.00    -0.252 OA
BRANCH   2   4
ATOM      4  C   UNL A   1      33.385  31.856  27.282  1.00  0.00     0.103 C 
ATOM      5  C   UNL A   1      31.619  28.347  25.895  1.00  0.00     0.225 C 
ATOM      6  O   UNL A   1      31.862  27.454  26.712  1.00  0.00    -0.275 OA
ATOM      7  N   UNL A   1      32.244  29.571  25.992  1.00  0.00    -0.342 N 
ATOM      8  C   UNL A   1      33.675  29.595  26.268  1.00  0.00     0.120 C 
ATOM      9  C   UNL A   1      31.553  30.849  25.927  1.00  0.00     0.120 C 
ATOM     10  C   UNL A   1      34.009  30.470  27.459  1.00  0.00     0.037 C 
ATOM     11  C   UNL A   1      31.878  31.748  27.110  1.00  0.00     0.037 C 
BRANCH   5  12
ATOM     12  C   UNL A   1      30.865  27.999  24.600  1.00  0.00     0.078 C 
ATOM     13  C   UNL A   1      32.131  25.953  22.776  1.00  0.00     0.008 C 
ATOM     14  C   UNL A   1      31.548  25.588  24.142  1.00  0.00     0.006 C 
ATOM     15  C   UNL A   1      32.380  27.455  22.555  1.00  0.00     0.006 C 
ATOM     16  C   UNL A   1      30.445  26.527  24.602  1.00  0.00     0.014 C 
ATOM     17  C   UNL A   1      31.428  28.426  23.250  1.00  0.00     0.014 C 
BRANCH  13  18
ATOM     18  C   UNL A   1      33.428  25.144  22.561  1.00  0.00     0.119 C 
BRANCH  18  19
ATOM     19  N   UNL A   1      33.799  24.417  23.750  1.00  0.00    -0.354 N 
ATOM     20  O   UNL A   1      35.499  23.167  22.848  1.00  0.00    -0.273 OA
ATOM     21  C   UNL A   1      34.822  23.492  23.820  1.00  0.00     0.240 C 
ATOM     22  H   UNL A   1      33.286  24.593  24.571  1.00  0.00     0.163 HD
BRANCH  21  23
ATOM     23  C   UNL A   1      34.965  22.829  25.199  1.00  0.00     0.230 C 
BRANCH  23  24
ATOM     24  N   UNL A   1      34.307  21.524  25.204  1.00  0.00    -0.250 N 
ATOM     25  C   UNL A   1      32.947  21.470  25.451  1.00  0.00     0.329 A 
ATOM     26  C   UNL A   1      35.098  20.396  25.013  1.00  0.00     0.264 A 
ATOM     27  O   UNL A   1      32.260  22.442  25.757  1.00  0.00    -0.248 OA
ATOM     28  N   UNL A   1      32.356  20.239  25.362  1.00  0.00    -0.307 N 
ATOM     29  C   UNL A   1      34.400  19.126  24.770  1.00  0.00     0.064 A 
ATOM     30  O   UNL A   1      36.328  20.423  24.979  1.00  0.00    -0.268 OA
ATOM     31  C   UNL A   1      33.029  19.082  24.976  1.00  0.00     0.055 A 
ATOM     32  H   UNL A   1      31.400  20.167  25.583  1.00  0.00     0.171 HD
ATOM     33  C   UNL A   1      35.091  18.005  24.303  1.00  0.00     0.016 A 
ATOM     34  C   UNL A   1      32.331  17.895  24.764  1.00  0.00     0.027 A 
ATOM     35  C   UNL A   1      34.391  16.825  24.057  1.00  0.00     0.001 A 
ATOM     36  C   UNL A   1      33.016  16.768  24.297  1.00  0.00     0.002 A 
ENDBRANCH  23  24
ENDBRANCH  21  23
ENDBRANCH  18  19
ENDBRANCH  13  18
ENDBRANCH   5  12
ENDBRANCH   2   4
ENDBRANCH   1   2
BRANCH   1  37
ATOM     37  C   UNL A   1      33.667  35.179  28.641  1.00  0.00     0.274 C 
BRANCH  37  38
ATOM     38  C   UNL A   1      32.879  35.962  29.692  1.00  0.00     0.275 C 
BRANCH  38  39
ATOM     39  O   UNL A   1      32.423  35.098  30.751  1.00  0.00    -0.458 OA
BRANCH  39  40
ATOM     40  C   UNL A   1      32.760  35.467  32.009  1.00  0.00     0.338 C 
ATOM     41  O   UNL A   1      32.133  36.166  32.780  1.00  0.00    -0.246 OA
BRANCH  40  42
ATOM     42  C   UNL A   1      34.026  34.810  32.359  1.00  0.00     0.060 A 
ATOM     43  C   UNL A   1      35.224  35.500  32.193  1.00  0.00     0.016 A 
ATOM     44  C   UNL A   1      34.016  33.514  32.880  1.00  0.00     0.016 A 
ATOM     45  C   UNL A   1      36.424  34.860  32.503  1.00  0.00     0.010 A 
ATOM     46  C   UNL A   1      35.212  32.883  33.211  1.00  0.00     0.010 A 
ATOM     47  C   UNL A   1      36.428  33.544  33.003  1.00  0.00    -0.014 A 
BRANCH  47  48
ATOM     48  C   UNL A   1      37.711  32.874  33.314  1.00  0.00     0.031 A 
ATOM     49  C   UNL A   1      38.440  33.176  34.593  1.00  0.00     0.074 A 
ATOM     50  C   UNL A   1      38.201  31.972  32.443  1.00  0.00     0.049 A 
ATOM     51  N   UNL A   1      39.524  32.620  35.073  1.00  0.00    -0.248 NA
ATOM     52  C   UNL A   1      37.887  34.242  35.443  1.00  0.00     0.031 C 
ATOM     53  C   UNL A   1      37.594  31.636  31.156  1.00  0.00     0.029 A 
ATOM     54  N   UNL A   1      39.306  31.164  32.515  1.00  0.00    -0.354 N 
ATOM     55  C   UNL A   1      39.769  33.251  36.284  1.00  0.00     0.074 A 
ATOM     56  C   UNL A   1      38.759  34.276  36.441  1.00  0.00     0.031 C 
ATOM     57  C   UNL A   1      38.306  30.656  30.578  1.00  0.00     0.029 A 
ATOM     58  C   UNL A   1      39.439  30.322  31.438  1.00  0.00     0.049 A 
ATOM     59  H   UNL A   1      39.943  31.185  33.265  1.00  0.00     0.167 HD
ATOM     60  C   UNL A   1      40.734  32.978  37.193  1.00  0.00     0.037 A 
ATOM     61  C   UNL A   1      40.365  29.380  31.180  1.00  0.00     0.037 A 
ATOM     62  C   UNL A   1      41.736  31.956  37.026  1.00  0.00     0.049 A 
ATOM     63  C   UNL A   1      41.448  29.126  32.194  1.00  0.00     0.074 A 
ATOM     64  C   UNL A   1      42.742  31.585  37.901  1.00  0.00     0.029 A 
ATOM     65  N   UNL A   1      41.860  31.146  35.907  1.00  0.00    -0.354 N 
ATOM     66  N   UNL A   1      41.633  29.685  33.365  1.00  0.00    -0.248 NA
ATOM     67  C   UNL A   1      42.446  28.104  31.853  1.00  0.00     0.031 C 
ATOM     68  C   UNL A   1      43.506  30.588  37.290  1.00  0.00     0.029 A 
ATOM     69  C   UNL A   1      42.941  30.291  36.061  1.00  0.00     0.049 A 
ATOM     70  H   UNL A   1      41.269  31.173  35.121  1.00  0.00     0.167 HD
ATOM     71  C   UNL A   1      42.747  29.065  33.912  1.00  0.00     0.074 A 
ATOM     72  C   UNL A   1      43.184  28.071  32.954  1.00  0.00     0.031 C 
ATOM     73  C   UNL A   1      43.357  29.302  35.100  1.00  0.00     0.037 A 
BRANCH  60  74
ATOM     74  C   UNL A   1      40.752  33.771  38.469  1.00  0.00     0.064 A 
ATOM     75  C   UNL A   1      39.974  33.389  39.573  1.00  0.00     0.173 A 
ATOM     76  C   UNL A   1      41.630  34.852  38.629  1.00  0.00     0.173 A 
ATOM     77  F   UNL A   1      39.115  32.365  39.472  1.00  0.00    -0.203 F 
ATOM     78  C   UNL A   1      40.075  34.062  40.788  1.00  0.00     0.198 A 
ATOM     79  C   UNL A   1      41.749  35.506  39.853  1.00  0.00     0.198 A 
ATOM     80  F   UNL A   1      42.404  35.253  37.608  1.00  0.00    -0.203 F 
ATOM     81  F   UNL A   1      39.311  33.689  41.824  1.00  0.00    -0.200 F 
ATOM     82  C   UNL A   1      40.971  35.110  40.931  1.00  0.00     0.200 A 
ATOM     83  F   UNL A   1      42.633  36.503  39.996  1.00  0.00    -0.200 F 
ATOM     84  F   UNL A   1      41.091  35.735  42.111  1.00  0.00    -0.200 F 
ENDBRANCH  60  74
BRANCH  61  85
ATOM     85  C   UNL A   1      40.284  28.586  29.926  1.00  0.00     0.064 A 
ATOM     86  C   UNL A   1      40.909  29.029  28.750  1.00  0.00     0.173 A 
ATOM     87  C   UNL A   1      39.591  27.368  29.875  1.00  0.00     0.173 A 
ATOM     88  F   UNL A   1      41.569  30.196  28.741  1.00  0.00    -0.203 F 
ATOM     89  C   UNL A   1      40.825  28.294  27.569  1.00  0.00     0.198 A 
ATOM     90  C   UNL A   1      39.536  26.617  28.703  1.00  0.00     0.198 A 
ATOM     91  F   UNL A   1      38.980  26.896  30.972  1.00  0.00    -0.203 F 
ATOM     92  F   UNL A   1      41.390  28.763  26.450  1.00  0.00    -0.200 F 
ATOM     93  C   UNL A   1      40.146  27.084  27.548  1.00  0.00     0.200 A 
ATOM     94  F   UNL A   1      38.894  25.441  28.692  1.00  0.00    -0.200 F 
ATOM     95  F   UNL A   1      40.073  26.374  26.415  1.00  0.00    -0.200 F 
ENDBRANCH  61  85
BRANCH  73  96
ATOM     96  C   UNL A   1      44.549  28.455  35.447  1.00  0.00     0.064 A 
ATOM     97  C   UNL A   1      45.858  28.887  35.190  1.00  0.00     0.173 A 
ATOM     98  C   UNL A   1      44.380  27.222  36.096  1.00  0.00     0.173 A 
ATOM     99  F   UNL A   1      46.074  30.053  34.562  1.00  0.00    -0.203 F 
ATOM    100  C   UNL A   1      46.953  28.104  35.545  1.00  0.00     0.198 A 
ATOM    101  C   UNL A   1      45.478  26.460  36.483  1.00  0.00     0.198 A 
ATOM    102  F   UNL A   1      43.149  26.767  36.376  1.00  0.00    -0.203 F 
ATOM    103  F   UNL A   1      48.193  28.515  35.246  1.00  0.00    -0.200 F 
ATOM    104  C   UNL A   1      46.763  26.897  36.200  1.00  0.00     0.200 A 
ATOM    105  F   UNL A   1      45.292  25.303  37.134  1.00  0.00    -0.200 F 
ATOM    106  F   UNL A   1      47.819  26.152  36.555  1.00  0.00    -0.200 F 
ENDBRANCH  73  96
ENDBRANCH  47  48
ENDBRANCH  40  42
ENDBRANCH  39  40
ENDBRANCH  38  39
ENDBRANCH  37  38
ENDBRANCH   1  37
TORSDOF 16
ENDMDL
MODEL 2
REMARK VINA RESULT:     -13.1      6.109     12.005
REMARK SMILES O=C(Cn1c(=O)[nH]c2ccccc2c1=O)NC[C@H]1CC[C@@H](C(=O)N2CCC(C(=O)OCCOC(=O)c3ccc(-c4c5nc(c(-c6c(F)c(F)c(F)c(F)c6F)c6ccc([nH]6)c(-c6c(F)c(F)c(F)c(F)c6F)c6nc(c(-c7c(F)c(F)c(F)c(F)c7F)c7ccc4[nH]7)C=C6)C=C5)cc3)CC2)CC1
REMARK SMILES IDX 30 1 28 2 29 3 27 4 22 5 23 6 24 7 25 8 100 9 26 10 99 11
REMARK SMILES IDX 21 12 18 13 19 14 102 15 20 16 101 17 17 18 16 19 1 20 2 21
REMARK SMILES IDX 3 23 4 24 5 25 14 26 6 27 7 28 13 29 15 30 8 31 12 33 9 34
REMARK SMILES IDX 11 35 10 36 31 37 32 38 33 39 34 40 35 41 36 42 37 43 98 44
REMARK SMILES IDX 38 45 97 46 39 47 40 48 41 49 91 50 42 51 96 52 90 53 92 54
REMARK SMILES IDX 43 55 95 56 89 57 88 58 44 60 76 61 56 62 75 63 57 64 60 65
REMARK SMILES IDX 74 66 93 67 58 68 59 69 73 71 94 72 61 73 45 74 46 75 54 76
REMARK SMILES IDX 47 77 48 78 52 79 55 80 49 81 50 82 53 83 51 84 77 85 78 86
REMARK SMILES IDX 86 87 79 88 80 89 84 90 87 91 81 92 82 93 85 94 83 95 62 96
REMARK SMILES IDX 63 97 71 98 64 99 65 100 69 101 72 102 66 103 67 104 70 105
REMARK SMILES IDX 68 106
REMARK H PARENT 16 22 7 32 92 59 60 70
REMARK Flexibility Score: inf
ROOT
ATOM      1  O   UNL A   1      40.834  19.660  25.902  1.00  0.00    -0.462 OA
ENDROOT
BRANCH   1   2
ATOM      2  C   UNL A   1      40.516  20.972  26.015  1.00  0.00     0.309 C 
ATOM      3  O   UNL A   1      41.322  21.889  26.118  1.00  0.00    -0.252 OA
BRANCH   2   4
ATOM      4  C   UNL A   1      39.025  21.202  26.016  1.00  0.00     0.103 C 
ATOM      5  C   UNL A   1      35.505  22.286  24.069  1.00  0.00     0.225 C 
ATOM      6  O   UNL A   1      35.740  23.298  23.401  1.00  0.00    -0.275 OA
ATOM      7  N   UNL A   1      36.432  21.816  24.974  1.00  0.00    -0.342 N 
ATOM      8  C   UNL A   1      37.100  22.779  25.840  1.00  0.00     0.120 C 
ATOM      9  C   UNL A   1      36.858  20.428  25.061  1.00  0.00     0.120 C 
ATOM     10  C   UNL A   1      38.608  22.654  25.772  1.00  0.00     0.037 C 
ATOM     11  C   UNL A   1      38.370  20.278  25.001  1.00  0.00     0.037 C 
BRANCH   5  12
ATOM     12  C   UNL A   1      34.070  21.733  24.121  1.00  0.00     0.078 C 
ATOM     13  C   UNL A   1      32.004  23.401  25.558  1.00  0.00     0.008 C 
ATOM     14  C   UNL A   1      32.628  23.830  24.229  1.00  0.00     0.006 C 
ATOM     15  C   UNL A   1      32.757  22.283  26.299  1.00  0.00     0.006 C 
ATOM     16  C   UNL A   1      33.109  22.665  23.380  1.00  0.00     0.014 C 
ATOM     17  C   UNL A   1      33.486  21.251  25.443  1.00  0.00     0.014 C 
BRANCH  13  18
ATOM     18  C   UNL A   1      31.847  24.647  26.455  1.00  0.00     0.119 C 
BRANCH  18  19
ATOM     19  N   UNL A   1      32.290  25.842  25.779  1.00  0.00    -0.354 N 
ATOM     20  O   UNL A   1      31.338  27.383  27.188  1.00  0.00    -0.273 OA
ATOM     21  C   UNL A   1      32.024  27.130  26.201  1.00  0.00     0.240 C 
ATOM     22  H   UNL A   1      32.822  25.731  24.959  1.00  0.00     0.163 HD
BRANCH  21  23
ATOM     23  C   UNL A   1      32.574  28.215  25.262  1.00  0.00     0.230 C 
BRANCH  23  24
ATOM     24  N   UNL A   1      31.505  29.131  24.867  1.00  0.00    -0.250 N 
ATOM     25  C   UNL A   1      31.451  30.380  25.460  1.00  0.00     0.329 A 
ATOM     26  C   UNL A   1      30.561  28.674  23.954  1.00  0.00     0.264 A 
ATOM     27  O   UNL A   1      32.193  30.747  26.368  1.00  0.00    -0.248 OA
ATOM     28  N   UNL A   1      30.487  31.236  25.001  1.00  0.00    -0.307 N 
ATOM     29  C   UNL A   1      29.651  29.674  23.380  1.00  0.00     0.064 A 
ATOM     30  O   UNL A   1      30.497  27.508  23.566  1.00  0.00    -0.268 OA
ATOM     31  C   UNL A   1      29.627  30.940  23.946  1.00  0.00     0.055 A 
ATOM     32  H   UNL A   1      30.396  32.111  25.441  1.00  0.00     0.171 HD
ATOM     33  C   UNL A   1      28.860  29.371  22.267  1.00  0.00     0.016 A 
ATOM     34  C   UNL A   1      28.772  31.914  23.436  1.00  0.00     0.027 A 
ATOM     35  C   UNL A   1      28.029  30.354  21.733  1.00  0.00     0.001 A 
ATOM     36  C   UNL A   1      27.978  31.619  22.323  1.00  0.00     0.002 A 
ENDBRANCH  23  24
ENDBRANCH  21  23
ENDBRANCH  18  19
ENDBRANCH  13  18
ENDBRANCH   5  12
ENDBRANCH   2   4
ENDBRANCH   1   2
BRANCH   1  37
ATOM     37  C   UNL A   1      41.923  19.205  26.720  1.00  0.00     0.274 C 
BRANCH  37  38
ATOM     38  C   UNL A   1      42.947  18.450  25.872  1.00  0.00     0.275 C 
BRANCH  38  39
ATOM     39  O   UNL A   1      43.232  19.155  24.649  1.00  0.00    -0.458 OA
BRANCH  39  40
ATOM     40  C   UNL A   1      44.525  19.497  24.444  1.00  0.00     0.338 C 
ATOM     41  O   UNL A   1      45.415  18.816  23.973  1.00  0.00    -0.246 OA
BRANCH  40  42
ATOM     42  C   UNL A   1      44.698  20.904  24.825  1.00  0.00     0.060 A 
ATOM     43  C   UNL A   1      44.434  21.904  23.893  1.00  0.00     0.016 A 
ATOM     44  C   UNL A   1      45.097  21.228  26.124  1.00  0.00     0.016 A 
ATOM     45  C   UNL A   1      44.627  23.237  24.255  1.00  0.00     0.010 A 
ATOM     46  C   UNL A   1      45.267  22.560  26.493  1.00  0.00     0.010 A 
ATOM     47  C   UNL A   1      45.055  23.574  25.553  1.00  0.00    -0.014 A 
BRANCH  47  48
ATOM     48  C   UNL A   1      45.267  24.994  25.917  1.00  0.00     0.031 A 
ATOM     49  C   UNL A   1      44.138  25.817  26.468  1.00  0.00     0.074 A 
ATOM     50  C   UNL A   1      46.495  25.526  25.769  1.00  0.00     0.049 A 
ATOM     51  N   UNL A   1      44.162  27.044  26.925  1.00  0.00    -0.248 NA
ATOM     52  C   UNL A   1      42.808  25.189  26.508  1.00  0.00     0.031 C 
ATOM     53  C   UNL A   1      47.649  24.825  25.207  1.00  0.00     0.029 A 
ATOM     54  N   UNL A   1      46.980  26.766  26.094  1.00  0.00    -0.354 N 
ATOM     55  C   UNL A   1      42.863  27.325  27.324  1.00  0.00     0.074 A 
ATOM     56  C   UNL A   1      42.059  26.167  27.000  1.00  0.00     0.031 C 
ATOM     57  C   UNL A   1      48.722  25.629  25.269  1.00  0.00     0.029 A 
ATOM     58  C   UNL A   1      48.322  26.912  25.842  1.00  0.00     0.049 A 
ATOM     59  H   UNL A   1      46.421  27.483  26.471  1.00  0.00     0.167 HD
ATOM     60  C   UNL A   1      42.393  28.440  27.931  1.00  0.00     0.037 A 
ATOM     61  C   UNL A   1      49.139  27.959  26.059  1.00  0.00     0.037 A 
ATOM     62  C   UNL A   1      43.203  29.589  28.248  1.00  0.00     0.049 A 
ATOM     63  C   UNL A   1      48.578  29.199  26.702  1.00  0.00     0.074 A 
ATOM     64  C   UNL A   1      42.826  30.758  28.887  1.00  0.00     0.029 A 
ATOM     65  N   UNL A   1      44.551  29.714  27.947  1.00  0.00    -0.354 N 
ATOM     66  N   UNL A   1      47.362  29.430  27.133  1.00  0.00    -0.248 NA
ATOM     67  C   UNL A   1      49.507  30.321  26.895  1.00  0.00     0.031 C 
ATOM     68  C   UNL A   1      43.932  31.611  28.924  1.00  0.00     0.029 A 
ATOM     69  C   UNL A   1      45.016  30.952  28.368  1.00  0.00     0.049 A 
ATOM     70  H   UNL A   1      45.097  29.027  27.503  1.00  0.00     0.167 HD
ATOM     71  C   UNL A   1      47.386  30.708  27.674  1.00  0.00     0.074 A 
ATOM     72  C   UNL A   1      48.742  31.194  27.536  1.00  0.00     0.031 C 
ATOM     73  C   UNL A   1      46.372  31.417  28.229  1.00  0.00     0.037 A 
BRANCH  60  74
ATOM     74  C   UNL A   1      40.944  28.478  28.323  1.00  0.00     0.064 A 
ATOM     75  C   UNL A   1      40.531  28.126  29.618  1.00  0.00     0.173 A 
ATOM     76  C   UNL A   1      39.974  28.972  27.438  1.00  0.00     0.173 A 
ATOM     77  F   UNL A   1      41.417  27.644  30.502  1.00  0.00    -0.203 F 
ATOM     78  C   UNL A   1      39.202  28.266  30.009  1.00  0.00     0.198 A 
ATOM     79  C   UNL A   1      38.651  29.137  27.842  1.00  0.00     0.198 A 
ATOM     80  F   UNL A   1      40.317  29.332  26.191  1.00  0.00    -0.203 F 
ATOM     81  F   UNL A   1      38.829  27.909  31.246  1.00  0.00    -0.200 F 
ATOM     82  C   UNL A   1      38.267  28.783  29.126  1.00  0.00     0.200 A 
ATOM     83  F   UNL A   1      37.754  29.658  26.995  1.00  0.00    -0.200 F 
ATOM     84  F   UNL A   1      36.995  28.948  29.516  1.00  0.00    -0.200 F 
ENDBRANCH  60  74
BRANCH  61  85
ATOM     85  C   UNL A   1      50.578  27.863  25.698  1.00  0.00     0.064 A 
ATOM     86  C   UNL A   1      50.998  28.000  24.367  1.00  0.00     0.173 A 
ATOM     87  C   UNL A   1      51.563  27.642  26.672  1.00  0.00     0.173 A 
ATOM     88  F   UNL A   1      50.095  28.195  23.396  1.00  0.00    -0.203 F 
ATOM     89  C   UNL A   1      52.345  27.899  24.022  1.00  0.00     0.198 A 
ATOM     90  C   UNL A   1      52.912  27.574  26.331  1.00  0.00     0.198 A 
ATOM     91  F   UNL A   1      51.215  27.508  27.961  1.00  0.00    -0.203 F 
ATOM     92  F   UNL A   1      52.713  27.986  22.738  1.00  0.00    -0.200 F 
ATOM     93  C   UNL A   1      53.302  27.695  25.006  1.00  0.00     0.200 A 
ATOM     94  F   UNL A   1      53.834  27.394  27.287  1.00  0.00    -0.200 F 
ATOM     95  F   UNL A   1      54.596  27.605  24.675  1.00  0.00    -0.200 F 
ENDBRANCH  61  85
BRANCH  73  96
ATOM     96  C   UNL A   1      46.693  32.787  28.757  1.00  0.00     0.064 A 
ATOM     97  C   UNL A   1      46.702  33.913  27.921  1.00  0.00     0.173 A 
ATOM     98  C   UNL A   1      46.938  32.983  30.125  1.00  0.00     0.173 A 
ATOM     99  F   UNL A   1      46.485  33.779  26.604  1.00  0.00    -0.203 F 
ATOM    100  C   UNL A   1      46.972  35.180  28.431  1.00  0.00     0.198 A 
ATOM    101  C   UNL A   1      47.171  34.255  30.636  1.00  0.00     0.198 A 
ATOM    102  F   UNL A   1      46.929  31.941  30.970  1.00  0.00    -0.203 F 
ATOM    103  F   UNL A   1      47.024  36.234  27.605  1.00  0.00    -0.200 F 
ATOM    104  C   UNL A   1      47.195  35.352  29.788  1.00  0.00     0.200 A 
ATOM    105  F   UNL A   1      47.366  34.422  31.952  1.00  0.00    -0.200 F 
ATOM    106  F   UNL A   1      47.439  36.575  30.279  1.00  0.00    -0.200 F 
ENDBRANCH  73  96
ENDBRANCH  47  48
ENDBRANCH  40  42
ENDBRANCH  39  40
ENDBRANCH  38  39
ENDBRANCH  37  38
ENDBRANCH   1  37
TORSDOF 16
ENDMDL
MODEL 3
REMARK VINA RESULT:     -13.1      5.564     11.930
REMARK SMILES O=C(Cn1c(=O)[nH]c2ccccc2c1=O)NC[C@H]1CC[C@@H](C(=O)N2CCC(C(=O)OCCOC(=O)c3ccc(-c4c5nc(c(-c6c(F)c(F)c(F)c(F)c6F)c6ccc([nH]6)c(-c6c(F)c(F)c(F)c(F)c6F)c6nc(c(-c7c(F)c(F)c(F)c(F)c7F)c7ccc4[nH]7)C=C6)C=C5)cc3)CC2)CC1
REMARK SMILES IDX 30 1 28 2 29 3 27 4 22 5 23 6 24 7 25 8 100 9 26 10 99 11
REMARK SMILES IDX 21 12 18 13 19 14 102 15 20 16 101 17 17 18 16 19 1 20 2 21
REMARK SMILES IDX 3 23 4 24 5 25 14 26 6 27 7 28 13 29 15 30 8 31 12 33 9 34
REMARK SMILES IDX 11 35 10 36 31 37 32 38 33 39 34 40 35 41 36 42 37 43 98 44
REMARK SMILES IDX 38 45 97 46 39 47 40 48 41 49 91 50 42 51 96 52 90 53 92 54
REMARK SMILES IDX 43 55 95 56 89 57 88 58 44 60 76 61 56 62 75 63 57 64 60 65
REMARK SMILES IDX 74 66 93 67 58 68 59 69 73 71 94 72 61 73 45 74 46 75 54 76
REMARK SMILES IDX 47 77 48 78 52 79 55 80 49 81 50 82 53 83 51 84 77 85 78 86
REMARK SMILES IDX 86 87 79 88 80 89 84 90 87 91 81 92 82 93 85 94 83 95 62 96
REMARK SMILES IDX 63 97 71 98 64 99 65 100 69 101 72 102 66 103 67 104 70 105
REMARK SMILES IDX 68 106
REMARK H PARENT 16 22 7 32 92 59 60 70
REMARK Flexibility Score: inf
ROOT
ATOM      1  O   UNL A   1      38.202  21.195  25.487  1.00  0.00    -0.462 OA
ENDROOT
BRANCH   1   2
ATOM      2  C   UNL A   1      37.694  22.438  25.666  1.00  0.00     0.309 C 
ATOM      3  O   UNL A   1      38.304  23.391  26.136  1.00  0.00    -0.252 OA
BRANCH   2   4
ATOM      4  C   UNL A   1      36.253  22.536  25.229  1.00  0.00     0.103 C 
ATOM      5  C   UNL A   1      32.788  24.753  24.576  1.00  0.00     0.225 C 
ATOM      6  O   UNL A   1      32.624  25.494  25.551  1.00  0.00    -0.275 OA
ATOM      7  N   UNL A   1      33.746  23.764  24.604  1.00  0.00    -0.342 N 
ATOM      8  C   UNL A   1      33.862  22.951  25.808  1.00  0.00     0.120 C 
ATOM      9  C   UNL A   1      34.713  23.533  23.543  1.00  0.00     0.120 C 
ATOM     10  C   UNL A   1      35.280  22.928  26.343  1.00  0.00     0.037 C 
ATOM     11  C   UNL A   1      36.144  23.500  24.057  1.00  0.00     0.037 C 
BRANCH   5  12
ATOM     12  C   UNL A   1      31.727  24.729  23.462  1.00  0.00     0.078 C 
ATOM     13  C   UNL A   1      30.718  27.393  22.463  1.00  0.00     0.008 C 
ATOM     14  C   UNL A   1      32.142  26.901  22.197  1.00  0.00     0.006 C 
ATOM     15  C   UNL A   1      29.967  26.642  23.575  1.00  0.00     0.006 C 
ATOM     16  C   UNL A   1      32.268  25.386  22.191  1.00  0.00     0.014 C 
ATOM     17  C   UNL A   1      30.297  25.163  23.760  1.00  0.00     0.014 C 
BRANCH  13  18
ATOM     18  C   UNL A   1      30.766  28.907  22.758  1.00  0.00     0.119 C 
BRANCH  18  19
ATOM     19  N   UNL A   1      30.824  29.167  24.175  1.00  0.00    -0.354 N 
ATOM     20  O   UNL A   1      33.102  29.339  24.381  1.00  0.00    -0.273 OA
ATOM     21  C   UNL A   1      31.985  29.385  24.889  1.00  0.00     0.240 C 
ATOM     22  H   UNL A   1      29.973  29.190  24.670  1.00  0.00     0.163 HD
BRANCH  21  23
ATOM     23  C   UNL A   1      31.758  29.585  26.396  1.00  0.00     0.230 C 
BRANCH  23  24
ATOM     24  N   UNL A   1      32.255  30.895  26.813  1.00  0.00    -0.250 N 
ATOM     25  C   UNL A   1      31.522  32.018  26.472  1.00  0.00     0.329 A 
ATOM     26  C   UNL A   1      33.472  30.947  27.484  1.00  0.00     0.264 A 
ATOM     27  O   UNL A   1      30.520  32.002  25.762  1.00  0.00    -0.248 OA
ATOM     28  N   UNL A   1      31.977  33.216  26.954  1.00  0.00    -0.307 N 
ATOM     29  C   UNL A   1      33.832  32.225  28.112  1.00  0.00     0.064 A 
ATOM     30  O   UNL A   1      34.214  29.975  27.626  1.00  0.00    -0.268 OA
ATOM     31  C   UNL A   1      33.072  33.344  27.804  1.00  0.00     0.055 A 
ATOM     32  H   UNL A   1      31.503  34.034  26.684  1.00  0.00     0.171 HD
ATOM     33  C   UNL A   1      34.887  32.304  29.027  1.00  0.00     0.016 A 
ATOM     34  C   UNL A   1      33.387  34.576  28.374  1.00  0.00     0.027 A 
ATOM     35  C   UNL A   1      35.182  33.528  29.624  1.00  0.00     0.001 A 
ATOM     36  C   UNL A   1      34.440  34.662  29.290  1.00  0.00     0.002 A 
ENDBRANCH  23  24
ENDBRANCH  21  23
ENDBRANCH  18  19
ENDBRANCH  13  18
ENDBRANCH   5  12
ENDBRANCH   2   4
ENDBRANCH   1   2
BRANCH   1  37
ATOM     37  C   UNL A   1      39.600  21.040  25.775  1.00  0.00     0.274 C 
BRANCH  37  38
ATOM     38  C   UNL A   1      39.921  19.578  26.086  1.00  0.00     0.275 C 
BRANCH  38  39
ATOM     39  O   UNL A   1      41.097  19.141  25.377  1.00  0.00    -0.458 OA
BRANCH  39  40
ATOM     40  C   UNL A   1      42.239  19.073  26.100  1.00  0.00     0.338 C 
ATOM     41  O   UNL A   1      42.881  18.085  26.397  1.00  0.00    -0.246 OA
BRANCH  40  42
ATOM     42  C   UNL A   1      42.657  20.441  26.434  1.00  0.00     0.060 A 
ATOM     43  C   UNL A   1      42.544  20.890  27.747  1.00  0.00     0.016 A 
ATOM     44  C   UNL A   1      43.190  21.266  25.441  1.00  0.00     0.016 A 
ATOM     45  C   UNL A   1      42.919  22.199  28.049  1.00  0.00     0.010 A 
ATOM     46  C   UNL A   1      43.585  22.565  25.748  1.00  0.00     0.010 A 
ATOM     47  C   UNL A   1      43.431  23.049  27.052  1.00  0.00    -0.014 A 
BRANCH  47  48
ATOM     48  C   UNL A   1      43.811  24.441  27.388  1.00  0.00     0.031 A 
ATOM     49  C   UNL A   1      45.231  24.903  27.227  1.00  0.00     0.074 A 
ATOM     50  C   UNL A   1      42.858  25.289  27.816  1.00  0.00     0.049 A 
ATOM     51  N   UNL A   1      45.727  26.105  27.384  1.00  0.00    -0.248 NA
ATOM     52  C   UNL A   1      46.227  23.889  26.847  1.00  0.00     0.031 C 
ATOM     53  C   UNL A   1      41.459  24.931  28.044  1.00  0.00     0.029 A 
ATOM     54  N   UNL A   1      42.916  26.626  28.117  1.00  0.00    -0.354 N 
ATOM     55  C   UNL A   1      47.082  25.995  27.103  1.00  0.00     0.074 A 
ATOM     56  C   UNL A   1      47.347  24.600  26.826  1.00  0.00     0.031 C 
ATOM     57  C   UNL A   1      40.778  26.030  28.403  1.00  0.00     0.029 A 
ATOM     58  C   UNL A   1      41.700  27.161  28.465  1.00  0.00     0.049 A 
ATOM     59  H   UNL A   1      43.748  27.150  28.086  1.00  0.00     0.167 HD
ATOM     60  C   UNL A   1      48.012  26.978  27.054  1.00  0.00     0.037 A 
ATOM     61  C   UNL A   1      41.367  28.425  28.787  1.00  0.00     0.037 A 
ATOM     62  C   UNL A   1      47.737  28.365  27.334  1.00  0.00     0.049 A 
ATOM     63  C   UNL A   1      42.432  29.488  28.760  1.00  0.00     0.074 A 
ATOM     64  C   UNL A   1      48.606  29.441  27.287  1.00  0.00     0.029 A 
ATOM     65  N   UNL A   1      46.501  28.864  27.717  1.00  0.00    -0.354 N 
ATOM     66  N   UNL A   1      43.696  29.385  28.431  1.00  0.00    -0.248 NA
ATOM     67  C   UNL A   1      42.020  30.845  29.142  1.00  0.00     0.031 C 
ATOM     68  C   UNL A   1      47.910  30.582  27.692  1.00  0.00     0.029 A 
ATOM     69  C   UNL A   1      46.591  30.232  27.931  1.00  0.00     0.049 A 
ATOM     70  H   UNL A   1      45.682  28.329  27.820  1.00  0.00     0.167 HD
ATOM     71  C   UNL A   1      44.224  30.664  28.537  1.00  0.00     0.074 A 
ATOM     72  C   UNL A   1      43.137  31.531  28.941  1.00  0.00     0.031 C 
ATOM     73  C   UNL A   1      45.497  31.082  28.325  1.00  0.00     0.037 A 
BRANCH  60  74
ATOM     74  C   UNL A   1      49.414  26.609  26.661  1.00  0.00     0.064 A 
ATOM     75  C   UNL A   1      49.820  26.624  25.318  1.00  0.00     0.173 A 
ATOM     76  C   UNL A   1      50.386  26.347  27.636  1.00  0.00     0.173 A 
ATOM     77  F   UNL A   1      48.928  26.864  24.345  1.00  0.00    -0.203 F 
ATOM     78  C   UNL A   1      51.146  26.387  24.967  1.00  0.00     0.198 A 
ATOM     79  C   UNL A   1      51.718  26.139  27.285  1.00  0.00     0.198 A 
ATOM     80  F   UNL A   1      50.054  26.331  28.937  1.00  0.00    -0.203 F 
ATOM     81  F   UNL A   1      51.507  26.391  23.676  1.00  0.00    -0.200 F 
ATOM     82  C   UNL A   1      52.096  26.158  25.950  1.00  0.00     0.200 A 
ATOM     83  F   UNL A   1      52.639  25.941  28.238  1.00  0.00    -0.200 F 
ATOM     84  F   UNL A   1      53.379  25.965  25.613  1.00  0.00    -0.200 F 
ENDBRANCH  60  74
BRANCH  61  85
ATOM     85  C   UNL A   1      39.958  28.755  29.126  1.00  0.00     0.064 A 
ATOM     86  C   UNL A   1      39.476  28.605  30.435  1.00  0.00     0.173 A 
ATOM     87  C   UNL A   1      39.066  29.236  28.156  1.00  0.00     0.173 A 
ATOM     88  F   UNL A   1      40.283  28.132  31.395  1.00  0.00    -0.203 F 
ATOM     89  C   UNL A   1      38.153  28.902  30.754  1.00  0.00     0.198 A 
ATOM     90  C   UNL A   1      37.753  29.564  28.483  1.00  0.00     0.198 A 
ATOM     91  F   UNL A   1      39.477  29.403  26.890  1.00  0.00    -0.203 F 
ATOM     92  F   UNL A   1      37.707  28.704  32.001  1.00  0.00    -0.200 F 
ATOM     93  C   UNL A   1      37.294  29.390  29.780  1.00  0.00     0.200 A 
ATOM     94  F   UNL A   1      36.932  30.051  27.542  1.00  0.00    -0.200 F 
ATOM     95  F   UNL A   1      36.025  29.683  30.089  1.00  0.00    -0.200 F 
ENDBRANCH  61  85
BRANCH  73  96
ATOM     96  C   UNL A   1      45.782  32.546  28.498  1.00  0.00     0.064 A 
ATOM     97  C   UNL A   1      45.635  33.455  27.439  1.00  0.00     0.173 A 
ATOM     98  C   UNL A   1      46.151  33.056  29.752  1.00  0.00     0.173 A 
ATOM     99  F   UNL A   1      45.294  33.018  26.217  1.00  0.00    -0.203 F 
ATOM    100  C   UNL A   1      45.873  34.814  27.623  1.00  0.00     0.198 A 
ATOM    101  C   UNL A   1      46.353  34.419  29.941  1.00  0.00     0.198 A 
ATOM    102  F   UNL A   1      46.295  32.232  30.802  1.00  0.00    -0.203 F 
ATOM    103  F   UNL A   1      45.774  35.655  26.585  1.00  0.00    -0.200 F 
ATOM    104  C   UNL A   1      46.222  35.296  28.875  1.00  0.00     0.200 A 
ATOM    105  F   UNL A   1      46.670  34.887  31.158  1.00  0.00    -0.200 F 
ATOM    106  F   UNL A   1      46.436  36.607  29.054  1.00  0.00    -0.200 F 
ENDBRANCH  73  96
ENDBRANCH  47  48
ENDBRANCH  40  42
ENDBRANCH  39  40
ENDBRANCH  38  39
ENDBRANCH  37  38
ENDBRANCH   1  37
TORSDOF 16
ENDMDL
