MODEL 1
REMARK VINA RESULT:     -11.5      0.000      0.000
REMARK SMILES Cc1cc(Br)cnc1Sc1nc(CC(=O)OCCOC(=O)c2ccc(-c3c4nc(c(-c5c(F)c(F)c(F)c(F)c5F)c5ccc([nH]5)c(-c5c(F)c(F)c(F)c(F)c5F)c5nc(c(-c6c(F)c(F)c(F)c(F)c6F)c6ccc3[nH]6)C=C5)C=C4)cc2)cs1
REMARK SMILES IDX 17 1 16 2 14 3 15 4 13 5 12 6 10 7 11 8 86 9 85 10 9 11 8 12
REMARK SMILES IDX 1 13 2 14 3 15 4 16 7 17 5 18 6 19 18 20 19 21 20 22 21 23
REMARK SMILES IDX 22 24 23 25 84 26 24 27 83 28 25 29 26 30 27 31 77 32 28 33
REMARK SMILES IDX 82 34 76 35 78 36 29 37 81 38 75 39 74 40 30 42 62 43 42 44
REMARK SMILES IDX 61 45 43 46 46 47 60 48 79 49 44 50 45 51 59 53 80 54 47 55
REMARK SMILES IDX 31 56 32 57 40 58 33 59 34 60 38 61 41 62 35 63 36 64 39 65
REMARK SMILES IDX 37 66 63 67 64 68 72 69 65 70 66 71 70 72 73 73 67 74 68 75
REMARK SMILES IDX 71 76 69 77 48 78 49 79 57 80 50 81 51 82 55 83 58 84 52 85
REMARK SMILES IDX 53 86 56 87 54 88
REMARK H PARENT 78 41 46 52
REMARK Flexibility Score: inf
ROOT
ATOM      1  C   UNL A   1      31.742  30.573  26.328  1.00  0.00     0.274 C 
ENDROOT
BRANCH   1   2
ATOM      2  O   UNL A   1      32.099  29.803  27.494  1.00  0.00    -0.462 OA
BRANCH   2   3
ATOM      3  C   UNL A   1      32.101  28.453  27.342  1.00  0.00     0.312 C 
ATOM      4  O   UNL A   1      31.186  27.711  27.686  1.00  0.00    -0.252 OA
BRANCH   3   5
ATOM      5  C   UNL A   1      33.391  27.923  26.770  1.00  0.00     0.179 C 
BRANCH   5   6
ATOM      6  C   UNL A   1      33.259  26.975  25.622  1.00  0.00     0.064 A 
ATOM      7  C   UNL A   1      32.462  26.444  23.617  1.00  0.00     0.156 A 
ATOM      8  N   UNL A   1      32.385  27.320  24.594  1.00  0.00    -0.234 NA
ATOM      9  S   UNL A   1      33.518  25.119  23.897  1.00  0.00    -0.116 S 
ATOM     10  C   UNL A   1      33.982  25.821  25.384  1.00  0.00     0.092 A 
BRANCH   7  11
ATOM     11  S   UNL A   1      31.579  26.566  22.127  1.00  0.00    -0.039 SA
BRANCH  11  12
ATOM     12  C   UNL A   1      30.313  27.780  22.430  1.00  0.00     0.106 A 
ATOM     13  C   UNL A   1      28.714  26.435  23.950  1.00  0.00     0.047 C 
ATOM     14  C   UNL A   1      29.177  27.678  23.250  1.00  0.00    -0.017 A 
ATOM     15  C   UNL A   1      28.381  28.830  23.427  1.00  0.00     0.023 A 
ATOM     16  C   UNL A   1      28.749  30.037  22.854  1.00  0.00     0.036 A 
ATOM     17  N   UNL A   1      30.660  28.973  21.863  1.00  0.00    -0.248 NA
ATOM     18  Br  UNL A   1      27.733  31.596  23.143  1.00  0.00    -0.049 Br
ATOM     19  C   UNL A   1      29.890  30.061  22.085  1.00  0.00     0.128 A 
ENDBRANCH  11  12
ENDBRANCH   7  11
ENDBRANCH   5   6
ENDBRANCH   3   5
ENDBRANCH   2   3
ENDBRANCH   1   2
BRANCH   1  20
ATOM     20  C   UNL A   1      32.016  32.061  26.534  1.00  0.00     0.275 C 
BRANCH  20  21
ATOM     21  O   UNL A   1      32.761  32.267  27.749  1.00  0.00    -0.458 OA
BRANCH  21  22
ATOM     22  C   UNL A   1      33.820  33.097  27.649  1.00  0.00     0.338 C 
ATOM     23  O   UNL A   1      33.826  34.273  27.332  1.00  0.00    -0.246 OA
BRANCH  22  24
ATOM     24  C   UNL A   1      35.045  32.392  28.044  1.00  0.00     0.060 A 
ATOM     25  C   UNL A   1      34.978  31.036  28.376  1.00  0.00     0.016 A 
ATOM     26  C   UNL A   1      36.216  33.123  28.250  1.00  0.00     0.016 A 
ATOM     27  C   UNL A   1      36.077  30.417  28.969  1.00  0.00     0.010 A 
ATOM     28  C   UNL A   1      37.327  32.491  28.813  1.00  0.00     0.010 A 
ATOM     29  C   UNL A   1      37.250  31.146  29.214  1.00  0.00    -0.014 A 
BRANCH  29  30
ATOM     30  C   UNL A   1      38.366  30.524  29.967  1.00  0.00     0.031 A 
ATOM     31  C   UNL A   1      38.578  30.873  31.413  1.00  0.00     0.074 A 
ATOM     32  C   UNL A   1      39.185  29.648  29.359  1.00  0.00     0.049 A 
ATOM     33  N   UNL A   1      39.518  30.474  32.234  1.00  0.00    -0.248 NA
ATOM     34  C   UNL A   1      37.607  31.800  32.014  1.00  0.00     0.031 C 
ATOM     35  C   UNL A   1      39.083  29.227  27.964  1.00  0.00     0.029 A 
ATOM     36  N   UNL A   1      40.271  28.962  29.842  1.00  0.00    -0.354 N 
ATOM     37  C   UNL A   1      39.267  31.120  33.437  1.00  0.00     0.074 A 
ATOM     38  C   UNL A   1      38.096  31.948  33.236  1.00  0.00     0.031 C 
ATOM     39  C   UNL A   1      40.068  28.352  27.700  1.00  0.00     0.029 A 
ATOM     40  C   UNL A   1      40.882  28.174  28.901  1.00  0.00     0.049 A 
ATOM     41  H   UNL A   1      40.582  29.030  30.774  1.00  0.00     0.167 HD
ATOM     42  C   UNL A   1      39.948  31.028  34.604  1.00  0.00     0.037 A 
ATOM     43  C   UNL A   1      41.981  27.402  28.994  1.00  0.00     0.037 A 
ATOM     44  C   UNL A   1      41.098  30.189  34.815  1.00  0.00     0.049 A 
ATOM     45  C   UNL A   1      42.709  27.301  30.304  1.00  0.00     0.074 A 
ATOM     46  C   UNL A   1      41.840  30.009  35.970  1.00  0.00     0.029 A 
ATOM     47  N   UNL A   1      41.674  29.384  33.843  1.00  0.00    -0.354 N 
ATOM     48  N   UNL A   1      42.453  27.901  31.441  1.00  0.00    -0.248 NA
ATOM     49  C   UNL A   1      43.876  26.408  30.346  1.00  0.00     0.031 C 
ATOM     50  C   UNL A   1      42.879  29.114  35.689  1.00  0.00     0.029 A 
ATOM     51  C   UNL A   1      42.765  28.712  34.369  1.00  0.00     0.049 A 
ATOM     52  H   UNL A   1      41.353  29.302  32.915  1.00  0.00     0.167 HD
ATOM     53  C   UNL A   1      43.413  27.449  32.335  1.00  0.00     0.074 A 
ATOM     54  C   UNL A   1      44.250  26.513  31.613  1.00  0.00     0.031 C 
ATOM     55  C   UNL A   1      43.587  27.782  33.638  1.00  0.00     0.037 A 
BRANCH  42  56
ATOM     56  C   UNL A   1      39.472  31.880  35.742  1.00  0.00     0.064 A 
ATOM     57  C   UNL A   1      38.489  31.433  36.635  1.00  0.00     0.173 A 
ATOM     58  C   UNL A   1      40.015  33.159  35.943  1.00  0.00     0.173 A 
ATOM     59  F   UNL A   1      37.931  30.224  36.473  1.00  0.00    -0.203 F 
ATOM     60  C   UNL A   1      38.047  32.245  37.676  1.00  0.00     0.198 A 
ATOM     61  C   UNL A   1      39.585  33.959  36.998  1.00  0.00     0.198 A 
ATOM     62  F   UNL A   1      40.958  33.631  35.115  1.00  0.00    -0.203 F 
ATOM     63  F   UNL A   1      37.076  31.815  38.493  1.00  0.00    -0.200 F 
ATOM     64  C   UNL A   1      38.597  33.505  37.859  1.00  0.00     0.200 A 
ATOM     65  F   UNL A   1      40.121  35.174  37.177  1.00  0.00    -0.200 F 
ATOM     66  F   UNL A   1      38.168  34.286  38.860  1.00  0.00    -0.200 F 
ENDBRANCH  42  56
BRANCH  43  67
ATOM     67  C   UNL A   1      42.446  26.655  27.801  1.00  0.00     0.064 A 
ATOM     68  C   UNL A   1      43.368  27.221  26.911  1.00  0.00     0.173 A 
ATOM     69  C   UNL A   1      41.999  25.352  27.544  1.00  0.00     0.173 A 
ATOM     70  F   UNL A   1      43.805  28.474  27.109  1.00  0.00    -0.203 F 
ATOM     71  C   UNL A   1      43.823  26.513  25.802  1.00  0.00     0.198 A 
ATOM     72  C   UNL A   1      42.469  24.636  26.445  1.00  0.00     0.198 A 
ATOM     73  F   UNL A   1      41.117  24.770  28.370  1.00  0.00    -0.203 F 
ATOM     74  F   UNL A   1      44.685  27.084  24.952  1.00  0.00    -0.200 F 
ATOM     75  C   UNL A   1      43.378  25.219  25.575  1.00  0.00     0.200 A 
ATOM     76  F   UNL A   1      42.045  23.383  26.233  1.00  0.00    -0.200 F 
ATOM     77  F   UNL A   1      43.824  24.533  24.512  1.00  0.00    -0.200 F 
ENDBRANCH  43  67
BRANCH  55  78
ATOM     78  C   UNL A   1      44.710  27.113  34.371  1.00  0.00     0.064 A 
ATOM     79  C   UNL A   1      44.518  25.906  35.058  1.00  0.00     0.173 A 
ATOM     80  C   UNL A   1      45.995  27.673  34.364  1.00  0.00     0.173 A 
ATOM     81  F   UNL A   1      43.302  25.342  35.105  1.00  0.00    -0.203 F 
ATOM     82  C   UNL A   1      45.571  25.293  35.731  1.00  0.00     0.198 A 
ATOM     83  C   UNL A   1      47.051  27.046  35.020  1.00  0.00     0.198 A 
ATOM     84  F   UNL A   1      46.229  28.825  33.717  1.00  0.00    -0.203 F 
ATOM     85  F   UNL A   1      45.358  24.160  36.414  1.00  0.00    -0.200 F 
ATOM     86  C   UNL A   1      46.836  25.860  35.708  1.00  0.00     0.200 A 
ATOM     87  F   UNL A   1      48.275  27.592  34.994  1.00  0.00    -0.200 F 
ATOM     88  F   UNL A   1      47.850  25.269  36.357  1.00  0.00    -0.200 F 
ENDBRANCH  55  78
ENDBRANCH  29  30
ENDBRANCH  22  24
ENDBRANCH  21  22
ENDBRANCH  20  21
ENDBRANCH   1  20
TORSDOF 14
ENDMDL
MODEL 2
REMARK VINA RESULT:     -11.2      2.076      3.142
REMARK SMILES Cc1cc(Br)cnc1Sc1nc(CC(=O)OCCOC(=O)c2ccc(-c3c4nc(c(-c5c(F)c(F)c(F)c(F)c5F)c5ccc([nH]5)c(-c5c(F)c(F)c(F)c(F)c5F)c5nc(c(-c6c(F)c(F)c(F)c(F)c6F)c6ccc3[nH]6)C=C5)C=C4)cc2)cs1
REMARK SMILES IDX 17 1 16 2 14 3 15 4 13 5 12 6 10 7 11 8 86 9 85 10 9 11 8 12
REMARK SMILES IDX 1 13 2 14 3 15 4 16 7 17 5 18 6 19 18 20 19 21 20 22 21 23
REMARK SMILES IDX 22 24 23 25 84 26 24 27 83 28 25 29 26 30 27 31 77 32 28 33
REMARK SMILES IDX 82 34 76 35 78 36 29 37 81 38 75 39 74 40 30 42 62 43 42 44
REMARK SMILES IDX 61 45 43 46 46 47 60 48 79 49 44 50 45 51 59 53 80 54 47 55
REMARK SMILES IDX 31 56 32 57 40 58 33 59 34 60 38 61 41 62 35 63 36 64 39 65
REMARK SMILES IDX 37 66 63 67 64 68 72 69 65 70 66 71 70 72 73 73 67 74 68 75
REMARK SMILES IDX 71 76 69 77 48 78 49 79 57 80 50 81 51 82 55 83 58 84 52 85
REMARK SMILES IDX 53 86 56 87 54 88
REMARK H PARENT 78 41 46 52
REMARK Flexibility Score: inf
ROOT
ATOM      1  C   UNL A   1      31.781  30.597  26.158  1.00  0.00     0.274 C 
ENDROOT
BRANCH   1   2
ATOM      2  O   UNL A   1      31.819  29.660  27.253  1.00  0.00    -0.462 OA
BRANCH   2   3
ATOM      3  C   UNL A   1      32.054  28.363  26.924  1.00  0.00     0.312 C 
ATOM      4  O   UNL A   1      31.275  27.438  27.133  1.00  0.00    -0.252 OA
BRANCH   3   5
ATOM      5  C   UNL A   1      33.423  28.139  26.335  1.00  0.00     0.179 C 
BRANCH   5   6
ATOM      6  C   UNL A   1      33.458  27.675  24.915  1.00  0.00     0.064 A 
ATOM      7  C   UNL A   1      33.228  26.083  23.380  1.00  0.00     0.156 A 
ATOM      8  N   UNL A   1      33.278  26.314  24.673  1.00  0.00    -0.234 NA
ATOM      9  S   UNL A   1      33.474  27.456  22.377  1.00  0.00    -0.116 S 
ATOM     10  C   UNL A   1      33.546  28.443  23.770  1.00  0.00     0.092 A 
BRANCH   7  11
ATOM     11  S   UNL A   1      32.943  24.521  22.680  1.00  0.00    -0.039 SA
BRANCH  11  12
ATOM     12  C   UNL A   1      34.044  23.415  23.535  1.00  0.00     0.106 A 
ATOM     13  C   UNL A   1      32.345  21.909  24.769  1.00  0.00     0.047 C 
ATOM     14  C   UNL A   1      33.726  22.309  24.341  1.00  0.00    -0.017 A 
ATOM     15  C   UNL A   1      34.786  21.505  24.812  1.00  0.00     0.023 A 
ATOM     16  C   UNL A   1      36.094  21.770  24.436  1.00  0.00     0.036 A 
ATOM     17  N   UNL A   1      35.337  23.671  23.179  1.00  0.00    -0.248 NA
ATOM     18  Br  UNL A   1      37.506  20.660  25.001  1.00  0.00    -0.049 Br
ATOM     19  C   UNL A   1      36.320  22.856  23.624  1.00  0.00     0.128 A 
ENDBRANCH  11  12
ENDBRANCH   7  11
ENDBRANCH   5   6
ENDBRANCH   3   5
ENDBRANCH   2   3
ENDBRANCH   1   2
BRANCH   1  20
ATOM     20  C   UNL A   1      31.795  32.040  26.654  1.00  0.00     0.275 C 
BRANCH  20  21
ATOM     21  O   UNL A   1      32.664  32.167  27.796  1.00  0.00    -0.458 OA
BRANCH  21  22
ATOM     22  C   UNL A   1      33.730  32.975  27.629  1.00  0.00     0.338 C 
ATOM     23  O   UNL A   1      33.744  34.134  27.253  1.00  0.00    -0.246 OA
BRANCH  22  24
ATOM     24  C   UNL A   1      34.956  32.273  28.029  1.00  0.00     0.060 A 
ATOM     25  C   UNL A   1      34.884  30.927  28.398  1.00  0.00     0.016 A 
ATOM     26  C   UNL A   1      36.134  33.002  28.203  1.00  0.00     0.016 A 
ATOM     27  C   UNL A   1      35.986  30.317  28.995  1.00  0.00     0.010 A 
ATOM     28  C   UNL A   1      37.246  32.378  28.771  1.00  0.00     0.010 A 
ATOM     29  C   UNL A   1      37.165  31.044  29.208  1.00  0.00    -0.014 A 
BRANCH  29  30
ATOM     30  C   UNL A   1      38.286  30.435  29.965  1.00  0.00     0.031 A 
ATOM     31  C   UNL A   1      38.509  30.813  31.403  1.00  0.00     0.074 A 
ATOM     32  C   UNL A   1      39.099  29.546  29.370  1.00  0.00     0.049 A 
ATOM     33  N   UNL A   1      39.454  30.429  32.225  1.00  0.00    -0.248 NA
ATOM     34  C   UNL A   1      37.544  31.753  31.992  1.00  0.00     0.031 C 
ATOM     35  C   UNL A   1      38.986  29.097  27.984  1.00  0.00     0.029 A 
ATOM     36  N   UNL A   1      40.187  28.867  29.858  1.00  0.00    -0.354 N 
ATOM     37  C   UNL A   1      39.213  31.099  33.417  1.00  0.00     0.074 A 
ATOM     38  C   UNL A   1      38.042  31.925  33.208  1.00  0.00     0.031 C 
ATOM     39  C   UNL A   1      39.967  28.214  27.731  1.00  0.00     0.029 A 
ATOM     40  C   UNL A   1      40.789  28.059  28.929  1.00  0.00     0.049 A 
ATOM     41  H   UNL A   1      40.504  28.953  30.787  1.00  0.00     0.167 HD
ATOM     42  C   UNL A   1      39.902  31.029  34.580  1.00  0.00     0.037 A 
ATOM     43  C   UNL A   1      41.887  27.287  29.030  1.00  0.00     0.037 A 
ATOM     44  C   UNL A   1      41.052  30.192  34.799  1.00  0.00     0.049 A 
ATOM     45  C   UNL A   1      42.625  27.211  30.336  1.00  0.00     0.074 A 
ATOM     46  C   UNL A   1      41.802  30.033  35.953  1.00  0.00     0.029 A 
ATOM     47  N   UNL A   1      41.619  29.366  33.840  1.00  0.00    -0.354 N 
ATOM     48  N   UNL A   1      42.378  27.833  31.463  1.00  0.00    -0.248 NA
ATOM     49  C   UNL A   1      43.790  26.316  30.387  1.00  0.00     0.031 C 
ATOM     50  C   UNL A   1      42.837  29.131  35.683  1.00  0.00     0.029 A 
ATOM     51  C   UNL A   1      42.713  28.702  34.371  1.00  0.00     0.049 A 
ATOM     52  H   UNL A   1      41.292  29.267  32.916  1.00  0.00     0.167 HD
ATOM     53  C   UNL A   1      43.344  27.398  32.359  1.00  0.00     0.074 A 
ATOM     54  C   UNL A   1      44.173  26.446  31.650  1.00  0.00     0.031 C 
ATOM     55  C   UNL A   1      43.527  27.757  33.653  1.00  0.00     0.037 A 
BRANCH  42  56
ATOM     56  C   UNL A   1      39.436  31.905  35.704  1.00  0.00     0.064 A 
ATOM     57  C   UNL A   1      38.470  31.472  36.622  1.00  0.00     0.173 A 
ATOM     58  C   UNL A   1      39.972  33.192  35.867  1.00  0.00     0.173 A 
ATOM     59  F   UNL A   1      37.918  30.255  36.497  1.00  0.00    -0.203 F 
ATOM     60  C   UNL A   1      38.036  32.305  37.650  1.00  0.00     0.198 A 
ATOM     61  C   UNL A   1      39.551  34.014  36.908  1.00  0.00     0.198 A 
ATOM     62  F   UNL A   1      40.900  33.651  35.014  1.00  0.00    -0.203 F 
ATOM     63  F   UNL A   1      37.080  31.888  38.491  1.00  0.00    -0.200 F 
ATOM     64  C   UNL A   1      38.579  33.574  37.795  1.00  0.00     0.200 A 
ATOM     65  F   UNL A   1      40.080  35.237  37.051  1.00  0.00    -0.200 F 
ATOM     66  F   UNL A   1      38.159  34.376  38.782  1.00  0.00    -0.200 F 
ENDBRANCH  42  56
BRANCH  43  67
ATOM     67  C   UNL A   1      42.343  26.515  27.849  1.00  0.00     0.064 A 
ATOM     68  C   UNL A   1      41.797  25.259  27.556  1.00  0.00     0.173 A 
ATOM     69  C   UNL A   1      43.312  27.031  26.977  1.00  0.00     0.173 A 
ATOM     70  F   UNL A   1      40.883  24.719  28.376  1.00  0.00    -0.203 F 
ATOM     71  C   UNL A   1      42.207  24.542  26.434  1.00  0.00     0.198 A 
ATOM     72  C   UNL A   1      43.707  26.322  25.845  1.00  0.00     0.198 A 
ATOM     73  F   UNL A   1      43.860  28.231  27.218  1.00  0.00    -0.203 F 
ATOM     74  F   UNL A   1      41.689  23.332  26.188  1.00  0.00    -0.200 F 
ATOM     75  C   UNL A   1      43.156  25.078  25.577  1.00  0.00     0.200 A 
ATOM     76  F   UNL A   1      44.617  26.847  25.013  1.00  0.00    -0.200 F 
ATOM     77  F   UNL A   1      43.544  24.393  24.492  1.00  0.00    -0.200 F 
ENDBRANCH  43  67
BRANCH  55  78
ATOM     78  C   UNL A   1      44.654  27.100  34.391  1.00  0.00     0.064 A 
ATOM     79  C   UNL A   1      44.497  25.847  35.001  1.00  0.00     0.173 A 
ATOM     80  C   UNL A   1      45.910  27.719  34.468  1.00  0.00     0.173 A 
ATOM     81  F   UNL A   1      43.310  25.224  34.968  1.00  0.00    -0.203 F 
ATOM     82  C   UNL A   1      45.554  25.247  35.680  1.00  0.00     0.198 A 
ATOM     83  C   UNL A   1      46.970  27.106  35.129  1.00  0.00     0.198 A 
ATOM     84  F   UNL A   1      46.110  28.917  33.897  1.00  0.00    -0.203 F 
ATOM     85  F   UNL A   1      45.373  24.067  36.289  1.00  0.00    -0.200 F 
ATOM     86  C   UNL A   1      46.789  25.874  35.739  1.00  0.00     0.200 A 
ATOM     87  F   UNL A   1      48.166  27.711  35.182  1.00  0.00    -0.200 F 
ATOM     88  F   UNL A   1      47.806  25.295  36.394  1.00  0.00    -0.200 F 
ENDBRANCH  55  78
ENDBRANCH  29  30
ENDBRANCH  22  24
ENDBRANCH  21  22
ENDBRANCH  20  21
ENDBRANCH   1  20
TORSDOF 14
ENDMDL
MODEL 3
REMARK VINA RESULT:     -11.1      0.497      7.606
REMARK SMILES Cc1cc(Br)cnc1Sc1nc(CC(=O)OCCOC(=O)c2ccc(-c3c4nc(c(-c5c(F)c(F)c(F)c(F)c5F)c5ccc([nH]5)c(-c5c(F)c(F)c(F)c(F)c5F)c5nc(c(-c6c(F)c(F)c(F)c(F)c6F)c6ccc3[nH]6)C=C5)C=C4)cc2)cs1
REMARK SMILES IDX 17 1 16 2 14 3 15 4 13 5 12 6 10 7 11 8 86 9 85 10 9 11 8 12
REMARK SMILES IDX 1 13 2 14 3 15 4 16 7 17 5 18 6 19 18 20 19 21 20 22 21 23
REMARK SMILES IDX 22 24 23 25 84 26 24 27 83 28 25 29 26 30 27 31 77 32 28 33
REMARK SMILES IDX 82 34 76 35 78 36 29 37 81 38 75 39 74 40 30 42 62 43 42 44
REMARK SMILES IDX 61 45 43 46 46 47 60 48 79 49 44 50 45 51 59 53 80 54 47 55
REMARK SMILES IDX 31 56 32 57 40 58 33 59 34 60 38 61 41 62 35 63 36 64 39 65
REMARK SMILES IDX 37 66 63 67 64 68 72 69 65 70 66 71 70 72 73 73 67 74 68 75
REMARK SMILES IDX 71 76 69 77 48 78 49 79 57 80 50 81 51 82 55 83 58 84 52 85
REMARK SMILES IDX 53 86 56 87 54 88
REMARK H PARENT 78 41 46 52
REMARK Flexibility Score: inf
ROOT
ATOM      1  C   UNL A   1      31.794  30.846  26.452  1.00  0.00     0.274 C 
ENDROOT
BRANCH   1   2
ATOM      2  O   UNL A   1      32.359  30.037  27.503  1.00  0.00    -0.462 OA
BRANCH   2   3
ATOM      3  C   UNL A   1      32.288  28.691  27.328  1.00  0.00     0.312 C 
ATOM      4  O   UNL A   1      31.346  27.991  27.685  1.00  0.00    -0.252 OA
BRANCH   3   5
ATOM      5  C   UNL A   1      33.532  28.107  26.710  1.00  0.00     0.179 C 
BRANCH   5   6
ATOM      6  C   UNL A   1      33.316  27.077  25.649  1.00  0.00     0.064 A 
ATOM      7  C   UNL A   1      32.466  26.443  23.695  1.00  0.00     0.156 A 
ATOM      8  N   UNL A   1      32.467  27.403  24.593  1.00  0.00    -0.234 NA
ATOM      9  S   UNL A   1      33.411  25.064  24.091  1.00  0.00    -0.116 S 
ATOM     10  C   UNL A   1      33.940  25.852  25.512  1.00  0.00     0.092 A 
BRANCH   7  11
ATOM     11  S   UNL A   1      31.587  26.508  22.200  1.00  0.00    -0.039 SA
BRANCH  11  12
ATOM     12  C   UNL A   1      30.329  27.742  22.448  1.00  0.00     0.106 A 
ATOM     13  C   UNL A   1      28.672  26.440  23.945  1.00  0.00     0.047 C 
ATOM     14  C   UNL A   1      29.169  27.666  23.238  1.00  0.00    -0.017 A 
ATOM     15  C   UNL A   1      28.383  28.830  23.375  1.00  0.00     0.023 A 
ATOM     16  C   UNL A   1      28.782  30.024  22.793  1.00  0.00     0.036 A 
ATOM     17  N   UNL A   1      30.706  28.920  21.872  1.00  0.00    -0.248 NA
ATOM     18  Br  UNL A   1      27.778  31.599  23.029  1.00  0.00    -0.049 Br
ATOM     19  C   UNL A   1      29.943  30.021  22.055  1.00  0.00     0.128 A 
ENDBRANCH  11  12
ENDBRANCH   7  11
ENDBRANCH   5   6
ENDBRANCH   3   5
ENDBRANCH   2   3
ENDBRANCH   1   2
BRANCH   1  20
ATOM     20  C   UNL A   1      31.875  32.333  26.784  1.00  0.00     0.275 C 
BRANCH  20  21
ATOM     21  O   UNL A   1      32.748  32.546  27.910  1.00  0.00    -0.458 OA
BRANCH  21  22
ATOM     22  C   UNL A   1      33.833  33.310  27.669  1.00  0.00     0.338 C 
ATOM     23  O   UNL A   1      33.874  34.426  27.182  1.00  0.00    -0.246 OA
BRANCH  22  24
ATOM     24  C   UNL A   1      35.042  32.623  28.140  1.00  0.00     0.060 A 
ATOM     25  C   UNL A   1      34.941  31.317  28.626  1.00  0.00     0.016 A 
ATOM     26  C   UNL A   1      36.232  33.343  28.259  1.00  0.00     0.016 A 
ATOM     27  C   UNL A   1      36.026  30.742  29.285  1.00  0.00     0.010 A 
ATOM     28  C   UNL A   1      37.328  32.751  28.890  1.00  0.00     0.010 A 
ATOM     29  C   UNL A   1      37.218  31.463  29.443  1.00  0.00    -0.014 A 
BRANCH  29  30
ATOM     30  C   UNL A   1      38.321  30.903  30.260  1.00  0.00     0.031 A 
ATOM     31  C   UNL A   1      39.271  29.908  29.654  1.00  0.00     0.074 A 
ATOM     32  C   UNL A   1      38.475  31.285  31.540  1.00  0.00     0.049 A 
ATOM     33  N   UNL A   1      40.271  29.270  30.209  1.00  0.00    -0.248 NA
ATOM     34  C   UNL A   1      39.063  29.583  28.235  1.00  0.00     0.031 C 
ATOM     35  C   UNL A   1      37.623  32.242  32.242  1.00  0.00     0.029 A 
ATOM     36  N   UNL A   1      39.401  30.905  32.478  1.00  0.00    -0.354 N 
ATOM     37  C   UNL A   1      40.794  28.451  29.218  1.00  0.00     0.074 A 
ATOM     38  C   UNL A   1      39.993  28.661  28.031  1.00  0.00     0.031 C 
ATOM     39  C   UNL A   1      38.066  32.376  33.503  1.00  0.00     0.029 A 
ATOM     40  C   UNL A   1      39.215  31.495  33.701  1.00  0.00     0.049 A 
ATOM     41  H   UNL A   1      40.130  30.269  32.291  1.00  0.00     0.167 HD
ATOM     42  C   UNL A   1      41.848  27.604  29.289  1.00  0.00     0.037 A 
ATOM     43  C   UNL A   1      39.889  31.336  34.855  1.00  0.00     0.037 A 
ATOM     44  C   UNL A   1      42.662  27.409  30.460  1.00  0.00     0.049 A 
ATOM     45  C   UNL A   1      41.067  30.405  34.906  1.00  0.00     0.074 A 
ATOM     46  C   UNL A   1      43.768  26.592  30.621  1.00  0.00     0.029 A 
ATOM     47  N   UNL A   1      42.457  28.045  31.676  1.00  0.00    -0.354 N 
ATOM     48  N   UNL A   1      41.565  29.650  33.957  1.00  0.00    -0.248 NA
ATOM     49  C   UNL A   1      41.783  30.312  36.186  1.00  0.00     0.031 C 
ATOM     50  C   UNL A   1      44.216  26.715  31.942  1.00  0.00     0.029 A 
ATOM     51  C   UNL A   1      43.410  27.634  32.593  1.00  0.00     0.049 A 
ATOM     52  H   UNL A   1      41.739  28.695  31.859  1.00  0.00     0.167 HD
ATOM     53  C   UNL A   1      42.657  29.003  34.519  1.00  0.00     0.074 A 
ATOM     54  C   UNL A   1      42.759  29.466  35.887  1.00  0.00     0.031 C 
ATOM     55  C   UNL A   1      43.499  28.105  33.951  1.00  0.00     0.037 A 
BRANCH  42  56
ATOM     56  C   UNL A   1      42.167  26.805  28.062  1.00  0.00     0.064 A 
ATOM     57  C   UNL A   1      43.087  27.258  27.107  1.00  0.00     0.173 A 
ATOM     58  C   UNL A   1      41.548  25.564  27.844  1.00  0.00     0.173 A 
ATOM     59  F   UNL A   1      43.692  28.446  27.264  1.00  0.00    -0.203 F 
ATOM     60  C   UNL A   1      43.358  26.511  25.964  1.00  0.00     0.198 A 
ATOM     61  C   UNL A   1      41.837  24.810  26.711  1.00  0.00     0.198 A 
ATOM     62  F   UNL A   1      40.660  25.087  28.730  1.00  0.00    -0.203 F 
ATOM     63  F   UNL A   1      44.209  26.983  25.042  1.00  0.00    -0.200 F 
ATOM     64  C   UNL A   1      42.736  25.286  25.768  1.00  0.00     0.200 A 
ATOM     65  F   UNL A   1      41.240  23.624  26.526  1.00  0.00    -0.200 F 
ATOM     66  F   UNL A   1      42.996  24.569  24.666  1.00  0.00    -0.200 F 
ENDBRANCH  42  56
BRANCH  43  67
ATOM     67  C   UNL A   1      39.462  32.094  36.056  1.00  0.00     0.064 A 
ATOM     68  C   UNL A   1      38.446  31.610  36.889  1.00  0.00     0.173 A 
ATOM     69  C   UNL A   1      40.080  33.302  36.407  1.00  0.00     0.173 A 
ATOM     70  F   UNL A   1      37.813  30.469  36.578  1.00  0.00    -0.203 F 
ATOM     71  C   UNL A   1      38.058  32.310  38.029  1.00  0.00     0.198 A 
ATOM     72  C   UNL A   1      39.706  33.992  37.558  1.00  0.00     0.198 A 
ATOM     73  F   UNL A   1      41.060  33.802  35.639  1.00  0.00    -0.203 F 
ATOM     74  F   UNL A   1      37.067  31.839  38.797  1.00  0.00    -0.200 F 
ATOM     75  C   UNL A   1      38.694  33.495  38.365  1.00  0.00     0.200 A 
ATOM     76  F   UNL A   1      40.329  35.132  37.885  1.00  0.00    -0.200 F 
ATOM     77  F   UNL A   1      38.327  34.164  39.468  1.00  0.00    -0.200 F 
ENDBRANCH  43  67
BRANCH  55  78
ATOM     78  C   UNL A   1      44.616  27.583  34.802  1.00  0.00     0.064 A 
ATOM     79  C   UNL A   1      45.852  28.241  34.872  1.00  0.00     0.173 A 
ATOM     80  C   UNL A   1      44.439  26.425  35.574  1.00  0.00     0.173 A 
ATOM     81  F   UNL A   1      46.072  29.342  34.138  1.00  0.00    -0.203 F 
ATOM     82  C   UNL A   1      46.880  27.746  35.670  1.00  0.00     0.198 A 
ATOM     83  C   UNL A   1      45.462  25.946  36.388  1.00  0.00     0.198 A 
ATOM     84  F   UNL A   1      43.273  25.763  35.543  1.00  0.00    -0.203 F 
ATOM     85  F   UNL A   1      48.066  28.369  35.693  1.00  0.00    -0.200 F 
ATOM     86  C   UNL A   1      46.683  26.603  36.430  1.00  0.00     0.200 A 
ATOM     87  F   UNL A   1      45.270  24.843  37.126  1.00  0.00    -0.200 F 
ATOM     88  F   UNL A   1      47.674  26.128  37.198  1.00  0.00    -0.200 F 
ENDBRANCH  55  78
ENDBRANCH  29  30
ENDBRANCH  22  24
ENDBRANCH  21  22
ENDBRANCH  20  21
ENDBRANCH   1  20
TORSDOF 14
ENDMDL
