MODEL 1
REMARK VINA RESULT:     -11.8      0.000      0.000
REMARK SMILES O=C(OCCOC(=O)c1sccc1S(=O)(=O)Nc1ccccc1N1CCCCC1)c1ccc(-c2c3nc(c(-c4c(F)c(F)c(F)c(F)c4F)c4ccc([nH]4)c(-c4c(F)c(F)c(F)c(F)c4F)c4nc(c(-c5c(F)c(F)c(F)c(F)c5F)c5ccc2[nH]5)C=C4)C=C3)cc1
REMARK SMILES IDX 5 1 4 2 3 3 2 4 1 5 30 6 31 7 92 8 32 9 91 10 33 11 34 12
REMARK SMILES IDX 35 13 85 14 36 15 90 16 84 17 86 18 37 19 89 20 83 21 82 22
REMARK SMILES IDX 38 24 70 25 50 26 69 27 51 28 54 29 68 30 87 31 52 32 53 33
REMARK SMILES IDX 67 35 88 36 55 37 39 38 40 39 48 40 41 41 42 42 46 43 49 44
REMARK SMILES IDX 43 45 44 46 47 47 45 48 71 49 72 50 80 51 73 52 74 53 78 54
REMARK SMILES IDX 81 55 75 56 76 57 79 58 77 59 56 60 57 61 65 62 58 63 59 64
REMARK SMILES IDX 63 65 66 66 60 67 61 68 64 69 62 70 6 71 7 72 8 73 9 74
REMARK SMILES IDX 10 75 13 76 11 77 12 78 14 79 15 80 16 81 17 82 18 84 19 85
REMARK SMILES IDX 23 86 20 87 22 88 21 89 24 90 25 91 29 92 26 93 28 94 27 95
REMARK H PARENT 86 23 54 34 17 83
REMARK Flexibility Score: inf
ROOT
ATOM      1  C   UNL A   1      33.078  27.795  26.565  1.00  0.00     0.275 C 
ENDROOT
BRANCH   1   2
ATOM      2  C   UNL A   1      32.678  29.161  27.116  1.00  0.00     0.275 C 
BRANCH   2   3
ATOM      3  O   UNL A   1      33.657  30.181  26.876  1.00  0.00    -0.458 OA
BRANCH   3   4
ATOM      4  C   UNL A   1      34.350  30.773  27.879  1.00  0.00     0.338 C 
ATOM      5  O   UNL A   1      34.068  31.891  28.293  1.00  0.00    -0.246 OA
BRANCH   4   6
ATOM      6  C   UNL A   1      35.655  30.169  28.246  1.00  0.00     0.060 A 
ATOM      7  C   UNL A   1      35.982  29.738  29.536  1.00  0.00     0.016 A 
ATOM      8  C   UNL A   1      36.616  30.091  27.234  1.00  0.00     0.016 A 
ATOM      9  C   UNL A   1      37.222  29.153  29.797  1.00  0.00     0.010 A 
ATOM     10  C   UNL A   1      37.866  29.524  27.495  1.00  0.00     0.010 A 
ATOM     11  C   UNL A   1      38.174  29.054  28.781  1.00  0.00    -0.014 A 
BRANCH  11  12
ATOM     12  C   UNL A   1      39.575  28.725  29.115  1.00  0.00     0.031 A 
ATOM     13  C   UNL A   1      40.383  29.793  29.780  1.00  0.00     0.074 A 
ATOM     14  C   UNL A   1      40.118  27.522  28.864  1.00  0.00     0.049 A 
ATOM     15  N   UNL A   1      41.616  29.746  30.203  1.00  0.00    -0.248 NA
ATOM     16  C   UNL A   1      39.694  31.068  30.042  1.00  0.00     0.031 C 
ATOM     17  C   UNL A   1      39.399  26.375  28.336  1.00  0.00     0.029 A 
ATOM     18  N   UNL A   1      41.407  27.072  28.988  1.00  0.00    -0.354 N 
ATOM     19  C   UNL A   1      41.820  30.950  30.852  1.00  0.00     0.074 A 
ATOM     20  C   UNL A   1      40.631  31.752  30.675  1.00  0.00     0.031 C 
ATOM     21  C   UNL A   1      40.273  25.391  28.056  1.00  0.00     0.029 A 
ATOM     22  C   UNL A   1      41.608  25.833  28.429  1.00  0.00     0.049 A 
ATOM     23  H   UNL A   1      42.119  27.587  29.433  1.00  0.00     0.167 HD
ATOM     24  C   UNL A   1      42.887  31.325  31.589  1.00  0.00     0.037 A 
ATOM     25  C   UNL A   1      42.749  25.146  28.234  1.00  0.00     0.037 A 
ATOM     26  C   UNL A   1      44.077  30.540  31.720  1.00  0.00     0.049 A 
ATOM     27  C   UNL A   1      44.011  25.694  28.843  1.00  0.00     0.074 A 
ATOM     28  C   UNL A   1      45.220  30.809  32.448  1.00  0.00     0.029 A 
ATOM     29  N   UNL A   1      44.284  29.331  31.069  1.00  0.00    -0.354 N 
ATOM     30  N   UNL A   1      44.170  26.787  29.551  1.00  0.00    -0.248 NA
ATOM     31  C   UNL A   1      45.236  24.903  28.676  1.00  0.00     0.031 C 
ATOM     32  C   UNL A   1      46.140  29.784  32.195  1.00  0.00     0.029 A 
ATOM     33  C   UNL A   1      45.557  28.864  31.335  1.00  0.00     0.049 A 
ATOM     34  H   UNL A   1      43.621  28.875  30.502  1.00  0.00     0.167 HD
ATOM     35  C   UNL A   1      45.488  26.778  29.976  1.00  0.00     0.074 A 
ATOM     36  C   UNL A   1      46.097  25.586  29.418  1.00  0.00     0.031 C 
ATOM     37  C   UNL A   1      46.129  27.663  30.779  1.00  0.00     0.037 A 
BRANCH  24  38
ATOM     38  C   UNL A   1      42.761  32.636  32.292  1.00  0.00     0.064 A 
ATOM     39  C   UNL A   1      42.172  32.714  33.565  1.00  0.00     0.173 A 
ATOM     40  C   UNL A   1      43.125  33.827  31.655  1.00  0.00     0.173 A 
ATOM     41  F   UNL A   1      41.770  31.598  34.194  1.00  0.00    -0.203 F 
ATOM     42  C   UNL A   1      41.920  33.946  34.159  1.00  0.00     0.198 A 
ATOM     43  C   UNL A   1      42.887  35.057  32.261  1.00  0.00     0.198 A 
ATOM     44  F   UNL A   1      43.666  33.798  30.429  1.00  0.00    -0.203 F 
ATOM     45  F   UNL A   1      41.296  34.002  35.344  1.00  0.00    -0.200 F 
ATOM     46  C   UNL A   1      42.276  35.116  33.506  1.00  0.00     0.200 A 
ATOM     47  F   UNL A   1      43.218  36.189  31.624  1.00  0.00    -0.200 F 
ATOM     48  F   UNL A   1      42.009  36.304  34.065  1.00  0.00    -0.200 F 
ENDBRANCH  24  38
BRANCH  25  49
ATOM     49  C   UNL A   1      42.756  23.886  27.445  1.00  0.00     0.064 A 
ATOM     50  C   UNL A   1      42.453  22.648  28.028  1.00  0.00     0.173 A 
ATOM     51  C   UNL A   1      43.126  23.892  26.090  1.00  0.00     0.173 A 
ATOM     52  F   UNL A   1      42.115  22.585  29.325  1.00  0.00    -0.203 F 
ATOM     53  C   UNL A   1      42.549  21.463  27.298  1.00  0.00     0.198 A 
ATOM     54  C   UNL A   1      43.208  22.707  25.357  1.00  0.00     0.198 A 
ATOM     55  F   UNL A   1      43.431  25.047  25.480  1.00  0.00    -0.203 F 
ATOM     56  F   UNL A   1      42.307  20.288  27.896  1.00  0.00    -0.200 F 
ATOM     57  C   UNL A   1      42.929  21.494  25.964  1.00  0.00     0.200 A 
ATOM     58  F   UNL A   1      43.576  22.743  24.069  1.00  0.00    -0.200 F 
ATOM     59  F   UNL A   1      43.044  20.352  25.271  1.00  0.00    -0.200 F 
ENDBRANCH  25  49
BRANCH  37  60
ATOM     60  C   UNL A   1      47.545  27.349  31.141  1.00  0.00     0.064 A 
ATOM     61  C   UNL A   1      47.855  26.472  32.188  1.00  0.00     0.173 A 
ATOM     62  C   UNL A   1      48.599  27.885  30.387  1.00  0.00     0.173 A 
ATOM     63  F   UNL A   1      46.877  25.956  32.947  1.00  0.00    -0.203 F 
ATOM     64  C   UNL A   1      49.176  26.146  32.472  1.00  0.00     0.198 A 
ATOM     65  C   UNL A   1      49.917  27.536  30.658  1.00  0.00     0.198 A 
ATOM     66  F   UNL A   1      48.346  28.729  29.375  1.00  0.00    -0.203 F 
ATOM     67  F   UNL A   1      49.455  25.326  33.496  1.00  0.00    -0.200 F 
ATOM     68  C   UNL A   1      50.205  26.669  31.701  1.00  0.00     0.200 A 
ATOM     69  F   UNL A   1      50.909  28.034  29.907  1.00  0.00    -0.200 F 
ATOM     70  F   UNL A   1      51.476  26.339  31.967  1.00  0.00    -0.200 F 
ENDBRANCH  37  60
ENDBRANCH  11  12
ENDBRANCH   4   6
ENDBRANCH   3   4
ENDBRANCH   2   3
ENDBRANCH   1   2
BRANCH   1  71
ATOM     71  O   UNL A   1      33.679  27.819  25.261  1.00  0.00    -0.458 OA
BRANCH  71  72
ATOM     72  C   UNL A   1      32.853  28.179  24.239  1.00  0.00     0.349 C 
ATOM     73  O   UNL A   1      32.954  29.226  23.613  1.00  0.00    -0.245 OA
BRANCH  72  74
ATOM     74  C   UNL A   1      31.897  27.131  23.947  1.00  0.00     0.133 A 
ATOM     75  S   UNL A   1      30.263  27.430  24.430  1.00  0.00    -0.136 S 
ATOM     76  C   UNL A   1      32.027  25.859  23.408  1.00  0.00     0.113 A 
ATOM     77  C   UNL A   1      29.719  25.936  23.822  1.00  0.00     0.067 A 
ATOM     78  C   UNL A   1      30.762  25.171  23.357  1.00  0.00     0.035 A 
BRANCH  76  79
ATOM     79  S   UNL A   1      33.494  25.099  22.859  1.00  0.00     0.263 S 
ATOM     80  O   UNL A   1      33.083  23.757  22.494  1.00  0.00    -0.201 OA
ATOM     81  O   UNL A   1      34.047  25.970  21.847  1.00  0.00    -0.201 OA
BRANCH  79  82
ATOM     82  N   UNL A   1      34.625  24.888  24.085  1.00  0.00    -0.277 N 
ATOM     83  H   UNL A   1      34.927  25.646  24.637  1.00  0.00     0.180 HD
BRANCH  82  84
ATOM     84  C   UNL A   1      35.132  23.567  24.296  1.00  0.00     0.072 A 
ATOM     85  C   UNL A   1      36.380  23.263  23.728  1.00  0.00     0.029 A 
ATOM     86  C   UNL A   1      34.442  22.644  25.122  1.00  0.00     0.061 A 
ATOM     87  C   UNL A   1      36.979  22.032  23.967  1.00  0.00     0.002 A 
ATOM     88  C   UNL A   1      35.094  21.418  25.350  1.00  0.00     0.028 A 
ATOM     89  C   UNL A   1      36.343  21.116  24.793  1.00  0.00     0.002 A 
BRANCH  86  90
ATOM     90  N   UNL A   1      33.170  22.849  25.676  1.00  0.00    -0.370 N 
ATOM     91  C   UNL A   1      32.188  21.763  25.554  1.00  0.00     0.116 C 
ATOM     92  C   UNL A   1      32.978  23.785  26.789  1.00  0.00     0.116 C 
ATOM     93  C   UNL A   1      30.757  22.275  25.609  1.00  0.00     0.021 C 
ATOM     94  C   UNL A   1      31.536  24.288  26.846  1.00  0.00     0.021 C 
ATOM     95  C   UNL A   1      30.542  23.133  26.848  1.00  0.00     0.004 C 
ENDBRANCH  86  90
ENDBRANCH  82  84
ENDBRANCH  79  82
ENDBRANCH  76  79
ENDBRANCH  72  74
ENDBRANCH  71  72
ENDBRANCH   1  71
TORSDOF 15
ENDMDL
MODEL 2
REMARK VINA RESULT:     -11.7      4.970      9.827
REMARK SMILES O=C(OCCOC(=O)c1sccc1S(=O)(=O)Nc1ccccc1N1CCCCC1)c1ccc(-c2c3nc(c(-c4c(F)c(F)c(F)c(F)c4F)c4ccc([nH]4)c(-c4c(F)c(F)c(F)c(F)c4F)c4nc(c(-c5c(F)c(F)c(F)c(F)c5F)c5ccc2[nH]5)C=C4)C=C3)cc1
REMARK SMILES IDX 5 1 4 2 3 3 2 4 1 5 30 6 31 7 92 8 32 9 91 10 33 11 34 12
REMARK SMILES IDX 35 13 85 14 36 15 90 16 84 17 86 18 37 19 89 20 83 21 82 22
REMARK SMILES IDX 38 24 70 25 50 26 69 27 51 28 54 29 68 30 87 31 52 32 53 33
REMARK SMILES IDX 67 35 88 36 55 37 39 38 40 39 48 40 41 41 42 42 46 43 49 44
REMARK SMILES IDX 43 45 44 46 47 47 45 48 71 49 72 50 80 51 73 52 74 53 78 54
REMARK SMILES IDX 81 55 75 56 76 57 79 58 77 59 56 60 57 61 65 62 58 63 59 64
REMARK SMILES IDX 63 65 66 66 60 67 61 68 64 69 62 70 6 71 7 72 8 73 9 74
REMARK SMILES IDX 10 75 13 76 11 77 12 78 14 79 15 80 16 81 17 82 18 84 19 85
REMARK SMILES IDX 23 86 20 87 22 88 21 89 24 90 25 91 29 92 26 93 28 94 27 95
REMARK H PARENT 86 23 54 34 17 83
REMARK Flexibility Score: inf
ROOT
ATOM      1  C   UNL A   1      41.180  20.406  27.499  1.00  0.00     0.275 C 
ENDROOT
BRANCH   1   2
ATOM      2  C   UNL A   1      40.637  21.833  27.519  1.00  0.00     0.275 C 
BRANCH   2   3
ATOM      3  O   UNL A   1      39.809  22.144  26.391  1.00  0.00    -0.458 OA
BRANCH   3   4
ATOM      4  C   UNL A   1      38.882  23.132  26.420  1.00  0.00     0.338 C 
ATOM      5  O   UNL A   1      37.834  23.059  25.789  1.00  0.00    -0.246 OA
BRANCH   4   6
ATOM      6  C   UNL A   1      39.307  24.440  26.976  1.00  0.00     0.060 A 
ATOM      7  C   UNL A   1      40.071  25.376  26.273  1.00  0.00     0.016 A 
ATOM      8  C   UNL A   1      38.957  24.700  28.305  1.00  0.00     0.016 A 
ATOM      9  C   UNL A   1      40.408  26.600  26.856  1.00  0.00     0.010 A 
ATOM     10  C   UNL A   1      39.309  25.915  28.899  1.00  0.00     0.010 A 
ATOM     11  C   UNL A   1      40.039  26.870  28.174  1.00  0.00    -0.014 A 
BRANCH  11  12
ATOM     12  C   UNL A   1      40.645  28.012  28.889  1.00  0.00     0.031 A 
ATOM     13  C   UNL A   1      39.788  29.221  29.085  1.00  0.00     0.074 A 
ATOM     14  C   UNL A   1      41.899  27.985  29.371  1.00  0.00     0.049 A 
ATOM     15  N   UNL A   1      40.069  30.334  29.704  1.00  0.00    -0.248 NA
ATOM     16  C   UNL A   1      38.418  29.148  28.549  1.00  0.00     0.031 C 
ATOM     17  C   UNL A   1      42.778  26.828  29.348  1.00  0.00     0.029 A 
ATOM     18  N   UNL A   1      42.665  28.967  29.945  1.00  0.00    -0.354 N 
ATOM     19  C   UNL A   1      38.888  31.055  29.703  1.00  0.00     0.074 A 
ATOM     20  C   UNL A   1      37.920  30.310  28.931  1.00  0.00     0.031 C 
ATOM     21  C   UNL A   1      44.005  27.191  29.761  1.00  0.00     0.029 A 
ATOM     22  C   UNL A   1      43.979  28.602  30.117  1.00  0.00     0.049 A 
ATOM     23  H   UNL A   1      42.309  29.847  30.207  1.00  0.00     0.167 HD
ATOM     24  C   UNL A   1      38.619  32.208  30.350  1.00  0.00     0.037 A 
ATOM     25  C   UNL A   1      45.037  29.337  30.509  1.00  0.00     0.037 A 
ATOM     26  C   UNL A   1      39.599  32.960  31.075  1.00  0.00     0.049 A 
ATOM     27  C   UNL A   1      44.777  30.735  30.999  1.00  0.00     0.074 A 
ATOM     28  C   UNL A   1      39.444  34.136  31.781  1.00  0.00     0.029 A 
ATOM     29  N   UNL A   1      40.940  32.610  31.156  1.00  0.00    -0.354 N 
ATOM     30  N   UNL A   1      43.633  31.369  31.094  1.00  0.00    -0.248 NA
ATOM     31  C   UNL A   1      45.932  31.503  31.481  1.00  0.00     0.031 C 
ATOM     32  C   UNL A   1      40.706  34.526  32.247  1.00  0.00     0.029 A 
ATOM     33  C   UNL A   1      41.639  33.575  31.856  1.00  0.00     0.049 A 
ATOM     34  H   UNL A   1      41.335  31.793  30.771  1.00  0.00     0.167 HD
ATOM     35  C   UNL A   1      43.915  32.576  31.713  1.00  0.00     0.074 A 
ATOM     36  C   UNL A   1      45.347  32.601  31.942  1.00  0.00     0.031 C 
ATOM     37  C   UNL A   1      43.062  33.562  32.084  1.00  0.00     0.037 A 
BRANCH  24  38
ATOM     38  C   UNL A   1      37.203  32.677  30.279  1.00  0.00     0.064 A 
ATOM     39  C   UNL A   1      36.782  33.535  29.250  1.00  0.00     0.173 A 
ATOM     40  C   UNL A   1      36.295  32.364  31.296  1.00  0.00     0.173 A 
ATOM     41  F   UNL A   1      37.634  33.893  28.277  1.00  0.00    -0.203 F 
ATOM     42  C   UNL A   1      35.506  34.090  29.262  1.00  0.00     0.198 A 
ATOM     43  C   UNL A   1      35.014  32.908  31.295  1.00  0.00     0.198 A 
ATOM     44  F   UNL A   1      36.665  31.571  32.311  1.00  0.00    -0.203 F 
ATOM     45  F   UNL A   1      35.146  34.958  28.307  1.00  0.00    -0.200 F 
ATOM     46  C   UNL A   1      34.625  33.777  30.285  1.00  0.00     0.200 A 
ATOM     47  F   UNL A   1      34.165  32.618  32.291  1.00  0.00    -0.200 F 
ATOM     48  F   UNL A   1      33.406  34.333  30.312  1.00  0.00    -0.200 F 
ENDBRANCH  24  38
BRANCH  25  49
ATOM     49  C   UNL A   1      46.414  28.779  30.458  1.00  0.00     0.064 A 
ATOM     50  C   UNL A   1      47.252  28.983  29.355  1.00  0.00     0.173 A 
ATOM     51  C   UNL A   1      46.899  27.974  31.502  1.00  0.00     0.173 A 
ATOM     52  F   UNL A   1      46.828  29.726  28.321  1.00  0.00    -0.203 F 
ATOM     53  C   UNL A   1      48.508  28.381  29.281  1.00  0.00     0.198 A 
ATOM     54  C   UNL A   1      48.161  27.384  31.434  1.00  0.00     0.198 A 
ATOM     55  F   UNL A   1      46.138  27.741  32.582  1.00  0.00    -0.203 F 
ATOM     56  F   UNL A   1      49.267  28.548  28.189  1.00  0.00    -0.200 F 
ATOM     57  C   UNL A   1      48.961  27.580  30.319  1.00  0.00     0.200 A 
ATOM     58  F   UNL A   1      48.593  26.610  32.440  1.00  0.00    -0.200 F 
ATOM     59  F   UNL A   1      50.158  26.983  30.237  1.00  0.00    -0.200 F 
ENDBRANCH  25  49
BRANCH  37  60
ATOM     60  C   UNL A   1      43.647  34.726  32.818  1.00  0.00     0.064 A 
ATOM     61  C   UNL A   1      44.013  35.901  32.152  1.00  0.00     0.173 A 
ATOM     62  C   UNL A   1      43.782  34.680  34.213  1.00  0.00     0.173 A 
ATOM     63  F   UNL A   1      43.920  35.977  30.815  1.00  0.00    -0.203 F 
ATOM     64  C   UNL A   1      44.501  36.995  32.858  1.00  0.00     0.198 A 
ATOM     65  C   UNL A   1      44.246  35.785  34.919  1.00  0.00     0.198 A 
ATOM     66  F   UNL A   1      43.443  33.573  34.891  1.00  0.00    -0.203 F 
ATOM     67  F   UNL A   1      44.872  38.103  32.201  1.00  0.00    -0.200 F 
ATOM     68  C   UNL A   1      44.606  36.940  34.241  1.00  0.00     0.200 A 
ATOM     69  F   UNL A   1      44.339  35.734  36.255  1.00  0.00    -0.200 F 
ATOM     70  F   UNL A   1      45.061  38.001  34.921  1.00  0.00    -0.200 F 
ENDBRANCH  37  60
ENDBRANCH  11  12
ENDBRANCH   4   6
ENDBRANCH   3   4
ENDBRANCH   2   3
ENDBRANCH   1   2
BRANCH   1  71
ATOM     71  O   UNL A   1      42.566  20.290  27.141  1.00  0.00    -0.458 OA
BRANCH  71  72
ATOM     72  C   UNL A   1      42.811  19.852  25.875  1.00  0.00     0.349 C 
ATOM     73  O   UNL A   1      41.976  19.308  25.165  1.00  0.00    -0.245 OA
BRANCH  72  74
ATOM     74  C   UNL A   1      44.158  20.182  25.459  1.00  0.00     0.133 A 
ATOM     75  S   UNL A   1      45.228  18.847  25.204  1.00  0.00    -0.136 S 
ATOM     76  C   UNL A   1      44.824  21.387  25.287  1.00  0.00     0.113 A 
ATOM     77  C   UNL A   1      46.521  19.859  24.754  1.00  0.00     0.067 A 
ATOM     78  C   UNL A   1      46.196  21.186  24.896  1.00  0.00     0.035 A 
BRANCH  76  79
ATOM     79  S   UNL A   1      44.171  22.985  25.513  1.00  0.00     0.263 S 
ATOM     80  O   UNL A   1      43.040  23.037  24.608  1.00  0.00    -0.201 OA
ATOM     81  O   UNL A   1      43.950  23.136  26.933  1.00  0.00    -0.201 OA
BRANCH  79  82
ATOM     82  N   UNL A   1      45.207  24.200  24.983  1.00  0.00    -0.277 N 
ATOM     83  H   UNL A   1      46.015  23.990  24.461  1.00  0.00     0.180 HD
BRANCH  82  84
ATOM     84  C   UNL A   1      44.868  25.549  25.318  1.00  0.00     0.072 A 
ATOM     85  C   UNL A   1      43.562  25.973  25.021  1.00  0.00     0.029 A 
ATOM     86  C   UNL A   1      45.786  26.383  26.005  1.00  0.00     0.061 A 
ATOM     87  C   UNL A   1      43.131  27.238  25.402  1.00  0.00     0.002 A 
ATOM     88  C   UNL A   1      45.300  27.648  26.386  1.00  0.00     0.028 A 
ATOM     89  C   UNL A   1      43.996  28.069  26.099  1.00  0.00     0.002 A 
BRANCH  86  90
ATOM     90  N   UNL A   1      47.120  26.056  26.286  1.00  0.00    -0.370 N 
ATOM     91  C   UNL A   1      48.170  26.788  25.563  1.00  0.00     0.116 C 
ATOM     92  C   UNL A   1      47.497  25.481  27.582  1.00  0.00     0.116 C 
ATOM     93  C   UNL A   1      49.461  25.990  25.463  1.00  0.00     0.021 C 
ATOM     94  C   UNL A   1      48.799  24.689  27.478  1.00  0.00     0.021 C 
ATOM     95  C   UNL A   1      49.907  25.518  26.840  1.00  0.00     0.004 C 
ENDBRANCH  86  90
ENDBRANCH  82  84
ENDBRANCH  79  82
ENDBRANCH  76  79
ENDBRANCH  72  74
ENDBRANCH  71  72
ENDBRANCH   1  71
TORSDOF 15
ENDMDL
MODEL 3
REMARK VINA RESULT:     -11.6      3.660      8.761
REMARK SMILES O=C(OCCOC(=O)c1sccc1S(=O)(=O)Nc1ccccc1N1CCCCC1)c1ccc(-c2c3nc(c(-c4c(F)c(F)c(F)c(F)c4F)c4ccc([nH]4)c(-c4c(F)c(F)c(F)c(F)c4F)c4nc(c(-c5c(F)c(F)c(F)c(F)c5F)c5ccc2[nH]5)C=C4)C=C3)cc1
REMARK SMILES IDX 5 1 4 2 3 3 2 4 1 5 30 6 31 7 92 8 32 9 91 10 33 11 34 12
REMARK SMILES IDX 35 13 85 14 36 15 90 16 84 17 86 18 37 19 89 20 83 21 82 22
REMARK SMILES IDX 38 24 70 25 50 26 69 27 51 28 54 29 68 30 87 31 52 32 53 33
REMARK SMILES IDX 67 35 88 36 55 37 39 38 40 39 48 40 41 41 42 42 46 43 49 44
REMARK SMILES IDX 43 45 44 46 47 47 45 48 71 49 72 50 80 51 73 52 74 53 78 54
REMARK SMILES IDX 81 55 75 56 76 57 79 58 77 59 56 60 57 61 65 62 58 63 59 64
REMARK SMILES IDX 63 65 66 66 60 67 61 68 64 69 62 70 6 71 7 72 8 73 9 74
REMARK SMILES IDX 10 75 13 76 11 77 12 78 14 79 15 80 16 81 17 82 18 84 19 85
REMARK SMILES IDX 23 86 20 87 22 88 21 89 24 90 25 91 29 92 26 93 28 94 27 95
REMARK H PARENT 86 23 54 34 17 83
REMARK Flexibility Score: inf
ROOT
ATOM      1  C   UNL A   1      38.096  20.636  25.117  1.00  0.00     0.275 C 
ENDROOT
BRANCH   1   2
ATOM      2  C   UNL A   1      39.096  19.576  25.572  1.00  0.00     0.275 C 
BRANCH   2   3
ATOM      3  O   UNL A   1      40.403  20.101  25.837  1.00  0.00    -0.458 OA
BRANCH   3   4
ATOM      4  C   UNL A   1      40.800  20.471  27.079  1.00  0.00     0.338 C 
ATOM      5  O   UNL A   1      40.775  19.695  28.027  1.00  0.00    -0.246 OA
BRANCH   4   6
ATOM      6  C   UNL A   1      40.959  21.924  27.333  1.00  0.00     0.060 A 
ATOM      7  C   UNL A   1      40.328  22.922  26.583  1.00  0.00     0.016 A 
ATOM      8  C   UNL A   1      41.844  22.290  28.352  1.00  0.00     0.016 A 
ATOM      9  C   UNL A   1      40.505  24.269  26.901  1.00  0.00     0.010 A 
ATOM     10  C   UNL A   1      42.040  23.638  28.661  1.00  0.00     0.010 A 
ATOM     11  C   UNL A   1      41.371  24.634  27.933  1.00  0.00    -0.014 A 
BRANCH  11  12
ATOM     12  C   UNL A   1      41.797  26.042  28.074  1.00  0.00     0.031 A 
ATOM     13  C   UNL A   1      43.195  26.373  27.660  1.00  0.00     0.074 A 
ATOM     14  C   UNL A   1      40.980  27.006  28.530  1.00  0.00     0.049 A 
ATOM     15  N   UNL A   1      43.797  27.530  27.652  1.00  0.00    -0.248 NA
ATOM     16  C   UNL A   1      44.007  25.257  27.144  1.00  0.00     0.031 C 
ATOM     17  C   UNL A   1      39.572  26.827  28.846  1.00  0.00     0.029 A 
ATOM     18  N   UNL A   1      41.221  28.320  28.839  1.00  0.00    -0.354 N 
ATOM     19  C   UNL A   1      45.023  27.294  27.056  1.00  0.00     0.074 A 
ATOM     20  C   UNL A   1      45.129  25.874  26.815  1.00  0.00     0.031 C 
ATOM     21  C   UNL A   1      39.100  27.945  29.426  1.00  0.00     0.029 A 
ATOM     22  C   UNL A   1      40.169  28.930  29.480  1.00  0.00     0.049 A 
ATOM     23  H   UNL A   1      42.064  28.780  28.624  1.00  0.00     0.167 HD
ATOM     24  C   UNL A   1      45.951  28.200  26.682  1.00  0.00     0.037 A 
ATOM     25  C   UNL A   1      40.093  30.146  30.053  1.00  0.00     0.037 A 
ATOM     26  C   UNL A   1      45.855  29.600  26.966  1.00  0.00     0.049 A 
ATOM     27  C   UNL A   1      41.250  31.089  29.856  1.00  0.00     0.074 A 
ATOM     28  C   UNL A   1      46.726  30.617  26.629  1.00  0.00     0.029 A 
ATOM     29  N   UNL A   1      44.821  30.174  27.695  1.00  0.00    -0.354 N 
ATOM     30  N   UNL A   1      42.364  30.888  29.194  1.00  0.00    -0.248 NA
ATOM     31  C   UNL A   1      41.127  32.433  30.434  1.00  0.00     0.031 C 
ATOM     32  C   UNL A   1      46.243  31.802  27.200  1.00  0.00     0.029 A 
ATOM     33  C   UNL A   1      45.057  31.525  27.865  1.00  0.00     0.049 A 
ATOM     34  H   UNL A   1      44.036  29.689  28.039  1.00  0.00     0.167 HD
ATOM     35  C   UNL A   1      43.041  32.097  29.210  1.00  0.00     0.074 A 
ATOM     36  C   UNL A   1      42.225  33.019  29.977  1.00  0.00     0.031 C 
ATOM     37  C   UNL A   1      44.217  32.421  28.619  1.00  0.00     0.037 A 
BRANCH  24  38
ATOM     38  C   UNL A   1      47.119  27.658  25.926  1.00  0.00     0.064 A 
ATOM     39  C   UNL A   1      48.272  27.226  26.601  1.00  0.00     0.173 A 
ATOM     40  C   UNL A   1      47.133  27.672  24.527  1.00  0.00     0.173 A 
ATOM     41  F   UNL A   1      48.315  27.235  27.942  1.00  0.00    -0.203 F 
ATOM     42  C   UNL A   1      49.414  26.859  25.896  1.00  0.00     0.198 A 
ATOM     43  C   UNL A   1      48.272  27.288  23.826  1.00  0.00     0.198 A 
ATOM     44  F   UNL A   1      46.062  28.103  23.845  1.00  0.00    -0.203 F 
ATOM     45  F   UNL A   1      50.526  26.513  26.559  1.00  0.00    -0.200 F 
ATOM     46  C   UNL A   1      49.413  26.891  24.510  1.00  0.00     0.200 A 
ATOM     47  F   UNL A   1      48.277  27.332  22.486  1.00  0.00    -0.200 F 
ATOM     48  F   UNL A   1      50.522  26.565  23.832  1.00  0.00    -0.200 F 
ENDBRANCH  24  38
BRANCH  25  49
ATOM     49  C   UNL A   1      38.903  30.541  30.851  1.00  0.00     0.064 A 
ATOM     50  C   UNL A   1      37.798  31.173  30.265  1.00  0.00     0.173 A 
ATOM     51  C   UNL A   1      38.874  30.340  32.241  1.00  0.00     0.173 A 
ATOM     52  F   UNL A   1      37.785  31.408  28.945  1.00  0.00    -0.203 F 
ATOM     53  C   UNL A   1      36.726  31.617  31.039  1.00  0.00     0.198 A 
ATOM     54  C   UNL A   1      37.794  30.772  33.012  1.00  0.00     0.198 A 
ATOM     55  F   UNL A   1      39.905  29.743  32.857  1.00  0.00    -0.203 F 
ATOM     56  F   UNL A   1      35.708  32.269  30.459  1.00  0.00    -0.200 F 
ATOM     57  C   UNL A   1      36.726  31.419  32.412  1.00  0.00     0.200 A 
ATOM     58  F   UNL A   1      37.800  30.578  34.338  1.00  0.00    -0.200 F 
ATOM     59  F   UNL A   1      35.707  31.867  33.157  1.00  0.00    -0.200 F 
ENDBRANCH  25  49
BRANCH  37  60
ATOM     60  C   UNL A   1      44.666  33.843  28.737  1.00  0.00     0.064 A 
ATOM     61  C   UNL A   1      44.261  34.817  27.818  1.00  0.00     0.173 A 
ATOM     62  C   UNL A   1      45.461  34.240  29.823  1.00  0.00     0.173 A 
ATOM     63  F   UNL A   1      43.519  34.473  26.754  1.00  0.00    -0.203 F 
ATOM     64  C   UNL A   1      44.640  36.145  27.977  1.00  0.00     0.198 A 
ATOM     65  C   UNL A   1      45.817  35.573  29.992  1.00  0.00     0.198 A 
ATOM     66  F   UNL A   1      45.872  33.339  30.728  1.00  0.00    -0.203 F 
ATOM     67  F   UNL A   1      44.266  37.059  27.071  1.00  0.00    -0.200 F 
ATOM     68  C   UNL A   1      45.408  36.524  29.069  1.00  0.00     0.200 A 
ATOM     69  F   UNL A   1      46.550  35.940  31.053  1.00  0.00    -0.200 F 
ATOM     70  F   UNL A   1      45.759  37.807  29.229  1.00  0.00    -0.200 F 
ENDBRANCH  37  60
ENDBRANCH  11  12
ENDBRANCH   4   6
ENDBRANCH   3   4
ENDBRANCH   2   3
ENDBRANCH   1   2
BRANCH   1  71
ATOM     71  O   UNL A   1      36.719  20.320  25.374  1.00  0.00    -0.458 OA
BRANCH  71  72
ATOM     72  C   UNL A   1      35.889  21.390  25.526  1.00  0.00     0.349 C 
ATOM     73  O   UNL A   1      36.276  22.537  25.708  1.00  0.00    -0.245 OA
BRANCH  72  74
ATOM     74  C   UNL A   1      34.503  21.002  25.368  1.00  0.00     0.133 A 
ATOM     75  S   UNL A   1      34.219  19.469  24.618  1.00  0.00    -0.136 S 
ATOM     76  C   UNL A   1      33.305  21.651  25.632  1.00  0.00     0.113 A 
ATOM     77  C   UNL A   1      32.529  19.620  24.753  1.00  0.00     0.067 A 
ATOM     78  C   UNL A   1      32.170  20.848  25.255  1.00  0.00     0.035 A 
BRANCH  76  79
ATOM     79  S   UNL A   1      33.104  23.243  26.308  1.00  0.00     0.263 S 
ATOM     80  O   UNL A   1      31.726  23.583  26.011  1.00  0.00    -0.201 OA
ATOM     81  O   UNL A   1      33.531  23.155  27.686  1.00  0.00    -0.201 OA
BRANCH  79  82
ATOM     82  N   UNL A   1      34.019  24.413  25.519  1.00  0.00    -0.277 N 
ATOM     83  H   UNL A   1      34.854  24.758  25.911  1.00  0.00     0.180 HD
BRANCH  82  84
ATOM     84  C   UNL A   1      33.537  24.889  24.259  1.00  0.00     0.072 A 
ATOM     85  C   UNL A   1      33.660  24.024  23.160  1.00  0.00     0.029 A 
ATOM     86  C   UNL A   1      32.880  26.141  24.155  1.00  0.00     0.061 A 
ATOM     87  C   UNL A   1      33.131  24.378  21.925  1.00  0.00     0.002 A 
ATOM     88  C   UNL A   1      32.345  26.450  22.890  1.00  0.00     0.028 A 
ATOM     89  C   UNL A   1      32.458  25.585  21.794  1.00  0.00     0.002 A 
BRANCH  86  90
ATOM     90  N   UNL A   1      32.767  27.083  25.187  1.00  0.00    -0.370 N 
ATOM     91  C   UNL A   1      33.636  28.267  25.129  1.00  0.00     0.116 C 
ATOM     92  C   UNL A   1      31.519  27.223  25.945  1.00  0.00     0.116 C 
ATOM     93  C   UNL A   1      33.885  28.864  26.506  1.00  0.00     0.021 C 
ATOM     94  C   UNL A   1      31.773  27.832  27.322  1.00  0.00     0.021 C 
ATOM     95  C   UNL A   1      32.567  29.128  27.222  1.00  0.00     0.004 C 
ENDBRANCH  86  90
ENDBRANCH  82  84
ENDBRANCH  79  82
ENDBRANCH  76  79
ENDBRANCH  72  74
ENDBRANCH  71  72
ENDBRANCH   1  71
TORSDOF 15
ENDMDL
