MODEL 1
REMARK VINA RESULT:     -11.8      0.000      0.000
REMARK SMILES [NH3+][C@H]1COC[C@H]1C(=O)N[C@@H]1C=C[C@@H](C(=O)OCCOC(=O)c2ccc(-c3c4nc(c(-c5c(F)c(F)c(F)c(F)c5F)c5ccc([nH]5)c(-c5c(F)c(F)c(F)c(F)c5F)c5nc(c(-c6c(F)c(F)c(F)c(F)c6F)c6ccc3[nH]6)C=C5)C=C4)cc2)C1
REMARK SMILES IDX 17 1 16 2 14 3 15 4 13 5 10 6 11 7 85 8 12 9 9 10 7 11 8 12
REMARK SMILES IDX 6 14 2 15 3 16 4 17 5 18 1 19 18 23 19 24 20 25 21 26 22 27
REMARK SMILES IDX 23 28 84 29 24 30 83 31 25 32 26 33 27 34 77 35 28 36 82 37
REMARK SMILES IDX 76 38 78 39 29 40 81 41 75 42 74 43 30 45 62 46 42 47 61 48
REMARK SMILES IDX 43 49 46 50 60 51 79 52 44 53 45 54 59 56 80 57 47 58 31 59
REMARK SMILES IDX 32 60 40 61 33 62 34 63 38 64 41 65 35 66 36 67 39 68 37 69
REMARK SMILES IDX 63 70 64 71 72 72 65 73 66 74 70 75 73 76 67 77 68 78 71 79
REMARK SMILES IDX 69 80 48 81 49 82 57 83 50 84 51 85 55 86 58 87 52 88 53 89
REMARK SMILES IDX 56 90 54 91
REMARK H PARENT 9 13 1 20 1 21 1 22 78 44 46 55
REMARK Flexibility Score: inf
ROOT
ATOM      1  C   UNL A   1      31.751  28.846  27.245  1.00  0.00     0.274 C 
ENDROOT
BRANCH   1   2
ATOM      2  O   UNL A   1      32.807  28.118  26.592  1.00  0.00    -0.462 OA
BRANCH   2   3
ATOM      3  C   UNL A   1      32.411  27.070  25.829  1.00  0.00     0.312 C 
ATOM      4  O   UNL A   1      33.103  26.085  25.586  1.00  0.00    -0.252 OA
BRANCH   3   5
ATOM      5  C   UNL A   1      31.016  27.221  25.251  1.00  0.00     0.124 C 
ATOM      6  C   UNL A   1      29.662  27.201  23.235  1.00  0.00     0.106 C 
ATOM      7  C   UNL A   1      29.560  25.911  23.964  1.00  0.00    -0.006 C 
ATOM      8  C   UNL A   1      30.835  27.919  23.902  1.00  0.00     0.048 C 
ATOM      9  C   UNL A   1      30.330  25.901  25.057  1.00  0.00    -0.014 C 
BRANCH   6  10
ATOM     10  N   UNL A   1      28.372  27.864  23.131  1.00  0.00    -0.349 N 
ATOM     11  C   UNL A   1      27.763  29.059  23.192  1.00  0.00     0.232 C 
ATOM     12  O   UNL A   1      26.526  28.973  23.094  1.00  0.00    -0.274 OA
ATOM     13  H   UNL A   1      27.687  27.180  22.948  1.00  0.00     0.164 HD
BRANCH  11  14
ATOM     14  C   UNL A   1      28.338  30.458  23.345  1.00  0.00     0.164 C 
ATOM     15  C   UNL A   1      29.342  31.048  22.370  1.00  0.00     0.221 C 
ATOM     16  C   UNL A   1      28.749  32.396  21.967  1.00  0.00     0.225 C 
ATOM     17  O   UNL A   1      27.654  32.695  22.841  1.00  0.00    -0.374 OA
ATOM     18  C   UNL A   1      27.342  31.549  23.636  1.00  0.00     0.180 C 
BRANCH  15  19
ATOM     19  N   UNL A   1      29.822  30.237  21.258  1.00  0.00    -0.352 N 
ATOM     20  H   UNL A   1      29.602  30.703  20.377  1.00  0.00     0.344 HD
ATOM     21  H   UNL A   1      29.367  29.324  21.281  1.00  0.00     0.344 HD
ATOM     22  H   UNL A   1      30.832  30.117  21.335  1.00  0.00     0.344 HD
ENDBRANCH  15  19
ENDBRANCH  11  14
ENDBRANCH   6  10
ENDBRANCH   3   5
ENDBRANCH   2   3
ENDBRANCH   1   2
BRANCH   1  23
ATOM     23  C   UNL A   1      31.792  30.330  26.869  1.00  0.00     0.275 C 
BRANCH  23  24
ATOM     24  O   UNL A   1      33.119  30.775  26.524  1.00  0.00    -0.458 OA
BRANCH  24  25
ATOM     25  C   UNL A   1      33.619  31.748  27.316  1.00  0.00     0.338 C 
ATOM     26  O   UNL A   1      33.079  32.801  27.629  1.00  0.00    -0.246 OA
BRANCH  25  27
ATOM     27  C   UNL A   1      34.921  31.352  27.870  1.00  0.00     0.060 A 
ATOM     28  C   UNL A   1      35.064  30.043  28.328  1.00  0.00     0.016 A 
ATOM     29  C   UNL A   1      35.939  32.285  28.071  1.00  0.00     0.016 A 
ATOM     30  C   UNL A   1      36.209  29.665  29.028  1.00  0.00     0.010 A 
ATOM     31  C   UNL A   1      37.099  31.899  28.757  1.00  0.00     0.010 A 
ATOM     32  C   UNL A   1      37.232  30.593  29.263  1.00  0.00    -0.014 A 
BRANCH  32  33
ATOM     33  C   UNL A   1      38.412  30.205  30.078  1.00  0.00     0.031 A 
ATOM     34  C   UNL A   1      39.445  29.268  29.514  1.00  0.00     0.074 A 
ATOM     35  C   UNL A   1      38.582  30.717  31.311  1.00  0.00     0.049 A 
ATOM     36  N   UNL A   1      40.485  28.728  30.099  1.00  0.00    -0.248 NA
ATOM     37  C   UNL A   1      39.290  28.893  28.100  1.00  0.00     0.031 C 
ATOM     38  C   UNL A   1      37.694  31.684  31.954  1.00  0.00     0.029 A 
ATOM     39  N   UNL A   1      39.569  30.497  32.241  1.00  0.00    -0.354 N 
ATOM     40  C   UNL A   1      41.097  27.939  29.135  1.00  0.00     0.074 A 
ATOM     41  C   UNL A   1      40.307  28.058  27.928  1.00  0.00     0.031 C 
ATOM     42  C   UNL A   1      38.177  31.978  33.173  1.00  0.00     0.029 A 
ATOM     43  C   UNL A   1      39.380  31.185  33.414  1.00  0.00     0.049 A 
ATOM     44  H   UNL A   1      40.338  29.903  32.082  1.00  0.00     0.167 HD
ATOM     45  C   UNL A   1      42.220  27.189  29.245  1.00  0.00     0.037 A 
ATOM     46  C   UNL A   1      40.080  31.159  34.564  1.00  0.00     0.037 A 
ATOM     47  C   UNL A   1      43.019  27.080  30.437  1.00  0.00     0.049 A 
ATOM     48  C   UNL A   1      41.287  30.268  34.678  1.00  0.00     0.074 A 
ATOM     49  C   UNL A   1      44.153  26.313  30.652  1.00  0.00     0.029 A 
ATOM     50  N   UNL A   1      42.778  27.771  31.614  1.00  0.00    -0.354 N 
ATOM     51  N   UNL A   1      41.826  29.483  33.778  1.00  0.00    -0.248 NA
ATOM     52  C   UNL A   1      41.979  30.255  35.977  1.00  0.00     0.031 C 
ATOM     53  C   UNL A   1      44.585  26.524  31.966  1.00  0.00     0.029 A 
ATOM     54  C   UNL A   1      43.739  27.446  32.559  1.00  0.00     0.049 A 
ATOM     55  H   UNL A   1      42.033  28.399  31.757  1.00  0.00     0.167 HD
ATOM     56  C   UNL A   1      42.923  28.898  34.393  1.00  0.00     0.074 A 
ATOM     57  C   UNL A   1      42.987  29.429  35.737  1.00  0.00     0.031 C 
ATOM     58  C   UNL A   1      43.797  27.994  33.888  1.00  0.00     0.037 A 
BRANCH  45  59
ATOM     59  C   UNL A   1      42.649  26.405  28.042  1.00  0.00     0.064 A 
ATOM     60  C   UNL A   1      42.155  25.117  27.794  1.00  0.00     0.173 A 
ATOM     61  C   UNL A   1      43.517  26.972  27.097  1.00  0.00     0.173 A 
ATOM     62  F   UNL A   1      41.332  24.529  28.674  1.00  0.00    -0.203 F 
ATOM     63  C   UNL A   1      42.526  24.418  26.648  1.00  0.00     0.198 A 
ATOM     64  C   UNL A   1      43.871  26.279  25.942  1.00  0.00     0.198 A 
ATOM     65  F   UNL A   1      44.013  28.204  27.287  1.00  0.00    -0.203 F 
ATOM     66  F   UNL A   1      42.066  23.176  26.444  1.00  0.00    -0.200 F 
ATOM     67  C   UNL A   1      43.377  25.002  25.721  1.00  0.00     0.200 A 
ATOM     68  F   UNL A   1      44.685  26.848  25.043  1.00  0.00    -0.200 F 
ATOM     69  F   UNL A   1      43.726  24.332  24.614  1.00  0.00    -0.200 F 
ENDBRANCH  45  59
BRANCH  46  70
ATOM     70  C   UNL A   1      39.641  31.982  35.718  1.00  0.00     0.064 A 
ATOM     71  C   UNL A   1      38.611  31.549  36.563  1.00  0.00     0.173 A 
ATOM     72  C   UNL A   1      40.224  33.230  35.982  1.00  0.00     0.173 A 
ATOM     73  F   UNL A   1      38.003  30.376  36.331  1.00  0.00    -0.203 F 
ATOM     74  C   UNL A   1      38.167  32.342  37.619  1.00  0.00     0.198 A 
ATOM     75  C   UNL A   1      39.798  34.010  37.054  1.00  0.00     0.198 A 
ATOM     76  F   UNL A   1      41.210  33.690  35.198  1.00  0.00    -0.203 F 
ATOM     77  F   UNL A   1      37.147  31.928  38.383  1.00  0.00    -0.200 F 
ATOM     78  C   UNL A   1      38.764  33.570  37.867  1.00  0.00     0.200 A 
ATOM     79  F   UNL A   1      40.381  35.192  37.293  1.00  0.00    -0.200 F 
ATOM     80  F   UNL A   1      38.334  34.334  38.880  1.00  0.00    -0.200 F 
ENDBRANCH  46  70
BRANCH  58  81
ATOM     81  C   UNL A   1      44.915  27.548  34.783  1.00  0.00     0.064 A 
ATOM     82  C   UNL A   1      44.789  26.417  35.602  1.00  0.00     0.173 A 
ATOM     83  C   UNL A   1      46.132  28.245  34.800  1.00  0.00     0.173 A 
ATOM     84  F   UNL A   1      43.638  25.728  35.629  1.00  0.00    -0.203 F 
ATOM     85  C   UNL A   1      45.837  26.010  36.423  1.00  0.00     0.198 A 
ATOM     86  C   UNL A   1      47.185  27.823  35.608  1.00  0.00     0.198 A 
ATOM     87  F   UNL A   1      46.301  29.331  34.032  1.00  0.00    -0.203 F 
ATOM     88  F   UNL A   1      45.683  24.949  37.227  1.00  0.00    -0.200 F 
ATOM     89  C   UNL A   1      47.035  26.710  36.422  1.00  0.00     0.200 A 
ATOM     90  F   UNL A   1      48.344  28.497  35.601  1.00  0.00    -0.200 F 
ATOM     91  F   UNL A   1      48.042  26.317  37.213  1.00  0.00    -0.200 F 
ENDBRANCH  58  81
ENDBRANCH  32  33
ENDBRANCH  25  27
ENDBRANCH  24  25
ENDBRANCH  23  24
ENDBRANCH   1  23
TORSDOF 14
ENDMDL
MODEL 2
REMARK VINA RESULT:     -11.7      2.238      3.507
REMARK SMILES [NH3+][C@H]1COC[C@H]1C(=O)N[C@@H]1C=C[C@@H](C(=O)OCCOC(=O)c2ccc(-c3c4nc(c(-c5c(F)c(F)c(F)c(F)c5F)c5ccc([nH]5)c(-c5c(F)c(F)c(F)c(F)c5F)c5nc(c(-c6c(F)c(F)c(F)c(F)c6F)c6ccc3[nH]6)C=C5)C=C4)cc2)C1
REMARK SMILES IDX 17 1 16 2 14 3 15 4 13 5 10 6 11 7 85 8 12 9 9 10 7 11 8 12
REMARK SMILES IDX 6 14 2 15 3 16 4 17 5 18 1 19 18 23 19 24 20 25 21 26 22 27
REMARK SMILES IDX 23 28 84 29 24 30 83 31 25 32 26 33 27 34 77 35 28 36 82 37
REMARK SMILES IDX 76 38 78 39 29 40 81 41 75 42 74 43 30 45 62 46 42 47 61 48
REMARK SMILES IDX 43 49 46 50 60 51 79 52 44 53 45 54 59 56 80 57 47 58 31 59
REMARK SMILES IDX 32 60 40 61 33 62 34 63 38 64 41 65 35 66 36 67 39 68 37 69
REMARK SMILES IDX 63 70 64 71 72 72 65 73 66 74 70 75 73 76 67 77 68 78 71 79
REMARK SMILES IDX 69 80 48 81 49 82 57 83 50 84 51 85 55 86 58 87 52 88 53 89
REMARK SMILES IDX 56 90 54 91
REMARK H PARENT 9 13 1 20 1 21 1 22 78 44 46 55
REMARK Flexibility Score: inf
ROOT
ATOM      1  C   UNL A   1      31.647  28.745  27.360  1.00  0.00     0.274 C 
ENDROOT
BRANCH   1   2
ATOM      2  O   UNL A   1      32.486  27.666  26.908  1.00  0.00    -0.462 OA
BRANCH   2   3
ATOM      3  C   UNL A   1      31.835  26.553  26.493  1.00  0.00     0.312 C 
ATOM      4  O   UNL A   1      30.648  26.320  26.705  1.00  0.00    -0.252 OA
BRANCH   3   5
ATOM      5  C   UNL A   1      32.716  25.566  25.748  1.00  0.00     0.124 C 
ATOM      6  C   UNL A   1      34.931  24.586  25.572  1.00  0.00     0.106 C 
ATOM      7  C   UNL A   1      34.002  23.685  26.301  1.00  0.00    -0.006 C 
ATOM      8  C   UNL A   1      34.183  25.916  25.493  1.00  0.00     0.048 C 
ATOM      9  C   UNL A   1      32.789  24.233  26.433  1.00  0.00    -0.014 C 
BRANCH   6  10
ATOM     10  N   UNL A   1      35.437  23.967  24.357  1.00  0.00    -0.349 N 
ATOM     11  C   UNL A   1      35.066  23.404  23.196  1.00  0.00     0.232 C 
ATOM     12  O   UNL A   1      36.030  22.953  22.552  1.00  0.00    -0.274 OA
ATOM     13  H   UNL A   1      36.421  23.956  24.403  1.00  0.00     0.164 HD
BRANCH  11  14
ATOM     14  C   UNL A   1      33.693  23.252  22.561  1.00  0.00     0.164 C 
ATOM     15  C   UNL A   1      32.692  22.201  23.005  1.00  0.00     0.221 C 
ATOM     16  C   UNL A   1      31.403  22.977  23.269  1.00  0.00     0.225 C 
ATOM     17  O   UNL A   1      31.552  24.304  22.751  1.00  0.00    -0.374 OA
ATOM     18  C   UNL A   1      32.913  24.526  22.373  1.00  0.00     0.180 C 
BRANCH  15  19
ATOM     19  N   UNL A   1      33.060  21.259  24.054  1.00  0.00    -0.352 N 
ATOM     20  H   UNL A   1      32.674  20.340  23.837  1.00  0.00     0.344 HD
ATOM     21  H   UNL A   1      32.687  21.581  24.947  1.00  0.00     0.344 HD
ATOM     22  H   UNL A   1      34.076  21.195  24.112  1.00  0.00     0.344 HD
ENDBRANCH  15  19
ENDBRANCH  11  14
ENDBRANCH   6  10
ENDBRANCH   3   5
ENDBRANCH   2   3
ENDBRANCH   1   2
BRANCH   1  23
ATOM     23  C   UNL A   1      31.778  29.965  26.444  1.00  0.00     0.275 C 
BRANCH  23  24
ATOM     24  O   UNL A   1      33.149  30.374  26.263  1.00  0.00    -0.458 OA
BRANCH  24  25
ATOM     25  C   UNL A   1      33.571  31.345  27.102  1.00  0.00     0.338 C 
ATOM     26  O   UNL A   1      32.961  32.351  27.440  1.00  0.00    -0.246 OA
BRANCH  25  27
ATOM     27  C   UNL A   1      34.881  31.006  27.675  1.00  0.00     0.060 A 
ATOM     28  C   UNL A   1      35.117  29.676  28.022  1.00  0.00     0.016 A 
ATOM     29  C   UNL A   1      35.809  31.995  28.001  1.00  0.00     0.016 A 
ATOM     30  C   UNL A   1      36.264  29.329  28.734  1.00  0.00     0.010 A 
ATOM     31  C   UNL A   1      36.972  31.642  28.700  1.00  0.00     0.010 A 
ATOM     32  C   UNL A   1      37.196  30.311  29.093  1.00  0.00    -0.014 A 
BRANCH  32  33
ATOM     33  C   UNL A   1      38.375  29.946  29.922  1.00  0.00     0.031 A 
ATOM     34  C   UNL A   1      39.424  29.017  29.374  1.00  0.00     0.074 A 
ATOM     35  C   UNL A   1      38.530  30.473  31.150  1.00  0.00     0.049 A 
ATOM     36  N   UNL A   1      40.467  28.496  29.973  1.00  0.00    -0.248 NA
ATOM     37  C   UNL A   1      39.284  28.625  27.963  1.00  0.00     0.031 C 
ATOM     38  C   UNL A   1      37.625  31.435  31.777  1.00  0.00     0.029 A 
ATOM     39  N   UNL A   1      39.512  30.275  32.089  1.00  0.00    -0.354 N 
ATOM     40  C   UNL A   1      41.095  27.705  29.021  1.00  0.00     0.074 A 
ATOM     41  C   UNL A   1      40.313  27.801  27.807  1.00  0.00     0.031 C 
ATOM     42  C   UNL A   1      38.095  31.747  32.996  1.00  0.00     0.029 A 
ATOM     43  C   UNL A   1      39.306  30.972  33.253  1.00  0.00     0.049 A 
ATOM     44  H   UNL A   1      40.290  29.689  31.942  1.00  0.00     0.167 HD
ATOM     45  C   UNL A   1      42.227  26.970  29.147  1.00  0.00     0.037 A 
ATOM     46  C   UNL A   1      39.998  30.967  34.409  1.00  0.00     0.037 A 
ATOM     47  C   UNL A   1      43.019  26.883  30.346  1.00  0.00     0.049 A 
ATOM     48  C   UNL A   1      41.215  30.093  34.541  1.00  0.00     0.074 A 
ATOM     49  C   UNL A   1      44.161  26.133  30.577  1.00  0.00     0.029 A 
ATOM     50  N   UNL A   1      42.760  27.583  31.514  1.00  0.00    -0.354 N 
ATOM     51  N   UNL A   1      41.770  29.305  33.653  1.00  0.00    -0.248 NA
ATOM     52  C   UNL A   1      41.897  30.101  35.845  1.00  0.00     0.031 C 
ATOM     53  C   UNL A   1      44.580  26.363  31.892  1.00  0.00     0.029 A 
ATOM     54  C   UNL A   1      43.718  27.280  32.469  1.00  0.00     0.049 A 
ATOM     55  H   UNL A   1      42.006  28.203  31.645  1.00  0.00     0.167 HD
ATOM     56  C   UNL A   1      42.871  28.740  34.281  1.00  0.00     0.074 A 
ATOM     57  C   UNL A   1      42.918  29.286  35.621  1.00  0.00     0.031 C 
ATOM     58  C   UNL A   1      43.760  27.842  33.793  1.00  0.00     0.037 A 
BRANCH  45  59
ATOM     59  C   UNL A   1      42.674  26.179  27.955  1.00  0.00     0.064 A 
ATOM     60  C   UNL A   1      42.173  24.896  27.699  1.00  0.00     0.173 A 
ATOM     61  C   UNL A   1      43.569  26.736  27.029  1.00  0.00     0.173 A 
ATOM     62  F   UNL A   1      41.325  24.318  28.562  1.00  0.00    -0.203 F 
ATOM     63  C   UNL A   1      42.562  24.191  26.562  1.00  0.00     0.198 A 
ATOM     64  C   UNL A   1      43.941  26.036  25.884  1.00  0.00     0.198 A 
ATOM     65  F   UNL A   1      44.073  27.963  27.228  1.00  0.00    -0.203 F 
ATOM     66  F   UNL A   1      42.094  22.953  26.350  1.00  0.00    -0.200 F 
ATOM     67  C   UNL A   1      43.439  24.764  25.653  1.00  0.00     0.200 A 
ATOM     68  F   UNL A   1      44.781  26.596  25.002  1.00  0.00    -0.200 F 
ATOM     69  F   UNL A   1      43.806  24.088  24.556  1.00  0.00    -0.200 F 
ENDBRANCH  45  59
BRANCH  46  70
ATOM     70  C   UNL A   1      39.540  31.796  35.552  1.00  0.00     0.064 A 
ATOM     71  C   UNL A   1      38.588  31.312  36.459  1.00  0.00     0.173 A 
ATOM     72  C   UNL A   1      40.024  33.098  35.742  1.00  0.00     0.173 A 
ATOM     73  F   UNL A   1      38.075  30.084  36.299  1.00  0.00    -0.203 F 
ATOM     74  C   UNL A   1      38.125  32.107  37.505  1.00  0.00     0.198 A 
ATOM     75  C   UNL A   1      39.579  33.882  36.803  1.00  0.00     0.198 A 
ATOM     76  F   UNL A   1      40.931  33.608  34.896  1.00  0.00    -0.203 F 
ATOM     77  F   UNL A   1      37.178  31.640  38.330  1.00  0.00    -0.200 F 
ATOM     78  C   UNL A   1      38.624  33.390  37.679  1.00  0.00     0.200 A 
ATOM     79  F   UNL A   1      40.068  35.119  36.971  1.00  0.00    -0.200 F 
ATOM     80  F   UNL A   1      38.174  34.156  38.682  1.00  0.00    -0.200 F 
ENDBRANCH  46  70
BRANCH  58  81
ATOM     81  C   UNL A   1      44.876  27.420  34.700  1.00  0.00     0.064 A 
ATOM     82  C   UNL A   1      46.082  28.134  34.757  1.00  0.00     0.173 A 
ATOM     83  C   UNL A   1      44.727  26.307  35.541  1.00  0.00     0.173 A 
ATOM     84  F   UNL A   1      46.275  29.196  33.960  1.00  0.00    -0.203 F 
ATOM     85  C   UNL A   1      47.108  27.735  35.608  1.00  0.00     0.198 A 
ATOM     86  C   UNL A   1      45.748  25.923  36.406  1.00  0.00     0.198 A 
ATOM     87  F   UNL A   1      43.590  25.595  35.525  1.00  0.00    -0.203 F 
ATOM     88  F   UNL A   1      48.268  28.407  35.618  1.00  0.00    -0.200 F 
ATOM     89  C   UNL A   1      46.939  26.634  36.435  1.00  0.00     0.200 A 
ATOM     90  F   UNL A   1      45.581  24.863  37.209  1.00  0.00    -0.200 F 
ATOM     91  F   UNL A   1      47.928  26.251  37.254  1.00  0.00    -0.200 F 
ENDBRANCH  58  81
ENDBRANCH  32  33
ENDBRANCH  25  27
ENDBRANCH  24  25
ENDBRANCH  23  24
ENDBRANCH   1  23
TORSDOF 14
ENDMDL
MODEL 3
REMARK VINA RESULT:     -11.6      2.224      3.699
REMARK SMILES [NH3+][C@H]1COC[C@H]1C(=O)N[C@@H]1C=C[C@@H](C(=O)OCCOC(=O)c2ccc(-c3c4nc(c(-c5c(F)c(F)c(F)c(F)c5F)c5ccc([nH]5)c(-c5c(F)c(F)c(F)c(F)c5F)c5nc(c(-c6c(F)c(F)c(F)c(F)c6F)c6ccc3[nH]6)C=C5)C=C4)cc2)C1
REMARK SMILES IDX 17 1 16 2 14 3 15 4 13 5 10 6 11 7 85 8 12 9 9 10 7 11 8 12
REMARK SMILES IDX 6 14 2 15 3 16 4 17 5 18 1 19 18 23 19 24 20 25 21 26 22 27
REMARK SMILES IDX 23 28 84 29 24 30 83 31 25 32 26 33 27 34 77 35 28 36 82 37
REMARK SMILES IDX 76 38 78 39 29 40 81 41 75 42 74 43 30 45 62 46 42 47 61 48
REMARK SMILES IDX 43 49 46 50 60 51 79 52 44 53 45 54 59 56 80 57 47 58 31 59
REMARK SMILES IDX 32 60 40 61 33 62 34 63 38 64 41 65 35 66 36 67 39 68 37 69
REMARK SMILES IDX 63 70 64 71 72 72 65 73 66 74 70 75 73 76 67 77 68 78 71 79
REMARK SMILES IDX 69 80 48 81 49 82 57 83 50 84 51 85 55 86 58 87 52 88 53 89
REMARK SMILES IDX 56 90 54 91
REMARK H PARENT 9 13 1 20 1 21 1 22 78 44 46 55
REMARK Flexibility Score: inf
ROOT
ATOM      1  C   UNL A   1      31.550  28.745  27.327  1.00  0.00     0.274 C 
ENDROOT
BRANCH   1   2
ATOM      2  O   UNL A   1      32.389  27.620  27.006  1.00  0.00    -0.462 OA
BRANCH   2   3
ATOM      3  C   UNL A   1      31.749  26.540  26.493  1.00  0.00     0.312 C 
ATOM      4  O   UNL A   1      30.543  26.335  26.590  1.00  0.00    -0.252 OA
BRANCH   3   5
ATOM      5  C   UNL A   1      32.668  25.555  25.794  1.00  0.00     0.124 C 
ATOM      6  C   UNL A   1      34.900  24.602  25.708  1.00  0.00     0.106 C 
ATOM      7  C   UNL A   1      33.957  23.699  26.417  1.00  0.00    -0.006 C 
ATOM      8  C   UNL A   1      34.139  25.921  25.585  1.00  0.00     0.048 C 
ATOM      9  C   UNL A   1      32.734  24.233  26.500  1.00  0.00    -0.014 C 
BRANCH   6  10
ATOM     10  N   UNL A   1      35.456  23.973  24.520  1.00  0.00    -0.349 N 
ATOM     11  C   UNL A   1      35.134  23.409  23.345  1.00  0.00     0.232 C 
ATOM     12  O   UNL A   1      36.122  22.946  22.749  1.00  0.00    -0.274 OA
ATOM     13  H   UNL A   1      36.436  23.953  24.612  1.00  0.00     0.164 HD
BRANCH  11  14
ATOM     14  C   UNL A   1      33.790  23.267  22.648  1.00  0.00     0.164 C 
ATOM     15  C   UNL A   1      32.752  22.238  23.060  1.00  0.00     0.221 C 
ATOM     16  C   UNL A   1      31.465  23.037  23.250  1.00  0.00     0.225 C 
ATOM     17  O   UNL A   1      31.660  24.354  22.719  1.00  0.00    -0.374 OA
ATOM     18  C   UNL A   1      33.040  24.549  22.403  1.00  0.00     0.180 C 
BRANCH  15  19
ATOM     19  N   UNL A   1      33.055  21.308  24.140  1.00  0.00    -0.352 N 
ATOM     20  H   UNL A   1      32.192  20.876  24.469  1.00  0.00     0.344 HD
ATOM     21  H   UNL A   1      33.498  21.811  24.909  1.00  0.00     0.344 HD
ATOM     22  H   UNL A   1      33.688  20.584  23.798  1.00  0.00     0.344 HD
ENDBRANCH  15  19
ENDBRANCH  11  14
ENDBRANCH   6  10
ENDBRANCH   3   5
ENDBRANCH   2   3
ENDBRANCH   1   2
BRANCH   1  23
ATOM     23  C   UNL A   1      31.741  29.880  26.317  1.00  0.00     0.275 C 
BRANCH  23  24
ATOM     24  O   UNL A   1      33.118  30.295  26.208  1.00  0.00    -0.458 OA
BRANCH  24  25
ATOM     25  C   UNL A   1      33.493  31.266  27.069  1.00  0.00     0.338 C 
ATOM     26  O   UNL A   1      32.842  32.244  27.413  1.00  0.00    -0.246 OA
BRANCH  25  27
ATOM     27  C   UNL A   1      34.805  30.964  27.657  1.00  0.00     0.060 A 
ATOM     28  C   UNL A   1      35.078  29.640  27.999  1.00  0.00     0.016 A 
ATOM     29  C   UNL A   1      35.698  31.980  28.000  1.00  0.00     0.016 A 
ATOM     30  C   UNL A   1      36.226  29.325  28.724  1.00  0.00     0.010 A 
ATOM     31  C   UNL A   1      36.862  31.660  28.711  1.00  0.00     0.010 A 
ATOM     32  C   UNL A   1      37.122  30.334  29.101  1.00  0.00    -0.014 A 
BRANCH  32  33
ATOM     33  C   UNL A   1      38.301  30.000  29.942  1.00  0.00     0.031 A 
ATOM     34  C   UNL A   1      39.385  29.107  29.404  1.00  0.00     0.074 A 
ATOM     35  C   UNL A   1      38.425  30.526  31.175  1.00  0.00     0.049 A 
ATOM     36  N   UNL A   1      40.436  28.615  30.013  1.00  0.00    -0.248 NA
ATOM     37  C   UNL A   1      39.275  28.717  27.989  1.00  0.00     0.031 C 
ATOM     38  C   UNL A   1      37.483  31.457  31.795  1.00  0.00     0.029 A 
ATOM     39  N   UNL A   1      39.401  30.353  32.125  1.00  0.00    -0.354 N 
ATOM     40  C   UNL A   1      41.100  27.848  29.066  1.00  0.00     0.074 A 
ATOM     41  C   UNL A   1      40.330  27.926  27.843  1.00  0.00     0.031 C 
ATOM     42  C   UNL A   1      37.929  31.778  33.021  1.00  0.00     0.029 A 
ATOM     43  C   UNL A   1      39.160  31.039  33.290  1.00  0.00     0.049 A 
ATOM     44  H   UNL A   1      40.198  29.792  31.986  1.00  0.00     0.167 HD
ATOM     45  C   UNL A   1      42.252  27.147  29.203  1.00  0.00     0.037 A 
ATOM     46  C   UNL A   1      39.837  31.048  34.454  1.00  0.00     0.037 A 
ATOM     47  C   UNL A   1      43.031  27.079  30.411  1.00  0.00     0.049 A 
ATOM     48  C   UNL A   1      41.078  30.211  34.598  1.00  0.00     0.074 A 
ATOM     49  C   UNL A   1      44.192  26.362  30.653  1.00  0.00     0.029 A 
ATOM     50  N   UNL A   1      42.737  27.765  31.579  1.00  0.00    -0.354 N 
ATOM     51  N   UNL A   1      41.668  29.446  33.713  1.00  0.00    -0.248 NA
ATOM     52  C   UNL A   1      41.744  30.234  35.910  1.00  0.00     0.031 C 
ATOM     53  C   UNL A   1      44.588  26.599  31.974  1.00  0.00     0.029 A 
ATOM     54  C   UNL A   1      43.692  27.487  32.545  1.00  0.00     0.049 A 
ATOM     55  H   UNL A   1      41.963  28.361  31.704  1.00  0.00     0.167 HD
ATOM     56  C   UNL A   1      42.777  28.911  34.353  1.00  0.00     0.074 A 
ATOM     57  C   UNL A   1      42.791  29.452  35.695  1.00  0.00     0.031 C 
ATOM     58  C   UNL A   1      43.699  28.043  33.872  1.00  0.00     0.037 A 
BRANCH  45  59
ATOM     59  C   UNL A   1      42.738  26.377  28.013  1.00  0.00     0.064 A 
ATOM     60  C   UNL A   1      43.613  26.948  27.079  1.00  0.00     0.173 A 
ATOM     61  C   UNL A   1      42.371  25.034  27.837  1.00  0.00     0.173 A 
ATOM     62  F   UNL A   1      43.982  28.232  27.199  1.00  0.00    -0.203 F 
ATOM     63  C   UNL A   1      44.094  26.206  26.003  1.00  0.00     0.198 A 
ATOM     64  C   UNL A   1      42.869  24.289  26.772  1.00  0.00     0.198 A 
ATOM     65  F   UNL A   1      41.540  24.441  28.707  1.00  0.00    -0.203 F 
ATOM     66  F   UNL A   1      44.906  26.780  25.105  1.00  0.00    -0.200 F 
ATOM     67  C   UNL A   1      43.727  24.877  25.855  1.00  0.00     0.200 A 
ATOM     68  F   UNL A   1      42.522  23.002  26.635  1.00  0.00    -0.200 F 
ATOM     69  F   UNL A   1      44.198  24.161  24.824  1.00  0.00    -0.200 F 
ENDBRANCH  45  59
BRANCH  46  70
ATOM     70  C   UNL A   1      39.340  31.858  35.595  1.00  0.00     0.064 A 
ATOM     71  C   UNL A   1      39.803  33.162  35.811  1.00  0.00     0.173 A 
ATOM     72  C   UNL A   1      38.413  31.332  36.507  1.00  0.00     0.173 A 
ATOM     73  F   UNL A   1      40.712  33.695  34.982  1.00  0.00    -0.203 F 
ATOM     74  C   UNL A   1      39.371  33.905  36.908  1.00  0.00     0.198 A 
ATOM     75  C   UNL A   1      37.962  32.084  37.588  1.00  0.00     0.198 A 
ATOM     76  F   UNL A   1      37.945  30.085  36.346  1.00  0.00    -0.203 F 
ATOM     77  F   UNL A   1      39.866  35.132  37.120  1.00  0.00    -0.200 F 
ATOM     78  C   UNL A   1      38.447  33.367  37.793  1.00  0.00     0.200 A 
ATOM     79  F   UNL A   1      37.066  31.564  38.437  1.00  0.00    -0.200 F 
ATOM     80  F   UNL A   1      38.036  34.080  38.850  1.00  0.00    -0.200 F 
ENDBRANCH  46  70
BRANCH  58  81
ATOM     81  C   UNL A   1      44.816  27.651  34.791  1.00  0.00     0.064 A 
ATOM     82  C   UNL A   1      44.725  26.518  35.612  1.00  0.00     0.173 A 
ATOM     83  C   UNL A   1      46.001  28.401  34.830  1.00  0.00     0.173 A 
ATOM     84  F   UNL A   1      43.605  25.779  35.619  1.00  0.00    -0.203 F 
ATOM     85  C   UNL A   1      45.772  26.161  36.456  1.00  0.00     0.198 A 
ATOM     86  C   UNL A   1      47.055  28.029  35.661  1.00  0.00     0.198 A 
ATOM     87  F   UNL A   1      46.138  29.491  34.061  1.00  0.00    -0.203 F 
ATOM     88  F   UNL A   1      45.649  25.097  37.262  1.00  0.00    -0.200 F 
ATOM     89  C   UNL A   1      46.937  26.913  36.477  1.00  0.00     0.200 A 
ATOM     90  F   UNL A   1      48.183  28.754  35.675  1.00  0.00    -0.200 F 
ATOM     91  F   UNL A   1      47.945  26.568  37.290  1.00  0.00    -0.200 F 
ENDBRANCH  58  81
ENDBRANCH  32  33
ENDBRANCH  25  27
ENDBRANCH  24  25
ENDBRANCH  23  24
ENDBRANCH   1  23
TORSDOF 14
ENDMDL
