MODEL 1
REMARK VINA RESULT:     -11.5      0.000      0.000
REMARK SMILES O=C(Cc1cccn(C(F)F)c1=O)OCCOC(=O)c1ccc(-c2c3nc(c(-c4c(F)c(F)c(F)c(F)c4F)c4ccc([nH]4)c(-c4c(F)c(F)c(F)c(F)c4F)c4nc(c(-c5c(F)c(F)c(F)c(F)c5F)c5ccc2[nH]5)C=C4)C=C3)cc1
REMARK SMILES IDX 15 1 14 2 2 3 1 4 3 5 4 6 5 7 12 8 6 9 8 10 13 11 7 12 9 13
REMARK SMILES IDX 10 14 11 15 16 16 17 17 18 18 19 19 20 20 21 21 82 22 22 23
REMARK SMILES IDX 81 24 23 25 24 26 25 27 75 28 26 29 80 30 74 31 76 32 27 33
REMARK SMILES IDX 79 34 73 35 72 36 28 38 60 39 40 40 59 41 41 42 44 43 58 44
REMARK SMILES IDX 77 45 42 46 43 47 57 49 78 50 45 51 29 52 30 53 38 54 31 55
REMARK SMILES IDX 32 56 36 57 39 58 33 59 34 60 37 61 35 62 61 63 62 64 70 65
REMARK SMILES IDX 63 66 64 67 68 68 71 69 65 70 66 71 69 72 67 73 46 74 47 75
REMARK SMILES IDX 55 76 48 77 49 78 53 79 56 80 50 81 51 82 54 83 52 84
REMARK H PARENT 76 37 44 48
REMARK Flexibility Score: inf
ROOT
ATOM      1  C   UNL A   1      31.475  28.867  25.097  1.00  0.00     0.274 C 
ENDROOT
BRANCH   1   2
ATOM      2  O   UNL A   1      31.453  28.838  23.652  1.00  0.00    -0.462 OA
BRANCH   2   3
ATOM      3  C   UNL A   1      30.431  28.370  22.896  1.00  0.00     0.310 C 
ATOM      4  O   UNL A   1      30.647  27.557  22.001  1.00  0.00    -0.252 OA
BRANCH   3   5
ATOM      5  C   UNL A   1      29.034  28.886  23.162  1.00  0.00     0.164 C 
BRANCH   5   6
ATOM      6  C   UNL A   1      28.856  30.362  22.968  1.00  0.00     0.029 A 
ATOM      7  C   UNL A   1      29.151  31.310  23.877  1.00  0.00     0.011 A 
ATOM      8  C   UNL A   1      28.341  30.791  21.619  1.00  0.00     0.258 A 
ATOM      9  C   UNL A   1      29.018  32.709  23.571  1.00  0.00     0.019 A 
ATOM     10  N   UNL A   1      28.209  32.153  21.420  1.00  0.00    -0.258 N 
ATOM     11  O   UNL A   1      28.081  29.950  20.761  1.00  0.00    -0.269 OA
ATOM     12  C   UNL A   1      28.553  33.088  22.377  1.00  0.00     0.095 A 
BRANCH  10  13
ATOM     13  C   UNL A   1      27.651  32.597  20.169  1.00  0.00     0.451 C 
ATOM     14  F   UNL A   1      27.189  33.869  20.310  1.00  0.00    -0.185 F 
ATOM     15  F   UNL A   1      28.624  32.650  19.222  1.00  0.00    -0.185 F 
ENDBRANCH  10  13
ENDBRANCH   5   6
ENDBRANCH   3   5
ENDBRANCH   2   3
ENDBRANCH   1   2
BRANCH   1  16
ATOM     16  C   UNL A   1      31.823  30.259  25.622  1.00  0.00     0.275 C 
BRANCH  16  17
ATOM     17  O   UNL A   1      32.711  30.146  26.747  1.00  0.00    -0.458 OA
BRANCH  17  18
ATOM     18  C   UNL A   1      33.268  31.301  27.189  1.00  0.00     0.338 C 
ATOM     19  O   UNL A   1      32.747  32.399  27.200  1.00  0.00    -0.246 OA
BRANCH  18  20
ATOM     20  C   UNL A   1      34.567  30.995  27.843  1.00  0.00     0.060 A 
ATOM     21  C   UNL A   1      35.549  31.974  28.033  1.00  0.00     0.016 A 
ATOM     22  C   UNL A   1      34.818  29.671  28.226  1.00  0.00     0.016 A 
ATOM     23  C   UNL A   1      36.771  31.626  28.612  1.00  0.00     0.010 A 
ATOM     24  C   UNL A   1      36.035  29.328  28.818  1.00  0.00     0.010 A 
ATOM     25  C   UNL A   1      37.017  30.306  29.023  1.00  0.00    -0.014 A 
BRANCH  25  26
ATOM     26  C   UNL A   1      38.248  30.001  29.790  1.00  0.00     0.031 A 
ATOM     27  C   UNL A   1      38.482  30.549  31.164  1.00  0.00     0.074 A 
ATOM     28  C   UNL A   1      39.165  29.195  29.222  1.00  0.00     0.049 A 
ATOM     29  N   UNL A   1      39.439  30.253  32.009  1.00  0.00    -0.248 NA
ATOM     30  C   UNL A   1      37.533  31.557  31.652  1.00  0.00     0.031 C 
ATOM     31  C   UNL A   1      39.065  28.641  27.871  1.00  0.00     0.029 A 
ATOM     32  N   UNL A   1      40.343  28.689  29.708  1.00  0.00    -0.354 N 
ATOM     33  C   UNL A   1      39.195  31.018  33.140  1.00  0.00     0.074 A 
ATOM     34  C   UNL A   1      38.031  31.833  32.852  1.00  0.00     0.031 C 
ATOM     35  C   UNL A   1      40.119  27.841  27.649  1.00  0.00     0.029 A 
ATOM     36  C   UNL A   1      40.974  27.840  28.833  1.00  0.00     0.049 A 
ATOM     37  H   UNL A   1      40.701  28.914  30.597  1.00  0.00     0.167 HD
ATOM     38  C   UNL A   1      39.870  31.020  34.315  1.00  0.00     0.037 A 
ATOM     39  C   UNL A   1      42.107  27.127  28.971  1.00  0.00     0.037 A 
ATOM     40  C   UNL A   1      41.038  30.219  34.588  1.00  0.00     0.049 A 
ATOM     41  C   UNL A   1      42.861  27.181  30.269  1.00  0.00     0.074 A 
ATOM     42  C   UNL A   1      41.747  30.105  35.772  1.00  0.00     0.029 A 
ATOM     43  N   UNL A   1      41.682  29.414  33.660  1.00  0.00    -0.354 N 
ATOM     44  N   UNL A   1      42.560  27.822  31.371  1.00  0.00    -0.248 NA
ATOM     45  C   UNL A   1      44.109  26.408  30.344  1.00  0.00     0.031 C 
ATOM     46  C   UNL A   1      42.851  29.276  35.545  1.00  0.00     0.029 A 
ATOM     47  C   UNL A   1      42.803  28.833  34.234  1.00  0.00     0.049 A 
ATOM     48  H   UNL A   1      41.387  29.275  32.731  1.00  0.00     0.167 HD
ATOM     49  C   UNL A   1      43.569  27.521  32.274  1.00  0.00     0.074 A 
ATOM     50  C   UNL A   1      44.484  26.626  31.597  1.00  0.00     0.031 C 
ATOM     51  C   UNL A   1      43.719  27.953  33.550  1.00  0.00     0.037 A 
BRANCH  38  52
ATOM     52  C   UNL A   1      39.358  31.904  35.414  1.00  0.00     0.064 A 
ATOM     53  C   UNL A   1      38.469  31.417  36.384  1.00  0.00     0.173 A 
ATOM     54  C   UNL A   1      39.825  33.220  35.553  1.00  0.00     0.173 A 
ATOM     55  F   UNL A   1      37.990  30.167  36.294  1.00  0.00    -0.203 F 
ATOM     56  C   UNL A   1      38.054  32.220  37.444  1.00  0.00     0.198 A 
ATOM     57  C   UNL A   1      39.427  34.011  36.627  1.00  0.00     0.198 A 
ATOM     58  F   UNL A   1      40.686  33.730  34.660  1.00  0.00    -0.203 F 
ATOM     59  F   UNL A   1      37.183  31.740  38.342  1.00  0.00    -0.200 F 
ATOM     60  C   UNL A   1      38.540  33.512  37.569  1.00  0.00     0.200 A 
ATOM     61  F   UNL A   1      39.909  35.255  36.757  1.00  0.00    -0.200 F 
ATOM     62  F   UNL A   1      38.153  34.277  38.599  1.00  0.00    -0.200 F 
ENDBRANCH  38  52
BRANCH  39  63
ATOM     63  C   UNL A   1      42.554  26.258  27.856  1.00  0.00     0.064 A 
ATOM     64  C   UNL A   1      42.017  24.974  27.690  1.00  0.00     0.173 A 
ATOM     65  C   UNL A   1      43.480  26.710  26.906  1.00  0.00     0.173 A 
ATOM     66  F   UNL A   1      41.139  24.495  28.582  1.00  0.00    -0.203 F 
ATOM     67  C   UNL A   1      42.391  24.175  26.612  1.00  0.00     0.198 A 
ATOM     68  C   UNL A   1      43.836  25.919  25.816  1.00  0.00     0.198 A 
ATOM     69  F   UNL A   1      44.015  27.935  27.021  1.00  0.00    -0.203 F 
ATOM     70  F   UNL A   1      41.877  22.944  26.485  1.00  0.00    -0.200 F 
ATOM     71  C   UNL A   1      43.293  24.652  25.672  1.00  0.00     0.200 A 
ATOM     72  F   UNL A   1      44.694  26.389  24.901  1.00  0.00    -0.200 F 
ATOM     73  F   UNL A   1      43.637  23.889  24.625  1.00  0.00    -0.200 F 
ENDBRANCH  39  63
BRANCH  51  74
ATOM     74  C   UNL A   1      44.921  27.473  34.309  1.00  0.00     0.064 A 
ATOM     75  C   UNL A   1      44.899  26.261  35.017  1.00  0.00     0.173 A 
ATOM     76  C   UNL A   1      46.126  28.191  34.271  1.00  0.00     0.173 A 
ATOM     77  F   UNL A   1      43.767  25.547  35.098  1.00  0.00    -0.203 F 
ATOM     78  C   UNL A   1      46.039  25.791  35.664  1.00  0.00     0.198 A 
ATOM     79  C   UNL A   1      47.270  27.704  34.897  1.00  0.00     0.198 A 
ATOM     80  F   UNL A   1      46.199  29.352  33.605  1.00  0.00    -0.203 F 
ATOM     81  F   UNL A   1      45.989  24.645  36.358  1.00  0.00    -0.200 F 
ATOM     82  C   UNL A   1      47.225  26.506  35.595  1.00  0.00     0.200 A 
ATOM     83  F   UNL A   1      48.418  28.390  34.820  1.00  0.00    -0.200 F 
ATOM     84  F   UNL A   1      48.325  26.042  36.203  1.00  0.00    -0.200 F 
ENDBRANCH  51  74
ENDBRANCH  25  26
ENDBRANCH  18  20
ENDBRANCH  17  18
ENDBRANCH  16  17
ENDBRANCH   1  16
TORSDOF 13
ENDMDL
MODEL 2
REMARK VINA RESULT:     -11.5      4.507      6.277
REMARK SMILES O=C(Cc1cccn(C(F)F)c1=O)OCCOC(=O)c1ccc(-c2c3nc(c(-c4c(F)c(F)c(F)c(F)c4F)c4ccc([nH]4)c(-c4c(F)c(F)c(F)c(F)c4F)c4nc(c(-c5c(F)c(F)c(F)c(F)c5F)c5ccc2[nH]5)C=C4)C=C3)cc1
REMARK SMILES IDX 15 1 14 2 2 3 1 4 3 5 4 6 5 7 12 8 6 9 8 10 13 11 7 12 9 13
REMARK SMILES IDX 10 14 11 15 16 16 17 17 18 18 19 19 20 20 21 21 82 22 22 23
REMARK SMILES IDX 81 24 23 25 24 26 25 27 75 28 26 29 80 30 74 31 76 32 27 33
REMARK SMILES IDX 79 34 73 35 72 36 28 38 60 39 40 40 59 41 41 42 44 43 58 44
REMARK SMILES IDX 77 45 42 46 43 47 57 49 78 50 45 51 29 52 30 53 38 54 31 55
REMARK SMILES IDX 32 56 36 57 39 58 33 59 34 60 37 61 35 62 61 63 62 64 70 65
REMARK SMILES IDX 63 66 64 67 68 68 71 69 65 70 66 71 69 72 67 73 46 74 47 75
REMARK SMILES IDX 55 76 48 77 49 78 53 79 56 80 50 81 51 82 54 83 52 84
REMARK H PARENT 76 37 44 48
REMARK Flexibility Score: inf
ROOT
ATOM      1  C   UNL A   1      33.463  35.017  28.815  1.00  0.00     0.274 C 
ENDROOT
BRANCH   1   2
ATOM      2  O   UNL A   1      32.552  35.116  29.933  1.00  0.00    -0.462 OA
BRANCH   2   3
ATOM      3  C   UNL A   1      32.917  35.318  31.221  1.00  0.00     0.310 C 
ATOM      4  O   UNL A   1      32.060  35.458  32.091  1.00  0.00    -0.252 OA
BRANCH   3   5
ATOM      5  C   UNL A   1      34.391  35.388  31.558  1.00  0.00     0.164 C 
BRANCH   5   6
ATOM      6  C   UNL A   1      34.986  34.110  32.069  1.00  0.00     0.029 A 
ATOM      7  C   UNL A   1      34.861  32.903  31.486  1.00  0.00     0.011 A 
ATOM      8  C   UNL A   1      35.821  34.226  33.317  1.00  0.00     0.258 A 
ATOM      9  C   UNL A   1      35.534  31.745  32.010  1.00  0.00     0.019 A 
ATOM     10  N   UNL A   1      36.403  33.057  33.773  1.00  0.00    -0.258 N 
ATOM     11  O   UNL A   1      35.970  35.318  33.862  1.00  0.00    -0.269 OA
ATOM     12  C   UNL A   1      36.268  31.848  33.122  1.00  0.00     0.095 A 
BRANCH  10  13
ATOM     13  C   UNL A   1      37.149  33.116  35.004  1.00  0.00     0.451 C 
ATOM     14  F   UNL A   1      38.244  33.903  34.827  1.00  0.00    -0.185 F 
ATOM     15  F   UNL A   1      36.402  33.716  35.968  1.00  0.00    -0.185 F 
ENDBRANCH  10  13
ENDBRANCH   5   6
ENDBRANCH   3   5
ENDBRANCH   2   3
ENDBRANCH   1   2
BRANCH   1  16
ATOM     16  C   UNL A   1      33.207  33.753  27.996  1.00  0.00     0.275 C 
BRANCH  16  17
ATOM     17  O   UNL A   1      34.452  33.084  27.733  1.00  0.00    -0.458 OA
BRANCH  17  18
ATOM     18  C   UNL A   1      34.419  31.728  27.751  1.00  0.00     0.338 C 
ATOM     19  O   UNL A   1      33.545  31.018  27.293  1.00  0.00    -0.246 OA
BRANCH  18  20
ATOM     20  C   UNL A   1      35.719  31.217  28.257  1.00  0.00     0.060 A 
ATOM     21  C   UNL A   1      36.850  32.036  28.354  1.00  0.00     0.016 A 
ATOM     22  C   UNL A   1      35.810  29.860  28.593  1.00  0.00     0.016 A 
ATOM     23  C   UNL A   1      38.061  31.497  28.793  1.00  0.00     0.010 A 
ATOM     24  C   UNL A   1      37.017  29.325  29.046  1.00  0.00     0.010 A 
ATOM     25  C   UNL A   1      38.150  30.143  29.158  1.00  0.00    -0.014 A 
BRANCH  25  26
ATOM     26  C   UNL A   1      39.396  29.640  29.784  1.00  0.00     0.031 A 
ATOM     27  C   UNL A   1      39.914  30.194  31.074  1.00  0.00     0.074 A 
ATOM     28  C   UNL A   1      40.059  28.645  29.164  1.00  0.00     0.049 A 
ATOM     29  N   UNL A   1      40.905  29.757  31.812  1.00  0.00    -0.248 NA
ATOM     30  C   UNL A   1      39.246  31.390  31.605  1.00  0.00     0.031 C 
ATOM     31  C   UNL A   1      39.673  28.060  27.879  1.00  0.00     0.029 A 
ATOM     32  N   UNL A   1      41.177  27.943  29.532  1.00  0.00    -0.354 N 
ATOM     33  C   UNL A   1      40.966  30.606  32.907  1.00  0.00     0.074 A 
ATOM     34  C   UNL A   1      39.947  31.618  32.710  1.00  0.00     0.031 C 
ATOM     35  C   UNL A   1      40.518  27.061  27.584  1.00  0.00     0.029 A 
ATOM     36  C   UNL A   1      41.512  26.948  28.648  1.00  0.00     0.049 A 
ATOM     37  H   UNL A   1      41.689  28.134  30.351  1.00  0.00     0.167 HD
ATOM     38  C   UNL A   1      41.784  30.530  33.984  1.00  0.00     0.037 A 
ATOM     39  C   UNL A   1      42.499  26.035  28.693  1.00  0.00     0.037 A 
ATOM     40  C   UNL A   1      42.807  29.530  34.165  1.00  0.00     0.049 A 
ATOM     41  C   UNL A   1      43.422  26.001  29.878  1.00  0.00     0.074 A 
ATOM     42  C   UNL A   1      43.638  29.335  35.255  1.00  0.00     0.029 A 
ATOM     43  N   UNL A   1      43.157  28.574  33.223  1.00  0.00    -0.354 N 
ATOM     44  N   UNL A   1      43.399  26.738  30.962  1.00  0.00    -0.248 NA
ATOM     45  C   UNL A   1      44.501  25.004  29.851  1.00  0.00     0.031 C 
ATOM     46  C   UNL A   1      44.526  28.297  34.951  1.00  0.00     0.029 A 
ATOM     47  C   UNL A   1      44.217  27.812  33.691  1.00  0.00     0.049 A 
ATOM     48  H   UNL A   1      42.717  28.452  32.351  1.00  0.00     0.167 HD
ATOM     49  C   UNL A   1      44.448  26.288  31.750  1.00  0.00     0.074 A 
ATOM     50  C   UNL A   1      45.079  25.202  31.028  1.00  0.00     0.031 C 
ATOM     51  C   UNL A   1      44.850  26.740  32.963  1.00  0.00     0.037 A 
BRANCH  38  52
ATOM     52  C   UNL A   1      41.602  31.547  35.073  1.00  0.00     0.064 A 
ATOM     53  C   UNL A   1      42.431  32.676  35.159  1.00  0.00     0.173 A 
ATOM     54  C   UNL A   1      40.540  31.441  35.983  1.00  0.00     0.173 A 
ATOM     55  F   UNL A   1      43.462  32.822  34.314  1.00  0.00    -0.203 F 
ATOM     56  C   UNL A   1      42.212  33.654  36.126  1.00  0.00     0.198 A 
ATOM     57  C   UNL A   1      40.310  32.433  36.934  1.00  0.00     0.198 A 
ATOM     58  F   UNL A   1      39.711  30.387  35.937  1.00  0.00    -0.203 F 
ATOM     59  F   UNL A   1      43.034  34.709  36.205  1.00  0.00    -0.200 F 
ATOM     60  C   UNL A   1      41.147  33.535  37.006  1.00  0.00     0.200 A 
ATOM     61  F   UNL A   1      39.271  32.326  37.774  1.00  0.00    -0.200 F 
ATOM     62  F   UNL A   1      40.928  34.486  37.925  1.00  0.00    -0.200 F 
ENDBRANCH  38  52
BRANCH  39  63
ATOM     63  C   UNL A   1      42.620  25.045  27.595  1.00  0.00     0.064 A 
ATOM     64  C   UNL A   1      43.516  25.255  26.539  1.00  0.00     0.173 A 
ATOM     65  C   UNL A   1      41.888  23.849  27.609  1.00  0.00     0.173 A 
ATOM     66  F   UNL A   1      44.225  26.390  26.478  1.00  0.00    -0.203 F 
ATOM     67  C   UNL A   1      43.675  24.303  25.534  1.00  0.00     0.198 A 
ATOM     68  C   UNL A   1      42.065  22.888  26.616  1.00  0.00     0.198 A 
ATOM     69  F   UNL A   1      41.025  23.602  28.605  1.00  0.00    -0.203 F 
ATOM     70  F   UNL A   1      44.524  24.535  24.524  1.00  0.00    -0.200 F 
ATOM     71  C   UNL A   1      42.957  23.117  25.579  1.00  0.00     0.200 A 
ATOM     72  F   UNL A   1      41.382  21.737  26.672  1.00  0.00    -0.200 F 
ATOM     73  F   UNL A   1      43.124  22.194  24.623  1.00  0.00    -0.200 F 
ENDBRANCH  39  63
BRANCH  51  74
ATOM     74  C   UNL A   1      46.033  26.071  33.596  1.00  0.00     0.064 A 
ATOM     75  C   UNL A   1      45.881  24.929  34.398  1.00  0.00     0.173 A 
ATOM     76  C   UNL A   1      47.336  26.528  33.344  1.00  0.00     0.173 A 
ATOM     77  F   UNL A   1      44.657  24.463  34.683  1.00  0.00    -0.203 F 
ATOM     78  C   UNL A   1      46.990  24.275  34.929  1.00  0.00     0.198 A 
ATOM     79  C   UNL A   1      48.443  25.856  33.855  1.00  0.00     0.198 A 
ATOM     80  F   UNL A   1      47.534  27.613  32.582  1.00  0.00    -0.203 F 
ATOM     81  F   UNL A   1      46.820  23.202  35.715  1.00  0.00    -0.200 F 
ATOM     82  C   UNL A   1      48.269  24.732  34.648  1.00  0.00     0.200 A 
ATOM     83  F   UNL A   1      49.678  26.292  33.574  1.00  0.00    -0.200 F 
ATOM     84  F   UNL A   1      49.335  24.091  35.146  1.00  0.00    -0.200 F 
ENDBRANCH  51  74
ENDBRANCH  25  26
ENDBRANCH  18  20
ENDBRANCH  17  18
ENDBRANCH  16  17
ENDBRANCH   1  16
TORSDOF 13
ENDMDL
MODEL 3
REMARK VINA RESULT:     -11.3      3.175      4.428
REMARK SMILES O=C(Cc1cccn(C(F)F)c1=O)OCCOC(=O)c1ccc(-c2c3nc(c(-c4c(F)c(F)c(F)c(F)c4F)c4ccc([nH]4)c(-c4c(F)c(F)c(F)c(F)c4F)c4nc(c(-c5c(F)c(F)c(F)c(F)c5F)c5ccc2[nH]5)C=C4)C=C3)cc1
REMARK SMILES IDX 15 1 14 2 2 3 1 4 3 5 4 6 5 7 12 8 6 9 8 10 13 11 7 12 9 13
REMARK SMILES IDX 10 14 11 15 16 16 17 17 18 18 19 19 20 20 21 21 82 22 22 23
REMARK SMILES IDX 81 24 23 25 24 26 25 27 75 28 26 29 80 30 74 31 76 32 27 33
REMARK SMILES IDX 79 34 73 35 72 36 28 38 60 39 40 40 59 41 41 42 44 43 58 44
REMARK SMILES IDX 77 45 42 46 43 47 57 49 78 50 45 51 29 52 30 53 38 54 31 55
REMARK SMILES IDX 32 56 36 57 39 58 33 59 34 60 37 61 35 62 61 63 62 64 70 65
REMARK SMILES IDX 63 66 64 67 68 68 71 69 65 70 66 71 69 72 67 73 46 74 47 75
REMARK SMILES IDX 55 76 48 77 49 78 53 79 56 80 50 81 51 82 54 83 52 84
REMARK H PARENT 76 37 44 48
REMARK Flexibility Score: inf
ROOT
ATOM      1  C   UNL A   1      31.401  29.999  25.675  1.00  0.00     0.274 C 
ENDROOT
BRANCH   1   2
ATOM      2  O   UNL A   1      32.151  28.887  26.214  1.00  0.00    -0.462 OA
BRANCH   2   3
ATOM      3  C   UNL A   1      31.612  27.794  26.804  1.00  0.00     0.310 C 
ATOM      4  O   UNL A   1      31.347  27.808  28.004  1.00  0.00    -0.252 OA
BRANCH   3   5
ATOM      5  C   UNL A   1      31.367  26.560  25.964  1.00  0.00     0.164 C 
BRANCH   5   6
ATOM      6  C   UNL A   1      32.511  25.592  25.910  1.00  0.00     0.029 A 
ATOM      7  C   UNL A   1      33.685  25.807  25.289  1.00  0.00     0.011 A 
ATOM      8  C   UNL A   1      32.314  24.299  26.656  1.00  0.00     0.258 A 
ATOM      9  C   UNL A   1      34.755  24.848  25.358  1.00  0.00     0.019 A 
ATOM     10  N   UNL A   1      33.379  23.417  26.641  1.00  0.00    -0.258 N 
ATOM     11  O   UNL A   1      31.259  24.082  27.249  1.00  0.00    -0.269 OA
ATOM     12  C   UNL A   1      34.576  23.697  26.013  1.00  0.00     0.095 A 
BRANCH  10  13
ATOM     13  C   UNL A   1      33.201  22.140  27.282  1.00  0.00     0.451 C 
ATOM     14  F   UNL A   1      32.634  21.272  26.402  1.00  0.00    -0.185 F 
ATOM     15  F   UNL A   1      34.411  21.614  27.608  1.00  0.00    -0.185 F 
ENDBRANCH  10  13
ENDBRANCH   5   6
ENDBRANCH   3   5
ENDBRANCH   2   3
ENDBRANCH   1   2
BRANCH   1  16
ATOM     16  C   UNL A   1      31.627  31.273  26.488  1.00  0.00     0.275 C 
BRANCH  16  17
ATOM     17  O   UNL A   1      33.021  31.620  26.470  1.00  0.00    -0.458 OA
BRANCH  17  18
ATOM     18  C   UNL A   1      33.422  32.539  27.384  1.00  0.00     0.338 C 
ATOM     19  O   UNL A   1      32.799  33.517  27.748  1.00  0.00    -0.246 OA
BRANCH  18  20
ATOM     20  C   UNL A   1      34.676  32.070  28.028  1.00  0.00     0.060 A 
ATOM     21  C   UNL A   1      35.787  32.906  28.182  1.00  0.00     0.016 A 
ATOM     22  C   UNL A   1      34.747  30.733  28.439  1.00  0.00     0.016 A 
ATOM     23  C   UNL A   1      36.959  32.405  28.752  1.00  0.00     0.010 A 
ATOM     24  C   UNL A   1      35.914  30.236  29.023  1.00  0.00     0.010 A 
ATOM     25  C   UNL A   1      37.026  31.073  29.192  1.00  0.00    -0.014 A 
BRANCH  25  26
ATOM     26  C   UNL A   1      38.215  30.616  29.949  1.00  0.00     0.031 A 
ATOM     27  C   UNL A   1      38.463  31.039  31.364  1.00  0.00     0.074 A 
ATOM     28  C   UNL A   1      39.079  29.787  29.333  1.00  0.00     0.049 A 
ATOM     29  N   UNL A   1      39.378  30.607  32.197  1.00  0.00    -0.248 NA
ATOM     30  C   UNL A   1      37.585  32.078  31.916  1.00  0.00     0.031 C 
ATOM     31  C   UNL A   1      38.963  29.346  27.943  1.00  0.00     0.029 A 
ATOM     32  N   UNL A   1      40.206  29.156  29.794  1.00  0.00    -0.354 N 
ATOM     33  C   UNL A   1      39.172  31.301  33.380  1.00  0.00     0.074 A 
ATOM     34  C   UNL A   1      38.080  32.223  33.140  1.00  0.00     0.031 C 
ATOM     35  C   UNL A   1      39.957  28.486  27.674  1.00  0.00     0.029 A 
ATOM     36  C   UNL A   1      40.787  28.330  28.866  1.00  0.00     0.049 A 
ATOM     37  H   UNL A   1      40.563  29.285  30.702  1.00  0.00     0.167 HD
ATOM     38  C   UNL A   1      39.823  31.161  34.560  1.00  0.00     0.037 A 
ATOM     39  C   UNL A   1      41.859  27.522  28.963  1.00  0.00     0.037 A 
ATOM     40  C   UNL A   1      40.920  30.254  34.787  1.00  0.00     0.049 A 
ATOM     41  C   UNL A   1      42.590  27.420  30.271  1.00  0.00     0.074 A 
ATOM     42  C   UNL A   1      41.596  29.996  35.967  1.00  0.00     0.029 A 
ATOM     43  N   UNL A   1      41.520  29.475  33.808  1.00  0.00    -0.354 N 
ATOM     44  N   UNL A   1      42.317  27.997  31.416  1.00  0.00    -0.248 NA
ATOM     45  C   UNL A   1      43.774  26.550  30.303  1.00  0.00     0.031 C 
ATOM     46  C   UNL A   1      42.638  29.104  35.692  1.00  0.00     0.029 A 
ATOM     47  C   UNL A   1      42.582  28.767  34.350  1.00  0.00     0.049 A 
ATOM     48  H   UNL A   1      41.233  29.429  32.868  1.00  0.00     0.167 HD
ATOM     49  C   UNL A   1      43.283  27.552  32.306  1.00  0.00     0.074 A 
ATOM     50  C   UNL A   1      44.140  26.642  31.574  1.00  0.00     0.031 C 
ATOM     51  C   UNL A   1      43.441  27.873  33.613  1.00  0.00     0.037 A 
BRANCH  38  52
ATOM     52  C   UNL A   1      39.359  31.997  35.717  1.00  0.00     0.064 A 
ATOM     53  C   UNL A   1      38.381  31.527  36.607  1.00  0.00     0.173 A 
ATOM     54  C   UNL A   1      39.955  33.237  35.992  1.00  0.00     0.173 A 
ATOM     55  F   UNL A   1      37.779  30.349  36.387  1.00  0.00    -0.203 F 
ATOM     56  C   UNL A   1      38.006  32.274  37.721  1.00  0.00     0.198 A 
ATOM     57  C   UNL A   1      39.595  33.971  37.119  1.00  0.00     0.198 A 
ATOM     58  F   UNL A   1      40.903  33.727  35.179  1.00  0.00    -0.203 F 
ATOM     59  F   UNL A   1      37.051  31.816  38.541  1.00  0.00    -0.200 F 
ATOM     60  C   UNL A   1      38.619  33.491  37.980  1.00  0.00     0.200 A 
ATOM     61  F   UNL A   1      40.199  35.139  37.379  1.00  0.00    -0.200 F 
ATOM     62  F   UNL A   1      38.270  34.201  39.062  1.00  0.00    -0.200 F 
ENDBRANCH  38  52
BRANCH  39  63
ATOM     63  C   UNL A   1      42.260  26.708  27.791  1.00  0.00     0.064 A 
ATOM     64  C   UNL A   1      43.250  27.164  26.909  1.00  0.00     0.173 A 
ATOM     65  C   UNL A   1      41.708  25.440  27.560  1.00  0.00     0.173 A 
ATOM     66  F   UNL A   1      43.795  28.375  27.084  1.00  0.00    -0.203 F 
ATOM     67  C   UNL A   1      43.672  26.379  25.839  1.00  0.00     0.198 A 
ATOM     68  C   UNL A   1      42.147  24.648  26.503  1.00  0.00     0.198 A 
ATOM     69  F   UNL A   1      40.763  24.960  28.383  1.00  0.00    -0.203 F 
ATOM     70  F   UNL A   1      44.607  26.845  24.999  1.00  0.00    -0.200 F 
ATOM     71  C   UNL A   1      43.127  25.119  25.642  1.00  0.00     0.200 A 
ATOM     72  F   UNL A   1      41.631  23.424  26.326  1.00  0.00    -0.200 F 
ATOM     73  F   UNL A   1      43.548  24.357  24.623  1.00  0.00    -0.200 F 
ENDBRANCH  39  63
BRANCH  51  74
ATOM     74  C   UNL A   1      44.588  27.245  34.349  1.00  0.00     0.064 A 
ATOM     75  C   UNL A   1      45.820  27.904  34.475  1.00  0.00     0.173 A 
ATOM     76  C   UNL A   1      44.434  26.008  34.995  1.00  0.00     0.173 A 
ATOM     77  F   UNL A   1      46.023  29.079  33.862  1.00  0.00    -0.203 F 
ATOM     78  C   UNL A   1      46.858  27.343  35.215  1.00  0.00     0.198 A 
ATOM     79  C   UNL A   1      45.466  25.464  35.755  1.00  0.00     0.198 A 
ATOM     80  F   UNL A   1      43.275  25.341  34.907  1.00  0.00    -0.203 F 
ATOM     81  F   UNL A   1      48.037  27.977  35.299  1.00  0.00    -0.200 F 
ATOM     82  C   UNL A   1      46.677  26.130  35.863  1.00  0.00     0.200 A 
ATOM     83  F   UNL A   1      45.285  24.298  36.389  1.00  0.00    -0.200 F 
ATOM     84  F   UNL A   1      47.672  25.602  36.589  1.00  0.00    -0.200 F 
ENDBRANCH  51  74
ENDBRANCH  25  26
ENDBRANCH  18  20
ENDBRANCH  17  18
ENDBRANCH  16  17
ENDBRANCH   1  16
TORSDOF 13
ENDMDL
