MODEL 1
REMARK VINA RESULT:     -12.6      0.000      0.000
REMARK SMILES Cn1cc(-c2cc(C(F)(F)F)c3c(C4CC4)nn(CC(=O)OCCOC(=O)c4ccc(-c5c6nc(c(-c7c(F)c(F)c(F)c(F)c7F)c7ccc([nH]7)c(-c7c(F)c(F)c(F)c(F)c7F)c7nc(c(-c8c(F)c(F)c(F)c(F)c8F)c8ccc5[nH]8)C=C7)C=C6)cc4)c3n2)cn1
REMARK SMILES IDX 23 1 22 2 20 3 21 4 19 5 18 6 5 7 6 8 92 9 7 10 91 11 12 12
REMARK SMILES IDX 13 13 17 14 4 15 1 16 2 17 3 18 94 19 93 20 8 21 9 22 10 23
REMARK SMILES IDX 11 24 14 25 15 26 16 27 24 28 25 29 26 30 27 31 28 32 29 33
REMARK SMILES IDX 90 34 30 35 89 36 31 37 32 38 33 39 83 40 34 41 88 42 82 43
REMARK SMILES IDX 84 44 35 45 87 46 81 47 80 48 36 50 68 51 48 52 67 53 49 54
REMARK SMILES IDX 52 55 66 56 85 57 50 58 51 59 65 61 86 62 53 63 37 64 38 65
REMARK SMILES IDX 46 66 39 67 40 68 44 69 47 70 41 71 42 72 45 73 43 74 69 75
REMARK SMILES IDX 70 76 78 77 71 78 72 79 76 80 79 81 73 82 74 83 77 84 75 85
REMARK SMILES IDX 54 86 55 87 63 88 56 89 57 90 61 91 64 92 58 93 59 94 62 95
REMARK SMILES IDX 60 96
REMARK H PARENT 84 49 52 60
REMARK Flexibility Score: inf
ROOT
ATOM      1  C   UNL A   1      32.462  30.082  26.335  1.00  0.00     0.274 C 
ENDROOT
BRANCH   1   2
ATOM      2  O   UNL A   1      32.991  29.853  25.017  1.00  0.00    -0.461 OA
BRANCH   2   3
ATOM      3  C   UNL A   1      33.724  28.725  24.874  1.00  0.00     0.327 C 
ATOM      4  O   UNL A   1      34.167  28.328  23.795  1.00  0.00    -0.250 OA
BRANCH   3   5
ATOM      5  C   UNL A   1      33.874  27.916  26.112  1.00  0.00     0.269 C 
BRANCH   5   6
ATOM      6  N   UNL A   1      33.664  26.468  26.133  1.00  0.00    -0.236 N 
ATOM      7  C   UNL A   1      30.253  26.163  25.599  1.00  0.00     0.077 A 
ATOM      8  C   UNL A   1      30.064  24.791  25.696  1.00  0.00     0.043 A 
ATOM      9  N   UNL A   1      31.275  26.758  26.250  1.00  0.00    -0.228 NA
ATOM     10  C   UNL A   1      31.158  23.979  26.080  1.00  0.00     0.071 A 
ATOM     11  C   UNL A   1      32.379  25.989  26.197  1.00  0.00     0.159 A 
ATOM     12  C   UNL A   1      32.409  24.625  25.964  1.00  0.00     0.055 A 
ATOM     13  C   UNL A   1      33.726  24.444  25.452  1.00  0.00     0.076 A 
ATOM     14  N   UNL A   1      34.514  25.522  25.660  1.00  0.00    -0.174 NA
BRANCH   7  15
ATOM     15  C   UNL A   1      30.095  26.829  24.294  1.00  0.00     0.038 A 
ATOM     16  C   UNL A   1      32.157  26.574  21.449  1.00  0.00     0.173 C 
ATOM     17  N   UNL A   1      31.089  26.975  22.338  1.00  0.00    -0.275 N 
ATOM     18  C   UNL A   1      30.385  26.114  23.136  1.00  0.00     0.118 A 
ATOM     19  N   UNL A   1      30.961  28.259  22.719  1.00  0.00    -0.181 NA
ATOM     20  C   UNL A   1      30.446  28.160  23.952  1.00  0.00     0.145 A 
ENDBRANCH   7  15
BRANCH  10  21
ATOM     21  C   UNL A   1      30.925  22.668  26.780  1.00  0.00     0.417 C 
ATOM     22  F   UNL A   1      31.855  22.313  27.695  1.00  0.00    -0.166 F 
ATOM     23  F   UNL A   1      29.731  22.658  27.438  1.00  0.00    -0.166 F 
ATOM     24  F   UNL A   1      30.861  21.617  25.911  1.00  0.00    -0.166 F 
ENDBRANCH  10  21
BRANCH  13  25
ATOM     25  C   UNL A   1      34.229  23.374  24.463  1.00  0.00     0.041 C 
ATOM     26  C   UNL A   1      33.602  22.031  24.194  1.00  0.00     0.011 C 
ATOM     27  C   UNL A   1      33.382  23.125  23.214  1.00  0.00     0.011 C 
ENDBRANCH  13  25
ENDBRANCH   5   6
ENDBRANCH   3   5
ENDBRANCH   2   3
ENDBRANCH   1   2
BRANCH   1  28
ATOM     28  C   UNL A   1      33.125  31.314  26.936  1.00  0.00     0.275 C 
BRANCH  28  29
ATOM     29  O   UNL A   1      34.044  31.023  28.003  1.00  0.00    -0.458 OA
BRANCH  29  30
ATOM     30  C   UNL A   1      35.166  31.773  28.022  1.00  0.00     0.338 C 
ATOM     31  O   UNL A   1      35.347  32.870  27.534  1.00  0.00    -0.246 OA
BRANCH  30  32
ATOM     32  C   UNL A   1      36.300  31.001  28.532  1.00  0.00     0.060 A 
ATOM     33  C   UNL A   1      37.342  31.747  29.096  1.00  0.00     0.016 A 
ATOM     34  C   UNL A   1      36.447  29.642  28.235  1.00  0.00     0.016 A 
ATOM     35  C   UNL A   1      38.579  31.167  29.247  1.00  0.00     0.010 A 
ATOM     36  C   UNL A   1      37.685  29.055  28.400  1.00  0.00     0.010 A 
ATOM     37  C   UNL A   1      38.750  29.838  28.854  1.00  0.00    -0.014 A 
BRANCH  37  38
ATOM     38  C   UNL A   1      40.065  29.262  29.062  1.00  0.00     0.031 A 
ATOM     39  C   UNL A   1      40.423  29.052  30.491  1.00  0.00     0.074 A 
ATOM     40  C   UNL A   1      40.828  28.835  28.041  1.00  0.00     0.049 A 
ATOM     41  N   UNL A   1      41.489  29.419  31.126  1.00  0.00    -0.248 NA
ATOM     42  C   UNL A   1      39.400  28.418  31.344  1.00  0.00     0.031 C 
ATOM     43  C   UNL A   1      40.463  28.721  26.627  1.00  0.00     0.029 A 
ATOM     44  N   UNL A   1      42.068  28.282  28.091  1.00  0.00    -0.354 N 
ATOM     45  C   UNL A   1      41.337  28.937  32.424  1.00  0.00     0.074 A 
ATOM     46  C   UNL A   1      39.994  28.436  32.535  1.00  0.00     0.031 C 
ATOM     47  C   UNL A   1      41.360  27.921  26.009  1.00  0.00     0.029 A 
ATOM     48  C   UNL A   1      42.408  27.570  26.953  1.00  0.00     0.049 A 
ATOM     49  H   UNL A   1      42.669  28.377  28.865  1.00  0.00     0.167 HD
ATOM     50  C   UNL A   1      42.387  28.798  33.276  1.00  0.00     0.037 A 
ATOM     51  C   UNL A   1      43.413  26.669  26.853  1.00  0.00     0.037 A 
ATOM     52  C   UNL A   1      43.492  29.636  32.918  1.00  0.00     0.049 A 
ATOM     53  C   UNL A   1      44.347  26.904  27.983  1.00  0.00     0.074 A 
ATOM     54  C   UNL A   1      43.679  31.002  32.823  1.00  0.00     0.029 A 
ATOM     55  N   UNL A   1      44.565  29.072  32.278  1.00  0.00    -0.354 N 
ATOM     56  N   UNL A   1      45.110  27.954  28.108  1.00  0.00    -0.248 NA
ATOM     57  C   UNL A   1      44.148  26.131  29.201  1.00  0.00     0.031 C 
ATOM     58  C   UNL A   1      44.583  31.181  31.738  1.00  0.00     0.029 A 
ATOM     59  C   UNL A   1      44.904  29.914  31.251  1.00  0.00     0.049 A 
ATOM     60  H   UNL A   1      45.008  28.225  32.512  1.00  0.00     0.167 HD
ATOM     61  C   UNL A   1      45.156  28.200  29.471  1.00  0.00     0.074 A 
ATOM     62  C   UNL A   1      44.639  26.989  30.097  1.00  0.00     0.031 C 
ATOM     63  C   UNL A   1      45.347  29.462  29.954  1.00  0.00     0.037 A 
BRANCH  50  64
ATOM     64  C   UNL A   1      42.499  27.665  34.258  1.00  0.00     0.064 A 
ATOM     65  C   UNL A   1      43.017  26.425  33.843  1.00  0.00     0.173 A 
ATOM     66  C   UNL A   1      41.854  27.671  35.515  1.00  0.00     0.173 A 
ATOM     67  F   UNL A   1      43.612  26.300  32.647  1.00  0.00    -0.203 F 
ATOM     68  C   UNL A   1      42.861  25.269  34.613  1.00  0.00     0.198 A 
ATOM     69  C   UNL A   1      41.751  26.530  36.306  1.00  0.00     0.198 A 
ATOM     70  F   UNL A   1      41.207  28.751  35.974  1.00  0.00    -0.203 F 
ATOM     71  F   UNL A   1      43.270  24.089  34.129  1.00  0.00    -0.200 F 
ATOM     72  C   UNL A   1      42.229  25.322  35.843  1.00  0.00     0.200 A 
ATOM     73  F   UNL A   1      41.115  26.599  37.483  1.00  0.00    -0.200 F 
ATOM     74  F   UNL A   1      42.034  24.208  36.558  1.00  0.00    -0.200 F 
ENDBRANCH  50  64
BRANCH  51  75
ATOM     75  C   UNL A   1      43.437  25.422  26.053  1.00  0.00     0.064 A 
ATOM     76  C   UNL A   1      44.537  25.116  25.237  1.00  0.00     0.173 A 
ATOM     77  C   UNL A   1      42.512  24.382  26.273  1.00  0.00     0.173 A 
ATOM     78  F   UNL A   1      45.488  26.036  25.015  1.00  0.00    -0.203 F 
ATOM     79  C   UNL A   1      44.714  23.840  24.694  1.00  0.00     0.198 A 
ATOM     80  C   UNL A   1      42.682  23.113  25.718  1.00  0.00     0.198 A 
ATOM     81  F   UNL A   1      41.476  24.541  27.108  1.00  0.00    -0.203 F 
ATOM     82  F   UNL A   1      45.814  23.567  23.977  1.00  0.00    -0.200 F 
ATOM     83  C   UNL A   1      43.791  22.837  24.943  1.00  0.00     0.200 A 
ATOM     84  F   UNL A   1      41.797  22.145  25.995  1.00  0.00    -0.200 F 
ATOM     85  F   UNL A   1      43.990  21.599  24.471  1.00  0.00    -0.200 F 
ENDBRANCH  51  75
BRANCH  63  86
ATOM     86  C   UNL A   1      45.781  30.522  28.984  1.00  0.00     0.064 A 
ATOM     87  C   UNL A   1      44.885  31.268  28.199  1.00  0.00     0.173 A 
ATOM     88  C   UNL A   1      47.129  30.904  28.967  1.00  0.00     0.173 A 
ATOM     89  F   UNL A   1      43.568  31.032  28.246  1.00  0.00    -0.203 F 
ATOM     90  C   UNL A   1      45.328  32.319  27.400  1.00  0.00     0.198 A 
ATOM     91  C   UNL A   1      47.564  31.979  28.196  1.00  0.00     0.198 A 
ATOM     92  F   UNL A   1      48.018  30.269  29.746  1.00  0.00    -0.203 F 
ATOM     93  F   UNL A   1      44.453  33.013  26.655  1.00  0.00    -0.200 F 
ATOM     94  C   UNL A   1      46.666  32.680  27.406  1.00  0.00     0.200 A 
ATOM     95  F   UNL A   1      48.847  32.359  28.246  1.00  0.00    -0.200 F 
ATOM     96  F   UNL A   1      47.084  33.722  26.675  1.00  0.00    -0.200 F 
ENDBRANCH  63  86
ENDBRANCH  37  38
ENDBRANCH  30  32
ENDBRANCH  29  30
ENDBRANCH  28  29
ENDBRANCH   1  28
TORSDOF 15
ENDMDL
MODEL 2
REMARK VINA RESULT:     -12.6      0.961      1.362
REMARK SMILES Cn1cc(-c2cc(C(F)(F)F)c3c(C4CC4)nn(CC(=O)OCCOC(=O)c4ccc(-c5c6nc(c(-c7c(F)c(F)c(F)c(F)c7F)c7ccc([nH]7)c(-c7c(F)c(F)c(F)c(F)c7F)c7nc(c(-c8c(F)c(F)c(F)c(F)c8F)c8ccc5[nH]8)C=C7)C=C6)cc4)c3n2)cn1
REMARK SMILES IDX 23 1 22 2 20 3 21 4 19 5 18 6 5 7 6 8 92 9 7 10 91 11 12 12
REMARK SMILES IDX 13 13 17 14 4 15 1 16 2 17 3 18 94 19 93 20 8 21 9 22 10 23
REMARK SMILES IDX 11 24 14 25 15 26 16 27 24 28 25 29 26 30 27 31 28 32 29 33
REMARK SMILES IDX 90 34 30 35 89 36 31 37 32 38 33 39 83 40 34 41 88 42 82 43
REMARK SMILES IDX 84 44 35 45 87 46 81 47 80 48 36 50 68 51 48 52 67 53 49 54
REMARK SMILES IDX 52 55 66 56 85 57 50 58 51 59 65 61 86 62 53 63 37 64 38 65
REMARK SMILES IDX 46 66 39 67 40 68 44 69 47 70 41 71 42 72 45 73 43 74 69 75
REMARK SMILES IDX 70 76 78 77 71 78 72 79 76 80 79 81 73 82 74 83 77 84 75 85
REMARK SMILES IDX 54 86 55 87 63 88 56 89 57 90 61 91 64 92 58 93 59 94 62 95
REMARK SMILES IDX 60 96
REMARK H PARENT 84 49 52 60
REMARK Flexibility Score: inf
ROOT
ATOM      1  C   UNL A   1      32.140  30.107  26.049  1.00  0.00     0.274 C 
ENDROOT
BRANCH   1   2
ATOM      2  O   UNL A   1      31.735  28.752  26.315  1.00  0.00    -0.461 OA
BRANCH   2   3
ATOM      3  C   UNL A   1      32.666  27.806  26.054  1.00  0.00     0.327 C 
ATOM      4  O   UNL A   1      33.594  27.959  25.258  1.00  0.00    -0.250 OA
BRANCH   3   5
ATOM      5  C   UNL A   1      32.434  26.499  26.724  1.00  0.00     0.269 C 
BRANCH   5   6
ATOM      6  N   UNL A   1      32.956  25.241  26.189  1.00  0.00    -0.236 N 
ATOM      7  C   UNL A   1      30.691  24.452  23.687  1.00  0.00     0.077 A 
ATOM      8  C   UNL A   1      31.162  23.223  23.245  1.00  0.00     0.043 A 
ATOM      9  N   UNL A   1      30.924  24.855  24.955  1.00  0.00    -0.228 NA
ATOM     10  C   UNL A   1      32.235  22.615  23.939  1.00  0.00     0.071 A 
ATOM     11  C   UNL A   1      32.166  24.508  25.339  1.00  0.00     0.159 A 
ATOM     12  C   UNL A   1      32.939  23.505  24.780  1.00  0.00     0.055 A 
ATOM     13  C   UNL A   1      34.257  23.928  25.118  1.00  0.00     0.076 A 
ATOM     14  N   UNL A   1      34.263  24.901  26.056  1.00  0.00    -0.174 NA
BRANCH   7  15
ATOM     15  C   UNL A   1      30.795  25.630  22.808  1.00  0.00     0.038 A 
ATOM     16  C   UNL A   1      33.667  27.505  22.002  1.00  0.00     0.173 C 
ATOM     17  N   UNL A   1      32.292  27.058  22.064  1.00  0.00    -0.275 N 
ATOM     18  C   UNL A   1      31.902  25.749  21.975  1.00  0.00     0.118 A 
ATOM     19  N   UNL A   1      31.337  27.851  22.584  1.00  0.00    -0.181 NA
ATOM     20  C   UNL A   1      30.477  26.976  23.122  1.00  0.00     0.145 A 
ENDBRANCH   7  15
BRANCH  10  21
ATOM     21  C   UNL A   1      32.390  21.119  23.943  1.00  0.00     0.417 C 
ATOM     22  F   UNL A   1      31.919  20.473  22.853  1.00  0.00    -0.166 F 
ATOM     23  F   UNL A   1      33.698  20.752  24.059  1.00  0.00    -0.166 F 
ATOM     24  F   UNL A   1      31.762  20.532  25.003  1.00  0.00    -0.166 F 
ENDBRANCH  10  21
BRANCH  13  25
ATOM     25  C   UNL A   1      35.571  23.666  24.355  1.00  0.00     0.041 C 
ATOM     26  C   UNL A   1      36.964  23.687  24.928  1.00  0.00     0.011 C 
ATOM     27  C   UNL A   1      36.319  22.372  24.679  1.00  0.00     0.011 C 
ENDBRANCH  13  25
ENDBRANCH   5   6
ENDBRANCH   3   5
ENDBRANCH   2   3
ENDBRANCH   1   2
BRANCH   1  28
ATOM     28  C   UNL A   1      32.932  30.637  27.236  1.00  0.00     0.275 C 
BRANCH  28  29
ATOM     29  O   UNL A   1      34.345  30.750  26.994  1.00  0.00    -0.458 OA
BRANCH  29  30
ATOM     30  C   UNL A   1      35.019  31.537  27.860  1.00  0.00     0.338 C 
ATOM     31  O   UNL A   1      34.867  32.723  28.074  1.00  0.00    -0.246 OA
BRANCH  30  32
ATOM     32  C   UNL A   1      36.183  30.836  28.403  1.00  0.00     0.060 A 
ATOM     33  C   UNL A   1      37.217  31.650  28.882  1.00  0.00     0.016 A 
ATOM     34  C   UNL A   1      36.359  29.462  28.212  1.00  0.00     0.016 A 
ATOM     35  C   UNL A   1      38.472  31.114  29.049  1.00  0.00     0.010 A 
ATOM     36  C   UNL A   1      37.615  28.920  28.394  1.00  0.00     0.010 A 
ATOM     37  C   UNL A   1      38.669  29.762  28.759  1.00  0.00    -0.014 A 
BRANCH  37  38
ATOM     38  C   UNL A   1      40.003  29.238  28.982  1.00  0.00     0.031 A 
ATOM     39  C   UNL A   1      40.353  29.044  30.416  1.00  0.00     0.074 A 
ATOM     40  C   UNL A   1      40.791  28.837  27.970  1.00  0.00     0.049 A 
ATOM     41  N   UNL A   1      41.398  29.452  31.060  1.00  0.00    -0.248 NA
ATOM     42  C   UNL A   1      39.347  28.374  31.260  1.00  0.00     0.031 C 
ATOM     43  C   UNL A   1      40.444  28.706  26.553  1.00  0.00     0.029 A 
ATOM     44  N   UNL A   1      42.050  28.331  28.034  1.00  0.00    -0.354 N 
ATOM     45  C   UNL A   1      41.252  28.967  32.358  1.00  0.00     0.074 A 
ATOM     46  C   UNL A   1      39.927  28.416  32.456  1.00  0.00     0.031 C 
ATOM     47  C   UNL A   1      41.377  27.939  25.946  1.00  0.00     0.029 A 
ATOM     48  C   UNL A   1      42.428  27.630  26.901  1.00  0.00     0.049 A 
ATOM     49  H   UNL A   1      42.640  28.451  28.813  1.00  0.00     0.167 HD
ATOM     50  C   UNL A   1      42.297  28.871  33.221  1.00  0.00     0.037 A 
ATOM     51  C   UNL A   1      43.467  26.768  26.813  1.00  0.00     0.037 A 
ATOM     52  C   UNL A   1      43.374  29.749  32.871  1.00  0.00     0.049 A 
ATOM     53  C   UNL A   1      44.381  27.040  27.952  1.00  0.00     0.074 A 
ATOM     54  C   UNL A   1      43.510  31.121  32.775  1.00  0.00     0.029 A 
ATOM     55  N   UNL A   1      44.474  29.224  32.244  1.00  0.00    -0.354 N 
ATOM     56  N   UNL A   1      45.102  28.119  28.082  1.00  0.00    -0.248 NA
ATOM     57  C   UNL A   1      44.199  26.262  29.170  1.00  0.00     0.031 C 
ATOM     58  C   UNL A   1      44.418  31.331  31.698  1.00  0.00     0.029 A 
ATOM     59  C   UNL A   1      44.791  30.076  31.217  1.00  0.00     0.049 A 
ATOM     60  H   UNL A   1      44.946  28.395  32.484  1.00  0.00     0.167 HD
ATOM     61  C   UNL A   1      45.125  28.369  29.445  1.00  0.00     0.074 A 
ATOM     62  C   UNL A   1      44.648  27.141  30.069  1.00  0.00     0.031 C 
ATOM     63  C   UNL A   1      45.264  29.638  29.926  1.00  0.00     0.037 A 
BRANCH  50  64
ATOM     64  C   UNL A   1      42.442  27.745  34.206  1.00  0.00     0.064 A 
ATOM     65  C   UNL A   1      42.989  26.516  33.794  1.00  0.00     0.173 A 
ATOM     66  C   UNL A   1      41.803  27.740  35.466  1.00  0.00     0.173 A 
ATOM     67  F   UNL A   1      43.581  26.401  32.596  1.00  0.00    -0.203 F 
ATOM     68  C   UNL A   1      42.866  25.360  34.569  1.00  0.00     0.198 A 
ATOM     69  C   UNL A   1      41.733  26.599  36.262  1.00  0.00     0.198 A 
ATOM     70  F   UNL A   1      41.132  28.806  35.924  1.00  0.00    -0.203 F 
ATOM     71  F   UNL A   1      43.302  24.188  34.088  1.00  0.00    -0.200 F 
ATOM     72  C   UNL A   1      42.239  25.403  35.802  1.00  0.00     0.200 A 
ATOM     73  F   UNL A   1      41.100  26.658  37.442  1.00  0.00    -0.200 F 
ATOM     74  F   UNL A   1      42.074  24.286  36.523  1.00  0.00    -0.200 F 
ENDBRANCH  50  64
BRANCH  51  75
ATOM     75  C   UNL A   1      43.546  25.520  26.017  1.00  0.00     0.064 A 
ATOM     76  C   UNL A   1      44.680  25.239  25.238  1.00  0.00     0.173 A 
ATOM     77  C   UNL A   1      42.640  24.459  26.209  1.00  0.00     0.173 A 
ATOM     78  F   UNL A   1      45.615  26.180  25.045  1.00  0.00    -0.203 F 
ATOM     79  C   UNL A   1      44.904  23.967  24.704  1.00  0.00     0.198 A 
ATOM     80  C   UNL A   1      42.857  23.194  25.662  1.00  0.00     0.198 A 
ATOM     81  F   UNL A   1      41.573  24.595  27.009  1.00  0.00    -0.203 F 
ATOM     82  F   UNL A   1      46.032  23.719  24.023  1.00  0.00    -0.200 F 
ATOM     83  C   UNL A   1      43.997  22.943  24.924  1.00  0.00     0.200 A 
ATOM     84  F   UNL A   1      41.986  22.206  25.911  1.00  0.00    -0.200 F 
ATOM     85  F   UNL A   1      44.240  21.709  24.461  1.00  0.00    -0.200 F 
ENDBRANCH  51  75
BRANCH  63  86
ATOM     86  C   UNL A   1      45.667  30.712  28.958  1.00  0.00     0.064 A 
ATOM     87  C   UNL A   1      44.752  31.422  28.163  1.00  0.00     0.173 A 
ATOM     88  C   UNL A   1      47.000  31.143  28.952  1.00  0.00     0.173 A 
ATOM     89  F   UNL A   1      43.444  31.138  28.198  1.00  0.00    -0.203 F 
ATOM     90  C   UNL A   1      45.163  32.488  27.366  1.00  0.00     0.198 A 
ATOM     91  C   UNL A   1      47.402  32.233  28.183  1.00  0.00     0.198 A 
ATOM     92  F   UNL A   1      47.905  30.543  29.741  1.00  0.00    -0.203 F 
ATOM     93  F   UNL A   1      44.270  33.147  26.611  1.00  0.00    -0.200 F 
ATOM     94  C   UNL A   1      46.486  32.898  27.383  1.00  0.00     0.200 A 
ATOM     95  F   UNL A   1      48.670  32.660  28.244  1.00  0.00    -0.200 F 
ATOM     96  F   UNL A   1      46.872  33.954  26.654  1.00  0.00    -0.200 F 
ENDBRANCH  63  86
ENDBRANCH  37  38
ENDBRANCH  30  32
ENDBRANCH  29  30
ENDBRANCH  28  29
ENDBRANCH   1  28
TORSDOF 15
ENDMDL
MODEL 3
REMARK VINA RESULT:     -12.3      5.668     11.457
REMARK SMILES Cn1cc(-c2cc(C(F)(F)F)c3c(C4CC4)nn(CC(=O)OCCOC(=O)c4ccc(-c5c6nc(c(-c7c(F)c(F)c(F)c(F)c7F)c7ccc([nH]7)c(-c7c(F)c(F)c(F)c(F)c7F)c7nc(c(-c8c(F)c(F)c(F)c(F)c8F)c8ccc5[nH]8)C=C7)C=C6)cc4)c3n2)cn1
REMARK SMILES IDX 23 1 22 2 20 3 21 4 19 5 18 6 5 7 6 8 92 9 7 10 91 11 12 12
REMARK SMILES IDX 13 13 17 14 4 15 1 16 2 17 3 18 94 19 93 20 8 21 9 22 10 23
REMARK SMILES IDX 11 24 14 25 15 26 16 27 24 28 25 29 26 30 27 31 28 32 29 33
REMARK SMILES IDX 90 34 30 35 89 36 31 37 32 38 33 39 83 40 34 41 88 42 82 43
REMARK SMILES IDX 84 44 35 45 87 46 81 47 80 48 36 50 68 51 48 52 67 53 49 54
REMARK SMILES IDX 52 55 66 56 85 57 50 58 51 59 65 61 86 62 53 63 37 64 38 65
REMARK SMILES IDX 46 66 39 67 40 68 44 69 47 70 41 71 42 72 45 73 43 74 69 75
REMARK SMILES IDX 70 76 78 77 71 78 72 79 76 80 79 81 73 82 74 83 77 84 75 85
REMARK SMILES IDX 54 86 55 87 63 88 56 89 57 90 61 91 64 92 58 93 59 94 62 95
REMARK SMILES IDX 60 96
REMARK H PARENT 84 49 52 60
REMARK Flexibility Score: inf
ROOT
ATOM      1  C   UNL A   1      43.711  20.982  25.745  1.00  0.00     0.274 C 
ENDROOT
BRANCH   1   2
ATOM      2  O   UNL A   1      43.711  22.157  24.914  1.00  0.00    -0.461 OA
BRANCH   2   3
ATOM      3  C   UNL A   1      44.356  23.230  25.427  1.00  0.00     0.327 C 
ATOM      4  O   UNL A   1      43.986  24.394  25.264  1.00  0.00    -0.250 OA
BRANCH   3   5
ATOM      5  C   UNL A   1      45.632  22.918  26.125  1.00  0.00     0.269 C 
BRANCH   5   6
ATOM      6  N   UNL A   1      46.032  23.587  27.363  1.00  0.00    -0.236 N 
ATOM      7  C   UNL A   1      48.094  26.139  26.247  1.00  0.00     0.077 A 
ATOM      8  C   UNL A   1      48.519  26.712  27.438  1.00  0.00     0.043 A 
ATOM      9  N   UNL A   1      47.734  24.838  26.207  1.00  0.00    -0.228 NA
ATOM     10  C   UNL A   1      48.155  26.095  28.658  1.00  0.00     0.071 A 
ATOM     11  C   UNL A   1      47.053  24.503  27.318  1.00  0.00     0.159 A 
ATOM     12  C   UNL A   1      47.094  25.171  28.530  1.00  0.00     0.055 A 
ATOM     13  C   UNL A   1      45.847  24.801  29.111  1.00  0.00     0.076 A 
ATOM     14  N   UNL A   1      45.263  23.766  28.468  1.00  0.00    -0.174 NA
BRANCH   7  15
ATOM     15  C   UNL A   1      47.186  26.889  25.361  1.00  0.00     0.038 A 
ATOM     16  C   UNL A   1      47.835  28.155  22.138  1.00  0.00     0.173 C 
ATOM     17  N   UNL A   1      47.162  27.843  23.380  1.00  0.00    -0.275 N 
ATOM     18  C   UNL A   1      47.208  26.621  23.996  1.00  0.00     0.118 A 
ATOM     19  N   UNL A   1      46.754  28.825  24.203  1.00  0.00    -0.181 NA
ATOM     20  C   UNL A   1      46.865  28.269  25.417  1.00  0.00     0.145 A 
ENDBRANCH   7  15
BRANCH  10  21
ATOM     21  C   UNL A   1      49.021  26.250  29.879  1.00  0.00     0.417 C 
ATOM     22  F   UNL A   1      48.721  25.445  30.922  1.00  0.00    -0.166 F 
ATOM     23  F   UNL A   1      50.334  26.018  29.593  1.00  0.00    -0.166 F 
ATOM     24  F   UNL A   1      48.986  27.518  30.385  1.00  0.00    -0.166 F 
ENDBRANCH  10  21
BRANCH  13  25
ATOM     25  C   UNL A   1      44.983  25.599  30.108  1.00  0.00     0.041 C 
ATOM     26  C   UNL A   1      44.092  25.031  31.182  1.00  0.00     0.011 C 
ATOM     27  C   UNL A   1      45.415  25.579  31.576  1.00  0.00     0.011 C 
ENDBRANCH  13  25
ENDBRANCH   5   6
ENDBRANCH   3   5
ENDBRANCH   2   3
ENDBRANCH   1   2
BRANCH   1  28
ATOM     28  C   UNL A   1      42.282  20.659  26.158  1.00  0.00     0.275 C 
BRANCH  28  29
ATOM     29  O   UNL A   1      41.296  21.541  25.597  1.00  0.00    -0.458 OA
BRANCH  29  30
ATOM     30  C   UNL A   1      40.418  22.065  26.479  1.00  0.00     0.338 C 
ATOM     31  O   UNL A   1      39.366  21.596  26.863  1.00  0.00    -0.246 OA
BRANCH  30  32
ATOM     32  C   UNL A   1      40.763  23.452  26.795  1.00  0.00     0.060 A 
ATOM     33  C   UNL A   1      41.716  23.629  27.806  1.00  0.00     0.016 A 
ATOM     34  C   UNL A   1      40.001  24.519  26.309  1.00  0.00     0.016 A 
ATOM     35  C   UNL A   1      41.819  24.852  28.425  1.00  0.00     0.010 A 
ATOM     36  C   UNL A   1      40.115  25.751  26.921  1.00  0.00     0.010 A 
ATOM     37  C   UNL A   1      40.984  25.889  28.006  1.00  0.00    -0.014 A 
BRANCH  37  38
ATOM     38  C   UNL A   1      41.154  27.168  28.670  1.00  0.00     0.031 A 
ATOM     39  C   UNL A   1      42.320  27.958  28.188  1.00  0.00     0.074 A 
ATOM     40  C   UNL A   1      40.252  27.645  29.544  1.00  0.00     0.049 A 
ATOM     41  N   UNL A   1      43.267  28.512  28.873  1.00  0.00    -0.248 NA
ATOM     42  C   UNL A   1      42.489  28.066  26.727  1.00  0.00     0.031 C 
ATOM     43  C   UNL A   1      38.934  27.096  29.871  1.00  0.00     0.029 A 
ATOM     44  N   UNL A   1      40.284  28.816  30.233  1.00  0.00    -0.354 N 
ATOM     45  C   UNL A   1      44.075  29.160  27.942  1.00  0.00     0.074 A 
ATOM     46  C   UNL A   1      43.622  28.759  26.637  1.00  0.00     0.031 C 
ATOM     47  C   UNL A   1      38.208  28.049  30.498  1.00  0.00     0.029 A 
ATOM     48  C   UNL A   1      39.048  29.216  30.712  1.00  0.00     0.049 A 
ATOM     49  H   UNL A   1      41.110  29.333  30.378  1.00  0.00     0.167 HD
ATOM     50  C   UNL A   1      44.945  30.143  28.292  1.00  0.00     0.037 A 
ATOM     51  C   UNL A   1      38.729  30.460  31.138  1.00  0.00     0.037 A 
ATOM     52  C   UNL A   1      45.310  30.078  29.676  1.00  0.00     0.049 A 
ATOM     53  C   UNL A   1      39.994  31.178  31.434  1.00  0.00     0.074 A 
ATOM     54  C   UNL A   1      45.961  29.147  30.462  1.00  0.00     0.029 A 
ATOM     55  N   UNL A   1      44.724  30.955  30.553  1.00  0.00    -0.354 N 
ATOM     56  N   UNL A   1      40.795  30.891  32.422  1.00  0.00    -0.248 NA
ATOM     57  C   UNL A   1      40.578  31.991  30.376  1.00  0.00     0.031 C 
ATOM     58  C   UNL A   1      45.342  29.238  31.741  1.00  0.00     0.029 A 
ATOM     59  C   UNL A   1      44.365  30.231  31.660  1.00  0.00     0.049 A 
ATOM     60  H   UNL A   1      44.588  31.920  30.414  1.00  0.00     0.167 HD
ATOM     61  C   UNL A   1      42.068  31.136  31.931  1.00  0.00     0.074 A 
ATOM     62  C   UNL A   1      41.867  31.910  30.712  1.00  0.00     0.031 C 
ATOM     63  C   UNL A   1      43.150  30.453  32.406  1.00  0.00     0.037 A 
BRANCH  50  64
ATOM     64  C   UNL A   1      45.217  31.341  27.426  1.00  0.00     0.064 A 
ATOM     65  C   UNL A   1      46.534  31.640  27.033  1.00  0.00     0.173 A 
ATOM     66  C   UNL A   1      44.265  32.361  27.204  1.00  0.00     0.173 A 
ATOM     67  F   UNL A   1      47.524  30.758  27.238  1.00  0.00    -0.203 F 
ATOM     68  C   UNL A   1      46.877  32.885  26.499  1.00  0.00     0.198 A 
ATOM     69  C   UNL A   1      44.599  33.579  26.618  1.00  0.00     0.198 A 
ATOM     70  F   UNL A   1      43.003  32.259  27.644  1.00  0.00    -0.203 F 
ATOM     71  F   UNL A   1      48.161  33.168  26.244  1.00  0.00    -0.200 F 
ATOM     72  C   UNL A   1      45.910  33.852  26.291  1.00  0.00     0.200 A 
ATOM     73  F   UNL A   1      43.650  34.510  26.448  1.00  0.00    -0.200 F 
ATOM     74  F   UNL A   1      46.244  35.063  25.827  1.00  0.00    -0.200 F 
ENDBRANCH  50  64
BRANCH  51  75
ATOM     75  C   UNL A   1      37.436  31.168  30.982  1.00  0.00     0.064 A 
ATOM     76  C   UNL A   1      36.665  31.505  32.106  1.00  0.00     0.173 A 
ATOM     77  C   UNL A   1      37.058  31.763  29.762  1.00  0.00     0.173 A 
ATOM     78  F   UNL A   1      36.986  31.019  33.314  1.00  0.00    -0.203 F 
ATOM     79  C   UNL A   1      35.596  32.402  32.018  1.00  0.00     0.198 A 
ATOM     80  C   UNL A   1      35.982  32.646  29.674  1.00  0.00     0.198 A 
ATOM     81  F   UNL A   1      37.781  31.579  28.648  1.00  0.00    -0.203 F 
ATOM     82  F   UNL A   1      34.928  32.753  33.126  1.00  0.00    -0.200 F 
ATOM     83  C   UNL A   1      35.261  32.978  30.804  1.00  0.00     0.200 A 
ATOM     84  F   UNL A   1      35.691  33.220  28.497  1.00  0.00    -0.200 F 
ATOM     85  F   UNL A   1      34.274  33.882  30.730  1.00  0.00    -0.200 F 
ENDBRANCH  51  75
BRANCH  63  86
ATOM     86  C   UNL A   1      42.970  29.641  33.655  1.00  0.00     0.064 A 
ATOM     87  C   UNL A   1      43.128  30.164  34.950  1.00  0.00     0.173 A 
ATOM     88  C   UNL A   1      42.465  28.338  33.541  1.00  0.00     0.173 A 
ATOM     89  F   UNL A   1      43.503  31.435  35.137  1.00  0.00    -0.203 F 
ATOM     90  C   UNL A   1      42.837  29.400  36.077  1.00  0.00     0.198 A 
ATOM     91  C   UNL A   1      42.138  27.590  34.669  1.00  0.00     0.198 A 
ATOM     92  F   UNL A   1      42.232  27.811  32.329  1.00  0.00    -0.203 F 
ATOM     93  F   UNL A   1      43.002  29.921  37.303  1.00  0.00    -0.200 F 
ATOM     94  C   UNL A   1      42.334  28.117  35.936  1.00  0.00     0.200 A 
ATOM     95  F   UNL A   1      41.602  26.371  34.528  1.00  0.00    -0.200 F 
ATOM     96  F   UNL A   1      42.007  27.400  37.020  1.00  0.00    -0.200 F 
ENDBRANCH  63  86
ENDBRANCH  37  38
ENDBRANCH  30  32
ENDBRANCH  29  30
ENDBRANCH  28  29
ENDBRANCH   1  28
TORSDOF 15
ENDMDL
