MODEL 1
REMARK VINA RESULT:      -9.5      0.000      0.000
REMARK SMILES CC(C)Oc1ccc([C@H](O)[C@@H](F)C(=O)OCCOC(=O)c2ccc(-c3c4nc(c(-c5c(F)c(F)c(F)c(F)c5F)c5ccc([nH]5)c(-c5c(F)c(F)c(F)c(F)c5F)c5nc(c(-c6c(F)c(F)c(F)c(F)c6F)c6ccc3[nH]6)C=C5)C=C4)cc2)cc1
REMARK SMILES IDX 16 1 15 2 13 3 14 4 11 5 12 6 9 7 8 8 5 9 6 10 85 11 7 12
REMARK SMILES IDX 84 13 4 14 2 15 1 16 3 17 10 18 17 20 18 21 19 22 20 23
REMARK SMILES IDX 21 24 22 25 83 26 23 27 82 28 24 29 25 30 26 31 76 32 27 33
REMARK SMILES IDX 81 34 75 35 77 36 28 37 80 38 74 39 73 40 29 42 61 43 41 44
REMARK SMILES IDX 60 45 42 46 45 47 59 48 78 49 43 50 44 51 58 53 79 54 46 55
REMARK SMILES IDX 30 56 31 57 39 58 32 59 33 60 37 61 40 62 34 63 35 64 38 65
REMARK SMILES IDX 36 66 62 67 63 68 71 69 64 70 65 71 69 72 72 73 66 74 67 75
REMARK SMILES IDX 70 76 68 77 47 78 48 79 56 80 49 81 50 82 54 83 57 84 51 85
REMARK SMILES IDX 52 86 55 87 53 88
REMARK H PARENT 10 19 77 41 45 52
REMARK Flexibility Score: inf
ROOT
ATOM      1  C   UNL A   1      44.229  18.507  25.939  1.00  0.00     0.274 C 
ENDROOT
BRANCH   1   2
ATOM      2  O   UNL A   1      44.604  19.583  25.051  1.00  0.00    -0.460 OA
BRANCH   2   3
ATOM      3  C   UNL A   1      45.853  20.085  25.246  1.00  0.00     0.343 C 
ATOM      4  O   UNL A   1      46.882  19.411  25.210  1.00  0.00    -0.249 OA
BRANCH   3   5
ATOM      5  C   UNL A   1      45.885  21.557  25.606  1.00  0.00     0.308 C 
ATOM      6  F   UNL A   1      44.702  21.911  26.220  1.00  0.00    -0.232 F 
BRANCH   5   7
ATOM      7  C   UNL A   1      46.092  22.552  24.456  1.00  0.00     0.190 C 
BRANCH   7   8
ATOM      8  C   UNL A   1      45.819  24.019  24.724  1.00  0.00    -0.016 A 
ATOM      9  C   UNL A   1      45.201  26.729  25.222  1.00  0.00     0.119 A 
ATOM     10  C   UNL A   1      46.525  26.303  25.207  1.00  0.00     0.047 A 
ATOM     11  C   UNL A   1      44.180  25.812  25.001  1.00  0.00     0.047 A 
ATOM     12  C   UNL A   1      46.831  24.953  24.991  1.00  0.00     0.010 A 
ATOM     13  C   UNL A   1      44.487  24.466  24.770  1.00  0.00     0.010 A 
BRANCH   9  14
ATOM     14  O   UNL A   1      44.918  28.064  25.259  1.00  0.00    -0.491 OA
BRANCH  14  15
ATOM     15  C   UNL A   1      45.152  28.757  26.496  1.00  0.00     0.167 C 
ATOM     16  C   UNL A   1      46.392  29.645  26.486  1.00  0.00     0.052 C 
ATOM     17  C   UNL A   1      43.917  29.484  27.021  1.00  0.00     0.052 C 
ENDBRANCH  14  15
ENDBRANCH   9  14
ENDBRANCH   7   8
BRANCH   7  18
ATOM     18  O   UNL A   1      45.214  22.184  23.376  1.00  0.00    -0.385 OA
ATOM     19  H   UNL A   1      45.249  21.223  23.245  1.00  0.00     0.211 HD
ENDBRANCH   7  18
ENDBRANCH   5   7
ENDBRANCH   3   5
ENDBRANCH   2   3
ENDBRANCH   1   2
BRANCH   1  20
ATOM     20  C   UNL A   1      42.717  18.451  26.135  1.00  0.00     0.275 C 
BRANCH  20  21
ATOM     21  O   UNL A   1      42.094  19.501  25.376  1.00  0.00    -0.458 OA
BRANCH  21  22
ATOM     22  C   UNL A   1      41.033  20.095  25.968  1.00  0.00     0.338 C 
ATOM     23  O   UNL A   1      39.872  19.726  25.933  1.00  0.00    -0.246 OA
BRANCH  22  24
ATOM     24  C   UNL A   1      41.467  21.336  26.640  1.00  0.00     0.060 A 
ATOM     25  C   UNL A   1      41.783  21.367  28.002  1.00  0.00     0.016 A 
ATOM     26  C   UNL A   1      41.496  22.513  25.891  1.00  0.00     0.016 A 
ATOM     27  C   UNL A   1      42.082  22.580  28.623  1.00  0.00     0.010 A 
ATOM     28  C   UNL A   1      41.875  23.712  26.495  1.00  0.00     0.010 A 
ATOM     29  C   UNL A   1      42.159  23.761  27.869  1.00  0.00    -0.014 A 
BRANCH  29  30
ATOM     30  C   UNL A   1      42.574  25.046  28.489  1.00  0.00     0.031 A 
ATOM     31  C   UNL A   1      41.568  26.135  28.733  1.00  0.00     0.074 A 
ATOM     32  C   UNL A   1      43.870  25.253  28.784  1.00  0.00     0.049 A 
ATOM     33  N   UNL A   1      41.765  27.382  29.081  1.00  0.00    -0.248 NA
ATOM     34  C   UNL A   1      40.152  25.775  28.559  1.00  0.00     0.031 C 
ATOM     35  C   UNL A   1      44.942  24.269  28.632  1.00  0.00     0.029 A 
ATOM     36  N   UNL A   1      44.510  26.370  29.263  1.00  0.00    -0.354 N 
ATOM     37  C   UNL A   1      40.505  27.962  29.137  1.00  0.00     0.074 A 
ATOM     38  C   UNL A   1      39.549  26.935  28.781  1.00  0.00     0.031 C 
ATOM     39  C   UNL A   1      46.100  24.815  29.028  1.00  0.00     0.029 A 
ATOM     40  C   UNL A   1      45.869  26.210  29.384  1.00  0.00     0.049 A 
ATOM     41  H   UNL A   1      44.041  27.203  29.497  1.00  0.00     0.167 HD
ATOM     42  C   UNL A   1      40.180  29.239  29.458  1.00  0.00     0.037 A 
ATOM     43  C   UNL A   1      46.828  27.099  29.700  1.00  0.00     0.037 A 
ATOM     44  C   UNL A   1      41.133  30.253  29.831  1.00  0.00     0.049 A 
ATOM     45  C   UNL A   1      46.453  28.528  29.958  1.00  0.00     0.074 A 
ATOM     46  C   UNL A   1      40.898  31.565  30.205  1.00  0.00     0.029 A 
ATOM     47  N   UNL A   1      42.507  30.067  29.875  1.00  0.00    -0.354 N 
ATOM     48  N   UNL A   1      45.265  29.077  29.980  1.00  0.00    -0.248 NA
ATOM     49  C   UNL A   1      47.557  29.465  30.207  1.00  0.00     0.031 C 
ATOM     50  C   UNL A   1      42.132  32.184  30.438  1.00  0.00     0.029 A 
ATOM     51  C   UNL A   1      43.134  31.247  30.244  1.00  0.00     0.049 A 
ATOM     52  H   UNL A   1      42.969  29.221  29.674  1.00  0.00     0.167 HD
ATOM     53  C   UNL A   1      45.472  30.422  30.256  1.00  0.00     0.074 A 
ATOM     54  C   UNL A   1      46.902  30.602  30.404  1.00  0.00     0.031 C 
ATOM     55  C   UNL A   1      44.559  31.414  30.375  1.00  0.00     0.037 A 
BRANCH  42  56
ATOM     56  C   UNL A   1      38.732  29.622  29.393  1.00  0.00     0.064 A 
ATOM     57  C   UNL A   1      37.965  29.808  30.552  1.00  0.00     0.173 A 
ATOM     58  C   UNL A   1      38.114  29.843  28.152  1.00  0.00     0.173 A 
ATOM     59  F   UNL A   1      38.508  29.596  31.760  1.00  0.00    -0.203 F 
ATOM     60  C   UNL A   1      36.626  30.182  30.471  1.00  0.00     0.198 A 
ATOM     61  C   UNL A   1      36.781  30.238  28.076  1.00  0.00     0.198 A 
ATOM     62  F   UNL A   1      38.805  29.682  27.014  1.00  0.00    -0.203 F 
ATOM     63  F   UNL A   1      35.902  30.318  31.590  1.00  0.00    -0.200 F 
ATOM     64  C   UNL A   1      36.037  30.402  29.234  1.00  0.00     0.200 A 
ATOM     65  F   UNL A   1      36.217  30.460  26.881  1.00  0.00    -0.200 F 
ATOM     66  F   UNL A   1      34.750  30.767  29.159  1.00  0.00    -0.200 F 
ENDBRANCH  42  56
BRANCH  43  67
ATOM     67  C   UNL A   1      48.243  26.656  29.755  1.00  0.00     0.064 A 
ATOM     68  C   UNL A   1      48.757  26.049  30.908  1.00  0.00     0.173 A 
ATOM     69  C   UNL A   1      49.096  26.793  28.650  1.00  0.00     0.173 A 
ATOM     70  F   UNL A   1      47.984  25.921  31.997  1.00  0.00    -0.203 F 
ATOM     71  C   UNL A   1      50.072  25.592  30.952  1.00  0.00     0.198 A 
ATOM     72  C   UNL A   1      50.402  26.314  28.687  1.00  0.00     0.198 A 
ATOM     73  F   UNL A   1      48.649  27.369  27.525  1.00  0.00    -0.203 F 
ATOM     74  F   UNL A   1      50.547  25.034  32.075  1.00  0.00    -0.200 F 
ATOM     75  C   UNL A   1      50.890  25.715  29.839  1.00  0.00     0.200 A 
ATOM     76  F   UNL A   1      51.185  26.424  27.606  1.00  0.00    -0.200 F 
ATOM     77  F   UNL A   1      52.149  25.259  29.877  1.00  0.00    -0.200 F 
ENDBRANCH  43  67
BRANCH  55  78
ATOM     78  C   UNL A   1      45.081  32.781  30.695  1.00  0.00     0.064 A 
ATOM     79  C   UNL A   1      45.272  33.197  32.021  1.00  0.00     0.173 A 
ATOM     80  C   UNL A   1      45.411  33.677  29.667  1.00  0.00     0.173 A 
ATOM     81  F   UNL A   1      44.951  32.383  33.037  1.00  0.00    -0.203 F 
ATOM     82  C   UNL A   1      45.758  34.471  32.306  1.00  0.00     0.198 A 
ATOM     83  C   UNL A   1      45.917  34.941  29.956  1.00  0.00     0.198 A 
ATOM     84  F   UNL A   1      45.246  33.322  28.384  1.00  0.00    -0.203 F 
ATOM     85  F   UNL A   1      45.895  34.864  33.580  1.00  0.00    -0.200 F 
ATOM     86  C   UNL A   1      46.085  35.339  31.274  1.00  0.00     0.200 A 
ATOM     87  F   UNL A   1      46.237  35.777  28.959  1.00  0.00    -0.200 F 
ATOM     88  F   UNL A   1      46.552  36.563  31.550  1.00  0.00    -0.200 F 
ENDBRANCH  55  78
ENDBRANCH  29  30
ENDBRANCH  22  24
ENDBRANCH  21  22
ENDBRANCH  20  21
ENDBRANCH   1  20
TORSDOF 16
ENDMDL
MODEL 2
REMARK VINA RESULT:      -9.3      5.666     10.966
REMARK SMILES CC(C)Oc1ccc([C@H](O)[C@@H](F)C(=O)OCCOC(=O)c2ccc(-c3c4nc(c(-c5c(F)c(F)c(F)c(F)c5F)c5ccc([nH]5)c(-c5c(F)c(F)c(F)c(F)c5F)c5nc(c(-c6c(F)c(F)c(F)c(F)c6F)c6ccc3[nH]6)C=C5)C=C4)cc2)cc1
REMARK SMILES IDX 16 1 15 2 13 3 14 4 11 5 12 6 9 7 8 8 5 9 6 10 85 11 7 12
REMARK SMILES IDX 84 13 4 14 2 15 1 16 3 17 10 18 17 20 18 21 19 22 20 23
REMARK SMILES IDX 21 24 22 25 83 26 23 27 82 28 24 29 25 30 26 31 76 32 27 33
REMARK SMILES IDX 81 34 75 35 77 36 28 37 80 38 74 39 73 40 29 42 61 43 41 44
REMARK SMILES IDX 60 45 42 46 45 47 59 48 78 49 43 50 44 51 58 53 79 54 46 55
REMARK SMILES IDX 30 56 31 57 39 58 32 59 33 60 37 61 40 62 34 63 35 64 38 65
REMARK SMILES IDX 36 66 62 67 63 68 71 69 64 70 65 71 69 72 72 73 66 74 67 75
REMARK SMILES IDX 70 76 68 77 47 78 48 79 56 80 49 81 50 82 54 83 57 84 51 85
REMARK SMILES IDX 52 86 55 87 53 88
REMARK H PARENT 10 19 77 41 45 52
REMARK Flexibility Score: inf
ROOT
ATOM      1  C   UNL A   1      31.605  29.255  24.250  1.00  0.00     0.274 C 
ENDROOT
BRANCH   1   2
ATOM      2  O   UNL A   1      30.303  28.652  24.080  1.00  0.00    -0.460 OA
BRANCH   2   3
ATOM      3  C   UNL A   1      30.289  27.499  23.358  1.00  0.00     0.343 C 
ATOM      4  O   UNL A   1      30.564  27.431  22.161  1.00  0.00    -0.249 OA
BRANCH   3   5
ATOM      5  C   UNL A   1      29.813  26.285  24.131  1.00  0.00     0.308 C 
ATOM      6  F   UNL A   1      28.443  26.339  24.283  1.00  0.00    -0.232 F 
BRANCH   5   7
ATOM      7  C   UNL A   1      30.398  26.078  25.535  1.00  0.00     0.190 C 
BRANCH   7   8
ATOM      8  C   UNL A   1      31.761  25.426  25.650  1.00  0.00    -0.016 A 
ATOM      9  C   UNL A   1      34.252  24.113  25.863  1.00  0.00     0.119 A 
ATOM     10  C   UNL A   1      34.198  25.497  25.738  1.00  0.00     0.047 A 
ATOM     11  C   UNL A   1      33.074  23.376  25.872  1.00  0.00     0.047 A 
ATOM     12  C   UNL A   1      32.964  26.146  25.601  1.00  0.00     0.010 A 
ATOM     13  C   UNL A   1      31.840  24.026  25.750  1.00  0.00     0.010 A 
BRANCH   9  14
ATOM     14  O   UNL A   1      35.436  23.504  26.169  1.00  0.00    -0.491 OA
BRANCH  14  15
ATOM     15  C   UNL A   1      36.579  23.837  25.366  1.00  0.00     0.167 C 
ATOM     16  C   UNL A   1      37.895  23.865  26.138  1.00  0.00     0.052 C 
ATOM     17  C   UNL A   1      36.672  23.017  24.083  1.00  0.00     0.052 C 
ENDBRANCH  14  15
ENDBRANCH   9  14
ENDBRANCH   7   8
BRANCH   7  18
ATOM     18  O   UNL A   1      29.499  25.234  26.279  1.00  0.00    -0.385 OA
ATOM     19  H   UNL A   1      29.415  24.377  25.832  1.00  0.00     0.211 HD
ENDBRANCH   7  18
ENDBRANCH   5   7
ENDBRANCH   3   5
ENDBRANCH   2   3
ENDBRANCH   1   2
BRANCH   1  20
ATOM     20  C   UNL A   1      31.690  30.030  25.562  1.00  0.00     0.275 C 
BRANCH  20  21
ATOM     21  O   UNL A   1      33.066  30.322  25.861  1.00  0.00    -0.458 OA
BRANCH  21  22
ATOM     22  C   UNL A   1      33.267  31.228  26.844  1.00  0.00     0.338 C 
ATOM     23  O   UNL A   1      32.580  32.203  27.095  1.00  0.00    -0.246 OA
BRANCH  22  24
ATOM     24  C   UNL A   1      34.513  30.909  27.570  1.00  0.00     0.060 A 
ATOM     25  C   UNL A   1      34.819  29.605  27.974  1.00  0.00     0.016 A 
ATOM     26  C   UNL A   1      35.367  31.960  27.905  1.00  0.00     0.016 A 
ATOM     27  C   UNL A   1      35.951  29.362  28.753  1.00  0.00     0.010 A 
ATOM     28  C   UNL A   1      36.541  31.704  28.613  1.00  0.00     0.010 A 
ATOM     29  C   UNL A   1      36.839  30.406  29.056  1.00  0.00    -0.014 A 
BRANCH  29  30
ATOM     30  C   UNL A   1      38.102  30.153  29.796  1.00  0.00     0.031 A 
ATOM     31  C   UNL A   1      39.150  29.241  29.226  1.00  0.00     0.074 A 
ATOM     32  C   UNL A   1      38.283  30.707  31.009  1.00  0.00     0.049 A 
ATOM     33  N   UNL A   1      40.220  28.749  29.799  1.00  0.00    -0.248 NA
ATOM     34  C   UNL A   1      38.970  28.821  27.828  1.00  0.00     0.031 C 
ATOM     35  C   UNL A   1      37.363  31.639  31.661  1.00  0.00     0.029 A 
ATOM     36  N   UNL A   1      39.300  30.553  31.918  1.00  0.00    -0.354 N 
ATOM     37  C   UNL A   1      40.823  27.940  28.845  1.00  0.00     0.074 A 
ATOM     38  C   UNL A   1      39.997  28.000  27.657  1.00  0.00     0.031 C 
ATOM     39  C   UNL A   1      37.865  31.990  32.853  1.00  0.00     0.029 A 
ATOM     40  C   UNL A   1      39.099  31.248  33.086  1.00  0.00     0.049 A 
ATOM     41  H   UNL A   1      40.097  29.999  31.750  1.00  0.00     0.167 HD
ATOM     42  C   UNL A   1      41.963  27.214  28.955  1.00  0.00     0.037 A 
ATOM     43  C   UNL A   1      39.801  31.252  34.233  1.00  0.00     0.037 A 
ATOM     44  C   UNL A   1      42.792  27.174  30.132  1.00  0.00     0.049 A 
ATOM     45  C   UNL A   1      41.006  30.368  34.362  1.00  0.00     0.074 A 
ATOM     46  C   UNL A   1      43.983  26.495  30.327  1.00  0.00     0.029 A 
ATOM     47  N   UNL A   1      42.515  27.840  31.316  1.00  0.00    -0.354 N 
ATOM     48  N   UNL A   1      41.553  29.583  33.468  1.00  0.00    -0.248 NA
ATOM     49  C   UNL A   1      41.674  30.350  35.671  1.00  0.00     0.031 C 
ATOM     50  C   UNL A   1      44.406  26.720  31.643  1.00  0.00     0.029 A 
ATOM     51  C   UNL A   1      43.498  27.567  32.255  1.00  0.00     0.049 A 
ATOM     52  H   UNL A   1      41.735  28.421  31.468  1.00  0.00     0.167 HD
ATOM     53  C   UNL A   1      42.635  28.985  34.098  1.00  0.00     0.074 A 
ATOM     54  C   UNL A   1      42.674  29.507  35.449  1.00  0.00     0.031 C 
ATOM     55  C   UNL A   1      43.515  28.085  33.600  1.00  0.00     0.037 A 
BRANCH  42  56
ATOM     56  C   UNL A   1      42.369  26.380  27.777  1.00  0.00     0.064 A 
ATOM     57  C   UNL A   1      41.801  25.122  27.533  1.00  0.00     0.173 A 
ATOM     58  C   UNL A   1      43.313  26.866  26.859  1.00  0.00     0.173 A 
ATOM     59  F   UNL A   1      40.903  24.610  28.388  1.00  0.00    -0.203 F 
ATOM     60  C   UNL A   1      42.178  24.371  26.422  1.00  0.00     0.198 A 
ATOM     61  C   UNL A   1      43.671  26.122  25.738  1.00  0.00     0.198 A 
ATOM     62  F   UNL A   1      43.883  28.066  27.046  1.00  0.00    -0.203 F 
ATOM     63  F   UNL A   1      41.650  23.155  26.227  1.00  0.00    -0.200 F 
ATOM     64  C   UNL A   1      43.107  24.874  25.523  1.00  0.00     0.200 A 
ATOM     65  F   UNL A   1      44.563  26.613  24.866  1.00  0.00    -0.200 F 
ATOM     66  F   UNL A   1      43.465  24.151  24.453  1.00  0.00    -0.200 F 
ENDBRANCH  42  56
BRANCH  43  67
ATOM     67  C   UNL A   1      39.352  32.106  35.360  1.00  0.00     0.064 A 
ATOM     68  C   UNL A   1      38.506  31.593  36.352  1.00  0.00     0.173 A 
ATOM     69  C   UNL A   1      39.788  33.433  35.491  1.00  0.00     0.173 A 
ATOM     70  F   UNL A   1      38.045  30.338  36.254  1.00  0.00    -0.203 F 
ATOM     71  C   UNL A   1      38.116  32.376  37.436  1.00  0.00     0.198 A 
ATOM     72  C   UNL A   1      39.417  34.206  36.586  1.00  0.00     0.198 A 
ATOM     73  F   UNL A   1      40.597  33.967  34.564  1.00  0.00    -0.203 F 
ATOM     74  F   UNL A   1      37.288  31.870  38.361  1.00  0.00    -0.200 F 
ATOM     75  C   UNL A   1      38.579  33.678  37.557  1.00  0.00     0.200 A 
ATOM     76  F   UNL A   1      39.876  35.459  36.707  1.00  0.00    -0.200 F 
ATOM     77  F   UNL A   1      38.216  34.424  38.609  1.00  0.00    -0.200 F 
ENDBRANCH  43  67
BRANCH  55  78
ATOM     78  C   UNL A   1      44.603  27.620  34.519  1.00  0.00     0.064 A 
ATOM     79  C   UNL A   1      44.464  26.453  35.284  1.00  0.00     0.173 A 
ATOM     80  C   UNL A   1      45.804  28.339  34.621  1.00  0.00     0.173 A 
ATOM     81  F   UNL A   1      43.326  25.745  35.234  1.00  0.00    -0.203 F 
ATOM     82  C   UNL A   1      45.483  26.033  36.135  1.00  0.00     0.198 A 
ATOM     83  C   UNL A   1      46.828  27.903  35.456  1.00  0.00     0.198 A 
ATOM     84  F   UNL A   1      45.983  29.461  33.907  1.00  0.00    -0.203 F 
ATOM     85  F   UNL A   1      45.315  24.937  36.888  1.00  0.00    -0.200 F 
ATOM     86  C   UNL A   1      46.665  26.754  36.216  1.00  0.00     0.200 A 
ATOM     87  F   UNL A   1      47.972  28.598  35.531  1.00  0.00    -0.200 F 
ATOM     88  F   UNL A   1      47.644  26.348  37.035  1.00  0.00    -0.200 F 
ENDBRANCH  55  78
ENDBRANCH  29  30
ENDBRANCH  22  24
ENDBRANCH  21  22
ENDBRANCH  20  21
ENDBRANCH   1  20
TORSDOF 16
ENDMDL
MODEL 3
REMARK VINA RESULT:      -9.3      5.634     11.023
REMARK SMILES CC(C)Oc1ccc([C@H](O)[C@@H](F)C(=O)OCCOC(=O)c2ccc(-c3c4nc(c(-c5c(F)c(F)c(F)c(F)c5F)c5ccc([nH]5)c(-c5c(F)c(F)c(F)c(F)c5F)c5nc(c(-c6c(F)c(F)c(F)c(F)c6F)c6ccc3[nH]6)C=C5)C=C4)cc2)cc1
REMARK SMILES IDX 16 1 15 2 13 3 14 4 11 5 12 6 9 7 8 8 5 9 6 10 85 11 7 12
REMARK SMILES IDX 84 13 4 14 2 15 1 16 3 17 10 18 17 20 18 21 19 22 20 23
REMARK SMILES IDX 21 24 22 25 83 26 23 27 82 28 24 29 25 30 26 31 76 32 27 33
REMARK SMILES IDX 81 34 75 35 77 36 28 37 80 38 74 39 73 40 29 42 61 43 41 44
REMARK SMILES IDX 60 45 42 46 45 47 59 48 78 49 43 50 44 51 58 53 79 54 46 55
REMARK SMILES IDX 30 56 31 57 39 58 32 59 33 60 37 61 40 62 34 63 35 64 38 65
REMARK SMILES IDX 36 66 62 67 63 68 71 69 64 70 65 71 69 72 72 73 66 74 67 75
REMARK SMILES IDX 70 76 68 77 47 78 48 79 56 80 49 81 50 82 54 83 57 84 51 85
REMARK SMILES IDX 52 86 55 87 53 88
REMARK H PARENT 10 19 77 41 45 52
REMARK Flexibility Score: inf
ROOT
ATOM      1  C   UNL A   1      31.600  29.258  24.278  1.00  0.00     0.274 C 
ENDROOT
BRANCH   1   2
ATOM      2  O   UNL A   1      30.292  28.664  24.119  1.00  0.00    -0.460 OA
BRANCH   2   3
ATOM      3  C   UNL A   1      30.263  27.515  23.392  1.00  0.00     0.343 C 
ATOM      4  O   UNL A   1      30.534  27.449  22.193  1.00  0.00    -0.249 OA
BRANCH   3   5
ATOM      5  C   UNL A   1      29.778  26.302  24.161  1.00  0.00     0.308 C 
ATOM      6  F   UNL A   1      28.411  26.373  24.327  1.00  0.00    -0.232 F 
BRANCH   5   7
ATOM      7  C   UNL A   1      30.374  26.077  25.557  1.00  0.00     0.190 C 
BRANCH   7   8
ATOM      8  C   UNL A   1      31.737  25.422  25.654  1.00  0.00    -0.016 A 
ATOM      9  C   UNL A   1      34.228  24.102  25.831  1.00  0.00     0.119 A 
ATOM     10  C   UNL A   1      34.174  25.489  25.736  1.00  0.00     0.047 A 
ATOM     11  C   UNL A   1      33.049  23.366  25.826  1.00  0.00     0.047 A 
ATOM     12  C   UNL A   1      32.940  26.142  25.618  1.00  0.00     0.010 A 
ATOM     13  C   UNL A   1      31.816  24.020  25.723  1.00  0.00     0.010 A 
BRANCH   9  14
ATOM     14  O   UNL A   1      35.412  23.486  26.119  1.00  0.00    -0.491 OA
BRANCH  14  15
ATOM     15  C   UNL A   1      36.555  23.845  25.328  1.00  0.00     0.167 C 
ATOM     16  C   UNL A   1      37.864  23.893  26.111  1.00  0.00     0.052 C 
ATOM     17  C   UNL A   1      36.674  23.033  24.041  1.00  0.00     0.052 C 
ENDBRANCH  14  15
ENDBRANCH   9  14
ENDBRANCH   7   8
BRANCH   7  18
ATOM     18  O   UNL A   1      29.480  25.225  26.299  1.00  0.00    -0.385 OA
ATOM     19  H   UNL A   1      28.884  25.772  26.835  1.00  0.00     0.211 HD
ENDBRANCH   7  18
ENDBRANCH   5   7
ENDBRANCH   3   5
ENDBRANCH   2   3
ENDBRANCH   1   2
BRANCH   1  20
ATOM     20  C   UNL A   1      31.696  30.046  25.581  1.00  0.00     0.275 C 
BRANCH  20  21
ATOM     21  O   UNL A   1      33.074  30.337  25.868  1.00  0.00    -0.458 OA
BRANCH  21  22
ATOM     22  C   UNL A   1      33.285  31.237  26.855  1.00  0.00     0.338 C 
ATOM     23  O   UNL A   1      32.603  32.212  27.116  1.00  0.00    -0.246 OA
BRANCH  22  24
ATOM     24  C   UNL A   1      34.535  30.910  27.570  1.00  0.00     0.060 A 
ATOM     25  C   UNL A   1      34.835  29.604  27.973  1.00  0.00     0.016 A 
ATOM     26  C   UNL A   1      35.398  31.956  27.897  1.00  0.00     0.016 A 
ATOM     27  C   UNL A   1      35.973  29.354  28.742  1.00  0.00     0.010 A 
ATOM     28  C   UNL A   1      36.577  31.692  28.595  1.00  0.00     0.010 A 
ATOM     29  C   UNL A   1      36.869  30.392  29.037  1.00  0.00    -0.014 A 
BRANCH  29  30
ATOM     30  C   UNL A   1      38.137  30.131  29.766  1.00  0.00     0.031 A 
ATOM     31  C   UNL A   1      39.180  29.221  29.183  1.00  0.00     0.074 A 
ATOM     32  C   UNL A   1      38.328  30.676  30.982  1.00  0.00     0.049 A 
ATOM     33  N   UNL A   1      40.252  28.722  29.745  1.00  0.00    -0.248 NA
ATOM     34  C   UNL A   1      38.989  28.811  27.783  1.00  0.00     0.031 C 
ATOM     35  C   UNL A   1      37.415  31.605  31.647  1.00  0.00     0.029 A 
ATOM     36  N   UNL A   1      39.351  30.513  31.883  1.00  0.00    -0.354 N 
ATOM     37  C   UNL A   1      40.846  27.919  28.781  1.00  0.00     0.074 A 
ATOM     38  C   UNL A   1      40.012  27.989  27.600  1.00  0.00     0.031 C 
ATOM     39  C   UNL A   1      37.925  31.947  32.839  1.00  0.00     0.029 A 
ATOM     40  C   UNL A   1      39.159  31.200  33.057  1.00  0.00     0.049 A 
ATOM     41  H   UNL A   1      40.145  29.959  31.706  1.00  0.00     0.167 HD
ATOM     42  C   UNL A   1      41.985  27.190  28.878  1.00  0.00     0.037 A 
ATOM     43  C   UNL A   1      39.869  31.194  34.199  1.00  0.00     0.037 A 
ATOM     44  C   UNL A   1      42.823  27.139  30.049  1.00  0.00     0.049 A 
ATOM     45  C   UNL A   1      41.073  30.307  34.314  1.00  0.00     0.074 A 
ATOM     46  C   UNL A   1      44.013  26.456  30.231  1.00  0.00     0.029 A 
ATOM     47  N   UNL A   1      42.555  27.797  31.240  1.00  0.00    -0.354 N 
ATOM     48  N   UNL A   1      41.612  29.528  33.411  1.00  0.00    -0.248 NA
ATOM     49  C   UNL A   1      41.750  30.278  35.618  1.00  0.00     0.031 C 
ATOM     50  C   UNL A   1      44.446  26.671  31.546  1.00  0.00     0.029 A 
ATOM     51  C   UNL A   1      43.544  27.516  32.170  1.00  0.00     0.049 A 
ATOM     52  H   UNL A   1      41.777  28.379  31.401  1.00  0.00     0.167 HD
ATOM     53  C   UNL A   1      42.697  28.922  34.029  1.00  0.00     0.074 A 
ATOM     54  C   UNL A   1      42.746  29.434  35.383  1.00  0.00     0.031 C 
ATOM     55  C   UNL A   1      43.572  28.023  33.518  1.00  0.00     0.037 A 
BRANCH  42  56
ATOM     56  C   UNL A   1      42.381  26.363  27.691  1.00  0.00     0.064 A 
ATOM     57  C   UNL A   1      43.363  26.792  26.788  1.00  0.00     0.173 A 
ATOM     58  C   UNL A   1      41.794  25.106  27.478  1.00  0.00     0.173 A 
ATOM     59  F   UNL A   1      43.944  27.991  26.942  1.00  0.00    -0.203 F 
ATOM     60  C   UNL A   1      43.731  26.001  25.702  1.00  0.00     0.198 A 
ATOM     61  C   UNL A   1      42.179  24.309  26.404  1.00  0.00     0.198 A 
ATOM     62  F   UNL A   1      40.852  24.649  28.316  1.00  0.00    -0.203 F 
ATOM     63  F   UNL A   1      44.645  26.446  24.829  1.00  0.00    -0.200 F 
ATOM     64  C   UNL A   1      43.143  24.758  25.514  1.00  0.00     0.200 A 
ATOM     65  F   UNL A   1      41.617  23.104  26.230  1.00  0.00    -0.200 F 
ATOM     66  F   UNL A   1      43.501  23.997  24.471  1.00  0.00    -0.200 F 
ENDBRANCH  42  56
BRANCH  43  67
ATOM     67  C   UNL A   1      39.430  32.041  35.336  1.00  0.00     0.064 A 
ATOM     68  C   UNL A   1      39.867  33.367  35.449  1.00  0.00     0.173 A 
ATOM     69  C   UNL A   1      38.539  31.559  36.306  1.00  0.00     0.173 A 
ATOM     70  F   UNL A   1      40.739  33.862  34.558  1.00  0.00    -0.203 F 
ATOM     71  C   UNL A   1      39.425  34.181  36.489  1.00  0.00     0.198 A 
ATOM     72  C   UNL A   1      38.079  32.380  37.331  1.00  0.00     0.198 A 
ATOM     73  F   UNL A   1      38.095  30.295  36.240  1.00  0.00    -0.203 F 
ATOM     74  F   UNL A   1      39.874  35.441  36.588  1.00  0.00    -0.200 F 
ATOM     75  C   UNL A   1      38.524  33.690  37.423  1.00  0.00     0.200 A 
ATOM     76  F   UNL A   1      37.200  31.906  38.224  1.00  0.00    -0.200 F 
ATOM     77  F   UNL A   1      38.086  34.480  38.413  1.00  0.00    -0.200 F 
ENDBRANCH  43  67
BRANCH  55  78
ATOM     78  C   UNL A   1      44.665  27.550  34.426  1.00  0.00     0.064 A 
ATOM     79  C   UNL A   1      44.520  26.390  35.200  1.00  0.00     0.173 A 
ATOM     80  C   UNL A   1      45.877  28.253  34.509  1.00  0.00     0.173 A 
ATOM     81  F   UNL A   1      43.372  25.697  35.169  1.00  0.00    -0.203 F 
ATOM     82  C   UNL A   1      45.544  25.961  36.041  1.00  0.00     0.198 A 
ATOM     83  C   UNL A   1      46.905  27.809  35.334  1.00  0.00     0.198 A 
ATOM     84  F   UNL A   1      46.061  29.368  33.786  1.00  0.00    -0.203 F 
ATOM     85  F   UNL A   1      45.371  24.872  36.803  1.00  0.00    -0.200 F 
ATOM     86  C   UNL A   1      46.737  26.667  36.103  1.00  0.00     0.200 A 
ATOM     87  F   UNL A   1      48.059  28.489  35.390  1.00  0.00    -0.200 F 
ATOM     88  F   UNL A   1      47.720  26.253  36.913  1.00  0.00    -0.200 F 
ENDBRANCH  55  78
ENDBRANCH  29  30
ENDBRANCH  22  24
ENDBRANCH  21  22
ENDBRANCH  20  21
ENDBRANCH   1  20
TORSDOF 16
ENDMDL
