MODEL 1
REMARK VINA RESULT:     -13.3      0.000      0.000
REMARK SMILES Cc1cc(C)c(S(=O)(=O)n2cc([C@@H](C)[C@@H]([NH3+])C(=O)OCCOC(=O)c3ccc(-c4c5nc(c(-c6c(F)c(F)c(F)c(F)c6F)c6ccc([nH]6)c(-c6c(F)c(F)c(F)c(F)c6F)c6nc(c(-c7c(F)c(F)c(F)c(F)c7F)c7ccc4[nH]7)C=C6)C=C5)cc3)c3ccccc32)c(C)c1
REMARK SMILES IDX 20 1 19 2 17 3 18 4 15 5 13 6 14 7 12 8 10 9 11 10 93 11
REMARK SMILES IDX 88 12 92 13 89 14 91 15 90 16 7 17 8 18 9 19 6 20 1 21 2 22
REMARK SMILES IDX 3 23 96 24 4 25 94 26 5 27 95 28 16 29 21 33 22 34 23 35
REMARK SMILES IDX 24 36 25 37 26 38 87 39 27 40 86 41 28 42 29 43 30 44 80 45
REMARK SMILES IDX 31 46 85 47 79 48 81 49 32 50 84 51 78 52 77 53 33 55 65 56
REMARK SMILES IDX 45 57 64 58 46 59 49 60 63 61 82 62 47 63 48 64 62 66 83 67
REMARK SMILES IDX 50 68 34 69 35 70 43 71 36 72 37 73 41 74 44 75 38 76 39 77
REMARK SMILES IDX 42 78 40 79 66 80 67 81 75 82 68 83 69 84 73 85 76 86 70 87
REMARK SMILES IDX 71 88 74 89 72 90 51 91 52 92 60 93 53 94 54 95 58 96 61 97
REMARK SMILES IDX 55 98 56 99 59 100 57 101
REMARK H PARENT 16 30 16 31 16 32 81 54 49 65
REMARK Flexibility Score: inf
ROOT
ATOM      1  C   UNL A   1      36.463  21.353  25.793  1.00  0.00     0.274 C 
ENDROOT
BRANCH   1   2
ATOM      2  O   UNL A   1      35.621  21.012  24.663  1.00  0.00    -0.458 OA
BRANCH   2   3
ATOM      3  C   UNL A   1      34.811  19.943  24.833  1.00  0.00     0.365 C 
ATOM      4  O   UNL A   1      35.163  18.785  24.610  1.00  0.00    -0.245 OA
BRANCH   3   5
ATOM      5  C   UNL A   1      33.365  20.254  25.287  1.00  0.00     0.299 C 
BRANCH   5   6
ATOM      6  C   UNL A   1      32.248  20.620  24.271  1.00  0.00     0.088 C 
ATOM      7  C   UNL A   1      32.387  20.148  22.824  1.00  0.00     0.020 C 
BRANCH   6   8
ATOM      8  C   UNL A   1      32.004  22.136  24.308  1.00  0.00    -0.012 A 
ATOM      9  N   UNL A   1      32.109  24.260  23.655  1.00  0.00    -0.241 N 
ATOM     10  C   UNL A   1      32.559  23.000  23.388  1.00  0.00     0.109 A 
ATOM     11  C   UNL A   1      31.141  24.251  24.633  1.00  0.00     0.064 A 
ATOM     12  C   UNL A   1      31.179  22.955  25.175  1.00  0.00     0.004 A 
ATOM     13  C   UNL A   1      30.321  25.271  25.158  1.00  0.00     0.028 A 
ATOM     14  C   UNL A   1      30.467  22.748  26.378  1.00  0.00     0.010 A 
ATOM     15  C   UNL A   1      29.586  25.003  26.312  1.00  0.00     0.002 A 
ATOM     16  C   UNL A   1      29.684  23.769  26.936  1.00  0.00     0.001 A 
BRANCH   9  17
ATOM     17  S   UNL A   1      32.779  25.634  22.942  1.00  0.00     0.268 S 
ATOM     18  O   UNL A   1      31.691  26.205  22.167  1.00  0.00    -0.201 OA
ATOM     19  O   UNL A   1      33.998  25.165  22.304  1.00  0.00    -0.201 OA
BRANCH  17  20
ATOM     20  C   UNL A   1      33.273  26.859  24.159  1.00  0.00     0.094 A 
ATOM     21  C   UNL A   1      33.879  30.082  26.997  1.00  0.00     0.044 C 
ATOM     22  C   UNL A   1      33.691  28.972  26.009  1.00  0.00    -0.051 A 
ATOM     23  C   UNL A   1      33.210  29.238  24.732  1.00  0.00     0.008 A 
ATOM     24  C   UNL A   1      34.018  27.661  26.334  1.00  0.00     0.008 A 
ATOM     25  C   UNL A   1      32.994  28.207  23.799  1.00  0.00    -0.030 A 
ATOM     26  C   UNL A   1      33.866  26.595  25.419  1.00  0.00    -0.030 A 
ATOM     27  C   UNL A   1      32.503  28.666  22.445  1.00  0.00     0.046 C 
ATOM     28  C   UNL A   1      34.384  25.286  25.943  1.00  0.00     0.046 C 
ENDBRANCH  17  20
ENDBRANCH   9  17
ENDBRANCH   6   8
ENDBRANCH   5   6
BRANCH   5  29
ATOM     29  N   UNL A   1      32.914  19.100  26.133  1.00  0.00    -0.345 N 
ATOM     30  H   UNL A   1      31.896  19.040  26.112  1.00  0.00     0.345 HD
ATOM     31  H   UNL A   1      33.226  19.242  27.094  1.00  0.00     0.345 HD
ATOM     32  H   UNL A   1      33.314  18.235  25.770  1.00  0.00     0.345 HD
ENDBRANCH   5  29
ENDBRANCH   3   5
ENDBRANCH   2   3
ENDBRANCH   1   2
BRANCH   1  33
ATOM     33  C   UNL A   1      37.885  21.707  25.342  1.00  0.00     0.275 C 
BRANCH  33  34
ATOM     34  O   UNL A   1      38.386  22.775  26.160  1.00  0.00    -0.458 OA
BRANCH  34  35
ATOM     35  C   UNL A   1      39.548  22.534  26.812  1.00  0.00     0.338 C 
ATOM     36  O   UNL A   1      40.165  21.482  26.867  1.00  0.00    -0.246 OA
BRANCH  35  37
ATOM     37  C   UNL A   1      40.142  23.862  27.055  1.00  0.00     0.060 A 
ATOM     38  C   UNL A   1      41.167  24.072  27.984  1.00  0.00     0.016 A 
ATOM     39  C   UNL A   1      39.417  24.934  26.550  1.00  0.00     0.016 A 
ATOM     40  C   UNL A   1      41.346  25.343  28.530  1.00  0.00     0.010 A 
ATOM     41  C   UNL A   1      39.565  26.176  27.135  1.00  0.00     0.010 A 
ATOM     42  C   UNL A   1      40.478  26.375  28.167  1.00  0.00    -0.014 A 
BRANCH  42  43
ATOM     43  C   UNL A   1      40.627  27.725  28.698  1.00  0.00     0.031 A 
ATOM     44  C   UNL A   1      41.803  28.440  28.155  1.00  0.00     0.074 A 
ATOM     45  C   UNL A   1      39.748  28.418  29.451  1.00  0.00     0.049 A 
ATOM     46  N   UNL A   1      42.910  28.677  28.775  1.00  0.00    -0.248 NA
ATOM     47  C   UNL A   1      41.809  28.825  26.738  1.00  0.00     0.031 C 
ATOM     48  C   UNL A   1      38.393  28.068  29.855  1.00  0.00     0.029 A 
ATOM     49  N   UNL A   1      39.900  29.672  29.972  1.00  0.00    -0.354 N 
ATOM     50  C   UNL A   1      43.703  29.374  27.873  1.00  0.00     0.074 A 
ATOM     51  C   UNL A   1      43.057  29.269  26.592  1.00  0.00     0.031 C 
ATOM     52  C   UNL A   1      37.771  29.153  30.379  1.00  0.00     0.029 A 
ATOM     53  C   UNL A   1      38.746  30.222  30.516  1.00  0.00     0.049 A 
ATOM     54  H   UNL A   1      40.761  30.150  29.962  1.00  0.00     0.167 HD
ATOM     55  C   UNL A   1      44.719  30.171  28.293  1.00  0.00     0.037 A 
ATOM     56  C   UNL A   1      38.620  31.462  31.051  1.00  0.00     0.037 A 
ATOM     57  C   UNL A   1      45.049  29.926  29.673  1.00  0.00     0.049 A 
ATOM     58  C   UNL A   1      39.979  31.906  31.445  1.00  0.00     0.074 A 
ATOM     59  C   UNL A   1      45.479  28.821  30.384  1.00  0.00     0.029 A 
ATOM     60  N   UNL A   1      44.583  30.809  30.615  1.00  0.00    -0.354 N 
ATOM     61  N   UNL A   1      40.667  31.381  32.420  1.00  0.00    -0.248 NA
ATOM     62  C   UNL A   1      40.744  32.696  30.493  1.00  0.00     0.031 C 
ATOM     63  C   UNL A   1      44.811  28.903  31.642  1.00  0.00     0.029 A 
ATOM     64  C   UNL A   1      44.048  30.071  31.639  1.00  0.00     0.049 A 
ATOM     65  H   UNL A   1      44.625  31.791  30.563  1.00  0.00     0.167 HD
ATOM     66  C   UNL A   1      41.978  31.404  31.972  1.00  0.00     0.074 A 
ATOM     67  C   UNL A   1      41.978  32.325  30.843  1.00  0.00     0.031 C 
ATOM     68  C   UNL A   1      42.874  30.462  32.386  1.00  0.00     0.037 A 
BRANCH  55  69
ATOM     69  C   UNL A   1      45.194  31.385  27.544  1.00  0.00     0.064 A 
ATOM     70  C   UNL A   1      46.523  31.435  27.089  1.00  0.00     0.173 A 
ATOM     71  C   UNL A   1      44.476  32.598  27.475  1.00  0.00     0.173 A 
ATOM     72  F   UNL A   1      47.307  30.347  27.149  1.00  0.00    -0.203 F 
ATOM     73  C   UNL A   1      47.101  32.622  26.633  1.00  0.00     0.198 A 
ATOM     74  C   UNL A   1      45.034  33.765  26.960  1.00  0.00     0.198 A 
ATOM     75  F   UNL A   1      43.251  32.733  27.997  1.00  0.00    -0.203 F 
ATOM     76  F   UNL A   1      48.401  32.649  26.315  1.00  0.00    -0.200 F 
ATOM     77  C   UNL A   1      46.354  33.785  26.566  1.00  0.00     0.200 A 
ATOM     78  F   UNL A   1      44.300  34.887  26.921  1.00  0.00    -0.200 F 
ATOM     79  F   UNL A   1      46.918  34.933  26.169  1.00  0.00    -0.200 F 
ENDBRANCH  55  69
BRANCH  56  80
ATOM     80  C   UNL A   1      37.474  32.402  31.044  1.00  0.00     0.064 A 
ATOM     81  C   UNL A   1      37.183  33.177  29.905  1.00  0.00     0.173 A 
ATOM     82  C   UNL A   1      36.462  32.317  32.017  1.00  0.00     0.173 A 
ATOM     83  F   UNL A   1      38.082  33.287  28.915  1.00  0.00    -0.203 F 
ATOM     84  C   UNL A   1      35.934  33.778  29.723  1.00  0.00     0.198 A 
ATOM     85  C   UNL A   1      35.215  32.922  31.835  1.00  0.00     0.198 A 
ATOM     86  F   UNL A   1      36.626  31.558  33.110  1.00  0.00    -0.203 F 
ATOM     87  F   UNL A   1      35.668  34.437  28.586  1.00  0.00    -0.200 F 
ATOM     88  C   UNL A   1      34.945  33.635  30.680  1.00  0.00     0.200 A 
ATOM     89  F   UNL A   1      34.253  32.751  32.752  1.00  0.00    -0.200 F 
ATOM     90  F   UNL A   1      33.723  34.143  30.470  1.00  0.00    -0.200 F 
ENDBRANCH  56  80
BRANCH  68  91
ATOM     91  C   UNL A   1      42.492  29.597  33.558  1.00  0.00     0.064 A 
ATOM     92  C   UNL A   1      41.827  28.364  33.446  1.00  0.00     0.173 A 
ATOM     93  C   UNL A   1      42.941  29.970  34.833  1.00  0.00     0.173 A 
ATOM     94  F   UNL A   1      41.450  27.887  32.254  1.00  0.00    -0.203 F 
ATOM     95  C   UNL A   1      41.589  27.564  34.564  1.00  0.00     0.198 A 
ATOM     96  C   UNL A   1      42.737  29.152  35.941  1.00  0.00     0.198 A 
ATOM     97  F   UNL A   1      43.626  31.113  34.996  1.00  0.00    -0.203 F 
ATOM     98  F   UNL A   1      40.944  26.396  34.431  1.00  0.00    -0.200 F 
ATOM     99  C   UNL A   1      42.054  27.955  35.808  1.00  0.00     0.200 A 
ATOM    100  F   UNL A   1      43.230  29.512  37.135  1.00  0.00    -0.200 F 
ATOM    101  F   UNL A   1      41.867  27.164  36.875  1.00  0.00    -0.200 F 
ENDBRANCH  68  91
ENDBRANCH  42  43
ENDBRANCH  35  37
ENDBRANCH  34  35
ENDBRANCH  33  34
ENDBRANCH   1  33
TORSDOF 16
ENDMDL
MODEL 2
REMARK VINA RESULT:     -13.0      2.988      8.708
REMARK SMILES Cc1cc(C)c(S(=O)(=O)n2cc([C@@H](C)[C@@H]([NH3+])C(=O)OCCOC(=O)c3ccc(-c4c5nc(c(-c6c(F)c(F)c(F)c(F)c6F)c6ccc([nH]6)c(-c6c(F)c(F)c(F)c(F)c6F)c6nc(c(-c7c(F)c(F)c(F)c(F)c7F)c7ccc4[nH]7)C=C6)C=C5)cc3)c3ccccc32)c(C)c1
REMARK SMILES IDX 20 1 19 2 17 3 18 4 15 5 13 6 14 7 12 8 10 9 11 10 93 11
REMARK SMILES IDX 88 12 92 13 89 14 91 15 90 16 7 17 8 18 9 19 6 20 1 21 2 22
REMARK SMILES IDX 3 23 96 24 4 25 94 26 5 27 95 28 16 29 21 33 22 34 23 35
REMARK SMILES IDX 24 36 25 37 26 38 87 39 27 40 86 41 28 42 29 43 30 44 80 45
REMARK SMILES IDX 31 46 85 47 79 48 81 49 32 50 84 51 78 52 77 53 33 55 65 56
REMARK SMILES IDX 45 57 64 58 46 59 49 60 63 61 82 62 47 63 48 64 62 66 83 67
REMARK SMILES IDX 50 68 34 69 35 70 43 71 36 72 37 73 41 74 44 75 38 76 39 77
REMARK SMILES IDX 42 78 40 79 66 80 67 81 75 82 68 83 69 84 73 85 76 86 70 87
REMARK SMILES IDX 71 88 74 89 72 90 51 91 52 92 60 93 53 94 54 95 58 96 61 97
REMARK SMILES IDX 55 98 56 99 59 100 57 101
REMARK H PARENT 16 30 16 31 16 32 81 54 49 65
REMARK Flexibility Score: inf
ROOT
ATOM      1  C   UNL A   1      32.620  28.999  26.854  1.00  0.00     0.274 C 
ENDROOT
BRANCH   1   2
ATOM      2  O   UNL A   1      31.354  29.010  26.146  1.00  0.00    -0.458 OA
BRANCH   2   3
ATOM      3  C   UNL A   1      31.420  29.303  24.827  1.00  0.00     0.365 C 
ATOM      4  O   UNL A   1      30.611  30.032  24.255  1.00  0.00    -0.245 OA
BRANCH   3   5
ATOM      5  C   UNL A   1      32.562  28.620  24.038  1.00  0.00     0.299 C 
BRANCH   5   6
ATOM      6  C   UNL A   1      32.294  27.441  23.063  1.00  0.00     0.088 C 
ATOM      7  C   UNL A   1      30.923  27.336  22.396  1.00  0.00     0.020 C 
BRANCH   6   8
ATOM      8  C   UNL A   1      32.642  26.117  23.759  1.00  0.00    -0.012 A 
ATOM      9  N   UNL A   1      33.855  24.343  24.332  1.00  0.00    -0.241 N 
ATOM     10  C   UNL A   1      33.821  25.443  23.525  1.00  0.00     0.109 A 
ATOM     11  C   UNL A   1      32.804  24.337  25.219  1.00  0.00     0.064 A 
ATOM     12  C   UNL A   1      31.938  25.348  24.768  1.00  0.00     0.004 A 
ATOM     13  C   UNL A   1      32.482  23.485  26.296  1.00  0.00     0.028 A 
ATOM     14  C   UNL A   1      30.649  25.384  25.345  1.00  0.00     0.010 A 
ATOM     15  C   UNL A   1      31.219  23.597  26.877  1.00  0.00     0.002 A 
ATOM     16  C   UNL A   1      30.300  24.511  26.385  1.00  0.00     0.001 A 
BRANCH   9  17
ATOM     17  S   UNL A   1      34.990  23.109  24.138  1.00  0.00     0.268 S 
ATOM     18  O   UNL A   1      35.828  23.201  25.322  1.00  0.00    -0.201 OA
ATOM     19  O   UNL A   1      35.536  23.313  22.807  1.00  0.00    -0.201 OA
BRANCH  17  20
ATOM     20  C   UNL A   1      34.231  21.481  24.141  1.00  0.00     0.094 A 
ATOM     21  C   UNL A   1      32.588  17.517  24.770  1.00  0.00     0.044 C 
ATOM     22  C   UNL A   1      33.164  18.880  24.533  1.00  0.00    -0.051 A 
ATOM     23  C   UNL A   1      34.464  19.175  24.928  1.00  0.00     0.008 A 
ATOM     24  C   UNL A   1      32.427  19.867  23.890  1.00  0.00     0.008 A 
ATOM     25  C   UNL A   1      35.014  20.457  24.745  1.00  0.00    -0.030 A 
ATOM     26  C   UNL A   1      32.947  21.156  23.637  1.00  0.00    -0.030 A 
ATOM     27  C   UNL A   1      36.449  20.606  25.195  1.00  0.00     0.046 C 
ATOM     28  C   UNL A   1      32.020  22.023  22.836  1.00  0.00     0.046 C 
ENDBRANCH  17  20
ENDBRANCH   9  17
ENDBRANCH   6   8
ENDBRANCH   5   6
BRANCH   5  29
ATOM     29  N   UNL A   1      33.307  29.706  23.318  1.00  0.00    -0.345 N 
ATOM     30  H   UNL A   1      33.611  29.363  22.407  1.00  0.00     0.345 HD
ATOM     31  H   UNL A   1      34.122  29.979  23.867  1.00  0.00     0.345 HD
ATOM     32  H   UNL A   1      32.695  30.512  23.192  1.00  0.00     0.345 HD
ENDBRANCH   5  29
ENDBRANCH   3   5
ENDBRANCH   2   3
ENDBRANCH   1   2
BRANCH   1  33
ATOM     33  C   UNL A   1      33.062  30.419  27.226  1.00  0.00     0.275 C 
BRANCH  33  34
ATOM     34  O   UNL A   1      34.485  30.526  27.066  1.00  0.00    -0.458 OA
BRANCH  34  35
ATOM     35  C   UNL A   1      35.091  31.521  27.756  1.00  0.00     0.338 C 
ATOM     36  O   UNL A   1      34.626  32.609  28.055  1.00  0.00    -0.246 OA
BRANCH  35  37
ATOM     37  C   UNL A   1      36.223  30.880  28.451  1.00  0.00     0.060 A 
ATOM     38  C   UNL A   1      37.314  31.604  28.944  1.00  0.00     0.016 A 
ATOM     39  C   UNL A   1      36.298  29.500  28.308  1.00  0.00     0.016 A 
ATOM     40  C   UNL A   1      38.536  30.958  29.130  1.00  0.00     0.010 A 
ATOM     41  C   UNL A   1      37.525  28.880  28.443  1.00  0.00     0.010 A 
ATOM     42  C   UNL A   1      38.659  29.610  28.789  1.00  0.00    -0.014 A 
BRANCH  42  43
ATOM     43  C   UNL A   1      39.909  28.882  28.974  1.00  0.00     0.031 A 
ATOM     44  C   UNL A   1      40.230  28.623  30.396  1.00  0.00     0.074 A 
ATOM     45  C   UNL A   1      40.670  28.293  28.029  1.00  0.00     0.049 A 
ATOM     46  N   UNL A   1      41.126  29.225  31.102  1.00  0.00    -0.248 NA
ATOM     47  C   UNL A   1      39.389  27.688  31.154  1.00  0.00     0.031 C 
ATOM     48  C   UNL A   1      40.418  28.128  26.604  1.00  0.00     0.029 A 
ATOM     49  N   UNL A   1      41.856  27.636  28.199  1.00  0.00    -0.354 N 
ATOM     50  C   UNL A   1      41.065  28.643  32.361  1.00  0.00     0.074 A 
ATOM     51  C   UNL A   1      39.866  27.849  32.388  1.00  0.00     0.031 C 
ATOM     52  C   UNL A   1      41.306  27.251  26.074  1.00  0.00     0.029 A 
ATOM     53  C   UNL A   1      42.301  26.936  27.085  1.00  0.00     0.049 A 
ATOM     54  H   UNL A   1      42.356  27.657  29.047  1.00  0.00     0.167 HD
ATOM     55  C   UNL A   1      42.122  28.683  33.212  1.00  0.00     0.037 A 
ATOM     56  C   UNL A   1      43.419  26.170  27.009  1.00  0.00     0.037 A 
ATOM     57  C   UNL A   1      43.106  29.647  32.789  1.00  0.00     0.049 A 
ATOM     58  C   UNL A   1      44.333  26.627  28.084  1.00  0.00     0.074 A 
ATOM     59  C   UNL A   1      43.092  31.012  32.569  1.00  0.00     0.029 A 
ATOM     60  N   UNL A   1      44.230  29.184  32.150  1.00  0.00    -0.354 N 
ATOM     61  N   UNL A   1      44.933  27.783  28.093  1.00  0.00    -0.248 NA
ATOM     62  C   UNL A   1      44.282  25.937  29.363  1.00  0.00     0.031 C 
ATOM     63  C   UNL A   1      43.923  31.215  31.428  1.00  0.00     0.029 A 
ATOM     64  C   UNL A   1      44.425  29.971  31.045  1.00  0.00     0.049 A 
ATOM     65  H   UNL A   1      44.790  28.427  32.435  1.00  0.00     0.167 HD
ATOM     66  C   UNL A   1      44.945  28.159  29.426  1.00  0.00     0.074 A 
ATOM     67  C   UNL A   1      44.642  26.941  30.167  1.00  0.00     0.031 C 
ATOM     68  C   UNL A   1      44.924  29.476  29.782  1.00  0.00     0.037 A 
BRANCH  55  69
ATOM     69  C   UNL A   1      42.406  27.630  34.245  1.00  0.00     0.064 A 
ATOM     70  C   UNL A   1      43.022  26.428  33.852  1.00  0.00     0.173 A 
ATOM     71  C   UNL A   1      41.875  27.646  35.553  1.00  0.00     0.173 A 
ATOM     72  F   UNL A   1      43.523  26.292  32.614  1.00  0.00    -0.203 F 
ATOM     73  C   UNL A   1      43.067  25.315  34.693  1.00  0.00     0.198 A 
ATOM     74  C   UNL A   1      41.979  26.556  36.412  1.00  0.00     0.198 A 
ATOM     75  F   UNL A   1      41.143  28.669  36.013  1.00  0.00    -0.203 F 
ATOM     76  F   UNL A   1      43.563  24.158  34.236  1.00  0.00    -0.200 F 
ATOM     77  C   UNL A   1      42.550  25.381  35.974  1.00  0.00     0.200 A 
ATOM     78  F   UNL A   1      41.453  26.634  37.644  1.00  0.00    -0.200 F 
ATOM     79  F   UNL A   1      42.554  24.301  36.767  1.00  0.00    -0.200 F 
ENDBRANCH  55  69
BRANCH  56  80
ATOM     80  C   UNL A   1      43.683  24.925  26.249  1.00  0.00     0.064 A 
ATOM     81  C   UNL A   1      44.789  24.831  25.382  1.00  0.00     0.173 A 
ATOM     82  C   UNL A   1      43.062  23.715  26.604  1.00  0.00     0.173 A 
ATOM     83  F   UNL A   1      45.458  25.935  25.017  1.00  0.00    -0.203 F 
ATOM     84  C   UNL A   1      45.279  23.596  24.946  1.00  0.00     0.198 A 
ATOM     85  C   UNL A   1      43.551  22.482  26.164  1.00  0.00     0.198 A 
ATOM     86  F   UNL A   1      42.037  23.700  27.467  1.00  0.00    -0.203 F 
ATOM     87  F   UNL A   1      46.385  23.545  24.190  1.00  0.00    -0.200 F 
ATOM     88  C   UNL A   1      44.671  22.422  25.353  1.00  0.00     0.200 A 
ATOM     89  F   UNL A   1      42.976  21.348  26.589  1.00  0.00    -0.200 F 
ATOM     90  F   UNL A   1      45.188  21.236  25.001  1.00  0.00    -0.200 F 
ENDBRANCH  56  80
BRANCH  68  91
ATOM     91  C   UNL A   1      45.195  30.497  28.707  1.00  0.00     0.064 A 
ATOM     92  C   UNL A   1      44.218  30.995  27.827  1.00  0.00     0.173 A 
ATOM     93  C   UNL A   1      46.463  31.092  28.662  1.00  0.00     0.173 A 
ATOM     94  F   UNL A   1      42.957  30.550  27.870  1.00  0.00    -0.203 F 
ATOM     95  C   UNL A   1      44.512  32.013  26.920  1.00  0.00     0.198 A 
ATOM     96  C   UNL A   1      46.743  32.134  27.782  1.00  0.00     0.198 A 
ATOM     97  F   UNL A   1      47.423  30.693  29.511  1.00  0.00    -0.203 F 
ATOM     98  F   UNL A   1      43.565  32.463  26.084  1.00  0.00    -0.200 F 
ATOM     99  C   UNL A   1      45.772  32.587  26.905  1.00  0.00     0.200 A 
ATOM    100  F   UNL A   1      47.950  32.719  27.805  1.00  0.00    -0.200 F 
ATOM    101  F   UNL A   1      46.042  33.597  26.065  1.00  0.00    -0.200 F 
ENDBRANCH  68  91
ENDBRANCH  42  43
ENDBRANCH  35  37
ENDBRANCH  34  35
ENDBRANCH  33  34
ENDBRANCH   1  33
TORSDOF 16
ENDMDL
MODEL 3
REMARK VINA RESULT:     -12.9      1.513      2.489
REMARK SMILES Cc1cc(C)c(S(=O)(=O)n2cc([C@@H](C)[C@@H]([NH3+])C(=O)OCCOC(=O)c3ccc(-c4c5nc(c(-c6c(F)c(F)c(F)c(F)c6F)c6ccc([nH]6)c(-c6c(F)c(F)c(F)c(F)c6F)c6nc(c(-c7c(F)c(F)c(F)c(F)c7F)c7ccc4[nH]7)C=C6)C=C5)cc3)c3ccccc32)c(C)c1
REMARK SMILES IDX 20 1 19 2 17 3 18 4 15 5 13 6 14 7 12 8 10 9 11 10 93 11
REMARK SMILES IDX 88 12 92 13 89 14 91 15 90 16 7 17 8 18 9 19 6 20 1 21 2 22
REMARK SMILES IDX 3 23 96 24 4 25 94 26 5 27 95 28 16 29 21 33 22 34 23 35
REMARK SMILES IDX 24 36 25 37 26 38 87 39 27 40 86 41 28 42 29 43 30 44 80 45
REMARK SMILES IDX 31 46 85 47 79 48 81 49 32 50 84 51 78 52 77 53 33 55 65 56
REMARK SMILES IDX 45 57 64 58 46 59 49 60 63 61 82 62 47 63 48 64 62 66 83 67
REMARK SMILES IDX 50 68 34 69 35 70 43 71 36 72 37 73 41 74 44 75 38 76 39 77
REMARK SMILES IDX 42 78 40 79 66 80 67 81 75 82 68 83 69 84 73 85 76 86 70 87
REMARK SMILES IDX 71 88 74 89 72 90 51 91 52 92 60 93 53 94 54 95 58 96 61 97
REMARK SMILES IDX 55 98 56 99 59 100 57 101
REMARK H PARENT 16 30 16 31 16 32 81 54 49 65
REMARK Flexibility Score: inf
ROOT
ATOM      1  C   UNL A   1      37.811  23.261  25.754  1.00  0.00     0.274 C 
ENDROOT
BRANCH   1   2
ATOM      2  O   UNL A   1      36.421  22.916  25.983  1.00  0.00    -0.458 OA
BRANCH   2   3
ATOM      3  C   UNL A   1      35.855  22.107  25.058  1.00  0.00     0.365 C 
ATOM      4  O   UNL A   1      36.133  22.152  23.860  1.00  0.00    -0.245 OA
BRANCH   3   5
ATOM      5  C   UNL A   1      34.775  21.131  25.581  1.00  0.00     0.299 C 
BRANCH   5   6
ATOM      6  C   UNL A   1      33.260  21.386  25.352  1.00  0.00     0.088 C 
ATOM      7  C   UNL A   1      32.500  20.481  24.384  1.00  0.00     0.020 C 
BRANCH   6   8
ATOM      8  C   UNL A   1      33.044  22.859  24.973  1.00  0.00    -0.012 A 
ATOM      9  N   UNL A   1      32.746  25.044  25.267  1.00  0.00    -0.241 N 
ATOM     10  C   UNL A   1      32.848  23.847  25.914  1.00  0.00     0.109 A 
ATOM     11  C   UNL A   1      33.025  24.916  23.926  1.00  0.00     0.064 A 
ATOM     12  C   UNL A   1      33.048  23.531  23.687  1.00  0.00     0.004 A 
ATOM     13  C   UNL A   1      33.151  25.867  22.893  1.00  0.00     0.028 A 
ATOM     14  C   UNL A   1      33.053  23.119  22.336  1.00  0.00     0.010 A 
ATOM     15  C   UNL A   1      33.215  25.413  21.576  1.00  0.00     0.002 A 
ATOM     16  C   UNL A   1      33.132  24.058  21.297  1.00  0.00     0.001 A 
BRANCH   9  17
ATOM     17  S   UNL A   1      32.216  26.450  26.035  1.00  0.00     0.268 S 
ATOM     18  O   UNL A   1      33.427  27.223  26.248  1.00  0.00    -0.201 OA
ATOM     19  O   UNL A   1      31.412  25.982  27.152  1.00  0.00    -0.201 OA
BRANCH  17  20
ATOM     20  C   UNL A   1      31.130  27.426  24.990  1.00  0.00     0.094 A 
ATOM     21  C   UNL A   1      29.048  30.095  22.278  1.00  0.00     0.044 C 
ATOM     22  C   UNL A   1      29.751  29.176  23.231  1.00  0.00    -0.051 A 
ATOM     23  C   UNL A   1      30.673  29.677  24.143  1.00  0.00     0.008 A 
ATOM     24  C   UNL A   1      29.478  27.814  23.244  1.00  0.00     0.008 A 
ATOM     25  C   UNL A   1      31.369  28.829  25.024  1.00  0.00    -0.030 A 
ATOM     26  C   UNL A   1      30.113  26.925  24.141  1.00  0.00    -0.030 A 
ATOM     27  C   UNL A   1      32.309  29.532  25.977  1.00  0.00     0.046 C 
ATOM     28  C   UNL A   1      29.587  25.521  24.054  1.00  0.00     0.046 C 
ENDBRANCH  17  20
ENDBRANCH   9  17
ENDBRANCH   6   8
ENDBRANCH   5   6
BRANCH   5  29
ATOM     29  N   UNL A   1      35.135  19.766  25.075  1.00  0.00    -0.345 N 
ATOM     30  H   UNL A   1      34.443  19.463  24.391  1.00  0.00     0.345 HD
ATOM     31  H   UNL A   1      35.153  19.109  25.855  1.00  0.00     0.345 HD
ATOM     32  H   UNL A   1      36.056  19.798  24.637  1.00  0.00     0.345 HD
ENDBRANCH   5  29
ENDBRANCH   3   5
ENDBRANCH   2   3
ENDBRANCH   1   2
BRANCH   1  33
ATOM     33  C   UNL A   1      38.741  22.097  26.118  1.00  0.00     0.275 C 
BRANCH  33  34
ATOM     34  O   UNL A   1      39.721  22.556  27.061  1.00  0.00    -0.458 OA
BRANCH  34  35
ATOM     35  C   UNL A   1      40.971  22.750  26.578  1.00  0.00     0.338 C 
ATOM     36  O   UNL A   1      41.536  22.115  25.702  1.00  0.00    -0.246 OA
BRANCH  35  37
ATOM     37  C   UNL A   1      41.337  24.120  26.982  1.00  0.00     0.060 A 
ATOM     38  C   UNL A   1      41.944  24.409  28.210  1.00  0.00     0.016 A 
ATOM     39  C   UNL A   1      40.763  25.132  26.223  1.00  0.00     0.016 A 
ATOM     40  C   UNL A   1      41.820  25.689  28.749  1.00  0.00     0.010 A 
ATOM     41  C   UNL A   1      40.598  26.381  26.790  1.00  0.00     0.010 A 
ATOM     42  C   UNL A   1      41.065  26.649  28.074  1.00  0.00    -0.014 A 
BRANCH  42  43
ATOM     43  C   UNL A   1      40.912  28.006  28.587  1.00  0.00     0.031 A 
ATOM     44  C   UNL A   1      41.956  28.935  28.101  1.00  0.00     0.074 A 
ATOM     45  C   UNL A   1      39.870  28.517  29.273  1.00  0.00     0.049 A 
ATOM     46  N   UNL A   1      42.955  29.391  28.781  1.00  0.00    -0.248 NA
ATOM     47  C   UNL A   1      41.974  29.304  26.680  1.00  0.00     0.031 C 
ATOM     48  C   UNL A   1      38.588  27.910  29.603  1.00  0.00     0.029 A 
ATOM     49  N   UNL A   1      39.740  29.780  29.778  1.00  0.00    -0.354 N 
ATOM     50  C   UNL A   1      43.649  30.223  27.914  1.00  0.00     0.074 A 
ATOM     51  C   UNL A   1      43.117  29.984  26.599  1.00  0.00     0.031 C 
ATOM     52  C   UNL A   1      37.733  28.854  30.069  1.00  0.00     0.029 A 
ATOM     53  C   UNL A   1      38.469  30.095  30.242  1.00  0.00     0.049 A 
ATOM     54  H   UNL A   1      40.489  30.418  29.810  1.00  0.00     0.167 HD
ATOM     55  C   UNL A   1      44.461  31.208  28.378  1.00  0.00     0.037 A 
ATOM     56  C   UNL A   1      38.069  31.290  30.746  1.00  0.00     0.037 A 
ATOM     57  C   UNL A   1      44.747  31.043  29.779  1.00  0.00     0.049 A 
ATOM     58  C   UNL A   1      39.288  31.996  31.211  1.00  0.00     0.074 A 
ATOM     59  C   UNL A   1      45.341  30.049  30.536  1.00  0.00     0.029 A 
ATOM     60  N   UNL A   1      44.059  31.823  30.675  1.00  0.00    -0.354 N 
ATOM     61  N   UNL A   1      40.003  31.624  32.234  1.00  0.00    -0.248 NA
ATOM     62  C   UNL A   1      39.940  32.914  30.291  1.00  0.00     0.031 C 
ATOM     63  C   UNL A   1      44.594  30.007  31.750  1.00  0.00     0.029 A 
ATOM     64  C   UNL A   1      43.618  31.002  31.680  1.00  0.00     0.049 A 
ATOM     65  H   UNL A   1      43.911  32.794  30.607  1.00  0.00     0.167 HD
ATOM     66  C   UNL A   1      41.309  31.902  31.865  1.00  0.00     0.074 A 
ATOM     67  C   UNL A   1      41.198  32.797  30.720  1.00  0.00     0.031 C 
ATOM     68  C   UNL A   1      42.346  31.159  32.349  1.00  0.00     0.037 A 
BRANCH  55  69
ATOM     69  C   UNL A   1      44.734  32.486  27.636  1.00  0.00     0.064 A 
ATOM     70  C   UNL A   1      45.935  32.622  26.917  1.00  0.00     0.173 A 
ATOM     71  C   UNL A   1      43.984  33.671  27.806  1.00  0.00     0.173 A 
ATOM     72  F   UNL A   1      46.742  31.566  26.734  1.00  0.00    -0.203 F 
ATOM     73  C   UNL A   1      46.370  33.859  26.438  1.00  0.00     0.198 A 
ATOM     74  C   UNL A   1      44.389  34.891  27.271  1.00  0.00     0.198 A 
ATOM     75  F   UNL A   1      42.894  33.720  28.581  1.00  0.00    -0.203 F 
ATOM     76  F   UNL A   1      47.572  33.960  25.857  1.00  0.00    -0.200 F 
ATOM     77  C   UNL A   1      45.595  34.991  26.611  1.00  0.00     0.200 A 
ATOM     78  F   UNL A   1      43.632  35.981  27.467  1.00  0.00    -0.200 F 
ATOM     79  F   UNL A   1      46.030  36.186  26.190  1.00  0.00    -0.200 F 
ENDBRANCH  55  69
BRANCH  56  80
ATOM     80  C   UNL A   1      36.763  31.986  30.654  1.00  0.00     0.064 A 
ATOM     81  C   UNL A   1      35.905  32.060  31.768  1.00  0.00     0.173 A 
ATOM     82  C   UNL A   1      36.483  32.862  29.590  1.00  0.00     0.173 A 
ATOM     83  F   UNL A   1      36.119  31.280  32.838  1.00  0.00    -0.203 F 
ATOM     84  C   UNL A   1      34.869  32.995  31.837  1.00  0.00     0.198 A 
ATOM     85  C   UNL A   1      35.444  33.794  29.660  1.00  0.00     0.198 A 
ATOM     86  F   UNL A   1      37.277  32.903  28.511  1.00  0.00    -0.203 F 
ATOM     87  F   UNL A   1      34.127  33.090  32.951  1.00  0.00    -0.200 F 
ATOM     88  C   UNL A   1      34.651  33.874  30.792  1.00  0.00     0.200 A 
ATOM     89  F   UNL A   1      35.261  34.662  28.656  1.00  0.00    -0.200 F 
ATOM     90  F   UNL A   1      33.709  34.823  30.891  1.00  0.00    -0.200 F 
ENDBRANCH  56  80
BRANCH  68  91
ATOM     91  C   UNL A   1      42.069  30.243  33.513  1.00  0.00     0.064 A 
ATOM     92  C   UNL A   1      41.671  28.901  33.385  1.00  0.00     0.173 A 
ATOM     93  C   UNL A   1      42.354  30.708  34.805  1.00  0.00     0.173 A 
ATOM     94  F   UNL A   1      41.472  28.350  32.182  1.00  0.00    -0.203 F 
ATOM     95  C   UNL A   1      41.527  28.078  34.502  1.00  0.00     0.198 A 
ATOM     96  C   UNL A   1      42.247  29.874  35.914  1.00  0.00     0.198 A 
ATOM     97  F   UNL A   1      42.786  31.965  34.986  1.00  0.00    -0.203 F 
ATOM     98  F   UNL A   1      41.136  26.804  34.353  1.00  0.00    -0.200 F 
ATOM     99  C   UNL A   1      41.824  28.563  35.764  1.00  0.00     0.200 A 
ATOM    100  F   UNL A   1      42.581  30.334  37.128  1.00  0.00    -0.200 F 
ATOM    101  F   UNL A   1      41.731  27.759  36.833  1.00  0.00    -0.200 F 
ENDBRANCH  68  91
ENDBRANCH  42  43
ENDBRANCH  35  37
ENDBRANCH  34  35
ENDBRANCH  33  34
ENDBRANCH   1  33
TORSDOF 16
ENDMDL
