MODEL 1
REMARK VINA RESULT:     -12.7      0.000      0.000
REMARK SMILES C[C@@H](C(=O)OCCOC(=O)c1ccc(-c2c3nc(c(-c4c(F)c(F)c(F)c(F)c4F)c4ccc([nH]4)c(-c4c(F)c(F)c(F)c(F)c4F)c4nc(c(-c5c(F)c(F)c(F)c(F)c5F)c5ccc2[nH]5)C=C4)C=C3)cc1)c1ccc(-c2ccc3[nH]ccc3c2)cc1
REMARK SMILES IDX 6 1 5 2 3 3 4 4 2 5 1 6 74 7 75 8 88 9 76 10 87 11 77 12
REMARK SMILES IDX 78 13 79 14 86 15 80 16 85 17 81 18 84 19 82 20 83 21 7 23
REMARK SMILES IDX 8 24 9 25 10 26 11 27 12 28 73 29 13 30 72 31 14 32 15 33
REMARK SMILES IDX 16 34 66 35 17 36 71 37 65 38 67 39 18 40 70 41 64 42 63 43
REMARK SMILES IDX 19 45 51 46 31 47 50 48 32 49 35 50 49 51 68 52 33 53 34 54
REMARK SMILES IDX 48 56 69 57 36 58 20 59 21 60 29 61 22 62 23 63 27 64 30 65
REMARK SMILES IDX 24 66 25 67 28 68 26 69 52 70 53 71 61 72 54 73 55 74 59 75
REMARK SMILES IDX 62 76 56 77 57 78 60 79 58 80 37 81 38 82 46 83 39 84 40 85
REMARK SMILES IDX 44 86 47 87 41 88 42 89 45 90 43 91
REMARK H PARENT 82 22 67 44 35 55
REMARK Flexibility Score: inf
ROOT
ATOM      1  C   UNL A   1      36.278  19.833  24.945  1.00  0.00     0.274 C 
ENDROOT
BRANCH   1   2
ATOM      2  O   UNL A   1      35.944  21.204  25.246  1.00  0.00    -0.462 OA
BRANCH   2   3
ATOM      3  C   UNL A   1      34.826  21.718  24.659  1.00  0.00     0.313 C 
ATOM      4  O   UNL A   1      33.689  21.333  24.914  1.00  0.00    -0.252 OA
BRANCH   3   5
ATOM      5  C   UNL A   1      35.158  22.780  23.592  1.00  0.00     0.126 C 
ATOM      6  C   UNL A   1      36.672  22.924  23.376  1.00  0.00     0.025 C 
BRANCH   5   7
ATOM      7  C   UNL A   1      34.438  24.116  23.833  1.00  0.00    -0.034 A 
ATOM      8  C   UNL A   1      33.571  24.696  22.893  1.00  0.00     0.005 A 
ATOM      9  C   UNL A   1      34.629  24.807  25.044  1.00  0.00     0.005 A 
ATOM     10  C   UNL A   1      32.917  25.908  23.158  1.00  0.00     0.009 A 
ATOM     11  C   UNL A   1      33.986  26.026  25.302  1.00  0.00     0.009 A 
ATOM     12  C   UNL A   1      33.111  26.590  24.365  1.00  0.00    -0.018 A 
BRANCH  12  13
ATOM     13  C   UNL A   1      32.412  27.853  24.626  1.00  0.00    -0.018 A 
ATOM     14  C   UNL A   1      31.378  28.287  23.784  1.00  0.00     0.011 A 
ATOM     15  C   UNL A   1      32.799  28.676  25.697  1.00  0.00     0.019 A 
ATOM     16  C   UNL A   1      30.719  29.511  23.981  1.00  0.00     0.027 A 
ATOM     17  C   UNL A   1      32.166  29.916  25.906  1.00  0.00    -0.000 A 
ATOM     18  C   UNL A   1      31.138  30.305  25.052  1.00  0.00     0.045 A 
ATOM     19  C   UNL A   1      32.345  30.968  26.838  1.00  0.00     0.028 A 
ATOM     20  N   UNL A   1      30.699  31.539  25.478  1.00  0.00    -0.361 N 
ATOM     21  C   UNL A   1      31.429  31.952  26.558  1.00  0.00     0.083 A 
ATOM     22  H   UNL A   1      29.966  32.049  25.065  1.00  0.00     0.166 HD
ENDBRANCH  12  13
ENDBRANCH   5   7
ENDBRANCH   3   5
ENDBRANCH   2   3
ENDBRANCH   1   2
BRANCH   1  23
ATOM     23  C   UNL A   1      37.790  19.625  25.014  1.00  0.00     0.275 C 
BRANCH  23  24
ATOM     24  O   UNL A   1      38.420  20.807  25.536  1.00  0.00    -0.458 OA
BRANCH  24  25
ATOM     25  C   UNL A   1      39.611  20.627  26.144  1.00  0.00     0.338 C 
ATOM     26  O   UNL A   1      40.298  19.616  26.173  1.00  0.00    -0.246 OA
BRANCH  25  27
ATOM     27  C   UNL A   1      40.025  21.897  26.751  1.00  0.00     0.060 A 
ATOM     28  C   UNL A   1      39.459  23.072  26.269  1.00  0.00     0.016 A 
ATOM     29  C   UNL A   1      41.033  21.944  27.714  1.00  0.00     0.016 A 
ATOM     30  C   UNL A   1      39.939  24.304  26.699  1.00  0.00     0.010 A 
ATOM     31  C   UNL A   1      41.473  23.187  28.191  1.00  0.00     0.010 A 
ATOM     32  C   UNL A   1      40.953  24.382  27.665  1.00  0.00    -0.014 A 
BRANCH  32  33
ATOM     33  C   UNL A   1      41.517  25.713  28.035  1.00  0.00     0.031 A 
ATOM     34  C   UNL A   1      42.863  26.129  27.494  1.00  0.00     0.074 A 
ATOM     35  C   UNL A   1      40.774  26.613  28.711  1.00  0.00     0.049 A 
ATOM     36  N   UNL A   1      43.551  27.223  27.719  1.00  0.00    -0.248 NA
ATOM     37  C   UNL A   1      43.514  25.201  26.557  1.00  0.00     0.031 C 
ATOM     38  C   UNL A   1      39.385  26.420  29.125  1.00  0.00     0.029 A 
ATOM     39  N   UNL A   1      41.050  27.906  29.084  1.00  0.00    -0.354 N 
ATOM     40  C   UNL A   1      44.723  27.095  26.985  1.00  0.00     0.074 A 
ATOM     41  C   UNL A   1      44.664  25.813  26.315  1.00  0.00     0.031 C 
ATOM     42  C   UNL A   1      38.892  27.590  29.561  1.00  0.00     0.029 A 
ATOM     43  C   UNL A   1      39.954  28.592  29.550  1.00  0.00     0.049 A 
ATOM     44  H   UNL A   1      41.949  28.306  29.022  1.00  0.00     0.167 HD
ATOM     45  C   UNL A   1      45.752  27.970  26.864  1.00  0.00     0.037 A 
ATOM     46  C   UNL A   1      39.817  29.882  29.915  1.00  0.00     0.037 A 
ATOM     47  C   UNL A   1      45.776  29.293  27.429  1.00  0.00     0.049 A 
ATOM     48  C   UNL A   1      41.011  30.801  29.871  1.00  0.00     0.074 A 
ATOM     49  C   UNL A   1      46.776  30.248  27.353  1.00  0.00     0.029 A 
ATOM     50  N   UNL A   1      44.734  29.867  28.139  1.00  0.00    -0.354 N 
ATOM     51  N   UNL A   1      42.207  30.589  29.381  1.00  0.00    -0.248 NA
ATOM     52  C   UNL A   1      40.836  32.139  30.458  1.00  0.00     0.031 C 
ATOM     53  C   UNL A   1      46.346  31.394  28.030  1.00  0.00     0.029 A 
ATOM     54  C   UNL A   1      45.059  31.169  28.491  1.00  0.00     0.049 A 
ATOM     55  H   UNL A   1      43.888  29.417  28.362  1.00  0.00     0.167 HD
ATOM     56  C   UNL A   1      42.909  31.774  29.555  1.00  0.00     0.074 A 
ATOM     57  C   UNL A   1      42.012  32.700  30.212  1.00  0.00     0.031 C 
ATOM     58  C   UNL A   1      44.179  32.070  29.187  1.00  0.00     0.037 A 
BRANCH  45  59
ATOM     59  C   UNL A   1      46.971  27.508  26.123  1.00  0.00     0.064 A 
ATOM     60  C   UNL A   1      47.105  27.646  24.734  1.00  0.00     0.173 A 
ATOM     61  C   UNL A   1      48.048  26.958  26.836  1.00  0.00     0.173 A 
ATOM     62  F   UNL A   1      46.099  28.155  24.006  1.00  0.00    -0.203 F 
ATOM     63  C   UNL A   1      48.264  27.229  24.084  1.00  0.00     0.198 A 
ATOM     64  C   UNL A   1      49.214  26.566  26.186  1.00  0.00     0.198 A 
ATOM     65  F   UNL A   1      47.972  26.813  28.167  1.00  0.00    -0.203 F 
ATOM     66  F   UNL A   1      48.357  27.334  22.751  1.00  0.00    -0.200 F 
ATOM     67  C   UNL A   1      49.319  26.696  24.810  1.00  0.00     0.200 A 
ATOM     68  F   UNL A   1      50.236  26.064  26.893  1.00  0.00    -0.200 F 
ATOM     69  F   UNL A   1      50.436  26.303  24.184  1.00  0.00    -0.200 F 
ENDBRANCH  45  59
BRANCH  46  70
ATOM     70  C   UNL A   1      38.490  30.406  30.340  1.00  0.00     0.064 A 
ATOM     71  C   UNL A   1      37.546  30.829  29.391  1.00  0.00     0.173 A 
ATOM     72  C   UNL A   1      38.149  30.531  31.695  1.00  0.00     0.173 A 
ATOM     73  F   UNL A   1      37.837  30.767  28.082  1.00  0.00    -0.203 F 
ATOM     74  C   UNL A   1      36.321  31.365  29.781  1.00  0.00     0.198 A 
ATOM     75  C   UNL A   1      36.909  31.036  32.082  1.00  0.00     0.198 A 
ATOM     76  F   UNL A   1      39.018  30.156  32.644  1.00  0.00    -0.203 F 
ATOM     77  F   UNL A   1      35.461  31.811  28.855  1.00  0.00    -0.200 F 
ATOM     78  C   UNL A   1      36.000  31.461  31.126  1.00  0.00     0.200 A 
ATOM     79  F   UNL A   1      36.602  31.120  33.383  1.00  0.00    -0.200 F 
ATOM     80  F   UNL A   1      34.822  31.979  31.502  1.00  0.00    -0.200 F 
ENDBRANCH  46  70
BRANCH  58  81
ATOM     81  C   UNL A   1      44.686  33.449  29.498  1.00  0.00     0.064 A 
ATOM     82  C   UNL A   1      44.522  34.508  28.593  1.00  0.00     0.173 A 
ATOM     83  C   UNL A   1      45.303  33.723  30.727  1.00  0.00     0.173 A 
ATOM     84  F   UNL A   1      43.956  34.291  27.396  1.00  0.00    -0.203 F 
ATOM     85  C   UNL A   1      44.972  35.788  28.901  1.00  0.00     0.198 A 
ATOM     86  C   UNL A   1      45.727  35.012  31.044  1.00  0.00     0.198 A 
ATOM     87  F   UNL A   1      45.487  32.745  31.627  1.00  0.00    -0.203 F 
ATOM     88  F   UNL A   1      44.842  36.776  28.004  1.00  0.00    -0.200 F 
ATOM     89  C   UNL A   1      45.567  36.042  30.129  1.00  0.00     0.200 A 
ATOM     90  F   UNL A   1      46.291  35.257  32.234  1.00  0.00    -0.200 F 
ATOM     91  F   UNL A   1      45.990  37.277  30.428  1.00  0.00    -0.200 F 
ENDBRANCH  58  81
ENDBRANCH  32  33
ENDBRANCH  25  27
ENDBRANCH  24  25
ENDBRANCH  23  24
ENDBRANCH   1  23
TORSDOF 13
ENDMDL
MODEL 2
REMARK VINA RESULT:     -12.7      4.676     10.033
REMARK SMILES C[C@@H](C(=O)OCCOC(=O)c1ccc(-c2c3nc(c(-c4c(F)c(F)c(F)c(F)c4F)c4ccc([nH]4)c(-c4c(F)c(F)c(F)c(F)c4F)c4nc(c(-c5c(F)c(F)c(F)c(F)c5F)c5ccc2[nH]5)C=C4)C=C3)cc1)c1ccc(-c2ccc3[nH]ccc3c2)cc1
REMARK SMILES IDX 6 1 5 2 3 3 4 4 2 5 1 6 74 7 75 8 88 9 76 10 87 11 77 12
REMARK SMILES IDX 78 13 79 14 86 15 80 16 85 17 81 18 84 19 82 20 83 21 7 23
REMARK SMILES IDX 8 24 9 25 10 26 11 27 12 28 73 29 13 30 72 31 14 32 15 33
REMARK SMILES IDX 16 34 66 35 17 36 71 37 65 38 67 39 18 40 70 41 64 42 63 43
REMARK SMILES IDX 19 45 51 46 31 47 50 48 32 49 35 50 49 51 68 52 33 53 34 54
REMARK SMILES IDX 48 56 69 57 36 58 20 59 21 60 29 61 22 62 23 63 27 64 30 65
REMARK SMILES IDX 24 66 25 67 28 68 26 69 52 70 53 71 61 72 54 73 55 74 59 75
REMARK SMILES IDX 62 76 56 77 57 78 60 79 58 80 37 81 38 82 46 83 39 84 40 85
REMARK SMILES IDX 44 86 47 87 41 88 42 89 45 90 43 91
REMARK H PARENT 82 22 67 44 35 55
REMARK Flexibility Score: inf
ROOT
ATOM      1  C   UNL A   1      31.290  30.580  25.324  1.00  0.00     0.274 C 
ENDROOT
BRANCH   1   2
ATOM      2  O   UNL A   1      32.445  29.718  25.280  1.00  0.00    -0.462 OA
BRANCH   2   3
ATOM      3  C   UNL A   1      32.327  28.549  24.589  1.00  0.00     0.313 C 
ATOM      4  O   UNL A   1      31.268  27.943  24.458  1.00  0.00    -0.252 OA
BRANCH   3   5
ATOM      5  C   UNL A   1      33.682  28.041  24.058  1.00  0.00     0.126 C 
ATOM      6  C   UNL A   1      33.972  28.553  22.639  1.00  0.00     0.025 C 
BRANCH   5   7
ATOM      7  C   UNL A   1      33.855  26.522  24.213  1.00  0.00    -0.034 A 
ATOM      8  C   UNL A   1      34.210  25.914  25.428  1.00  0.00     0.005 A 
ATOM      9  C   UNL A   1      33.644  25.677  23.108  1.00  0.00     0.005 A 
ATOM     10  C   UNL A   1      34.337  24.521  25.533  1.00  0.00     0.009 A 
ATOM     11  C   UNL A   1      33.786  24.285  23.211  1.00  0.00     0.009 A 
ATOM     12  C   UNL A   1      34.126  23.686  24.430  1.00  0.00    -0.018 A 
BRANCH  12  13
ATOM     13  C   UNL A   1      34.259  22.231  24.563  1.00  0.00    -0.018 A 
ATOM     14  C   UNL A   1      35.474  21.655  24.960  1.00  0.00     0.011 A 
ATOM     15  C   UNL A   1      33.183  21.383  24.248  1.00  0.00     0.019 A 
ATOM     16  C   UNL A   1      35.646  20.265  25.054  1.00  0.00     0.027 A 
ATOM     17  C   UNL A   1      33.334  19.985  24.319  1.00  0.00    -0.000 A 
ATOM     18  C   UNL A   1      34.555  19.456  24.725  1.00  0.00     0.045 A 
ATOM     19  C   UNL A   1      32.485  18.888  24.034  1.00  0.00     0.028 A 
ATOM     20  N   UNL A   1      34.430  18.084  24.709  1.00  0.00    -0.361 N 
ATOM     21  C   UNL A   1      33.179  17.729  24.285  1.00  0.00     0.083 A 
ATOM     22  H   UNL A   1      35.139  17.451  24.965  1.00  0.00     0.166 HD
ENDBRANCH  12  13
ENDBRANCH   5   7
ENDBRANCH   3   5
ENDBRANCH   2   3
ENDBRANCH   1   2
BRANCH   1  23
ATOM     23  C   UNL A   1      31.394  31.554  26.496  1.00  0.00     0.275 C 
BRANCH  23  24
ATOM     24  O   UNL A   1      32.625  31.331  27.204  1.00  0.00    -0.458 OA
BRANCH  24  25
ATOM     25  C   UNL A   1      33.336  32.433  27.522  1.00  0.00     0.338 C 
ATOM     26  O   UNL A   1      32.961  33.597  27.529  1.00  0.00    -0.246 OA
BRANCH  25  27
ATOM     27  C   UNL A   1      34.680  32.020  27.943  1.00  0.00     0.060 A 
ATOM     28  C   UNL A   1      34.928  30.663  28.114  1.00  0.00     0.016 A 
ATOM     29  C   UNL A   1      35.658  32.962  28.265  1.00  0.00     0.016 A 
ATOM     30  C   UNL A   1      36.131  30.239  28.666  1.00  0.00     0.010 A 
ATOM     31  C   UNL A   1      36.894  32.527  28.764  1.00  0.00     0.010 A 
ATOM     32  C   UNL A   1      37.133  31.162  29.001  1.00  0.00    -0.014 A 
BRANCH  32  33
ATOM     33  C   UNL A   1      38.373  30.689  29.682  1.00  0.00     0.031 A 
ATOM     34  C   UNL A   1      38.598  31.021  31.137  1.00  0.00     0.074 A 
ATOM     35  C   UNL A   1      39.215  29.836  29.065  1.00  0.00     0.049 A 
ATOM     36  N   UNL A   1      39.621  30.740  31.908  1.00  0.00    -0.248 NA
ATOM     37  C   UNL A   1      37.517  31.746  31.823  1.00  0.00     0.031 C 
ATOM     38  C   UNL A   1      39.019  29.274  27.729  1.00  0.00     0.029 A 
ATOM     39  N   UNL A   1      40.355  29.215  29.518  1.00  0.00    -0.354 N 
ATOM     40  C   UNL A   1      39.322  31.285  33.151  1.00  0.00     0.074 A 
ATOM     41  C   UNL A   1      38.029  31.924  33.032  1.00  0.00     0.031 C 
ATOM     42  C   UNL A   1      39.917  28.295  27.530  1.00  0.00     0.029 A 
ATOM     43  C   UNL A   1      40.813  28.225  28.681  1.00  0.00     0.049 A 
ATOM     44  H   UNL A   1      40.801  29.455  30.362  1.00  0.00     0.167 HD
ATOM     45  C   UNL A   1      40.050  31.246  34.294  1.00  0.00     0.037 A 
ATOM     46  C   UNL A   1      41.830  27.352  28.829  1.00  0.00     0.037 A 
ATOM     47  C   UNL A   1      41.280  30.518  34.461  1.00  0.00     0.049 A 
ATOM     48  C   UNL A   1      42.687  27.409  30.068  1.00  0.00     0.074 A 
ATOM     49  C   UNL A   1      42.082  30.421  35.586  1.00  0.00     0.029 A 
ATOM     50  N   UNL A   1      41.868  29.727  33.487  1.00  0.00    -0.354 N 
ATOM     51  N   UNL A   1      42.526  28.115  31.160  1.00  0.00    -0.248 NA
ATOM     52  C   UNL A   1      43.887  26.559  30.079  1.00  0.00     0.031 C 
ATOM     53  C   UNL A   1      43.162  29.583  35.288  1.00  0.00     0.029 A 
ATOM     54  C   UNL A   1      43.010  29.122  33.990  1.00  0.00     0.049 A 
ATOM     55  H   UNL A   1      41.525  29.611  32.572  1.00  0.00     0.167 HD
ATOM     56  C   UNL A   1      43.571  27.760  32.002  1.00  0.00     0.074 A 
ATOM     57  C   UNL A   1      44.372  26.787  31.292  1.00  0.00     0.031 C 
ATOM     58  C   UNL A   1      43.830  28.192  33.261  1.00  0.00     0.037 A 
BRANCH  45  59
ATOM     59  C   UNL A   1      39.557  32.054  35.457  1.00  0.00     0.064 A 
ATOM     60  C   UNL A   1      39.924  33.392  35.654  1.00  0.00     0.173 A 
ATOM     61  C   UNL A   1      38.658  31.478  36.369  1.00  0.00     0.173 A 
ATOM     62  F   UNL A   1      40.790  33.984  34.818  1.00  0.00    -0.203 F 
ATOM     63  C   UNL A   1      39.425  34.118  36.733  1.00  0.00     0.198 A 
ATOM     64  C   UNL A   1      38.142  32.214  37.431  1.00  0.00     0.198 A 
ATOM     65  F   UNL A   1      38.268  30.203  36.219  1.00  0.00    -0.203 F 
ATOM     66  F   UNL A   1      39.818  35.386  36.925  1.00  0.00    -0.200 F 
ATOM     67  C   UNL A   1      38.530  33.531  37.616  1.00  0.00     0.200 A 
ATOM     68  F   UNL A   1      37.266  31.648  38.273  1.00  0.00    -0.200 F 
ATOM     69  F   UNL A   1      38.044  34.234  38.648  1.00  0.00    -0.200 F 
ENDBRANCH  45  59
BRANCH  46  70
ATOM     70  C   UNL A   1      42.095  26.323  27.787  1.00  0.00     0.064 A 
ATOM     71  C   UNL A   1      43.073  26.532  26.802  1.00  0.00     0.173 A 
ATOM     72  C   UNL A   1      41.359  25.130  27.729  1.00  0.00     0.173 A 
ATOM     73  F   UNL A   1      43.779  27.673  26.790  1.00  0.00    -0.203 F 
ATOM     74  C   UNL A   1      43.294  25.595  25.795  1.00  0.00     0.198 A 
ATOM     75  C   UNL A   1      41.605  24.179  26.740  1.00  0.00     0.198 A 
ATOM     76  F   UNL A   1      40.403  24.885  28.636  1.00  0.00    -0.203 F 
ATOM     77  F   UNL A   1      44.195  25.845  24.836  1.00  0.00    -0.200 F 
ATOM     78  C   UNL A   1      42.565  24.416  25.770  1.00  0.00     0.200 A 
ATOM     79  F   UNL A   1      40.904  23.038  26.725  1.00  0.00    -0.200 F 
ATOM     80  F   UNL A   1      42.777  23.515  24.800  1.00  0.00    -0.200 F 
ENDBRANCH  46  70
BRANCH  58  81
ATOM     81  C   UNL A   1      45.039  27.629  33.950  1.00  0.00     0.064 A 
ATOM     82  C   UNL A   1      46.284  28.271  33.880  1.00  0.00     0.173 A 
ATOM     83  C   UNL A   1      44.944  26.461  34.721  1.00  0.00     0.173 A 
ATOM     84  F   UNL A   1      46.431  29.379  33.139  1.00  0.00    -0.203 F 
ATOM     85  C   UNL A   1      47.394  27.754  34.543  1.00  0.00     0.198 A 
ATOM     86  C   UNL A   1      46.049  25.963  35.407  1.00  0.00     0.198 A 
ATOM     87  F   UNL A   1      43.776  25.807  34.820  1.00  0.00    -0.203 F 
ATOM     88  F   UNL A   1      48.584  28.362  34.428  1.00  0.00    -0.200 F 
ATOM     89  C   UNL A   1      47.274  26.606  35.313  1.00  0.00     0.200 A 
ATOM     90  F   UNL A   1      45.929  24.860  36.159  1.00  0.00    -0.200 F 
ATOM     91  F   UNL A   1      48.341  26.117  35.959  1.00  0.00    -0.200 F 
ENDBRANCH  58  81
ENDBRANCH  32  33
ENDBRANCH  25  27
ENDBRANCH  24  25
ENDBRANCH  23  24
ENDBRANCH   1  23
TORSDOF 13
ENDMDL
MODEL 3
REMARK VINA RESULT:     -12.7      5.362      9.829
REMARK SMILES C[C@@H](C(=O)OCCOC(=O)c1ccc(-c2c3nc(c(-c4c(F)c(F)c(F)c(F)c4F)c4ccc([nH]4)c(-c4c(F)c(F)c(F)c(F)c4F)c4nc(c(-c5c(F)c(F)c(F)c(F)c5F)c5ccc2[nH]5)C=C4)C=C3)cc1)c1ccc(-c2ccc3[nH]ccc3c2)cc1
REMARK SMILES IDX 6 1 5 2 3 3 4 4 2 5 1 6 74 7 75 8 88 9 76 10 87 11 77 12
REMARK SMILES IDX 78 13 79 14 86 15 80 16 85 17 81 18 84 19 82 20 83 21 7 23
REMARK SMILES IDX 8 24 9 25 10 26 11 27 12 28 73 29 13 30 72 31 14 32 15 33
REMARK SMILES IDX 16 34 66 35 17 36 71 37 65 38 67 39 18 40 70 41 64 42 63 43
REMARK SMILES IDX 19 45 51 46 31 47 50 48 32 49 35 50 49 51 68 52 33 53 34 54
REMARK SMILES IDX 48 56 69 57 36 58 20 59 21 60 29 61 22 62 23 63 27 64 30 65
REMARK SMILES IDX 24 66 25 67 28 68 26 69 52 70 53 71 61 72 54 73 55 74 59 75
REMARK SMILES IDX 62 76 56 77 57 78 60 79 58 80 37 81 38 82 46 83 39 84 40 85
REMARK SMILES IDX 44 86 47 87 41 88 42 89 45 90 43 91
REMARK H PARENT 82 22 67 44 35 55
REMARK Flexibility Score: inf
ROOT
ATOM      1  C   UNL A   1      33.229  36.443  30.001  1.00  0.00     0.274 C 
ENDROOT
BRANCH   1   2
ATOM      2  O   UNL A   1      32.332  36.888  31.039  1.00  0.00    -0.462 OA
BRANCH   2   3
ATOM      3  C   UNL A   1      32.184  36.080  32.127  1.00  0.00     0.313 C 
ATOM      4  O   UNL A   1      31.217  35.344  32.297  1.00  0.00    -0.252 OA
BRANCH   3   5
ATOM      5  C   UNL A   1      33.327  36.251  33.146  1.00  0.00     0.126 C 
ATOM      6  C   UNL A   1      34.056  37.592  32.972  1.00  0.00     0.025 C 
BRANCH   5   7
ATOM      7  C   UNL A   1      34.270  35.039  33.199  1.00  0.00    -0.034 A 
ATOM      8  C   UNL A   1      34.336  34.078  32.178  1.00  0.00     0.005 A 
ATOM      9  C   UNL A   1      35.124  34.864  34.303  1.00  0.00     0.005 A 
ATOM     10  C   UNL A   1      35.225  32.996  32.254  1.00  0.00     0.009 A 
ATOM     11  C   UNL A   1      36.003  33.774  34.385  1.00  0.00     0.009 A 
ATOM     12  C   UNL A   1      36.072  32.828  33.356  1.00  0.00    -0.018 A 
BRANCH  12  13
ATOM     13  C   UNL A   1      37.000  31.692  33.413  1.00  0.00    -0.018 A 
ATOM     14  C   UNL A   1      38.139  31.738  34.229  1.00  0.00     0.011 A 
ATOM     15  C   UNL A   1      36.789  30.556  32.614  1.00  0.00     0.019 A 
ATOM     16  C   UNL A   1      39.068  30.687  34.273  1.00  0.00     0.027 A 
ATOM     17  C   UNL A   1      37.714  29.495  32.628  1.00  0.00    -0.000 A 
ATOM     18  C   UNL A   1      38.828  29.578  33.458  1.00  0.00     0.045 A 
ATOM     19  C   UNL A   1      37.814  28.266  31.929  1.00  0.00     0.028 A 
ATOM     20  N   UNL A   1      39.556  28.421  33.280  1.00  0.00    -0.361 N 
ATOM     21  C   UNL A   1      38.951  27.622  32.350  1.00  0.00     0.083 A 
ATOM     22  H   UNL A   1      40.390  28.203  33.755  1.00  0.00     0.166 HD
ENDBRANCH  12  13
ENDBRANCH   5   7
ENDBRANCH   3   5
ENDBRANCH   2   3
ENDBRANCH   1   2
BRANCH   1  23
ATOM     23  C   UNL A   1      32.585  35.326  29.182  1.00  0.00     0.275 C 
BRANCH  23  24
ATOM     24  O   UNL A   1      33.488  34.902  28.146  1.00  0.00    -0.458 OA
BRANCH  24  25
ATOM     25  C   UNL A   1      33.531  33.576  27.901  1.00  0.00     0.338 C 
ATOM     26  O   UNL A   1      32.656  32.869  27.420  1.00  0.00    -0.246 OA
BRANCH  25  27
ATOM     27  C   UNL A   1      34.865  33.076  28.252  1.00  0.00     0.060 A 
ATOM     28  C   UNL A   1      34.981  31.763  28.693  1.00  0.00     0.016 A 
ATOM     29  C   UNL A   1      35.977  33.919  28.248  1.00  0.00     0.016 A 
ATOM     30  C   UNL A   1      36.193  31.299  29.189  1.00  0.00     0.010 A 
ATOM     31  C   UNL A   1      37.214  33.429  28.691  1.00  0.00     0.010 A 
ATOM     32  C   UNL A   1      37.328  32.123  29.198  1.00  0.00    -0.014 A 
BRANCH  32  33
ATOM     33  C   UNL A   1      38.590  31.633  29.827  1.00  0.00     0.031 A 
ATOM     34  C   UNL A   1      39.230  30.362  29.323  1.00  0.00     0.074 A 
ATOM     35  C   UNL A   1      39.251  32.390  30.725  1.00  0.00     0.049 A 
ATOM     36  N   UNL A   1      40.303  29.742  29.751  1.00  0.00    -0.248 NA
ATOM     37  C   UNL A   1      38.590  29.714  28.168  1.00  0.00     0.031 C 
ATOM     38  C   UNL A   1      38.852  33.729  31.158  1.00  0.00     0.029 A 
ATOM     39  N   UNL A   1      40.450  32.184  31.364  1.00  0.00    -0.354 N 
ATOM     40  C   UNL A   1      40.442  28.619  28.946  1.00  0.00     0.074 A 
ATOM     41  C   UNL A   1      39.338  28.631  28.010  1.00  0.00     0.031 C 
ATOM     42  C   UNL A   1      39.851  34.274  31.870  1.00  0.00     0.029 A 
ATOM     43  C   UNL A   1      40.919  33.291  32.029  1.00  0.00     0.049 A 
ATOM     44  H   UNL A   1      40.930  31.324  31.346  1.00  0.00     0.167 HD
ATOM     45  C   UNL A   1      41.408  27.668  28.971  1.00  0.00     0.037 A 
ATOM     46  C   UNL A   1      42.081  33.497  32.681  1.00  0.00     0.037 A 
ATOM     47  C   UNL A   1      42.572  27.701  29.816  1.00  0.00     0.049 A 
ATOM     48  C   UNL A   1      43.088  32.379  32.781  1.00  0.00     0.074 A 
ATOM     49  C   UNL A   1      43.604  26.781  29.903  1.00  0.00     0.029 A 
ATOM     50  N   UNL A   1      42.883  28.729  30.691  1.00  0.00    -0.354 N 
ATOM     51  N   UNL A   1      43.093  31.208  32.194  1.00  0.00    -0.248 NA
ATOM     52  C   UNL A   1      44.243  32.610  33.662  1.00  0.00     0.031 C 
ATOM     53  C   UNL A   1      44.531  27.245  30.842  1.00  0.00     0.029 A 
ATOM     54  C   UNL A   1      44.100  28.477  31.308  1.00  0.00     0.049 A 
ATOM     55  H   UNL A   1      42.324  29.522  30.851  1.00  0.00     0.167 HD
ATOM     56  C   UNL A   1      44.267  30.585  32.592  1.00  0.00     0.074 A 
ATOM     57  C   UNL A   1      44.946  31.499  33.486  1.00  0.00     0.031 C 
ATOM     58  C   UNL A   1      44.746  29.369  32.233  1.00  0.00     0.037 A 
BRANCH  45  59
ATOM     59  C   UNL A   1      41.228  26.474  28.082  1.00  0.00     0.064 A 
ATOM     60  C   UNL A   1      42.058  26.224  26.980  1.00  0.00     0.173 A 
ATOM     61  C   UNL A   1      40.225  25.536  28.377  1.00  0.00     0.173 A 
ATOM     62  F   UNL A   1      43.022  27.095  26.650  1.00  0.00    -0.203 F 
ATOM     63  C   UNL A   1      41.876  25.089  26.193  1.00  0.00     0.198 A 
ATOM     64  C   UNL A   1      40.063  24.391  27.602  1.00  0.00     0.198 A 
ATOM     65  F   UNL A   1      39.412  25.725  29.426  1.00  0.00    -0.203 F 
ATOM     66  F   UNL A   1      42.655  24.887  25.121  1.00  0.00    -0.200 F 
ATOM     67  C   UNL A   1      40.884  24.171  26.508  1.00  0.00     0.200 A 
ATOM     68  F   UNL A   1      39.113  23.500  27.919  1.00  0.00    -0.200 F 
ATOM     69  F   UNL A   1      40.717  23.076  25.754  1.00  0.00    -0.200 F 
ENDBRANCH  45  59
BRANCH  46  70
ATOM     70  C   UNL A   1      42.381  34.825  33.281  1.00  0.00     0.064 A 
ATOM     71  C   UNL A   1      41.892  35.167  34.552  1.00  0.00     0.173 A 
ATOM     72  C   UNL A   1      43.128  35.791  32.592  1.00  0.00     0.173 A 
ATOM     73  F   UNL A   1      41.140  34.293  35.238  1.00  0.00    -0.203 F 
ATOM     74  C   UNL A   1      42.128  36.425  35.102  1.00  0.00     0.198 A 
ATOM     75  C   UNL A   1      43.391  37.038  33.158  1.00  0.00     0.198 A 
ATOM     76  F   UNL A   1      43.608  35.524  31.369  1.00  0.00    -0.203 F 
ATOM     77  F   UNL A   1      41.602  36.744  36.292  1.00  0.00    -0.200 F 
ATOM     78  C   UNL A   1      42.884  37.357  34.407  1.00  0.00     0.200 A 
ATOM     79  F   UNL A   1      44.129  37.931  32.486  1.00  0.00    -0.200 F 
ATOM     80  F   UNL A   1      43.110  38.568  34.935  1.00  0.00    -0.200 F 
ENDBRANCH  46  70
BRANCH  58  81
ATOM     81  C   UNL A   1      46.062  28.944  32.818  1.00  0.00     0.064 A 
ATOM     82  C   UNL A   1      46.127  28.218  34.016  1.00  0.00     0.173 A 
ATOM     83  C   UNL A   1      47.265  29.229  32.155  1.00  0.00     0.173 A 
ATOM     84  F   UNL A   1      45.006  27.938  34.698  1.00  0.00    -0.203 F 
ATOM     85  C   UNL A   1      47.351  27.806  34.538  1.00  0.00     0.198 A 
ATOM     86  C   UNL A   1      48.485  28.791  32.665  1.00  0.00     0.198 A 
ATOM     87  F   UNL A   1      47.258  29.923  31.007  1.00  0.00    -0.203 F 
ATOM     88  F   UNL A   1      47.393  27.149  35.706  1.00  0.00    -0.200 F 
ATOM     89  C   UNL A   1      48.528  28.085  33.858  1.00  0.00     0.200 A 
ATOM     90  F   UNL A   1      49.620  29.052  32.001  1.00  0.00    -0.200 F 
ATOM     91  F   UNL A   1      49.703  27.679  34.356  1.00  0.00    -0.200 F 
ENDBRANCH  58  81
ENDBRANCH  32  33
ENDBRANCH  25  27
ENDBRANCH  24  25
ENDBRANCH  23  24
ENDBRANCH   1  23
TORSDOF 13
ENDMDL
