MODEL 1
REMARK VINA RESULT:     -13.2      0.000      0.000
REMARK SMILES CS(=O)(=O)c1ccc(/C=C(/C(=O)OCCOC(=O)c2ccc(-c3c4nc(c(-c5c(F)c(F)c(F)c(F)c5F)c5ccc([nH]5)c(-c5c(F)c(F)c(F)c(F)c5F)c5nc(c(-c6c(F)c(F)c(F)c(F)c6F)c6ccc3[nH]6)C=C5)C=C4)cc2)c2cccc(-c3ccc(S(C)(=O)=O)cc3)c2)cc1
REMARK SMILES IDX 14 1 13 2 11 3 12 4 10 5 9 6 8 7 5 8 6 9 99 10 7 11 98 12
REMARK SMILES IDX 2 13 1 14 3 15 4 16 82 17 83 18 97 19 84 20 86 21 85 22
REMARK SMILES IDX 87 23 88 24 96 25 89 26 95 27 90 28 91 29 92 30 93 31 94 32
REMARK SMILES IDX 15 33 16 34 17 35 18 36 19 37 20 38 81 39 21 40 80 41 22 42
REMARK SMILES IDX 23 43 24 44 74 45 25 46 79 47 73 48 75 49 26 50 78 51 72 52
REMARK SMILES IDX 71 53 27 55 59 56 39 57 58 58 40 59 43 60 57 61 76 62 41 63
REMARK SMILES IDX 42 64 56 66 77 67 44 68 28 69 29 70 37 71 30 72 31 73 35 74
REMARK SMILES IDX 38 75 32 76 33 77 36 78 34 79 60 80 61 81 69 82 62 83 63 84
REMARK SMILES IDX 67 85 70 86 64 87 65 88 68 89 66 90 45 91 46 92 54 93 47 94
REMARK SMILES IDX 48 95 52 96 55 97 49 98 50 99 53 100 51 101
REMARK H PARENT 75 54 43 65
REMARK Flexibility Score: inf
ROOT
ATOM      1  C   UNL A   1      33.464  28.200  24.094  1.00  0.00     0.275 C 
ENDROOT
BRANCH   1   2
ATOM      2  O   UNL A   1      32.590  27.174  23.578  1.00  0.00    -0.458 OA
BRANCH   2   3
ATOM      3  C   UNL A   1      33.202  26.192  22.870  1.00  0.00     0.338 C 
ATOM      4  O   UNL A   1      33.897  26.354  21.875  1.00  0.00    -0.246 OA
BRANCH   3   5
ATOM      5  C   UNL A   1      32.975  24.847  23.475  1.00  0.00     0.067 C 
ATOM      6  C   UNL A   1      32.254  23.932  22.787  1.00  0.00     0.024 C 
BRANCH   6   7
ATOM      7  C   UNL A   1      32.160  22.483  23.081  1.00  0.00    -0.025 A 
ATOM      8  C   UNL A   1      32.362  19.712  23.465  1.00  0.00     0.067 A 
ATOM      9  C   UNL A   1      32.364  20.563  24.568  1.00  0.00     0.021 A 
ATOM     10  C   UNL A   1      32.159  20.218  22.181  1.00  0.00     0.021 A 
ATOM     11  C   UNL A   1      32.233  21.939  24.371  1.00  0.00     0.009 A 
ATOM     12  C   UNL A   1      32.062  21.600  21.994  1.00  0.00     0.009 A 
BRANCH   8  13
ATOM     13  S   UNL A   1      32.633  17.974  23.713  1.00  0.00     0.175 S 
ATOM     14  C   UNL A   1      34.324  17.878  24.251  1.00  0.00     0.163 C 
ATOM     15  O   UNL A   1      32.546  17.328  22.417  1.00  0.00    -0.224 OA
ATOM     16  O   UNL A   1      31.778  17.568  24.811  1.00  0.00    -0.224 OA
ENDBRANCH   8  13
ENDBRANCH   6   7
BRANCH   5  17
ATOM     17  C   UNL A   1      33.688  24.519  24.725  1.00  0.00    -0.010 A 
ATOM     18  C   UNL A   1      32.984  24.521  25.937  1.00  0.00     0.009 A 
ATOM     19  C   UNL A   1      35.012  24.063  24.699  1.00  0.00     0.017 A 
ATOM     20  C   UNL A   1      33.601  24.082  27.106  1.00  0.00     0.001 A 
ATOM     21  C   UNL A   1      35.630  23.561  25.858  1.00  0.00    -0.018 A 
ATOM     22  C   UNL A   1      34.914  23.615  27.067  1.00  0.00     0.009 A 
BRANCH  21  23
ATOM     23  C   UNL A   1      36.922  22.857  25.766  1.00  0.00    -0.018 A 
ATOM     24  C   UNL A   1      38.065  23.415  26.372  1.00  0.00     0.010 A 
ATOM     25  C   UNL A   1      37.037  21.580  25.187  1.00  0.00     0.010 A 
ATOM     26  C   UNL A   1      39.266  22.714  26.438  1.00  0.00     0.021 A 
ATOM     27  C   UNL A   1      38.240  20.868  25.246  1.00  0.00     0.021 A 
ATOM     28  C   UNL A   1      39.345  21.439  25.880  1.00  0.00     0.067 A 
BRANCH  28  29
ATOM     29  S   UNL A   1      40.846  20.513  26.076  1.00  0.00     0.175 S 
ATOM     30  C   UNL A   1      41.181  20.612  27.814  1.00  0.00     0.163 C 
ATOM     31  O   UNL A   1      40.521  19.133  25.751  1.00  0.00    -0.224 OA
ATOM     32  O   UNL A   1      41.899  21.216  25.376  1.00  0.00    -0.224 OA
ENDBRANCH  28  29
ENDBRANCH  21  23
ENDBRANCH   5  17
ENDBRANCH   3   5
ENDBRANCH   2   3
ENDBRANCH   1   2
BRANCH   1  33
ATOM     33  C   UNL A   1      32.656  29.318  24.749  1.00  0.00     0.275 C 
BRANCH  33  34
ATOM     34  O   UNL A   1      32.804  29.254  26.180  1.00  0.00    -0.458 OA
BRANCH  34  35
ATOM     35  C   UNL A   1      33.178  30.401  26.789  1.00  0.00     0.338 C 
ATOM     36  O   UNL A   1      32.489  31.388  26.998  1.00  0.00    -0.246 OA
BRANCH  35  37
ATOM     37  C   UNL A   1      34.583  30.319  27.235  1.00  0.00     0.060 A 
ATOM     38  C   UNL A   1      35.218  29.086  27.329  1.00  0.00     0.016 A 
ATOM     39  C   UNL A   1      35.212  31.459  27.739  1.00  0.00     0.016 A 
ATOM     40  C   UNL A   1      36.403  28.972  28.057  1.00  0.00     0.010 A 
ATOM     41  C   UNL A   1      36.463  31.353  28.362  1.00  0.00     0.010 A 
ATOM     42  C   UNL A   1      37.051  30.097  28.592  1.00  0.00    -0.014 A 
BRANCH  42  43
ATOM     43  C   UNL A   1      38.283  29.957  29.436  1.00  0.00     0.031 A 
ATOM     44  C   UNL A   1      39.505  29.239  28.904  1.00  0.00     0.074 A 
ATOM     45  C   UNL A   1      38.348  30.491  30.673  1.00  0.00     0.049 A 
ATOM     46  N   UNL A   1      40.563  28.808  29.550  1.00  0.00    -0.248 NA
ATOM     47  C   UNL A   1      39.539  28.953  27.461  1.00  0.00     0.031 C 
ATOM     48  C   UNL A   1      37.292  31.265  31.325  1.00  0.00     0.029 A 
ATOM     49  N   UNL A   1      39.361  30.474  31.606  1.00  0.00    -0.354 N 
ATOM     50  C   UNL A   1      41.333  28.124  28.616  1.00  0.00     0.074 A 
ATOM     51  C   UNL A   1      40.637  28.217  27.351  1.00  0.00     0.031 C 
ATOM     52  C   UNL A   1      37.731  31.707  32.511  1.00  0.00     0.029 A 
ATOM     53  C   UNL A   1      39.051  31.142  32.766  1.00  0.00     0.049 A 
ATOM     54  H   UNL A   1      40.225  30.026  31.456  1.00  0.00     0.167 HD
ATOM     55  C   UNL A   1      42.507  27.471  28.799  1.00  0.00     0.037 A 
ATOM     56  C   UNL A   1      39.714  31.246  33.934  1.00  0.00     0.037 A 
ATOM     57  C   UNL A   1      43.254  27.458  30.033  1.00  0.00     0.049 A 
ATOM     58  C   UNL A   1      41.010  30.513  34.119  1.00  0.00     0.074 A 
ATOM     59  C   UNL A   1      44.466  26.844  30.303  1.00  0.00     0.029 A 
ATOM     60  N   UNL A   1      42.874  28.114  31.192  1.00  0.00    -0.354 N 
ATOM     61  N   UNL A   1      41.672  29.778  33.261  1.00  0.00    -0.248 NA
ATOM     62  C   UNL A   1      41.632  30.595  35.447  1.00  0.00     0.031 C 
ATOM     63  C   UNL A   1      44.806  27.106  31.634  1.00  0.00     0.029 A 
ATOM     64  C   UNL A   1      43.827  27.916  32.181  1.00  0.00     0.049 A 
ATOM     65  H   UNL A   1      42.050  28.642  31.300  1.00  0.00     0.167 HD
ATOM     66  C   UNL A   1      42.783  29.304  33.945  1.00  0.00     0.074 A 
ATOM     67  C   UNL A   1      42.724  29.863  35.280  1.00  0.00     0.031 C 
ATOM     68  C   UNL A   1      43.757  28.470  33.507  1.00  0.00     0.037 A 
BRANCH  55  69
ATOM     69  C   UNL A   1      43.058  26.676  27.650  1.00  0.00     0.064 A 
ATOM     70  C   UNL A   1      43.868  27.250  26.661  1.00  0.00     0.173 A 
ATOM     71  C   UNL A   1      42.823  25.292  27.583  1.00  0.00     0.173 A 
ATOM     72  F   UNL A   1      44.114  28.569  26.674  1.00  0.00    -0.203 F 
ATOM     73  C   UNL A   1      44.408  26.473  25.638  1.00  0.00     0.198 A 
ATOM     74  C   UNL A   1      43.386  24.514  26.574  1.00  0.00     0.198 A 
ATOM     75  F   UNL A   1      42.063  24.690  28.510  1.00  0.00    -0.203 F 
ATOM     76  F   UNL A   1      45.153  27.050  24.684  1.00  0.00    -0.200 F 
ATOM     77  C   UNL A   1      44.175  25.105  25.600  1.00  0.00     0.200 A 
ATOM     78  F   UNL A   1      43.171  23.192  26.550  1.00  0.00    -0.200 F 
ATOM     79  F   UNL A   1      44.707  24.359  24.624  1.00  0.00    -0.200 F 
ENDBRANCH  55  69
BRANCH  56  80
ATOM     80  C   UNL A   1      39.118  32.030  35.047  1.00  0.00     0.064 A 
ATOM     81  C   UNL A   1      38.378  31.399  36.056  1.00  0.00     0.173 A 
ATOM     82  C   UNL A   1      39.297  33.418  35.138  1.00  0.00     0.173 A 
ATOM     83  F   UNL A   1      38.153  30.078  35.995  1.00  0.00    -0.203 F 
ATOM     84  C   UNL A   1      37.841  32.128  37.114  1.00  0.00     0.198 A 
ATOM     85  C   UNL A   1      38.790  34.141  36.216  1.00  0.00     0.198 A 
ATOM     86  F   UNL A   1      39.995  34.068  34.196  1.00  0.00    -0.203 F 
ATOM     87  F   UNL A   1      37.109  31.507  38.049  1.00  0.00    -0.200 F 
ATOM     88  C   UNL A   1      38.058  33.496  37.200  1.00  0.00     0.200 A 
ATOM     89  F   UNL A   1      39.018  35.458  36.302  1.00  0.00    -0.200 F 
ATOM     90  F   UNL A   1      37.559  34.193  38.229  1.00  0.00    -0.200 F 
ENDBRANCH  56  80
BRANCH  68  91
ATOM     91  C   UNL A   1      44.847  28.126  34.477  1.00  0.00     0.064 A 
ATOM     92  C   UNL A   1      44.764  26.993  35.297  1.00  0.00     0.173 A 
ATOM     93  C   UNL A   1      45.992  28.930  34.576  1.00  0.00     0.173 A 
ATOM     94  F   UNL A   1      43.678  26.204  35.252  1.00  0.00    -0.203 F 
ATOM     95  C   UNL A   1      45.779  26.688  36.200  1.00  0.00     0.198 A 
ATOM     96  C   UNL A   1      47.015  28.609  35.463  1.00  0.00     0.198 A 
ATOM     97  F   UNL A   1      46.118  30.024  33.810  1.00  0.00    -0.203 F 
ATOM     98  F   UNL A   1      45.659  25.624  37.008  1.00  0.00    -0.200 F 
ATOM     99  C   UNL A   1      46.905  27.493  36.279  1.00  0.00     0.200 A 
ATOM    100  F   UNL A   1      48.106  29.385  35.533  1.00  0.00    -0.200 F 
ATOM    101  F   UNL A   1      47.881  27.199  37.150  1.00  0.00    -0.200 F 
ENDBRANCH  68  91
ENDBRANCH  42  43
ENDBRANCH  35  37
ENDBRANCH  34  35
ENDBRANCH  33  34
ENDBRANCH   1  33
TORSDOF 16
ENDMDL
MODEL 2
REMARK VINA RESULT:     -12.8      6.104     10.613
REMARK SMILES CS(=O)(=O)c1ccc(/C=C(/C(=O)OCCOC(=O)c2ccc(-c3c4nc(c(-c5c(F)c(F)c(F)c(F)c5F)c5ccc([nH]5)c(-c5c(F)c(F)c(F)c(F)c5F)c5nc(c(-c6c(F)c(F)c(F)c(F)c6F)c6ccc3[nH]6)C=C5)C=C4)cc2)c2cccc(-c3ccc(S(C)(=O)=O)cc3)c2)cc1
REMARK SMILES IDX 14 1 13 2 11 3 12 4 10 5 9 6 8 7 5 8 6 9 99 10 7 11 98 12
REMARK SMILES IDX 2 13 1 14 3 15 4 16 82 17 83 18 97 19 84 20 86 21 85 22
REMARK SMILES IDX 87 23 88 24 96 25 89 26 95 27 90 28 91 29 92 30 93 31 94 32
REMARK SMILES IDX 15 33 16 34 17 35 18 36 19 37 20 38 81 39 21 40 80 41 22 42
REMARK SMILES IDX 23 43 24 44 74 45 25 46 79 47 73 48 75 49 26 50 78 51 72 52
REMARK SMILES IDX 71 53 27 55 59 56 39 57 58 58 40 59 43 60 57 61 76 62 41 63
REMARK SMILES IDX 42 64 56 66 77 67 44 68 28 69 29 70 37 71 30 72 31 73 35 74
REMARK SMILES IDX 38 75 32 76 33 77 36 78 34 79 60 80 61 81 69 82 62 83 63 84
REMARK SMILES IDX 67 85 70 86 64 87 65 88 68 89 66 90 45 91 46 92 54 93 47 94
REMARK SMILES IDX 48 95 52 96 55 97 49 98 50 99 53 100 51 101
REMARK H PARENT 75 54 43 65
REMARK Flexibility Score: inf
ROOT
ATOM      1  C   UNL A   1      34.940  33.620  33.260  1.00  0.00     0.275 C 
ENDROOT
BRANCH   1   2
ATOM      2  O   UNL A   1      34.909  32.347  32.579  1.00  0.00    -0.458 OA
BRANCH   2   3
ATOM      3  C   UNL A   1      35.081  32.403  31.235  1.00  0.00     0.338 C 
ATOM      4  O   UNL A   1      34.308  32.916  30.436  1.00  0.00    -0.246 OA
BRANCH   3   5
ATOM      5  C   UNL A   1      36.377  31.795  30.815  1.00  0.00     0.067 C 
ATOM      6  C   UNL A   1      36.403  30.491  30.455  1.00  0.00     0.024 C 
BRANCH   6   7
ATOM      7  C   UNL A   1      37.505  29.794  29.752  1.00  0.00    -0.025 A 
ATOM      8  C   UNL A   1      39.729  28.855  28.323  1.00  0.00     0.067 A 
ATOM      9  C   UNL A   1      39.669  28.673  29.703  1.00  0.00     0.021 A 
ATOM     10  C   UNL A   1      38.649  29.409  27.635  1.00  0.00     0.021 A 
ATOM     11  C   UNL A   1      38.544  29.115  30.403  1.00  0.00     0.009 A 
ATOM     12  C   UNL A   1      37.544  29.879  28.352  1.00  0.00     0.009 A 
BRANCH   8  13
ATOM     13  S   UNL A   1      41.203  28.385  27.452  1.00  0.00     0.175 S 
ATOM     14  C   UNL A   1      41.024  26.631  27.226  1.00  0.00     0.163 C 
ATOM     15  O   UNL A   1      42.327  28.602  28.343  1.00  0.00    -0.224 OA
ATOM     16  O   UNL A   1      41.144  29.023  26.151  1.00  0.00    -0.224 OA
ENDBRANCH   8  13
ENDBRANCH   6   7
BRANCH   5  17
ATOM     17  C   UNL A   1      37.541  32.687  30.653  1.00  0.00    -0.010 A 
ATOM     18  C   UNL A   1      37.751  33.323  29.422  1.00  0.00     0.009 A 
ATOM     19  C   UNL A   1      38.348  33.022  31.747  1.00  0.00     0.017 A 
ATOM     20  C   UNL A   1      38.761  34.274  29.288  1.00  0.00     0.001 A 
ATOM     21  C   UNL A   1      39.332  34.022  31.645  1.00  0.00    -0.018 A 
ATOM     22  C   UNL A   1      39.549  34.612  30.388  1.00  0.00     0.009 A 
BRANCH  21  23
ATOM     23  C   UNL A   1      39.996  34.537  32.857  1.00  0.00    -0.018 A 
ATOM     24  C   UNL A   1      39.219  34.924  33.966  1.00  0.00     0.010 A 
ATOM     25  C   UNL A   1      41.396  34.553  32.992  1.00  0.00     0.010 A 
ATOM     26  C   UNL A   1      39.809  35.272  35.179  1.00  0.00     0.021 A 
ATOM     27  C   UNL A   1      41.999  34.903  34.205  1.00  0.00     0.021 A 
ATOM     28  C   UNL A   1      41.198  35.253  35.294  1.00  0.00     0.067 A 
BRANCH  28  29
ATOM     29  S   UNL A   1      41.928  35.584  36.876  1.00  0.00     0.175 S 
ATOM     30  C   UNL A   1      42.172  33.973  37.576  1.00  0.00     0.163 C 
ATOM     31  O   UNL A   1      43.233  36.170  36.611  1.00  0.00    -0.224 OA
ATOM     32  O   UNL A   1      40.948  36.279  37.682  1.00  0.00    -0.224 OA
ENDBRANCH  28  29
ENDBRANCH  21  23
ENDBRANCH   5  17
ENDBRANCH   3   5
ENDBRANCH   2   3
ENDBRANCH   1   2
BRANCH   1  33
ATOM     33  C   UNL A   1      35.881  33.566  34.462  1.00  0.00     0.275 C 
BRANCH  33  34
ATOM     34  O   UNL A   1      36.561  32.297  34.494  1.00  0.00    -0.458 OA
BRANCH  34  35
ATOM     35  C   UNL A   1      37.463  32.134  35.488  1.00  0.00     0.338 C 
ATOM     36  O   UNL A   1      37.381  32.541  36.637  1.00  0.00    -0.246 OA
BRANCH  35  37
ATOM     37  C   UNL A   1      38.612  31.333  35.020  1.00  0.00     0.060 A 
ATOM     38  C   UNL A   1      39.900  31.640  35.444  1.00  0.00     0.016 A 
ATOM     39  C   UNL A   1      38.425  30.388  34.010  1.00  0.00     0.016 A 
ATOM     40  C   UNL A   1      40.997  31.119  34.757  1.00  0.00     0.010 A 
ATOM     41  C   UNL A   1      39.533  29.776  33.409  1.00  0.00     0.010 A 
ATOM     42  C   UNL A   1      40.841  30.180  33.725  1.00  0.00    -0.014 A 
BRANCH  42  43
ATOM     43  C   UNL A   1      42.020  29.683  32.943  1.00  0.00     0.031 A 
ATOM     44  C   UNL A   1      42.698  28.381  33.313  1.00  0.00     0.074 A 
ATOM     45  C   UNL A   1      42.489  30.361  31.874  1.00  0.00     0.049 A 
ATOM     46  N   UNL A   1      43.857  27.905  32.922  1.00  0.00    -0.248 NA
ATOM     47  C   UNL A   1      41.989  27.501  34.256  1.00  0.00     0.031 C 
ATOM     48  C   UNL A   1      41.927  31.601  31.338  1.00  0.00     0.029 A 
ATOM     49  N   UNL A   1      43.546  30.093  31.034  1.00  0.00    -0.354 N 
ATOM     50  C   UNL A   1      44.054  26.731  33.639  1.00  0.00     0.074 A 
ATOM     51  C   UNL A   1      42.885  26.547  34.471  1.00  0.00     0.031 C 
ATOM     52  C   UNL A   1      42.592  31.947  30.228  1.00  0.00     0.029 A 
ATOM     53  C   UNL A   1      43.710  31.030  30.042  1.00  0.00     0.049 A 
ATOM     54  H   UNL A   1      44.129  29.306  31.134  1.00  0.00     0.167 HD
ATOM     55  C   UNL A   1      45.116  25.888  33.613  1.00  0.00     0.037 A 
ATOM     56  C   UNL A   1      44.679  31.183  29.119  1.00  0.00     0.037 A 
ATOM     57  C   UNL A   1      46.239  26.013  32.716  1.00  0.00     0.049 A 
ATOM     58  C   UNL A   1      45.849  30.243  29.108  1.00  0.00     0.074 A 
ATOM     59  C   UNL A   1      47.349  25.192  32.601  1.00  0.00     0.029 A 
ATOM     60  N   UNL A   1      46.379  27.006  31.759  1.00  0.00    -0.354 N 
ATOM     61  N   UNL A   1      46.077  29.201  29.867  1.00  0.00    -0.248 NA
ATOM     62  C   UNL A   1      46.914  30.525  28.136  1.00  0.00     0.031 C 
ATOM     63  C   UNL A   1      48.173  25.703  31.593  1.00  0.00     0.029 A 
ATOM     64  C   UNL A   1      47.558  26.819  31.053  1.00  0.00     0.049 A 
ATOM     65  H   UNL A   1      45.737  27.736  31.604  1.00  0.00     0.167 HD
ATOM     66  C   UNL A   1      47.312  28.706  29.470  1.00  0.00     0.074 A 
ATOM     67  C   UNL A   1      47.769  29.542  28.380  1.00  0.00     0.031 C 
ATOM     68  C   UNL A   1      48.007  27.659  29.975  1.00  0.00     0.037 A 
BRANCH  55  69
ATOM     69  C   UNL A   1      45.149  24.764  34.608  1.00  0.00     0.064 A 
ATOM     70  C   UNL A   1      44.804  23.450  34.265  1.00  0.00     0.173 A 
ATOM     71  C   UNL A   1      45.607  25.002  35.916  1.00  0.00     0.173 A 
ATOM     72  F   UNL A   1      44.351  23.172  33.034  1.00  0.00    -0.203 F 
ATOM     73  C   UNL A   1      44.897  22.419  35.199  1.00  0.00     0.198 A 
ATOM     74  C   UNL A   1      45.724  23.965  36.837  1.00  0.00     0.198 A 
ATOM     75  F   UNL A   1      45.960  26.240  36.292  1.00  0.00    -0.203 F 
ATOM     76  F   UNL A   1      44.529  21.176  34.858  1.00  0.00    -0.200 F 
ATOM     77  C   UNL A   1      45.365  22.675  36.480  1.00  0.00     0.200 A 
ATOM     78  F   UNL A   1      46.192  24.213  38.068  1.00  0.00    -0.200 F 
ATOM     79  F   UNL A   1      45.468  21.679  37.369  1.00  0.00    -0.200 F 
ENDBRANCH  55  69
BRANCH  56  80
ATOM     80  C   UNL A   1      44.611  32.323  28.168  1.00  0.00     0.064 A 
ATOM     81  C   UNL A   1      45.090  33.590  28.527  1.00  0.00     0.173 A 
ATOM     82  C   UNL A   1      44.090  32.163  26.875  1.00  0.00     0.173 A 
ATOM     83  F   UNL A   1      45.569  33.800  29.762  1.00  0.00    -0.203 F 
ATOM     84  C   UNL A   1      45.051  34.653  27.628  1.00  0.00     0.198 A 
ATOM     85  C   UNL A   1      44.084  33.218  25.966  1.00  0.00     0.198 A 
ATOM     86  F   UNL A   1      43.616  30.971  26.485  1.00  0.00    -0.203 F 
ATOM     87  F   UNL A   1      45.485  35.863  28.005  1.00  0.00    -0.200 F 
ATOM     88  C   UNL A   1      44.560  34.463  26.344  1.00  0.00     0.200 A 
ATOM     89  F   UNL A   1      43.624  33.023  24.722  1.00  0.00    -0.200 F 
ATOM     90  F   UNL A   1      44.542  35.481  25.474  1.00  0.00    -0.200 F 
ENDBRANCH  56  80
BRANCH  68  91
ATOM     91  C   UNL A   1      49.330  27.349  29.341  1.00  0.00     0.064 A 
ATOM     92  C   UNL A   1      50.519  27.923  29.812  1.00  0.00     0.173 A 
ATOM     93  C   UNL A   1      49.411  26.459  28.260  1.00  0.00     0.173 A 
ATOM     94  F   UNL A   1      50.489  28.796  30.832  1.00  0.00    -0.203 F 
ATOM     95  C   UNL A   1      51.740  27.634  29.209  1.00  0.00     0.198 A 
ATOM     96  C   UNL A   1      50.636  26.155  27.674  1.00  0.00     0.198 A 
ATOM     97  F   UNL A   1      48.301  25.884  27.773  1.00  0.00    -0.203 F 
ATOM     98  F   UNL A   1      52.859  28.229  29.647  1.00  0.00    -0.200 F 
ATOM     99  C   UNL A   1      51.799  26.748  28.144  1.00  0.00     0.200 A 
ATOM    100  F   UNL A   1      50.691  25.293  26.649  1.00  0.00    -0.200 F 
ATOM    101  F   UNL A   1      52.975  26.472  27.564  1.00  0.00    -0.200 F 
ENDBRANCH  68  91
ENDBRANCH  42  43
ENDBRANCH  35  37
ENDBRANCH  34  35
ENDBRANCH  33  34
ENDBRANCH   1  33
TORSDOF 16
ENDMDL
MODEL 3
REMARK VINA RESULT:     -12.5      5.612     11.112
REMARK SMILES CS(=O)(=O)c1ccc(/C=C(/C(=O)OCCOC(=O)c2ccc(-c3c4nc(c(-c5c(F)c(F)c(F)c(F)c5F)c5ccc([nH]5)c(-c5c(F)c(F)c(F)c(F)c5F)c5nc(c(-c6c(F)c(F)c(F)c(F)c6F)c6ccc3[nH]6)C=C5)C=C4)cc2)c2cccc(-c3ccc(S(C)(=O)=O)cc3)c2)cc1
REMARK SMILES IDX 14 1 13 2 11 3 12 4 10 5 9 6 8 7 5 8 6 9 99 10 7 11 98 12
REMARK SMILES IDX 2 13 1 14 3 15 4 16 82 17 83 18 97 19 84 20 86 21 85 22
REMARK SMILES IDX 87 23 88 24 96 25 89 26 95 27 90 28 91 29 92 30 93 31 94 32
REMARK SMILES IDX 15 33 16 34 17 35 18 36 19 37 20 38 81 39 21 40 80 41 22 42
REMARK SMILES IDX 23 43 24 44 74 45 25 46 79 47 73 48 75 49 26 50 78 51 72 52
REMARK SMILES IDX 71 53 27 55 59 56 39 57 58 58 40 59 43 60 57 61 76 62 41 63
REMARK SMILES IDX 42 64 56 66 77 67 44 68 28 69 29 70 37 71 30 72 31 73 35 74
REMARK SMILES IDX 38 75 32 76 33 77 36 78 34 79 60 80 61 81 69 82 62 83 63 84
REMARK SMILES IDX 67 85 70 86 64 87 65 88 68 89 66 90 45 91 46 92 54 93 47 94
REMARK SMILES IDX 48 95 52 96 55 97 49 98 50 99 53 100 51 101
REMARK H PARENT 75 54 43 65
REMARK Flexibility Score: inf
ROOT
ATOM      1  C   UNL A   1      49.937  25.459  31.892  1.00  0.00     0.275 C 
ENDROOT
BRANCH   1   2
ATOM      2  O   UNL A   1      48.716  25.681  31.155  1.00  0.00    -0.458 OA
BRANCH   2   3
ATOM      3  C   UNL A   1      48.851  25.729  29.807  1.00  0.00     0.338 C 
ATOM      4  O   UNL A   1      49.581  25.010  29.135  1.00  0.00    -0.246 OA
BRANCH   3   5
ATOM      5  C   UNL A   1      47.954  26.752  29.194  1.00  0.00     0.067 C 
ATOM      6  C   UNL A   1      47.674  27.878  29.889  1.00  0.00     0.024 C 
BRANCH   6   7
ATOM      7  C   UNL A   1      47.051  29.111  29.353  1.00  0.00    -0.025 A 
ATOM      8  C   UNL A   1      46.053  31.342  27.977  1.00  0.00     0.067 A 
ATOM      9  C   UNL A   1      45.176  30.351  28.412  1.00  0.00     0.021 A 
ATOM     10  C   UNL A   1      47.407  31.283  28.308  1.00  0.00     0.021 A 
ATOM     11  C   UNL A   1      45.676  29.259  29.124  1.00  0.00     0.009 A 
ATOM     12  C   UNL A   1      47.901  30.168  28.991  1.00  0.00     0.009 A 
BRANCH   8  13
ATOM     13  S   UNL A   1      45.428  32.676  26.985  1.00  0.00     0.175 S 
ATOM     14  C   UNL A   1      45.755  34.124  27.962  1.00  0.00     0.163 C 
ATOM     15  O   UNL A   1      43.989  32.520  26.897  1.00  0.00    -0.224 OA
ATOM     16  O   UNL A   1      46.250  32.733  25.792  1.00  0.00    -0.224 OA
ENDBRANCH   8  13
ENDBRANCH   6   7
BRANCH   5  17
ATOM     17  C   UNL A   1      47.546  26.564  27.788  1.00  0.00    -0.010 A 
ATOM     18  C   UNL A   1      48.016  27.454  26.813  1.00  0.00     0.009 A 
ATOM     19  C   UNL A   1      46.825  25.429  27.395  1.00  0.00     0.017 A 
ATOM     20  C   UNL A   1      47.757  27.216  25.465  1.00  0.00     0.001 A 
ATOM     21  C   UNL A   1      46.606  25.144  26.035  1.00  0.00    -0.018 A 
ATOM     22  C   UNL A   1      47.051  26.076  25.083  1.00  0.00     0.009 A 
BRANCH  21  23
ATOM     23  C   UNL A   1      46.071  23.831  25.629  1.00  0.00    -0.018 A 
ATOM     24  C   UNL A   1      46.401  23.305  24.365  1.00  0.00     0.010 A 
ATOM     25  C   UNL A   1      45.327  23.024  26.508  1.00  0.00     0.010 A 
ATOM     26  C   UNL A   1      46.042  22.009  24.003  1.00  0.00     0.021 A 
ATOM     27  C   UNL A   1      44.960  21.720  26.154  1.00  0.00     0.021 A 
ATOM     28  C   UNL A   1      45.329  21.220  24.903  1.00  0.00     0.067 A 
BRANCH  28  29
ATOM     29  S   UNL A   1      44.983  19.533  24.473  1.00  0.00     0.175 S 
ATOM     30  C   UNL A   1      43.600  19.110  25.499  1.00  0.00     0.163 C 
ATOM     31  O   UNL A   1      44.537  19.547  23.089  1.00  0.00    -0.224 OA
ATOM     32  O   UNL A   1      46.111  18.728  24.887  1.00  0.00    -0.224 OA
ENDBRANCH  28  29
ENDBRANCH  21  23
ENDBRANCH   5  17
ENDBRANCH   3   5
ENDBRANCH   2   3
ENDBRANCH   1   2
BRANCH   1  33
ATOM     33  C   UNL A   1      49.637  25.199  33.367  1.00  0.00     0.275 C 
BRANCH  33  34
ATOM     34  O   UNL A   1      49.301  26.436  34.024  1.00  0.00    -0.458 OA
BRANCH  34  35
ATOM     35  C   UNL A   1      48.472  26.336  35.087  1.00  0.00     0.338 C 
ATOM     36  O   UNL A   1      48.701  25.789  36.155  1.00  0.00    -0.246 OA
BRANCH  35  37
ATOM     37  C   UNL A   1      47.197  27.029  34.819  1.00  0.00     0.060 A 
ATOM     38  C   UNL A   1      46.004  26.525  35.325  1.00  0.00     0.016 A 
ATOM     39  C   UNL A   1      47.167  28.084  33.905  1.00  0.00     0.016 A 
ATOM     40  C   UNL A   1      44.789  26.970  34.804  1.00  0.00     0.010 A 
ATOM     41  C   UNL A   1      45.939  28.609  33.480  1.00  0.00     0.010 A 
ATOM     42  C   UNL A   1      44.726  28.016  33.870  1.00  0.00    -0.014 A 
BRANCH  42  43
ATOM     43  C   UNL A   1      43.422  28.437  33.261  1.00  0.00     0.031 A 
ATOM     44  C   UNL A   1      43.022  27.953  31.884  1.00  0.00     0.074 A 
ATOM     45  C   UNL A   1      42.559  29.228  33.932  1.00  0.00     0.049 A 
ATOM     46  N   UNL A   1      42.066  28.386  31.095  1.00  0.00    -0.248 NA
ATOM     47  C   UNL A   1      43.804  26.848  31.308  1.00  0.00     0.031 C 
ATOM     48  C   UNL A   1      42.751  29.742  35.289  1.00  0.00     0.029 A 
ATOM     49  N   UNL A   1      41.332  29.733  33.564  1.00  0.00    -0.354 N 
ATOM     50  C   UNL A   1      42.195  27.676  29.907  1.00  0.00     0.074 A 
ATOM     51  C   UNL A   1      43.305  26.764  30.082  1.00  0.00     0.031 C 
ATOM     52  C   UNL A   1      41.660  30.422  35.665  1.00  0.00     0.029 A 
ATOM     53  C   UNL A   1      40.743  30.508  34.534  1.00  0.00     0.049 A 
ATOM     54  H   UNL A   1      40.916  29.556  32.690  1.00  0.00     0.167 HD
ATOM     55  C   UNL A   1      41.462  27.783  28.771  1.00  0.00     0.037 A 
ATOM     56  C   UNL A   1      39.626  31.260  34.512  1.00  0.00     0.037 A 
ATOM     57  C   UNL A   1      40.296  28.618  28.623  1.00  0.00     0.049 A 
ATOM     58  C   UNL A   1      38.830  31.368  33.244  1.00  0.00     0.074 A 
ATOM     59  C   UNL A   1      39.476  28.770  27.517  1.00  0.00     0.029 A 
ATOM     60  N   UNL A   1      39.767  29.418  29.623  1.00  0.00    -0.354 N 
ATOM     61  N   UNL A   1      39.028  30.777  32.092  1.00  0.00    -0.248 NA
ATOM     62  C   UNL A   1      37.676  32.277  33.264  1.00  0.00     0.031 C 
ATOM     63  C   UNL A   1      38.466  29.683  27.838  1.00  0.00     0.029 A 
ATOM     64  C   UNL A   1      38.633  30.068  29.157  1.00  0.00     0.049 A 
ATOM     65  H   UNL A   1      40.139  29.512  30.530  1.00  0.00     0.167 HD
ATOM     66  C   UNL A   1      38.030  31.246  31.250  1.00  0.00     0.074 A 
ATOM     67  C   UNL A   1      37.208  32.145  32.031  1.00  0.00     0.031 C 
ATOM     68  C   UNL A   1      37.825  30.965  29.940  1.00  0.00     0.037 A 
BRANCH  55  69
ATOM     69  C   UNL A   1      41.911  27.004  27.567  1.00  0.00     0.064 A 
ATOM     70  C   UNL A   1      42.779  27.541  26.608  1.00  0.00     0.173 A 
ATOM     71  C   UNL A   1      41.513  25.664  27.414  1.00  0.00     0.173 A 
ATOM     72  F   UNL A   1      43.180  28.818  26.702  1.00  0.00    -0.203 F 
ATOM     73  C   UNL A   1      43.220  26.774  25.532  1.00  0.00     0.198 A 
ATOM     74  C   UNL A   1      41.976  24.893  26.352  1.00  0.00     0.198 A 
ATOM     75  F   UNL A   1      40.691  25.098  28.310  1.00  0.00    -0.203 F 
ATOM     76  F   UNL A   1      44.024  27.320  24.608  1.00  0.00    -0.200 F 
ATOM     77  C   UNL A   1      42.826  25.449  25.409  1.00  0.00     0.200 A 
ATOM     78  F   UNL A   1      41.607  23.610  26.246  1.00  0.00    -0.200 F 
ATOM     79  F   UNL A   1      43.263  24.710  24.381  1.00  0.00    -0.200 F 
ENDBRANCH  55  69
BRANCH  56  80
ATOM     80  C   UNL A   1      39.234  32.026  35.724  1.00  0.00     0.064 A 
ATOM     81  C   UNL A   1      39.698  33.332  35.930  1.00  0.00     0.173 A 
ATOM     82  C   UNL A   1      38.370  31.479  36.684  1.00  0.00     0.173 A 
ATOM     83  F   UNL A   1      40.551  33.886  35.056  1.00  0.00    -0.203 F 
ATOM     84  C   UNL A   1      39.311  34.061  37.052  1.00  0.00     0.198 A 
ATOM     85  C   UNL A   1      37.956  32.222  37.786  1.00  0.00     0.198 A 
ATOM     86  F   UNL A   1      37.901  30.231  36.532  1.00  0.00    -0.203 F 
ATOM     87  F   UNL A   1      39.794  35.296  37.244  1.00  0.00    -0.200 F 
ATOM     88  C   UNL A   1      38.430  33.511  37.972  1.00  0.00     0.200 A 
ATOM     89  F   UNL A   1      37.092  31.691  38.662  1.00  0.00    -0.200 F 
ATOM     90  F   UNL A   1      38.043  34.221  39.040  1.00  0.00    -0.200 F 
ENDBRANCH  56  80
BRANCH  68  91
ATOM     91  C   UNL A   1      36.654  31.625  29.276  1.00  0.00     0.064 A 
ATOM     92  C   UNL A   1      36.651  32.998  28.996  1.00  0.00     0.173 A 
ATOM     93  C   UNL A   1      35.529  30.873  28.904  1.00  0.00     0.173 A 
ATOM     94  F   UNL A   1      37.697  33.761  29.351  1.00  0.00    -0.203 F 
ATOM     95  C   UNL A   1      35.554  33.600  28.386  1.00  0.00     0.198 A 
ATOM     96  C   UNL A   1      34.444  31.474  28.275  1.00  0.00     0.198 A 
ATOM     97  F   UNL A   1      35.485  29.555  29.151  1.00  0.00    -0.203 F 
ATOM     98  F   UNL A   1      35.553  34.923  28.168  1.00  0.00    -0.200 F 
ATOM     99  C   UNL A   1      34.453  32.839  28.022  1.00  0.00     0.200 A 
ATOM    100  F   UNL A   1      33.384  30.735  27.918  1.00  0.00    -0.200 F 
ATOM    101  F   UNL A   1      33.397  33.421  27.438  1.00  0.00    -0.200 F 
ENDBRANCH  68  91
ENDBRANCH  42  43
ENDBRANCH  35  37
ENDBRANCH  34  35
ENDBRANCH  33  34
ENDBRANCH   1  33
TORSDOF 16
ENDMDL
