MODEL 1
REMARK VINA RESULT:     -11.4      0.000      0.000
REMARK SMILES O=C(OCCOC(=O)c1cc2cnc(Cl)cc2[nH]1)c1ccc(-c2c3nc(c(-c4c(F)c(F)c(F)c(F)c4F)c4ccc([nH]4)c(-c4c(F)c(F)c(F)c(F)c4F)c4nc(c(-c5c(F)c(F)c(F)c(F)c5F)c5ccc2[nH]5)C=C4)C=C3)cc1
REMARK SMILES IDX 4 1 3 2 2 3 1 4 19 5 20 6 81 7 21 8 80 9 22 10 23 11 24 12
REMARK SMILES IDX 74 13 25 14 79 15 73 16 75 17 26 18 78 19 72 20 71 21 27 23
REMARK SMILES IDX 59 24 39 25 58 26 40 27 43 28 57 29 76 30 41 31 42 32 56 34
REMARK SMILES IDX 77 35 44 36 28 37 29 38 37 39 30 40 31 41 35 42 38 43 32 44
REMARK SMILES IDX 33 45 36 46 34 47 60 48 61 49 69 50 62 51 63 52 67 53 70 54
REMARK SMILES IDX 64 55 65 56 68 57 66 58 45 59 46 60 54 61 47 62 48 63 52 64
REMARK SMILES IDX 55 65 49 66 50 67 53 68 51 69 5 70 6 71 7 72 8 73 9 74 10 75
REMARK SMILES IDX 18 76 11 77 17 78 12 80 16 81 13 82 14 83 15 84
REMARK H PARENT 75 22 43 33 18 79
REMARK Flexibility Score: inf
ROOT
ATOM      1  C   UNL A   1      41.877  19.562  26.289  1.00  0.00     0.275 C 
ENDROOT
BRANCH   1   2
ATOM      2  O   UNL A   1      41.907  20.974  25.932  1.00  0.00    -0.458 OA
BRANCH   2   3
ATOM      3  C   UNL A   1      41.020  21.937  26.309  1.00  0.00     0.338 C 
ATOM      4  O   UNL A   1      39.812  21.750  26.341  1.00  0.00    -0.246 OA
BRANCH   3   5
ATOM      5  C   UNL A   1      41.575  23.279  26.541  1.00  0.00     0.060 A 
ATOM      6  C   UNL A   1      42.260  23.467  27.735  1.00  0.00     0.016 A 
ATOM      7  C   UNL A   1      41.198  24.363  25.747  1.00  0.00     0.016 A 
ATOM      8  C   UNL A   1      42.254  24.732  28.287  1.00  0.00     0.010 A 
ATOM      9  C   UNL A   1      41.198  25.635  26.304  1.00  0.00     0.010 A 
ATOM     10  C   UNL A   1      41.615  25.794  27.624  1.00  0.00    -0.014 A 
BRANCH  10  11
ATOM     11  C   UNL A   1      41.566  27.078  28.333  1.00  0.00     0.031 A 
ATOM     12  C   UNL A   1      42.732  27.945  28.011  1.00  0.00     0.074 A 
ATOM     13  C   UNL A   1      40.565  27.486  29.142  1.00  0.00     0.049 A 
ATOM     14  N   UNL A   1      43.594  28.482  28.817  1.00  0.00    -0.248 NA
ATOM     15  C   UNL A   1      43.076  28.067  26.580  1.00  0.00     0.031 C 
ATOM     16  C   UNL A   1      39.278  26.827  29.386  1.00  0.00     0.029 A 
ATOM     17  N   UNL A   1      40.442  28.652  29.851  1.00  0.00    -0.354 N 
ATOM     18  C   UNL A   1      44.488  29.153  27.987  1.00  0.00     0.074 A 
ATOM     19  C   UNL A   1      44.237  28.712  26.641  1.00  0.00     0.031 C 
ATOM     20  C   UNL A   1      38.433  27.699  29.979  1.00  0.00     0.029 A 
ATOM     21  C   UNL A   1      39.135  28.945  30.231  1.00  0.00     0.049 A 
ATOM     22  H   UNL A   1      41.208  29.230  30.071  1.00  0.00     0.167 HD
ATOM     23  C   UNL A   1      45.204  30.227  28.405  1.00  0.00     0.037 A 
ATOM     24  C   UNL A   1      38.644  30.152  30.615  1.00  0.00     0.037 A 
ATOM     25  C   UNL A   1      45.368  30.264  29.826  1.00  0.00     0.049 A 
ATOM     26  C   UNL A   1      39.794  31.003  31.001  1.00  0.00     0.074 A 
ATOM     27  C   UNL A   1      46.001  29.458  30.751  1.00  0.00     0.029 A 
ATOM     28  N   UNL A   1      44.561  31.103  30.547  1.00  0.00    -0.354 N 
ATOM     29  N   UNL A   1      40.509  30.836  32.076  1.00  0.00    -0.248 NA
ATOM     30  C   UNL A   1      40.395  31.838  29.972  1.00  0.00     0.031 C 
ATOM     31  C   UNL A   1      45.217  29.554  31.936  1.00  0.00     0.029 A 
ATOM     32  C   UNL A   1      44.167  30.434  31.677  1.00  0.00     0.049 A 
ATOM     33  H   UNL A   1      44.309  32.022  30.299  1.00  0.00     0.167 HD
ATOM     34  C   UNL A   1      41.796  31.175  31.693  1.00  0.00     0.074 A 
ATOM     35  C   UNL A   1      41.647  31.886  30.429  1.00  0.00     0.031 C 
ATOM     36  C   UNL A   1      42.874  30.602  32.297  1.00  0.00     0.037 A 
BRANCH  23  37
ATOM     37  C   UNL A   1      45.431  31.409  27.504  1.00  0.00     0.064 A 
ATOM     38  C   UNL A   1      46.731  31.795  27.147  1.00  0.00     0.173 A 
ATOM     39  C   UNL A   1      44.404  32.325  27.176  1.00  0.00     0.173 A 
ATOM     40  F   UNL A   1      47.783  31.033  27.481  1.00  0.00    -0.203 F 
ATOM     41  C   UNL A   1      46.981  33.011  26.504  1.00  0.00     0.198 A 
ATOM     42  C   UNL A   1      44.646  33.501  26.476  1.00  0.00     0.198 A 
ATOM     43  F   UNL A   1      43.148  32.167  27.617  1.00  0.00    -0.203 F 
ATOM     44  F   UNL A   1      48.243  33.391  26.268  1.00  0.00    -0.200 F 
ATOM     45  C   UNL A   1      45.938  33.856  26.157  1.00  0.00     0.200 A 
ATOM     46  F   UNL A   1      43.623  34.316  26.182  1.00  0.00    -0.200 F 
ATOM     47  F   UNL A   1      46.180  35.034  25.569  1.00  0.00    -0.200 F 
ENDBRANCH  23  37
BRANCH  24  48
ATOM     48  C   UNL A   1      37.300  30.740  30.360  1.00  0.00     0.064 A 
ATOM     49  C   UNL A   1      36.479  31.151  31.427  1.00  0.00     0.173 A 
ATOM     50  C   UNL A   1      36.913  31.181  29.080  1.00  0.00     0.173 A 
ATOM     51  F   UNL A   1      36.788  30.810  32.687  1.00  0.00    -0.203 F 
ATOM     52  C   UNL A   1      35.373  31.986  31.229  1.00  0.00     0.198 A 
ATOM     53  C   UNL A   1      35.801  32.002  28.882  1.00  0.00     0.198 A 
ATOM     54  F   UNL A   1      37.658  30.912  27.999  1.00  0.00    -0.203 F 
ATOM     55  F   UNL A   1      34.665  32.419  32.282  1.00  0.00    -0.200 F 
ATOM     56  C   UNL A   1      35.043  32.421  29.957  1.00  0.00     0.200 A 
ATOM     57  F   UNL A   1      35.513  32.439  27.648  1.00  0.00    -0.200 F 
ATOM     58  F   UNL A   1      34.027  33.275  29.773  1.00  0.00    -0.200 F 
ENDBRANCH  24  48
BRANCH  36  59
ATOM     59  C   UNL A   1      42.639  29.869  33.587  1.00  0.00     0.064 A 
ATOM     60  C   UNL A   1      42.633  30.487  34.851  1.00  0.00     0.173 A 
ATOM     61  C   UNL A   1      42.270  28.519  33.524  1.00  0.00     0.173 A 
ATOM     62  F   UNL A   1      42.880  31.797  34.979  1.00  0.00    -0.203 F 
ATOM     63  C   UNL A   1      42.307  29.767  36.000  1.00  0.00     0.198 A 
ATOM     64  C   UNL A   1      41.906  27.815  34.668  1.00  0.00     0.198 A 
ATOM     65  F   UNL A   1      42.212  27.894  32.337  1.00  0.00    -0.203 F 
ATOM     66  F   UNL A   1      42.317  30.372  37.197  1.00  0.00    -0.200 F 
ATOM     67  C   UNL A   1      41.933  28.436  35.906  1.00  0.00     0.200 A 
ATOM     68  F   UNL A   1      41.498  26.543  34.564  1.00  0.00    -0.200 F 
ATOM     69  F   UNL A   1      41.570  27.759  37.003  1.00  0.00    -0.200 F 
ENDBRANCH  36  59
ENDBRANCH  10  11
ENDBRANCH   3   5
ENDBRANCH   2   3
ENDBRANCH   1   2
BRANCH   1  70
ATOM     70  C   UNL A   1      43.045  18.697  25.787  1.00  0.00     0.275 C 
BRANCH  70  71
ATOM     71  O   UNL A   1      43.495  19.134  24.506  1.00  0.00    -0.457 OA
BRANCH  71  72
ATOM     72  C   UNL A   1      44.828  19.330  24.358  1.00  0.00     0.354 C 
ATOM     73  O   UNL A   1      45.662  18.453  24.170  1.00  0.00    -0.244 OA
BRANCH  72  74
ATOM     74  C   UNL A   1      45.099  20.713  24.635  1.00  0.00     0.126 A 
ATOM     75  C   UNL A   1      44.661  21.843  23.967  1.00  0.00     0.045 A 
ATOM     76  N   UNL A   1      45.779  21.148  25.752  1.00  0.00    -0.349 N 
ATOM     77  C   UNL A   1      44.941  22.975  24.778  1.00  0.00     0.019 A 
ATOM     78  C   UNL A   1      45.582  22.502  25.924  1.00  0.00     0.051 A 
ATOM     79  H   UNL A   1      46.325  20.577  26.340  1.00  0.00     0.167 HD
ATOM     80  C   UNL A   1      44.654  24.342  24.679  1.00  0.00     0.123 A 
ATOM     81  C   UNL A   1      45.886  23.342  26.996  1.00  0.00     0.067 A 
ATOM     82  N   UNL A   1      44.951  25.181  25.701  1.00  0.00    -0.244 NA
ATOM     83  C   UNL A   1      45.530  24.670  26.806  1.00  0.00     0.131 A 
ATOM     84  Cl  UNL A   1      45.798  25.821  28.053  1.00  0.00    -0.062 Cl
ENDBRANCH  72  74
ENDBRANCH  71  72
ENDBRANCH  70  71
ENDBRANCH   1  70
TORSDOF 11
ENDMDL
MODEL 2
REMARK VINA RESULT:     -11.2      4.508     11.184
REMARK SMILES O=C(OCCOC(=O)c1cc2cnc(Cl)cc2[nH]1)c1ccc(-c2c3nc(c(-c4c(F)c(F)c(F)c(F)c4F)c4ccc([nH]4)c(-c4c(F)c(F)c(F)c(F)c4F)c4nc(c(-c5c(F)c(F)c(F)c(F)c5F)c5ccc2[nH]5)C=C4)C=C3)cc1
REMARK SMILES IDX 4 1 3 2 2 3 1 4 19 5 20 6 81 7 21 8 80 9 22 10 23 11 24 12
REMARK SMILES IDX 74 13 25 14 79 15 73 16 75 17 26 18 78 19 72 20 71 21 27 23
REMARK SMILES IDX 59 24 39 25 58 26 40 27 43 28 57 29 76 30 41 31 42 32 56 34
REMARK SMILES IDX 77 35 44 36 28 37 29 38 37 39 30 40 31 41 35 42 38 43 32 44
REMARK SMILES IDX 33 45 36 46 34 47 60 48 61 49 69 50 62 51 63 52 67 53 70 54
REMARK SMILES IDX 64 55 65 56 68 57 66 58 45 59 46 60 54 61 47 62 48 63 52 64
REMARK SMILES IDX 55 65 49 66 50 67 53 68 51 69 5 70 6 71 7 72 8 73 9 74 10 75
REMARK SMILES IDX 18 76 11 77 17 78 12 80 16 81 13 82 14 83 15 84
REMARK H PARENT 75 22 43 33 18 79
REMARK Flexibility Score: inf
ROOT
ATOM      1  C   UNL A   1      33.464  34.558  28.737  1.00  0.00     0.275 C 
ENDROOT
BRANCH   1   2
ATOM      2  O   UNL A   1      34.642  33.820  29.174  1.00  0.00    -0.458 OA
BRANCH   2   3
ATOM      3  C   UNL A   1      34.963  32.531  28.873  1.00  0.00     0.338 C 
ATOM      4  O   UNL A   1      34.290  31.837  28.122  1.00  0.00    -0.246 OA
BRANCH   3   5
ATOM      5  C   UNL A   1      36.093  31.951  29.614  1.00  0.00     0.060 A 
ATOM      6  C   UNL A   1      37.281  32.669  29.592  1.00  0.00     0.016 A 
ATOM      7  C   UNL A   1      36.055  30.632  30.072  1.00  0.00     0.016 A 
ATOM      8  C   UNL A   1      38.462  31.962  29.697  1.00  0.00     0.010 A 
ATOM      9  C   UNL A   1      37.245  29.926  30.182  1.00  0.00     0.010 A 
ATOM     10  C   UNL A   1      38.442  30.567  29.873  1.00  0.00    -0.014 A 
BRANCH  10  11
ATOM     11  C   UNL A   1      39.741  29.886  29.868  1.00  0.00     0.031 A 
ATOM     12  C   UNL A   1      40.354  29.828  31.224  1.00  0.00     0.074 A 
ATOM     13  C   UNL A   1      40.318  29.310  28.791  1.00  0.00     0.049 A 
ATOM     14  N   UNL A   1      41.515  30.253  31.611  1.00  0.00    -0.248 NA
ATOM     15  C   UNL A   1      39.461  29.404  32.322  1.00  0.00     0.031 C 
ATOM     16  C   UNL A   1      39.744  29.119  27.456  1.00  0.00     0.029 A 
ATOM     17  N   UNL A   1      41.525  28.669  28.691  1.00  0.00    -0.354 N 
ATOM     18  C   UNL A   1      41.556  29.985  32.976  1.00  0.00     0.074 A 
ATOM     19  C   UNL A   1      40.219  29.647  33.387  1.00  0.00     0.031 C 
ATOM     20  C   UNL A   1      40.486  28.220  26.772  1.00  0.00     0.029 A 
ATOM     21  C   UNL A   1      41.629  27.835  27.582  1.00  0.00     0.049 A 
ATOM     22  H   UNL A   1      42.252  28.788  29.345  1.00  0.00     0.167 HD
ATOM     23  C   UNL A   1      42.720  29.793  33.647  1.00  0.00     0.037 A 
ATOM     24  C   UNL A   1      42.520  26.826  27.396  1.00  0.00     0.037 A 
ATOM     25  C   UNL A   1      43.840  30.398  32.994  1.00  0.00     0.049 A 
ATOM     26  C   UNL A   1      43.642  27.037  28.340  1.00  0.00     0.074 A 
ATOM     27  C   UNL A   1      44.205  31.695  32.694  1.00  0.00     0.029 A 
ATOM     28  N   UNL A   1      44.669  29.594  32.258  1.00  0.00    -0.354 N 
ATOM     29  N   UNL A   1      44.532  27.981  28.232  1.00  0.00    -0.248 NA
ATOM     30  C   UNL A   1      43.556  26.404  29.647  1.00  0.00     0.031 C 
ATOM     31  C   UNL A   1      44.928  31.611  31.470  1.00  0.00     0.029 A 
ATOM     32  C   UNL A   1      44.989  30.267  31.106  1.00  0.00     0.049 A 
ATOM     33  H   UNL A   1      44.980  28.694  32.509  1.00  0.00     0.167 HD
ATOM     34  C   UNL A   1      44.808  28.349  29.538  1.00  0.00     0.074 A 
ATOM     35  C   UNL A   1      44.266  27.277  30.364  1.00  0.00     0.031 C 
ATOM     36  C   UNL A   1      45.198  29.621  29.833  1.00  0.00     0.037 A 
BRANCH  23  37
ATOM     37  C   UNL A   1      42.839  28.741  34.713  1.00  0.00     0.064 A 
ATOM     38  C   UNL A   1      43.498  29.019  35.920  1.00  0.00     0.173 A 
ATOM     39  C   UNL A   1      42.530  27.380  34.479  1.00  0.00     0.173 A 
ATOM     40  F   UNL A   1      43.903  30.266  36.202  1.00  0.00    -0.203 F 
ATOM     41  C   UNL A   1      43.820  28.004  36.826  1.00  0.00     0.198 A 
ATOM     42  C   UNL A   1      42.789  26.383  35.412  1.00  0.00     0.198 A 
ATOM     43  F   UNL A   1      42.067  26.954  33.296  1.00  0.00    -0.203 F 
ATOM     44  F   UNL A   1      44.536  28.293  37.921  1.00  0.00    -0.200 F 
ATOM     45  C   UNL A   1      43.453  26.691  36.579  1.00  0.00     0.200 A 
ATOM     46  F   UNL A   1      42.453  25.115  35.133  1.00  0.00    -0.200 F 
ATOM     47  F   UNL A   1      43.788  25.715  37.432  1.00  0.00    -0.200 F 
ENDBRANCH  23  37
BRANCH  24  48
ATOM     48  C   UNL A   1      42.324  25.519  26.709  1.00  0.00     0.064 A 
ATOM     49  C   UNL A   1      43.141  25.145  25.625  1.00  0.00     0.173 A 
ATOM     50  C   UNL A   1      41.542  24.493  27.273  1.00  0.00     0.173 A 
ATOM     51  F   UNL A   1      43.949  26.046  25.046  1.00  0.00    -0.203 F 
ATOM     52  C   UNL A   1      43.205  23.823  25.170  1.00  0.00     0.198 A 
ATOM     53  C   UNL A   1      41.596  23.178  26.809  1.00  0.00     0.198 A 
ATOM     54  F   UNL A   1      40.781  24.716  28.354  1.00  0.00    -0.203 F 
ATOM     55  F   UNL A   1      44.056  23.494  24.187  1.00  0.00    -0.200 F 
ATOM     56  C   UNL A   1      42.441  22.838  25.771  1.00  0.00     0.200 A 
ATOM     57  F   UNL A   1      40.872  22.230  27.422  1.00  0.00    -0.200 F 
ATOM     58  F   UNL A   1      42.551  21.560  25.384  1.00  0.00    -0.200 F 
ENDBRANCH  24  48
BRANCH  36  59
ATOM     59  C   UNL A   1      45.641  30.493  28.693  1.00  0.00     0.064 A 
ATOM     60  C   UNL A   1      44.761  31.223  27.874  1.00  0.00     0.173 A 
ATOM     61  C   UNL A   1      47.016  30.705  28.517  1.00  0.00     0.173 A 
ATOM     62  F   UNL A   1      43.435  31.147  28.048  1.00  0.00    -0.203 F 
ATOM     63  C   UNL A   1      45.244  32.095  26.899  1.00  0.00     0.198 A 
ATOM     64  C   UNL A   1      47.493  31.606  27.571  1.00  0.00     0.198 A 
ATOM     65  F   UNL A   1      47.899  30.070  29.307  1.00  0.00    -0.203 F 
ATOM     66  F   UNL A   1      44.389  32.773  26.120  1.00  0.00    -0.200 F 
ATOM     67  C   UNL A   1      46.608  32.294  26.756  1.00  0.00     0.200 A 
ATOM     68  F   UNL A   1      48.811  31.831  27.472  1.00  0.00    -0.200 F 
ATOM     69  F   UNL A   1      47.071  33.170  25.855  1.00  0.00    -0.200 F 
ENDBRANCH  36  59
ENDBRANCH  10  11
ENDBRANCH   3   5
ENDBRANCH   2   3
ENDBRANCH   1   2
BRANCH   1  70
ATOM     70  C   UNL A   1      33.058  35.775  29.584  1.00  0.00     0.275 C 
BRANCH  70  71
ATOM     71  O   UNL A   1      32.467  35.370  30.817  1.00  0.00    -0.457 OA
BRANCH  71  72
ATOM     72  C   UNL A   1      32.894  36.002  31.938  1.00  0.00     0.354 C 
ATOM     73  O   UNL A   1      32.499  37.090  32.339  1.00  0.00    -0.244 OA
BRANCH  72  74
ATOM     74  C   UNL A   1      34.002  35.255  32.465  1.00  0.00     0.126 A 
ATOM     75  C   UNL A   1      34.053  33.934  32.876  1.00  0.00     0.045 A 
ATOM     76  N   UNL A   1      35.289  35.742  32.526  1.00  0.00    -0.349 N 
ATOM     77  C   UNL A   1      35.417  33.571  33.033  1.00  0.00     0.019 A 
ATOM     78  C   UNL A   1      36.174  34.706  32.741  1.00  0.00     0.051 A 
ATOM     79  H   UNL A   1      35.541  36.689  32.431  1.00  0.00     0.167 HD
ATOM     80  C   UNL A   1      36.080  32.374  33.331  1.00  0.00     0.123 A 
ATOM     81  C   UNL A   1      37.567  34.664  32.676  1.00  0.00     0.067 A 
ATOM     82  N   UNL A   1      37.433  32.310  33.288  1.00  0.00    -0.244 NA
ATOM     83  C   UNL A   1      38.120  33.422  32.957  1.00  0.00     0.131 A 
ATOM     84  Cl  UNL A   1      39.821  33.197  32.874  1.00  0.00    -0.062 Cl
ENDBRANCH  72  74
ENDBRANCH  71  72
ENDBRANCH  70  71
ENDBRANCH   1  70
TORSDOF 11
ENDMDL
MODEL 3
REMARK VINA RESULT:     -10.9      1.843      2.695
REMARK SMILES O=C(OCCOC(=O)c1cc2cnc(Cl)cc2[nH]1)c1ccc(-c2c3nc(c(-c4c(F)c(F)c(F)c(F)c4F)c4ccc([nH]4)c(-c4c(F)c(F)c(F)c(F)c4F)c4nc(c(-c5c(F)c(F)c(F)c(F)c5F)c5ccc2[nH]5)C=C4)C=C3)cc1
REMARK SMILES IDX 4 1 3 2 2 3 1 4 19 5 20 6 81 7 21 8 80 9 22 10 23 11 24 12
REMARK SMILES IDX 74 13 25 14 79 15 73 16 75 17 26 18 78 19 72 20 71 21 27 23
REMARK SMILES IDX 59 24 39 25 58 26 40 27 43 28 57 29 76 30 41 31 42 32 56 34
REMARK SMILES IDX 77 35 44 36 28 37 29 38 37 39 30 40 31 41 35 42 38 43 32 44
REMARK SMILES IDX 33 45 36 46 34 47 60 48 61 49 69 50 62 51 63 52 67 53 70 54
REMARK SMILES IDX 64 55 65 56 68 57 66 58 45 59 46 60 54 61 47 62 48 63 52 64
REMARK SMILES IDX 55 65 49 66 50 67 53 68 51 69 5 70 6 71 7 72 8 73 9 74 10 75
REMARK SMILES IDX 18 76 11 77 17 78 12 80 16 81 13 82 14 83 15 84
REMARK H PARENT 75 22 43 33 18 79
REMARK Flexibility Score: inf
ROOT
ATOM      1  C   UNL A   1      45.134  20.378  24.894  1.00  0.00     0.275 C 
ENDROOT
BRANCH   1   2
ATOM      2  O   UNL A   1      44.154  21.391  24.525  1.00  0.00    -0.458 OA
BRANCH   2   3
ATOM      3  C   UNL A   1      44.319  22.743  24.548  1.00  0.00     0.338 C 
ATOM      4  O   UNL A   1      45.097  23.328  23.806  1.00  0.00    -0.246 OA
BRANCH   3   5
ATOM      5  C   UNL A   1      43.619  23.468  25.618  1.00  0.00     0.060 A 
ATOM      6  C   UNL A   1      42.659  24.389  25.216  1.00  0.00     0.016 A 
ATOM      7  C   UNL A   1      44.084  23.438  26.934  1.00  0.00     0.016 A 
ATOM      8  C   UNL A   1      42.433  25.479  26.032  1.00  0.00     0.010 A 
ATOM      9  C   UNL A   1      43.850  24.534  27.754  1.00  0.00     0.010 A 
ATOM     10  C   UNL A   1      43.123  25.610  27.250  1.00  0.00    -0.014 A 
BRANCH  10  11
ATOM     11  C   UNL A   1      42.899  26.851  28.001  1.00  0.00     0.031 A 
ATOM     12  C   UNL A   1      43.949  27.872  27.732  1.00  0.00     0.074 A 
ATOM     13  C   UNL A   1      41.842  27.098  28.805  1.00  0.00     0.049 A 
ATOM     14  N   UNL A   1      44.722  28.484  28.571  1.00  0.00    -0.248 NA
ATOM     15  C   UNL A   1      44.295  28.088  26.312  1.00  0.00     0.031 C 
ATOM     16  C   UNL A   1      40.647  26.272  29.001  1.00  0.00     0.029 A 
ATOM     17  N   UNL A   1      41.559  28.212  29.550  1.00  0.00    -0.354 N 
ATOM     18  C   UNL A   1      45.535  29.293  27.783  1.00  0.00     0.074 A 
ATOM     19  C   UNL A   1      45.363  28.873  26.418  1.00  0.00     0.031 C 
ATOM     20  C   UNL A   1      39.688  27.006  29.607  1.00  0.00     0.029 A 
ATOM     21  C   UNL A   1      40.221  28.322  29.914  1.00  0.00     0.049 A 
ATOM     22  H   UNL A   1      42.242  28.875  29.804  1.00  0.00     0.167 HD
ATOM     23  C   UNL A   1      46.101  30.435  28.250  1.00  0.00     0.037 A 
ATOM     24  C   UNL A   1      39.573  29.442  30.329  1.00  0.00     0.037 A 
ATOM     25  C   UNL A   1      46.238  30.441  29.674  1.00  0.00     0.049 A 
ATOM     26  C   UNL A   1      40.598  30.418  30.767  1.00  0.00     0.074 A 
ATOM     27  C   UNL A   1      46.955  29.690  30.584  1.00  0.00     0.029 A 
ATOM     28  N   UNL A   1      45.319  31.144  30.408  1.00  0.00    -0.354 N 
ATOM     29  N   UNL A   1      41.313  30.306  31.848  1.00  0.00    -0.248 NA
ATOM     30  C   UNL A   1      41.102  31.360  29.778  1.00  0.00     0.031 C 
ATOM     31  C   UNL A   1      46.148  29.642  31.756  1.00  0.00     0.029 A 
ATOM     32  C   UNL A   1      44.997  30.390  31.507  1.00  0.00     0.049 A 
ATOM     33  H   UNL A   1      44.955  32.031  30.186  1.00  0.00     0.167 HD
ATOM     34  C   UNL A   1      42.551  30.820  31.502  1.00  0.00     0.074 A 
ATOM     35  C   UNL A   1      42.330  31.552  30.260  1.00  0.00     0.031 C 
ATOM     36  C   UNL A   1      43.685  30.368  32.107  1.00  0.00     0.037 A 
BRANCH  23  37
ATOM     37  C   UNL A   1      46.188  31.667  27.395  1.00  0.00     0.064 A 
ATOM     38  C   UNL A   1      47.426  32.271  27.136  1.00  0.00     0.173 A 
ATOM     39  C   UNL A   1      45.047  32.415  27.018  1.00  0.00     0.173 A 
ATOM     40  F   UNL A   1      48.566  31.680  27.524  1.00  0.00    -0.203 F 
ATOM     41  C   UNL A   1      47.513  33.533  26.540  1.00  0.00     0.198 A 
ATOM     42  C   UNL A   1      45.137  33.638  26.364  1.00  0.00     0.198 A 
ATOM     43  F   UNL A   1      43.809  32.041  27.368  1.00  0.00    -0.203 F 
ATOM     44  F   UNL A   1      48.709  34.121  26.400  1.00  0.00    -0.200 F 
ATOM     45  C   UNL A   1      46.371  34.209  26.142  1.00  0.00     0.200 A 
ATOM     46  F   UNL A   1      44.014  34.286  26.019  1.00  0.00    -0.200 F 
ATOM     47  F   UNL A   1      46.453  35.429  25.599  1.00  0.00    -0.200 F 
ENDBRANCH  23  37
BRANCH  24  48
ATOM     48  C   UNL A   1      38.168  29.862  30.068  1.00  0.00     0.064 A 
ATOM     49  C   UNL A   1      37.357  30.350  31.110  1.00  0.00     0.173 A 
ATOM     50  C   UNL A   1      37.686  30.073  28.762  1.00  0.00     0.173 A 
ATOM     51  F   UNL A   1      37.750  30.227  32.387  1.00  0.00    -0.203 F 
ATOM     52  C   UNL A   1      36.167  31.043  30.857  1.00  0.00     0.198 A 
ATOM     53  C   UNL A   1      36.493  30.752  28.512  1.00  0.00     0.198 A 
ATOM     54  F   UNL A   1      38.408  29.716  27.691  1.00  0.00    -0.203 F 
ATOM     55  F   UNL A   1      35.465  31.560  31.876  1.00  0.00    -0.200 F 
ATOM     56  C   UNL A   1      35.743  31.254  29.557  1.00  0.00     0.200 A 
ATOM     57  F   UNL A   1      36.112  30.975  27.246  1.00  0.00    -0.200 F 
ATOM     58  F   UNL A   1      34.642  31.977  29.309  1.00  0.00    -0.200 F 
ENDBRANCH  24  48
BRANCH  36  59
ATOM     59  C   UNL A   1      43.527  29.566  33.367  1.00  0.00     0.064 A 
ATOM     60  C   UNL A   1      43.474  30.128  34.655  1.00  0.00     0.173 A 
ATOM     61  C   UNL A   1      43.281  28.191  33.250  1.00  0.00     0.173 A 
ATOM     62  F   UNL A   1      43.603  31.449  34.836  1.00  0.00    -0.203 F 
ATOM     63  C   UNL A   1      43.223  29.336  35.775  1.00  0.00     0.198 A 
ATOM     64  C   UNL A   1      42.991  27.411  34.365  1.00  0.00     0.198 A 
ATOM     65  F   UNL A   1      43.271  27.612  32.038  1.00  0.00    -0.203 F 
ATOM     66  F   UNL A   1      43.188  29.890  36.996  1.00  0.00    -0.200 F 
ATOM     67  C   UNL A   1      42.971  27.981  35.627  1.00  0.00     0.200 A 
ATOM     68  F   UNL A   1      42.699  26.112  34.210  1.00  0.00    -0.200 F 
ATOM     69  F   UNL A   1      42.678  27.230  36.697  1.00  0.00    -0.200 F 
ENDBRANCH  36  59
ENDBRANCH  10  11
ENDBRANCH   3   5
ENDBRANCH   2   3
ENDBRANCH   1   2
BRANCH   1  70
ATOM     70  C   UNL A   1      44.665  18.915  24.849  1.00  0.00     0.275 C 
BRANCH  70  71
ATOM     71  O   UNL A   1      43.249  18.824  24.989  1.00  0.00    -0.457 OA
BRANCH  71  72
ATOM     72  C   UNL A   1      42.773  18.531  26.224  1.00  0.00     0.354 C 
ATOM     73  O   UNL A   1      43.012  17.511  26.858  1.00  0.00    -0.244 OA
BRANCH  72  74
ATOM     74  C   UNL A   1      41.812  19.540  26.571  1.00  0.00     0.126 A 
ATOM     75  C   UNL A   1      41.960  20.649  27.386  1.00  0.00     0.045 A 
ATOM     76  N   UNL A   1      40.556  19.623  26.010  1.00  0.00    -0.349 N 
ATOM     77  C   UNL A   1      40.840  21.498  27.188  1.00  0.00     0.019 A 
ATOM     78  C   UNL A   1      40.007  20.862  26.267  1.00  0.00     0.051 A 
ATOM     79  H   UNL A   1      40.116  18.904  25.500  1.00  0.00     0.167 HD
ATOM     80  C   UNL A   1      40.486  22.772  27.651  1.00  0.00     0.123 A 
ATOM     81  C   UNL A   1      38.870  21.483  25.750  1.00  0.00     0.067 A 
ATOM     82  N   UNL A   1      39.380  23.393  27.174  1.00  0.00    -0.244 NA
ATOM     83  C   UNL A   1      38.631  22.755  26.252  1.00  0.00     0.131 A 
ATOM     84  Cl  UNL A   1      37.294  23.670  25.680  1.00  0.00    -0.062 Cl
ENDBRANCH  72  74
ENDBRANCH  71  72
ENDBRANCH  70  71
ENDBRANCH   1  70
TORSDOF 11
ENDMDL
