MODEL 1
REMARK VINA RESULT:     -12.2      0.000      0.000
REMARK SMILES COc1ncccc1C[C@H](C(=O)OCCOC(=O)c1ccc(-c2c3nc(c(-c4c(F)c(F)c(F)c(F)c4F)c4ccc([nH]4)c(-c4c(F)c(F)c(F)c(F)c4F)c4nc(c(-c5c(F)c(F)c(F)c(F)c5F)c5ccc2[nH]5)C=C4)C=C3)cc1)c1ccc(F)cc1
REMARK SMILES IDX 14 1 13 2 11 3 12 4 10 5 9 6 8 7 3 8 4 9 5 10 7 11 6 12 2 13
REMARK SMILES IDX 1 14 82 15 83 16 88 17 84 18 87 19 85 20 86 21 15 22 16 23
REMARK SMILES IDX 17 24 18 25 19 26 20 27 81 28 21 29 80 30 22 31 23 32 24 33
REMARK SMILES IDX 74 34 25 35 79 36 73 37 75 38 26 39 78 40 72 41 71 42 27 44
REMARK SMILES IDX 59 45 39 46 58 47 40 48 43 49 57 50 76 51 41 52 42 53 56 55
REMARK SMILES IDX 77 56 44 57 28 58 29 59 37 60 30 61 31 62 35 63 38 64 32 65
REMARK SMILES IDX 33 66 36 67 34 68 60 69 61 70 69 71 62 72 63 73 67 74 70 75
REMARK SMILES IDX 64 76 65 77 68 78 66 79 45 80 46 81 54 82 47 83 48 84 52 85
REMARK SMILES IDX 55 86 49 87 50 88 53 89 51 90
REMARK H PARENT 75 43 43 54
REMARK Flexibility Score: inf
ROOT
ATOM      1  C   UNL A   1      31.950  28.308  26.951  1.00  0.00     0.274 C 
ENDROOT
BRANCH   1   2
ATOM      2  O   UNL A   1      31.127  27.583  26.009  1.00  0.00    -0.462 OA
BRANCH   2   3
ATOM      3  C   UNL A   1      31.640  27.493  24.751  1.00  0.00     0.313 C 
ATOM      4  O   UNL A   1      32.829  27.630  24.480  1.00  0.00    -0.252 OA
BRANCH   3   5
ATOM      5  C   UNL A   1      30.559  27.225  23.698  1.00  0.00     0.134 C 
BRANCH   5   6
ATOM      6  C   UNL A   1      29.844  25.957  24.248  1.00  0.00     0.061 C 
BRANCH   6   7
ATOM      7  C   UNL A   1      30.637  24.682  24.335  1.00  0.00     0.015 A 
ATOM      8  C   UNL A   1      30.814  23.904  25.487  1.00  0.00     0.216 A 
ATOM      9  N   UNL A   1      31.497  22.737  25.475  1.00  0.00    -0.222 NA
ATOM     10  C   UNL A   1      32.036  22.322  24.310  1.00  0.00     0.115 A 
ATOM     11  C   UNL A   1      31.216  24.209  23.143  1.00  0.00     0.011 A 
ATOM     12  C   UNL A   1      31.920  23.015  23.125  1.00  0.00     0.021 A 
BRANCH   8  13
ATOM     13  O   UNL A   1      30.156  24.081  26.667  1.00  0.00    -0.481 OA
ATOM     14  C   UNL A   1      29.529  22.953  27.251  1.00  0.00     0.280 C 
ENDBRANCH   8  13
ENDBRANCH   6   7
ENDBRANCH   5   6
BRANCH   5  15
ATOM     15  C   UNL A   1      29.618  28.406  23.455  1.00  0.00    -0.033 A 
ATOM     16  C   UNL A   1      30.048  29.734  23.553  1.00  0.00     0.007 A 
ATOM     17  C   UNL A   1      28.262  28.196  23.148  1.00  0.00     0.007 A 
ATOM     18  C   UNL A   1      29.147  30.799  23.500  1.00  0.00     0.039 A 
ATOM     19  C   UNL A   1      27.348  29.258  23.118  1.00  0.00     0.039 A 
ATOM     20  C   UNL A   1      27.797  30.551  23.319  1.00  0.00     0.123 A 
ATOM     21  F   UNL A   1      26.931  31.572  23.324  1.00  0.00    -0.207 F 
ENDBRANCH   5  15
ENDBRANCH   3   5
ENDBRANCH   2   3
ENDBRANCH   1   2
BRANCH   1  22
ATOM     22  C   UNL A   1      31.754  29.819  26.823  1.00  0.00     0.275 C 
BRANCH  22  23
ATOM     23  O   UNL A   1      32.967  30.430  26.351  1.00  0.00    -0.458 OA
BRANCH  23  24
ATOM     24  C   UNL A   1      33.469  31.409  27.139  1.00  0.00     0.338 C 
ATOM     25  O   UNL A   1      32.881  32.433  27.463  1.00  0.00    -0.246 OA
BRANCH  24  26
ATOM     26  C   UNL A   1      34.807  31.027  27.673  1.00  0.00     0.060 A 
ATOM     27  C   UNL A   1      35.145  29.702  27.970  1.00  0.00     0.016 A 
ATOM     28  C   UNL A   1      35.713  32.042  28.000  1.00  0.00     0.016 A 
ATOM     29  C   UNL A   1      36.297  29.414  28.708  1.00  0.00     0.010 A 
ATOM     30  C   UNL A   1      36.915  31.738  28.651  1.00  0.00     0.010 A 
ATOM     31  C   UNL A   1      37.204  30.426  29.060  1.00  0.00    -0.014 A 
BRANCH  31  32
ATOM     32  C   UNL A   1      38.420  30.141  29.883  1.00  0.00     0.031 A 
ATOM     33  C   UNL A   1      39.518  29.250  29.347  1.00  0.00     0.074 A 
ATOM     34  C   UNL A   1      38.566  30.669  31.114  1.00  0.00     0.049 A 
ATOM     35  N   UNL A   1      40.534  28.709  29.974  1.00  0.00    -0.248 NA
ATOM     36  C   UNL A   1      39.463  28.925  27.914  1.00  0.00     0.031 C 
ATOM     37  C   UNL A   1      37.643  31.603  31.757  1.00  0.00     0.029 A 
ATOM     38  N   UNL A   1      39.559  30.493  32.050  1.00  0.00    -0.354 N 
ATOM     39  C   UNL A   1      41.209  27.950  29.024  1.00  0.00     0.074 A 
ATOM     40  C   UNL A   1      40.492  28.102  27.776  1.00  0.00     0.031 C 
ATOM     41  C   UNL A   1      38.130  31.950  32.958  1.00  0.00     0.029 A 
ATOM     42  C   UNL A   1      39.345  31.184  33.217  1.00  0.00     0.049 A 
ATOM     43  H   UNL A   1      40.349  29.926  31.897  1.00  0.00     0.167 HD
ATOM     44  C   UNL A   1      42.318  27.186  29.176  1.00  0.00     0.037 A 
ATOM     45  C   UNL A   1      40.010  31.168  34.388  1.00  0.00     0.037 A 
ATOM     46  C   UNL A   1      43.058  27.051  30.404  1.00  0.00     0.049 A 
ATOM     47  C   UNL A   1      41.183  30.246  34.565  1.00  0.00     0.074 A 
ATOM     48  C   UNL A   1      44.183  26.285  30.657  1.00  0.00     0.029 A 
ATOM     49  N   UNL A   1      42.753  27.713  31.582  1.00  0.00    -0.354 N 
ATOM     50  N   UNL A   1      41.746  29.447  33.693  1.00  0.00    -0.248 NA
ATOM     51  C   UNL A   1      41.787  30.197  35.904  1.00  0.00     0.031 C 
ATOM     52  C   UNL A   1      44.539  26.456  32.000  1.00  0.00     0.029 A 
ATOM     53  C   UNL A   1      43.659  27.361  32.570  1.00  0.00     0.049 A 
ATOM     54  H   UNL A   1      42.004  28.341  31.700  1.00  0.00     0.167 HD
ATOM     55  C   UNL A   1      42.772  28.806  34.373  1.00  0.00     0.074 A 
ATOM     56  C   UNL A   1      42.767  29.322  35.727  1.00  0.00     0.031 C 
ATOM     57  C   UNL A   1      43.638  27.869  33.916  1.00  0.00     0.037 A 
BRANCH  44  58
ATOM     58  C   UNL A   1      42.781  26.390  27.991  1.00  0.00     0.064 A 
ATOM     59  C   UNL A   1      42.299  25.100  27.729  1.00  0.00     0.173 A 
ATOM     60  C   UNL A   1      43.690  26.951  27.080  1.00  0.00     0.173 A 
ATOM     61  F   UNL A   1      41.439  24.516  28.576  1.00  0.00    -0.203 F 
ATOM     62  C   UNL A   1      42.724  24.393  26.605  1.00  0.00     0.198 A 
ATOM     63  C   UNL A   1      44.093  26.251  25.945  1.00  0.00     0.198 A 
ATOM     64  F   UNL A   1      44.176  28.185  27.283  1.00  0.00    -0.203 F 
ATOM     65  F   UNL A   1      42.279  23.148  26.391  1.00  0.00    -0.200 F 
ATOM     66  C   UNL A   1      43.614  24.972  25.712  1.00  0.00     0.200 A 
ATOM     67  F   UNL A   1      44.943  26.818  25.077  1.00  0.00    -0.200 F 
ATOM     68  F   UNL A   1      44.013  24.295  24.626  1.00  0.00    -0.200 F 
ENDBRANCH  44  58
BRANCH  45  69
ATOM     69  C   UNL A   1      39.541  32.022  35.509  1.00  0.00     0.064 A 
ATOM     70  C   UNL A   1      38.610  31.540  36.437  1.00  0.00     0.173 A 
ATOM     71  C   UNL A   1      40.032  33.324  35.689  1.00  0.00     0.173 A 
ATOM     72  F   UNL A   1      38.087  30.314  36.287  1.00  0.00    -0.203 F 
ATOM     73  C   UNL A   1      38.192  32.326  37.509  1.00  0.00     0.198 A 
ATOM     74  C   UNL A   1      39.637  34.097  36.777  1.00  0.00     0.198 A 
ATOM     75  F   UNL A   1      40.920  33.833  34.822  1.00  0.00    -0.203 F 
ATOM     76  F   UNL A   1      37.281  31.852  38.370  1.00  0.00    -0.200 F 
ATOM     77  C   UNL A   1      38.716  33.599  37.685  1.00  0.00     0.200 A 
ATOM     78  F   UNL A   1      40.156  35.320  36.950  1.00  0.00    -0.200 F 
ATOM     79  F   UNL A   1      38.329  34.346  38.728  1.00  0.00    -0.200 F 
ENDBRANCH  45  69
BRANCH  57  80
ATOM     80  C   UNL A   1      44.663  27.357  34.882  1.00  0.00     0.064 A 
ATOM     81  C   UNL A   1      45.893  28.009  35.057  1.00  0.00     0.173 A 
ATOM     82  C   UNL A   1      44.409  26.212  35.650  1.00  0.00     0.173 A 
ATOM     83  F   UNL A   1      46.188  29.098  34.333  1.00  0.00    -0.203 F 
ATOM     84  C   UNL A   1      46.842  27.516  35.950  1.00  0.00     0.198 A 
ATOM     85  C   UNL A   1      45.351  25.735  36.557  1.00  0.00     0.198 A 
ATOM     86  F   UNL A   1      43.245  25.556  35.521  1.00  0.00    -0.203 F 
ATOM     87  F   UNL A   1      48.028  28.127  36.068  1.00  0.00    -0.200 F 
ATOM     88  C   UNL A   1      46.568  26.382  36.701  1.00  0.00     0.200 A 
ATOM     89  F   UNL A   1      45.083  24.643  37.288  1.00  0.00    -0.200 F 
ATOM     90  F   UNL A   1      47.484  25.908  37.556  1.00  0.00    -0.200 F 
ENDBRANCH  57  80
ENDBRANCH  31  32
ENDBRANCH  24  26
ENDBRANCH  23  24
ENDBRANCH  22  23
ENDBRANCH   1  22
TORSDOF 15
ENDMDL
MODEL 2
REMARK VINA RESULT:     -12.1      4.690     10.131
REMARK SMILES COc1ncccc1C[C@H](C(=O)OCCOC(=O)c1ccc(-c2c3nc(c(-c4c(F)c(F)c(F)c(F)c4F)c4ccc([nH]4)c(-c4c(F)c(F)c(F)c(F)c4F)c4nc(c(-c5c(F)c(F)c(F)c(F)c5F)c5ccc2[nH]5)C=C4)C=C3)cc1)c1ccc(F)cc1
REMARK SMILES IDX 14 1 13 2 11 3 12 4 10 5 9 6 8 7 3 8 4 9 5 10 7 11 6 12 2 13
REMARK SMILES IDX 1 14 82 15 83 16 88 17 84 18 87 19 85 20 86 21 15 22 16 23
REMARK SMILES IDX 17 24 18 25 19 26 20 27 81 28 21 29 80 30 22 31 23 32 24 33
REMARK SMILES IDX 74 34 25 35 79 36 73 37 75 38 26 39 78 40 72 41 71 42 27 44
REMARK SMILES IDX 59 45 39 46 58 47 40 48 43 49 57 50 76 51 41 52 42 53 56 55
REMARK SMILES IDX 77 56 44 57 28 58 29 59 37 60 30 61 31 62 35 63 38 64 32 65
REMARK SMILES IDX 33 66 36 67 34 68 60 69 61 70 69 71 62 72 63 73 67 74 70 75
REMARK SMILES IDX 64 76 65 77 68 78 66 79 45 80 46 81 54 82 47 83 48 84 52 85
REMARK SMILES IDX 55 86 49 87 50 88 53 89 51 90
REMARK H PARENT 75 43 43 54
REMARK Flexibility Score: inf
ROOT
ATOM      1  C   UNL A   1      36.369  22.668  23.772  1.00  0.00     0.274 C 
ENDROOT
BRANCH   1   2
ATOM      2  O   UNL A   1      35.084  22.823  24.417  1.00  0.00    -0.462 OA
BRANCH   2   3
ATOM      3  C   UNL A   1      34.010  22.517  23.639  1.00  0.00     0.313 C 
ATOM      4  O   UNL A   1      33.860  22.913  22.486  1.00  0.00    -0.252 OA
BRANCH   3   5
ATOM      5  C   UNL A   1      32.990  21.639  24.371  1.00  0.00     0.134 C 
BRANCH   5   6
ATOM      6  C   UNL A   1      31.627  22.197  23.869  1.00  0.00     0.061 C 
BRANCH   6   7
ATOM      7  C   UNL A   1      31.082  23.432  24.534  1.00  0.00     0.015 A 
ATOM      8  C   UNL A   1      30.837  23.583  25.905  1.00  0.00     0.216 A 
ATOM      9  N   UNL A   1      30.397  24.746  26.438  1.00  0.00    -0.222 NA
ATOM     10  C   UNL A   1      30.176  25.787  25.609  1.00  0.00     0.115 A 
ATOM     11  C   UNL A   1      30.839  24.545  23.709  1.00  0.00     0.011 A 
ATOM     12  C   UNL A   1      30.384  25.738  24.249  1.00  0.00     0.021 A 
BRANCH   8  13
ATOM     13  O   UNL A   1      31.214  22.704  26.876  1.00  0.00    -0.481 OA
ATOM     14  C   UNL A   1      32.482  22.889  27.480  1.00  0.00     0.280 C 
ENDBRANCH   8  13
ENDBRANCH   6   7
ENDBRANCH   5   6
BRANCH   5  15
ATOM     15  C   UNL A   1      33.169  20.140  24.128  1.00  0.00    -0.033 A 
ATOM     16  C   UNL A   1      34.192  19.403  24.735  1.00  0.00     0.007 A 
ATOM     17  C   UNL A   1      32.318  19.445  23.250  1.00  0.00     0.007 A 
ATOM     18  C   UNL A   1      34.452  18.079  24.375  1.00  0.00     0.039 A 
ATOM     19  C   UNL A   1      32.587  18.125  22.865  1.00  0.00     0.039 A 
ATOM     20  C   UNL A   1      33.670  17.461  23.415  1.00  0.00     0.123 A 
ATOM     21  F   UNL A   1      33.957  16.210  23.033  1.00  0.00    -0.207 F 
ENDBRANCH   5  15
ENDBRANCH   3   5
ENDBRANCH   2   3
ENDBRANCH   1   2
BRANCH   1  22
ATOM     22  C   UNL A   1      37.131  21.460  24.318  1.00  0.00     0.275 C 
BRANCH  22  23
ATOM     23  O   UNL A   1      37.438  21.665  25.707  1.00  0.00    -0.458 OA
BRANCH  23  24
ATOM     24  C   UNL A   1      38.738  21.499  26.045  1.00  0.00     0.338 C 
ATOM     25  O   UNL A   1      39.408  20.497  25.825  1.00  0.00    -0.246 OA
BRANCH  24  26
ATOM     26  C   UNL A   1      39.301  22.752  26.623  1.00  0.00     0.060 A 
ATOM     27  C   UNL A   1      38.858  24.021  26.234  1.00  0.00     0.016 A 
ATOM     28  C   UNL A   1      40.392  22.658  27.495  1.00  0.00     0.016 A 
ATOM     29  C   UNL A   1      39.581  25.164  26.594  1.00  0.00     0.010 A 
ATOM     30  C   UNL A   1      41.051  23.812  27.934  1.00  0.00     0.010 A 
ATOM     31  C   UNL A   1      40.688  25.080  27.452  1.00  0.00    -0.014 A 
BRANCH  31  32
ATOM     32  C   UNL A   1      41.494  26.287  27.814  1.00  0.00     0.031 A 
ATOM     33  C   UNL A   1      40.900  27.376  28.677  1.00  0.00     0.074 A 
ATOM     34  C   UNL A   1      42.764  26.430  27.384  1.00  0.00     0.049 A 
ATOM     35  N   UNL A   1      41.346  28.585  28.920  1.00  0.00    -0.248 NA
ATOM     36  C   UNL A   1      39.633  27.064  29.354  1.00  0.00     0.031 C 
ATOM     37  C   UNL A   1      43.517  25.447  26.607  1.00  0.00     0.029 A 
ATOM     38  N   UNL A   1      43.651  27.469  27.547  1.00  0.00    -0.354 N 
ATOM     39  C   UNL A   1      40.396  29.185  29.740  1.00  0.00     0.074 A 
ATOM     40  C   UNL A   1      39.351  28.209  29.958  1.00  0.00     0.031 C 
ATOM     41  C   UNL A   1      44.759  25.908  26.396  1.00  0.00     0.029 A 
ATOM     42  C   UNL A   1      44.860  27.262  26.931  1.00  0.00     0.049 A 
ATOM     43  H   UNL A   1      43.438  28.284  28.058  1.00  0.00     0.167 HD
ATOM     44  C   UNL A   1      40.388  30.438  30.257  1.00  0.00     0.037 A 
ATOM     45  C   UNL A   1      45.916  28.081  26.760  1.00  0.00     0.037 A 
ATOM     46  C   UNL A   1      41.436  31.407  30.073  1.00  0.00     0.049 A 
ATOM     47  C   UNL A   1      45.849  29.496  27.261  1.00  0.00     0.074 A 
ATOM     48  C   UNL A   1      41.505  32.708  30.543  1.00  0.00     0.029 A 
ATOM     49  N   UNL A   1      42.609  31.174  29.373  1.00  0.00    -0.354 N 
ATOM     50  N   UNL A   1      44.899  30.089  27.940  1.00  0.00    -0.248 NA
ATOM     51  C   UNL A   1      46.990  30.364  26.938  1.00  0.00     0.031 C 
ATOM     52  C   UNL A   1      42.705  33.274  30.097  1.00  0.00     0.029 A 
ATOM     53  C   UNL A   1      43.400  32.312  29.385  1.00  0.00     0.049 A 
ATOM     54  H   UNL A   1      42.845  30.326  28.932  1.00  0.00     0.167 HD
ATOM     55  C   UNL A   1      45.327  31.396  28.129  1.00  0.00     0.074 A 
ATOM     56  C   UNL A   1      46.632  31.505  27.510  1.00  0.00     0.031 C 
ATOM     57  C   UNL A   1      44.691  32.415  28.757  1.00  0.00     0.037 A 
BRANCH  44  58
ATOM     58  C   UNL A   1      39.178  30.858  31.039  1.00  0.00     0.064 A 
ATOM     59  C   UNL A   1      38.066  31.452  30.426  1.00  0.00     0.173 A 
ATOM     60  C   UNL A   1      39.117  30.619  32.421  1.00  0.00     0.173 A 
ATOM     61  F   UNL A   1      38.081  31.712  29.110  1.00  0.00    -0.203 F 
ATOM     62  C   UNL A   1      36.943  31.807  31.171  1.00  0.00     0.198 A 
ATOM     63  C   UNL A   1      37.983  30.952  33.158  1.00  0.00     0.198 A 
ATOM     64  F   UNL A   1      40.153  30.048  33.054  1.00  0.00    -0.203 F 
ATOM     65  F   UNL A   1      35.904  32.405  30.572  1.00  0.00    -0.200 F 
ATOM     66  C   UNL A   1      36.900  31.550  32.533  1.00  0.00     0.200 A 
ATOM     67  F   UNL A   1      37.940  30.692  34.472  1.00  0.00    -0.200 F 
ATOM     68  F   UNL A   1      35.815  31.883  33.247  1.00  0.00    -0.200 F 
ENDBRANCH  44  58
BRANCH  45  69
ATOM     69  C   UNL A   1      47.112  27.591  26.028  1.00  0.00     0.064 A 
ATOM     70  C   UNL A   1      47.197  27.704  24.635  1.00  0.00     0.173 A 
ATOM     71  C   UNL A   1      48.202  27.026  26.707  1.00  0.00     0.173 A 
ATOM     72  F   UNL A   1      46.166  28.207  23.940  1.00  0.00    -0.203 F 
ATOM     73  C   UNL A   1      48.330  27.276  23.947  1.00  0.00     0.198 A 
ATOM     74  C   UNL A   1      49.346  26.627  26.023  1.00  0.00     0.198 A 
ATOM     75  F   UNL A   1      48.165  26.890  28.041  1.00  0.00    -0.203 F 
ATOM     76  F   UNL A   1      48.377  27.371  22.611  1.00  0.00    -0.200 F 
ATOM     77  C   UNL A   1      49.409  26.751  24.643  1.00  0.00     0.200 A 
ATOM     78  F   UNL A   1      50.391  26.132  26.700  1.00  0.00    -0.200 F 
ATOM     79  F   UNL A   1      50.508  26.358  23.983  1.00  0.00    -0.200 F 
ENDBRANCH  45  69
BRANCH  57  80
ATOM     80  C   UNL A   1      45.407  33.730  28.821  1.00  0.00     0.064 A 
ATOM     81  C   UNL A   1      46.293  34.029  29.867  1.00  0.00     0.173 A 
ATOM     82  C   UNL A   1      45.216  34.695  27.822  1.00  0.00     0.173 A 
ATOM     83  F   UNL A   1      46.496  33.144  30.853  1.00  0.00    -0.203 F 
ATOM     84  C   UNL A   1      46.943  35.259  29.922  1.00  0.00     0.198 A 
ATOM     85  C   UNL A   1      45.884  35.915  27.869  1.00  0.00     0.198 A 
ATOM     86  F   UNL A   1      44.381  34.454  26.800  1.00  0.00    -0.203 F 
ATOM     87  F   UNL A   1      47.750  35.543  30.953  1.00  0.00    -0.200 F 
ATOM     88  C   UNL A   1      46.741  36.199  28.921  1.00  0.00     0.200 A 
ATOM     89  F   UNL A   1      45.693  36.820  26.898  1.00  0.00    -0.200 F 
ATOM     90  F   UNL A   1      47.364  37.384  28.979  1.00  0.00    -0.200 F 
ENDBRANCH  57  80
ENDBRANCH  31  32
ENDBRANCH  24  26
ENDBRANCH  23  24
ENDBRANCH  22  23
ENDBRANCH   1  22
TORSDOF 15
ENDMDL
MODEL 3
REMARK VINA RESULT:     -12.1      4.700     10.102
REMARK SMILES COc1ncccc1C[C@H](C(=O)OCCOC(=O)c1ccc(-c2c3nc(c(-c4c(F)c(F)c(F)c(F)c4F)c4ccc([nH]4)c(-c4c(F)c(F)c(F)c(F)c4F)c4nc(c(-c5c(F)c(F)c(F)c(F)c5F)c5ccc2[nH]5)C=C4)C=C3)cc1)c1ccc(F)cc1
REMARK SMILES IDX 14 1 13 2 11 3 12 4 10 5 9 6 8 7 3 8 4 9 5 10 7 11 6 12 2 13
REMARK SMILES IDX 1 14 82 15 83 16 88 17 84 18 87 19 85 20 86 21 15 22 16 23
REMARK SMILES IDX 17 24 18 25 19 26 20 27 81 28 21 29 80 30 22 31 23 32 24 33
REMARK SMILES IDX 74 34 25 35 79 36 73 37 75 38 26 39 78 40 72 41 71 42 27 44
REMARK SMILES IDX 59 45 39 46 58 47 40 48 43 49 57 50 76 51 41 52 42 53 56 55
REMARK SMILES IDX 77 56 44 57 28 58 29 59 37 60 30 61 31 62 35 63 38 64 32 65
REMARK SMILES IDX 33 66 36 67 34 68 60 69 61 70 69 71 62 72 63 73 67 74 70 75
REMARK SMILES IDX 64 76 65 77 68 78 66 79 45 80 46 81 54 82 47 83 48 84 52 85
REMARK SMILES IDX 55 86 49 87 50 88 53 89 51 90
REMARK H PARENT 75 43 43 54
REMARK Flexibility Score: inf
ROOT
ATOM      1  C   UNL A   1      36.433  22.660  23.798  1.00  0.00     0.274 C 
ENDROOT
BRANCH   1   2
ATOM      2  O   UNL A   1      35.172  22.809  24.491  1.00  0.00    -0.462 OA
BRANCH   2   3
ATOM      3  C   UNL A   1      34.076  22.442  23.772  1.00  0.00     0.313 C 
ATOM      4  O   UNL A   1      33.851  22.809  22.622  1.00  0.00    -0.252 OA
BRANCH   3   5
ATOM      5  C   UNL A   1      33.134  21.532  24.568  1.00  0.00     0.134 C 
BRANCH   5   6
ATOM      6  C   UNL A   1      31.727  22.093  24.214  1.00  0.00     0.061 C 
BRANCH   6   7
ATOM      7  C   UNL A   1      31.291  23.373  24.873  1.00  0.00     0.015 A 
ATOM      8  C   UNL A   1      31.151  23.577  26.252  1.00  0.00     0.216 A 
ATOM      9  N   UNL A   1      30.806  24.776  26.775  1.00  0.00    -0.222 NA
ATOM     10  C   UNL A   1      30.576  25.802  25.930  1.00  0.00     0.115 A 
ATOM     11  C   UNL A   1      31.042  24.471  24.030  1.00  0.00     0.011 A 
ATOM     12  C   UNL A   1      30.685  25.702  24.560  1.00  0.00     0.021 A 
BRANCH   8  13
ATOM     13  O   UNL A   1      31.554  22.710  27.224  1.00  0.00    -0.481 OA
ATOM     14  C   UNL A   1      32.893  22.799  27.676  1.00  0.00     0.280 C 
ENDBRANCH   8  13
ENDBRANCH   6   7
ENDBRANCH   5   6
BRANCH   5  15
ATOM     15  C   UNL A   1      33.299  20.043  24.263  1.00  0.00    -0.033 A 
ATOM     16  C   UNL A   1      34.355  19.287  24.784  1.00  0.00     0.007 A 
ATOM     17  C   UNL A   1      32.399  19.377  23.412  1.00  0.00     0.007 A 
ATOM     18  C   UNL A   1      34.593  17.977  24.363  1.00  0.00     0.039 A 
ATOM     19  C   UNL A   1      32.645  18.072  22.966  1.00  0.00     0.039 A 
ATOM     20  C   UNL A   1      33.757  17.391  23.429  1.00  0.00     0.123 A 
ATOM     21  F   UNL A   1      34.022  16.156  22.988  1.00  0.00    -0.207 F 
ENDBRANCH   5  15
ENDBRANCH   3   5
ENDBRANCH   2   3
ENDBRANCH   1   2
BRANCH   1  22
ATOM     22  C   UNL A   1      37.221  21.456  24.317  1.00  0.00     0.275 C 
BRANCH  22  23
ATOM     23  O   UNL A   1      37.515  21.631  25.714  1.00  0.00    -0.458 OA
BRANCH  23  24
ATOM     24  C   UNL A   1      38.814  21.476  26.057  1.00  0.00     0.338 C 
ATOM     25  O   UNL A   1      39.496  20.484  25.834  1.00  0.00    -0.246 OA
BRANCH  24  26
ATOM     26  C   UNL A   1      39.361  22.732  26.647  1.00  0.00     0.060 A 
ATOM     27  C   UNL A   1      38.885  23.997  26.287  1.00  0.00     0.016 A 
ATOM     28  C   UNL A   1      40.468  22.645  27.498  1.00  0.00     0.016 A 
ATOM     29  C   UNL A   1      39.590  25.149  26.654  1.00  0.00     0.010 A 
ATOM     30  C   UNL A   1      41.111  23.806  27.946  1.00  0.00     0.010 A 
ATOM     31  C   UNL A   1      40.713  25.074  27.492  1.00  0.00    -0.014 A 
BRANCH  31  32
ATOM     32  C   UNL A   1      41.500  26.291  27.861  1.00  0.00     0.031 A 
ATOM     33  C   UNL A   1      40.887  27.370  28.724  1.00  0.00     0.074 A 
ATOM     34  C   UNL A   1      42.770  26.453  27.438  1.00  0.00     0.049 A 
ATOM     35  N   UNL A   1      41.314  28.584  28.973  1.00  0.00    -0.248 NA
ATOM     36  C   UNL A   1      39.621  27.037  29.395  1.00  0.00     0.031 C 
ATOM     37  C   UNL A   1      43.540  25.484  26.661  1.00  0.00     0.029 A 
ATOM     38  N   UNL A   1      43.641  27.505  27.608  1.00  0.00    -0.354 N 
ATOM     39  C   UNL A   1      40.352  29.168  29.790  1.00  0.00     0.074 A 
ATOM     40  C   UNL A   1      39.319  28.177  30.000  1.00  0.00     0.031 C 
ATOM     41  C   UNL A   1      44.777  25.963  26.457  1.00  0.00     0.029 A 
ATOM     42  C   UNL A   1      44.856  27.317  26.996  1.00  0.00     0.049 A 
ATOM     43  H   UNL A   1      43.414  28.315  28.119  1.00  0.00     0.167 HD
ATOM     44  C   UNL A   1      40.323  30.420  30.310  1.00  0.00     0.037 A 
ATOM     45  C   UNL A   1      45.901  28.151  26.832  1.00  0.00     0.037 A 
ATOM     46  C   UNL A   1      41.358  31.404  30.133  1.00  0.00     0.049 A 
ATOM     47  C   UNL A   1      45.811  29.564  27.337  1.00  0.00     0.074 A 
ATOM     48  C   UNL A   1      41.406  32.705  30.607  1.00  0.00     0.029 A 
ATOM     49  N   UNL A   1      42.537  31.189  29.438  1.00  0.00    -0.354 N 
ATOM     50  N   UNL A   1      44.850  30.141  28.013  1.00  0.00    -0.248 NA
ATOM     51  C   UNL A   1      46.941  30.449  27.021  1.00  0.00     0.031 C 
ATOM     52  C   UNL A   1      42.600  33.289  30.168  1.00  0.00     0.029 A 
ATOM     53  C   UNL A   1      43.312  32.338  29.457  1.00  0.00     0.049 A 
ATOM     54  H   UNL A   1      42.787  30.346  28.996  1.00  0.00     0.167 HD
ATOM     55  C   UNL A   1      45.258  31.454  28.208  1.00  0.00     0.074 A 
ATOM     56  C   UNL A   1      46.564  31.583  27.595  1.00  0.00     0.031 C 
ATOM     57  C   UNL A   1      44.604  32.462  28.835  1.00  0.00     0.037 A 
BRANCH  44  58
ATOM     58  C   UNL A   1      39.103  30.820  31.087  1.00  0.00     0.064 A 
ATOM     59  C   UNL A   1      39.008  30.623  32.472  1.00  0.00     0.173 A 
ATOM     60  C   UNL A   1      38.031  31.451  30.437  1.00  0.00     0.173 A 
ATOM     61  F   UNL A   1      40.000  30.013  33.137  1.00  0.00    -0.203 F 
ATOM     62  C   UNL A   1      37.875  31.029  33.175  1.00  0.00     0.198 A 
ATOM     63  C   UNL A   1      36.912  31.877  31.147  1.00  0.00     0.198 A 
ATOM     64  F   UNL A   1      38.077  31.667  29.113  1.00  0.00    -0.203 F 
ATOM     65  F   UNL A   1      37.788  30.801  34.493  1.00  0.00    -0.200 F 
ATOM     66  C   UNL A   1      36.833  31.662  32.513  1.00  0.00     0.200 A 
ATOM     67  F   UNL A   1      35.911  32.499  30.507  1.00  0.00    -0.200 F 
ATOM     68  F   UNL A   1      35.748  32.061  33.193  1.00  0.00    -0.200 F 
ENDBRANCH  44  58
BRANCH  45  69
ATOM     69  C   UNL A   1      47.107  27.681  26.105  1.00  0.00     0.064 A 
ATOM     70  C   UNL A   1      47.155  27.704  24.705  1.00  0.00     0.173 A 
ATOM     71  C   UNL A   1      48.241  27.224  26.792  1.00  0.00     0.173 A 
ATOM     72  F   UNL A   1      46.083  28.102  24.005  1.00  0.00    -0.203 F 
ATOM     73  C   UNL A   1      48.297  27.295  24.020  1.00  0.00     0.198 A 
ATOM     74  C   UNL A   1      49.392  26.844  26.107  1.00  0.00     0.198 A 
ATOM     75  F   UNL A   1      48.241  27.175  28.132  1.00  0.00    -0.203 F 
ATOM     76  F   UNL A   1      48.310  27.303  22.680  1.00  0.00    -0.200 F 
ATOM     77  C   UNL A   1      49.419  26.878  24.722  1.00  0.00     0.200 A 
ATOM     78  F   UNL A   1      50.477  26.455  26.790  1.00  0.00    -0.200 F 
ATOM     79  F   UNL A   1      50.524  26.504  24.062  1.00  0.00    -0.200 F 
ENDBRANCH  45  69
BRANCH  57  80
ATOM     80  C   UNL A   1      45.300  33.787  28.906  1.00  0.00     0.064 A 
ATOM     81  C   UNL A   1      45.103  34.770  27.923  1.00  0.00     0.173 A 
ATOM     82  C   UNL A   1      46.162  34.084  29.971  1.00  0.00     0.173 A 
ATOM     83  F   UNL A   1      44.302  34.526  26.876  1.00  0.00    -0.203 F 
ATOM     84  C   UNL A   1      45.765  35.993  27.993  1.00  0.00     0.198 A 
ATOM     85  C   UNL A   1      46.805  35.316  30.050  1.00  0.00     0.198 A 
ATOM     86  F   UNL A   1      46.379  33.178  30.936  1.00  0.00    -0.203 F 
ATOM     87  F   UNL A   1      45.599  36.899  27.022  1.00  0.00    -0.200 F 
ATOM     88  C   UNL A   1      46.612  36.266  29.058  1.00  0.00     0.200 A 
ATOM     89  F   UNL A   1      47.618  35.581  31.082  1.00  0.00    -0.200 F 
ATOM     90  F   UNL A   1      47.251  37.442  29.122  1.00  0.00    -0.200 F 
ENDBRANCH  57  80
ENDBRANCH  31  32
ENDBRANCH  24  26
ENDBRANCH  23  24
ENDBRANCH  22  23
ENDBRANCH   1  22
TORSDOF 15
ENDMDL
