MODEL 1
REMARK VINA RESULT:     -11.5      0.000      0.000
REMARK SMILES Cc1nc(Nc2ccc(F)cc2)nc(OCC(=O)OCCOC(=O)c2ccc(-c3c4nc(c(-c5c(F)c(F)c(F)c(F)c5F)c5ccc([nH]5)c(-c5c(F)c(F)c(F)c(F)c5F)c5nc(c(-c6c(F)c(F)c(F)c(F)c6F)c6ccc3[nH]6)C=C5)C=C4)cc2)c1CCO
REMARK SMILES IDX 19 1 17 2 18 3 16 4 15 5 14 6 1 7 2 8 3 9 88 10 4 11 13 12
REMARK SMILES IDX 89 13 90 14 91 15 5 17 6 19 7 20 12 21 8 22 11 23 9 24 10 25
REMARK SMILES IDX 20 26 21 27 22 28 23 29 24 30 25 31 26 32 87 33 27 34 86 35
REMARK SMILES IDX 28 36 29 37 30 38 80 39 31 40 85 41 79 42 81 43 32 44 84 45
REMARK SMILES IDX 78 46 77 47 33 49 65 50 45 51 64 52 46 53 49 54 63 55 82 56
REMARK SMILES IDX 47 57 48 58 62 60 83 61 50 62 34 63 35 64 43 65 36 66 37 67
REMARK SMILES IDX 41 68 44 69 38 70 39 71 42 72 40 73 66 74 67 75 75 76 68 77
REMARK SMILES IDX 69 78 73 79 76 80 70 81 71 82 74 83 72 84 51 85 52 86 60 87
REMARK SMILES IDX 53 88 54 89 58 90 61 91 55 92 56 93 59 94 57 95
REMARK H PARENT 91 16 5 18 81 48 49 59
REMARK Flexibility Score: inf
ROOT
ATOM      1  O   UNL A   1      32.044  28.364  23.740  1.00  0.00    -0.460 OA
ENDROOT
BRANCH   1   2
ATOM      2  C   UNL A   1      32.953  27.369  23.570  1.00  0.00     0.344 C 
ATOM      3  O   UNL A   1      33.905  27.158  24.316  1.00  0.00    -0.248 OA
BRANCH   2   4
ATOM      4  C   UNL A   1      32.769  26.601  22.253  1.00  0.00     0.353 C 
BRANCH   4   5
ATOM      5  O   UNL A   1      32.274  25.302  22.035  1.00  0.00    -0.465 OA
BRANCH   5   6
ATOM      6  C   UNL A   1      32.710  24.245  22.766  1.00  0.00     0.222 A 
ATOM      7  C   UNL A   1      32.134  21.605  25.379  1.00  0.00     0.067 C 
ATOM      8  C   UNL A   1      32.680  22.509  24.318  1.00  0.00     0.050 A 
ATOM      9  N   UNL A   1      33.947  22.209  23.997  1.00  0.00    -0.218 NA
ATOM     10  C   UNL A   1      32.025  23.621  23.796  1.00  0.00     0.038 A 
ATOM     11  C   UNL A   1      34.609  23.016  23.171  1.00  0.00     0.230 A 
ATOM     12  N   UNL A   1      34.010  24.000  22.502  1.00  0.00    -0.177 NA
BRANCH  10  13
ATOM     13  C   UNL A   1      30.774  24.161  24.434  1.00  0.00     0.071 C 
BRANCH  13  14
ATOM     14  C   UNL A   1      31.019  24.990  25.697  1.00  0.00     0.161 C 
BRANCH  14  15
ATOM     15  O   UNL A   1      29.809  25.296  26.371  1.00  0.00    -0.396 OA
ATOM     16  H   UNL A   1      29.968  25.312  27.328  1.00  0.00     0.210 HD
ENDBRANCH  14  15
ENDBRANCH  13  14
ENDBRANCH  10  13
BRANCH  11  17
ATOM     17  N   UNL A   1      36.002  22.944  23.141  1.00  0.00    -0.324 N 
ATOM     18  H   UNL A   1      36.443  23.096  22.274  1.00  0.00     0.170 HD
BRANCH  17  19
ATOM     19  C   UNL A   1      36.827  22.672  24.242  1.00  0.00     0.041 A 
ATOM     20  C   UNL A   1      37.216  23.707  25.108  1.00  0.00     0.029 A 
ATOM     21  C   UNL A   1      37.411  21.407  24.401  1.00  0.00     0.029 A 
ATOM     22  C   UNL A   1      38.146  23.483  26.123  1.00  0.00     0.041 A 
ATOM     23  C   UNL A   1      38.360  21.186  25.404  1.00  0.00     0.041 A 
ATOM     24  C   UNL A   1      38.718  22.225  26.256  1.00  0.00     0.123 A 
ATOM     25  F   UNL A   1      39.638  22.016  27.206  1.00  0.00    -0.207 F 
ENDBRANCH  17  19
ENDBRANCH  11  17
ENDBRANCH   5   6
ENDBRANCH   4   5
ENDBRANCH   2   4
ENDBRANCH   1   2
BRANCH   1  26
ATOM     26  C   UNL A   1      31.685  28.633  25.115  1.00  0.00     0.274 C 
BRANCH  26  27
ATOM     27  C   UNL A   1      31.885  30.100  25.487  1.00  0.00     0.275 C 
BRANCH  27  28
ATOM     28  O   UNL A   1      32.226  30.215  26.880  1.00  0.00    -0.458 OA
BRANCH  28  29
ATOM     29  C   UNL A   1      32.941  31.316  27.209  1.00  0.00     0.338 C 
ATOM     30  O   UNL A   1      32.544  32.469  27.190  1.00  0.00    -0.246 OA
BRANCH  29  31
ATOM     31  C   UNL A   1      34.311  30.958  27.660  1.00  0.00     0.060 A 
ATOM     32  C   UNL A   1      34.700  29.637  27.888  1.00  0.00     0.016 A 
ATOM     33  C   UNL A   1      35.184  31.997  28.005  1.00  0.00     0.016 A 
ATOM     34  C   UNL A   1      35.896  29.369  28.567  1.00  0.00     0.010 A 
ATOM     35  C   UNL A   1      36.414  31.720  28.612  1.00  0.00     0.010 A 
ATOM     36  C   UNL A   1      36.770  30.404  28.942  1.00  0.00    -0.014 A 
BRANCH  36  37
ATOM     37  C   UNL A   1      38.047  30.135  29.668  1.00  0.00     0.031 A 
ATOM     38  C   UNL A   1      39.122  29.263  29.063  1.00  0.00     0.074 A 
ATOM     39  C   UNL A   1      38.252  30.653  30.894  1.00  0.00     0.049 A 
ATOM     40  N   UNL A   1      40.174  28.725  29.630  1.00  0.00    -0.248 NA
ATOM     41  C   UNL A   1      39.002  28.958  27.630  1.00  0.00     0.031 C 
ATOM     42  C   UNL A   1      37.342  31.558  31.595  1.00  0.00     0.029 A 
ATOM     43  N   UNL A   1      39.295  30.484  31.774  1.00  0.00    -0.354 N 
ATOM     44  C   UNL A   1      40.811  27.986  28.641  1.00  0.00     0.074 A 
ATOM     45  C   UNL A   1      40.036  28.151  27.429  1.00  0.00     0.031 C 
ATOM     46  C   UNL A   1      37.878  31.891  32.777  1.00  0.00     0.029 A 
ATOM     47  C   UNL A   1      39.115  31.142  32.965  1.00  0.00     0.049 A 
ATOM     48  H   UNL A   1      40.093  29.945  31.569  1.00  0.00     0.167 HD
ATOM     49  C   UNL A   1      41.934  27.234  28.738  1.00  0.00     0.037 A 
ATOM     50  C   UNL A   1      39.820  31.103  34.111  1.00  0.00     0.037 A 
ATOM     51  C   UNL A   1      42.731  27.099  29.929  1.00  0.00     0.049 A 
ATOM     52  C   UNL A   1      41.012  30.203  34.224  1.00  0.00     0.074 A 
ATOM     53  C   UNL A   1      43.890  26.363  30.115  1.00  0.00     0.029 A 
ATOM     54  N   UNL A   1      42.461  27.725  31.135  1.00  0.00    -0.354 N 
ATOM     55  N   UNL A   1      41.545  29.425  33.315  1.00  0.00    -0.248 NA
ATOM     56  C   UNL A   1      41.677  30.145  35.534  1.00  0.00     0.031 C 
ATOM     57  C   UNL A   1      44.305  26.521  31.442  1.00  0.00     0.029 A 
ATOM     58  C   UNL A   1      43.424  27.382  32.072  1.00  0.00     0.049 A 
ATOM     59  H   UNL A   1      41.699  28.326  31.303  1.00  0.00     0.167 HD
ATOM     60  C   UNL A   1      42.601  28.778  33.942  1.00  0.00     0.074 A 
ATOM     61  C   UNL A   1      42.647  29.271  35.303  1.00  0.00     0.031 C 
ATOM     62  C   UNL A   1      43.449  27.856  33.430  1.00  0.00     0.037 A 
BRANCH  49  63
ATOM     63  C   UNL A   1      42.382  26.464  27.530  1.00  0.00     0.064 A 
ATOM     64  C   UNL A   1      41.866  25.182  27.281  1.00  0.00     0.173 A 
ATOM     65  C   UNL A   1      43.406  26.935  26.697  1.00  0.00     0.173 A 
ATOM     66  F   UNL A   1      40.891  24.685  28.057  1.00  0.00    -0.203 F 
ATOM     67  C   UNL A   1      42.375  24.390  26.255  1.00  0.00     0.198 A 
ATOM     68  C   UNL A   1      43.901  26.146  25.660  1.00  0.00     0.198 A 
ATOM     69  F   UNL A   1      43.926  28.155  26.891  1.00  0.00    -0.203 F 
ATOM     70  F   UNL A   1      41.893  23.155  26.062  1.00  0.00    -0.200 F 
ATOM     71  C   UNL A   1      43.393  24.872  25.447  1.00  0.00     0.200 A 
ATOM     72  F   UNL A   1      44.877  26.615  24.872  1.00  0.00    -0.200 F 
ATOM     73  F   UNL A   1      43.890  24.106  24.467  1.00  0.00    -0.200 F 
ENDBRANCH  49  63
BRANCH  50  74
ATOM     74  C   UNL A   1      39.354  31.912  35.263  1.00  0.00     0.064 A 
ATOM     75  C   UNL A   1      38.491  31.368  36.227  1.00  0.00     0.173 A 
ATOM     76  C   UNL A   1      39.698  33.264  35.377  1.00  0.00     0.173 A 
ATOM     77  F   UNL A   1      38.134  30.077  36.155  1.00  0.00    -0.203 F 
ATOM     78  C   UNL A   1      37.954  32.160  37.237  1.00  0.00     0.198 A 
ATOM     79  C   UNL A   1      39.180  34.049  36.404  1.00  0.00     0.198 A 
ATOM     80  F   UNL A   1      40.540  33.816  34.491  1.00  0.00    -0.203 F 
ATOM     81  F   UNL A   1      37.088  31.630  38.112  1.00  0.00    -0.200 F 
ATOM     82  C   UNL A   1      38.298  33.500  37.323  1.00  0.00     0.200 A 
ATOM     83  F   UNL A   1      39.528  35.339  36.498  1.00  0.00    -0.200 F 
ATOM     84  F   UNL A   1      37.775  34.265  38.292  1.00  0.00    -0.200 F 
ENDBRANCH  50  74
BRANCH  62  85
ATOM     85  C   UNL A   1      44.500  27.308  34.345  1.00  0.00     0.064 A 
ATOM     86  C   UNL A   1      45.741  27.948  34.473  1.00  0.00     0.173 A 
ATOM     87  C   UNL A   1      44.289  26.121  35.062  1.00  0.00     0.173 A 
ATOM     88  F   UNL A   1      45.988  29.083  33.803  1.00  0.00    -0.203 F 
ATOM     89  C   UNL A   1      46.737  27.415  35.285  1.00  0.00     0.198 A 
ATOM     90  C   UNL A   1      45.283  25.602  35.887  1.00  0.00     0.198 A 
ATOM     91  F   UNL A   1      43.113  25.483  34.980  1.00  0.00    -0.203 F 
ATOM     92  F   UNL A   1      47.922  28.036  35.383  1.00  0.00    -0.200 F 
ATOM     93  C   UNL A   1      46.506  26.246  35.995  1.00  0.00     0.200 A 
ATOM     94  F   UNL A   1      45.051  24.483  36.588  1.00  0.00    -0.200 F 
ATOM     95  F   UNL A   1      47.462  25.743  36.787  1.00  0.00    -0.200 F 
ENDBRANCH  62  85
ENDBRANCH  36  37
ENDBRANCH  29  31
ENDBRANCH  28  29
ENDBRANCH  27  28
ENDBRANCH  26  27
ENDBRANCH   1  26
TORSDOF 18
ENDMDL
MODEL 2
REMARK VINA RESULT:     -11.4      1.526      2.472
REMARK SMILES Cc1nc(Nc2ccc(F)cc2)nc(OCC(=O)OCCOC(=O)c2ccc(-c3c4nc(c(-c5c(F)c(F)c(F)c(F)c5F)c5ccc([nH]5)c(-c5c(F)c(F)c(F)c(F)c5F)c5nc(c(-c6c(F)c(F)c(F)c(F)c6F)c6ccc3[nH]6)C=C5)C=C4)cc2)c1CCO
REMARK SMILES IDX 19 1 17 2 18 3 16 4 15 5 14 6 1 7 2 8 3 9 88 10 4 11 13 12
REMARK SMILES IDX 89 13 90 14 91 15 5 17 6 19 7 20 12 21 8 22 11 23 9 24 10 25
REMARK SMILES IDX 20 26 21 27 22 28 23 29 24 30 25 31 26 32 87 33 27 34 86 35
REMARK SMILES IDX 28 36 29 37 30 38 80 39 31 40 85 41 79 42 81 43 32 44 84 45
REMARK SMILES IDX 78 46 77 47 33 49 65 50 45 51 64 52 46 53 49 54 63 55 82 56
REMARK SMILES IDX 47 57 48 58 62 60 83 61 50 62 34 63 35 64 43 65 36 66 37 67
REMARK SMILES IDX 41 68 44 69 38 70 39 71 42 72 40 73 66 74 67 75 75 76 68 77
REMARK SMILES IDX 69 78 73 79 76 80 70 81 71 82 74 83 72 84 51 85 52 86 60 87
REMARK SMILES IDX 53 88 54 89 58 90 61 91 55 92 56 93 59 94 57 95
REMARK H PARENT 91 16 5 18 81 48 49 59
REMARK Flexibility Score: inf
ROOT
ATOM      1  O   UNL A   1      31.812  27.913  25.400  1.00  0.00    -0.460 OA
ENDROOT
BRANCH   1   2
ATOM      2  C   UNL A   1      31.025  26.876  25.788  1.00  0.00     0.344 C 
ATOM      3  O   UNL A   1      31.028  26.381  26.911  1.00  0.00    -0.248 OA
BRANCH   2   4
ATOM      4  C   UNL A   1      30.216  26.265  24.634  1.00  0.00     0.353 C 
BRANCH   4   5
ATOM      5  O   UNL A   1      30.588  25.277  23.706  1.00  0.00    -0.465 OA
BRANCH   5   6
ATOM      6  C   UNL A   1      31.667  24.479  23.911  1.00  0.00     0.222 A 
ATOM      7  C   UNL A   1      35.326  23.736  23.482  1.00  0.00     0.067 C 
ATOM      8  C   UNL A   1      33.870  23.729  23.827  1.00  0.00     0.050 A 
ATOM      9  N   UNL A   1      33.519  22.639  24.524  1.00  0.00    -0.218 NA
ATOM     10  C   UNL A   1      32.936  24.661  23.384  1.00  0.00     0.038 A 
ATOM     11  C   UNL A   1      32.230  22.427  24.778  1.00  0.00     0.230 A 
ATOM     12  N   UNL A   1      31.294  23.344  24.538  1.00  0.00    -0.177 NA
BRANCH  10  13
ATOM     13  C   UNL A   1      33.271  25.651  22.303  1.00  0.00     0.071 C 
BRANCH  13  14
ATOM     14  C   UNL A   1      32.878  25.202  20.894  1.00  0.00     0.161 C 
BRANCH  14  15
ATOM     15  O   UNL A   1      31.788  25.952  20.384  1.00  0.00    -0.396 OA
ATOM     16  H   UNL A   1      31.071  25.966  21.038  1.00  0.00     0.210 HD
ENDBRANCH  14  15
ENDBRANCH  13  14
ENDBRANCH  10  13
BRANCH  11  17
ATOM     17  N   UNL A   1      31.822  21.142  25.141  1.00  0.00    -0.324 N 
ATOM     18  H   UNL A   1      31.112  21.068  25.818  1.00  0.00     0.170 HD
BRANCH  17  19
ATOM     19  C   UNL A   1      32.342  19.947  24.621  1.00  0.00     0.041 A 
ATOM     20  C   UNL A   1      32.153  19.622  23.268  1.00  0.00     0.029 A 
ATOM     21  C   UNL A   1      32.906  18.985  25.471  1.00  0.00     0.029 A 
ATOM     22  C   UNL A   1      32.538  18.378  22.767  1.00  0.00     0.041 A 
ATOM     23  C   UNL A   1      33.272  17.729  24.976  1.00  0.00     0.041 A 
ATOM     24  C   UNL A   1      33.086  17.438  23.629  1.00  0.00     0.123 A 
ATOM     25  F   UNL A   1      33.423  16.230  23.159  1.00  0.00    -0.207 F 
ENDBRANCH  17  19
ENDBRANCH  11  17
ENDBRANCH   5   6
ENDBRANCH   4   5
ENDBRANCH   2   4
ENDBRANCH   1   2
BRANCH   1  26
ATOM     26  C   UNL A   1      31.101  29.046  24.851  1.00  0.00     0.274 C 
BRANCH  26  27
ATOM     27  C   UNL A   1      31.648  30.375  25.367  1.00  0.00     0.275 C 
BRANCH  27  28
ATOM     28  O   UNL A   1      32.288  30.185  26.641  1.00  0.00    -0.458 OA
BRANCH  28  29
ATOM     29  C   UNL A   1      32.923  31.273  27.135  1.00  0.00     0.338 C 
ATOM     30  O   UNL A   1      32.454  32.394  27.251  1.00  0.00    -0.246 OA
BRANCH  29  31
ATOM     31  C   UNL A   1      34.300  30.941  27.584  1.00  0.00     0.060 A 
ATOM     32  C   UNL A   1      34.744  29.625  27.715  1.00  0.00     0.016 A 
ATOM     33  C   UNL A   1      35.120  31.987  28.025  1.00  0.00     0.016 A 
ATOM     34  C   UNL A   1      35.940  29.356  28.395  1.00  0.00     0.010 A 
ATOM     35  C   UNL A   1      36.351  31.717  28.633  1.00  0.00     0.010 A 
ATOM     36  C   UNL A   1      36.760  30.396  28.867  1.00  0.00    -0.014 A 
BRANCH  36  37
ATOM     37  C   UNL A   1      38.036  30.126  29.594  1.00  0.00     0.031 A 
ATOM     38  C   UNL A   1      39.109  29.249  28.993  1.00  0.00     0.074 A 
ATOM     39  C   UNL A   1      38.241  30.648  30.819  1.00  0.00     0.049 A 
ATOM     40  N   UNL A   1      40.160  28.711  29.564  1.00  0.00    -0.248 NA
ATOM     41  C   UNL A   1      38.989  28.938  27.562  1.00  0.00     0.031 C 
ATOM     42  C   UNL A   1      37.333  31.558  31.516  1.00  0.00     0.029 A 
ATOM     43  N   UNL A   1      39.284  30.480  31.700  1.00  0.00    -0.354 N 
ATOM     44  C   UNL A   1      40.795  27.966  28.577  1.00  0.00     0.074 A 
ATOM     45  C   UNL A   1      40.022  28.129  27.364  1.00  0.00     0.031 C 
ATOM     46  C   UNL A   1      37.869  31.895  32.696  1.00  0.00     0.029 A 
ATOM     47  C   UNL A   1      39.104  31.143  32.889  1.00  0.00     0.049 A 
ATOM     48  H   UNL A   1      40.080  29.939  31.498  1.00  0.00     0.167 HD
ATOM     49  C   UNL A   1      41.916  27.212  28.678  1.00  0.00     0.037 A 
ATOM     50  C   UNL A   1      39.808  31.107  34.035  1.00  0.00     0.037 A 
ATOM     51  C   UNL A   1      42.712  27.080  29.871  1.00  0.00     0.049 A 
ATOM     52  C   UNL A   1      40.998  30.204  34.152  1.00  0.00     0.074 A 
ATOM     53  C   UNL A   1      43.869  26.342  30.060  1.00  0.00     0.029 A 
ATOM     54  N   UNL A   1      42.443  27.711  31.074  1.00  0.00    -0.354 N 
ATOM     55  N   UNL A   1      41.529  29.422  33.246  1.00  0.00    -0.248 NA
ATOM     56  C   UNL A   1      41.662  30.150  35.463  1.00  0.00     0.031 C 
ATOM     57  C   UNL A   1      44.283  26.503  31.386  1.00  0.00     0.029 A 
ATOM     58  C   UNL A   1      43.404  27.369  32.013  1.00  0.00     0.049 A 
ATOM     59  H   UNL A   1      41.682  28.314  31.239  1.00  0.00     0.167 HD
ATOM     60  C   UNL A   1      42.583  28.775  33.876  1.00  0.00     0.074 A 
ATOM     61  C   UNL A   1      42.630  29.272  35.236  1.00  0.00     0.031 C 
ATOM     62  C   UNL A   1      43.429  27.848  33.369  1.00  0.00     0.037 A 
BRANCH  49  63
ATOM     63  C   UNL A   1      42.363  26.436  27.474  1.00  0.00     0.064 A 
ATOM     64  C   UNL A   1      41.878  25.136  27.254  1.00  0.00     0.173 A 
ATOM     65  C   UNL A   1      43.358  26.922  26.615  1.00  0.00     0.173 A 
ATOM     66  F   UNL A   1      40.933  24.625  28.056  1.00  0.00    -0.203 F 
ATOM     67  C   UNL A   1      42.390  24.344  26.230  1.00  0.00     0.198 A 
ATOM     68  C   UNL A   1      43.855  26.131  25.580  1.00  0.00     0.198 A 
ATOM     69  F   UNL A   1      43.847  28.159  26.781  1.00  0.00    -0.203 F 
ATOM     70  F   UNL A   1      41.939  23.092  26.064  1.00  0.00    -0.200 F 
ATOM     71  C   UNL A   1      43.379  24.841  25.396  1.00  0.00     0.200 A 
ATOM     72  F   UNL A   1      44.803  26.615  24.767  1.00  0.00    -0.200 F 
ATOM     73  F   UNL A   1      43.879  24.073  24.418  1.00  0.00    -0.200 F 
ENDBRANCH  49  63
BRANCH  50  74
ATOM     74  C   UNL A   1      39.344  31.922  35.184  1.00  0.00     0.064 A 
ATOM     75  C   UNL A   1      38.505  31.373  36.167  1.00  0.00     0.173 A 
ATOM     76  C   UNL A   1      39.663  33.281  35.275  1.00  0.00     0.173 A 
ATOM     77  F   UNL A   1      38.172  30.075  36.117  1.00  0.00    -0.203 F 
ATOM     78  C   UNL A   1      37.968  32.168  37.175  1.00  0.00     0.198 A 
ATOM     79  C   UNL A   1      39.145  34.070  36.300  1.00  0.00     0.198 A 
ATOM     80  F   UNL A   1      40.481  33.838  34.370  1.00  0.00    -0.203 F 
ATOM     81  F   UNL A   1      37.125  31.633  38.069  1.00  0.00    -0.200 F 
ATOM     82  C   UNL A   1      38.287  33.516  37.239  1.00  0.00     0.200 A 
ATOM     83  F   UNL A   1      39.470  35.367  36.373  1.00  0.00    -0.200 F 
ATOM     84  F   UNL A   1      37.764  34.282  38.206  1.00  0.00    -0.200 F 
ENDBRANCH  50  74
BRANCH  62  85
ATOM     85  C   UNL A   1      44.478  27.301  34.287  1.00  0.00     0.064 A 
ATOM     86  C   UNL A   1      45.704  27.963  34.447  1.00  0.00     0.173 A 
ATOM     87  C   UNL A   1      44.282  26.095  34.974  1.00  0.00     0.173 A 
ATOM     88  F   UNL A   1      45.937  29.117  33.806  1.00  0.00    -0.203 F 
ATOM     89  C   UNL A   1      46.700  27.432  35.262  1.00  0.00     0.198 A 
ATOM     90  C   UNL A   1      45.274  25.577  35.802  1.00  0.00     0.198 A 
ATOM     91  F   UNL A   1      43.120  25.435  34.861  1.00  0.00    -0.203 F 
ATOM     92  F   UNL A   1      47.870  28.074  35.390  1.00  0.00    -0.200 F 
ATOM     93  C   UNL A   1      46.483  26.243  35.942  1.00  0.00     0.200 A 
ATOM     94  F   UNL A   1      45.055  24.439  36.475  1.00  0.00    -0.200 F 
ATOM     95  F   UNL A   1      47.437  25.741  36.736  1.00  0.00    -0.200 F 
ENDBRANCH  62  85
ENDBRANCH  36  37
ENDBRANCH  29  31
ENDBRANCH  28  29
ENDBRANCH  27  28
ENDBRANCH  26  27
ENDBRANCH   1  26
TORSDOF 18
ENDMDL
MODEL 3
REMARK VINA RESULT:     -11.4      1.576      3.136
REMARK SMILES Cc1nc(Nc2ccc(F)cc2)nc(OCC(=O)OCCOC(=O)c2ccc(-c3c4nc(c(-c5c(F)c(F)c(F)c(F)c5F)c5ccc([nH]5)c(-c5c(F)c(F)c(F)c(F)c5F)c5nc(c(-c6c(F)c(F)c(F)c(F)c6F)c6ccc3[nH]6)C=C5)C=C4)cc2)c1CCO
REMARK SMILES IDX 19 1 17 2 18 3 16 4 15 5 14 6 1 7 2 8 3 9 88 10 4 11 13 12
REMARK SMILES IDX 89 13 90 14 91 15 5 17 6 19 7 20 12 21 8 22 11 23 9 24 10 25
REMARK SMILES IDX 20 26 21 27 22 28 23 29 24 30 25 31 26 32 87 33 27 34 86 35
REMARK SMILES IDX 28 36 29 37 30 38 80 39 31 40 85 41 79 42 81 43 32 44 84 45
REMARK SMILES IDX 78 46 77 47 33 49 65 50 45 51 64 52 46 53 49 54 63 55 82 56
REMARK SMILES IDX 47 57 48 58 62 60 83 61 50 62 34 63 35 64 43 65 36 66 37 67
REMARK SMILES IDX 41 68 44 69 38 70 39 71 42 72 40 73 66 74 67 75 75 76 68 77
REMARK SMILES IDX 69 78 73 79 76 80 70 81 71 82 74 83 72 84 51 85 52 86 60 87
REMARK SMILES IDX 53 88 54 89 58 90 61 91 55 92 56 93 59 94 57 95
REMARK H PARENT 91 16 5 18 81 48 49 59
REMARK Flexibility Score: inf
ROOT
ATOM      1  O   UNL A   1      31.862  27.875  25.436  1.00  0.00    -0.460 OA
ENDROOT
BRANCH   1   2
ATOM      2  C   UNL A   1      30.993  26.845  25.601  1.00  0.00     0.344 C 
ATOM      3  O   UNL A   1      30.816  26.244  26.656  1.00  0.00    -0.248 OA
BRANCH   2   4
ATOM      4  C   UNL A   1      30.340  26.389  24.288  1.00  0.00     0.353 C 
BRANCH   4   5
ATOM      5  O   UNL A   1      30.483  25.175  23.592  1.00  0.00    -0.465 OA
BRANCH   5   6
ATOM      6  C   UNL A   1      31.586  24.398  23.738  1.00  0.00     0.222 A 
ATOM      7  C   UNL A   1      35.233  23.732  23.119  1.00  0.00     0.067 C 
ATOM      8  C   UNL A   1      33.797  23.693  23.537  1.00  0.00     0.050 A 
ATOM      9  N   UNL A   1      33.503  22.593  24.245  1.00  0.00    -0.218 NA
ATOM     10  C   UNL A   1      32.822  24.608  23.148  1.00  0.00     0.038 A 
ATOM     11  C   UNL A   1      32.233  22.353  24.562  1.00  0.00     0.230 A 
ATOM     12  N   UNL A   1      31.267  23.252  24.375  1.00  0.00    -0.177 NA
BRANCH  10  13
ATOM     13  C   UNL A   1      33.083  25.610  22.057  1.00  0.00     0.071 C 
BRANCH  13  14
ATOM     14  C   UNL A   1      33.517  26.989  22.560  1.00  0.00     0.161 C 
BRANCH  14  15
ATOM     15  O   UNL A   1      34.017  27.800  21.510  1.00  0.00    -0.396 OA
ATOM     16  H   UNL A   1      34.799  27.378  21.119  1.00  0.00     0.210 HD
ENDBRANCH  14  15
ENDBRANCH  13  14
ENDBRANCH  10  13
BRANCH  11  17
ATOM     17  N   UNL A   1      31.870  21.058  24.937  1.00  0.00    -0.324 N 
ATOM     18  H   UNL A   1      31.153  20.966  25.605  1.00  0.00     0.170 HD
BRANCH  17  19
ATOM     19  C   UNL A   1      32.442  19.878  24.442  1.00  0.00     0.041 A 
ATOM     20  C   UNL A   1      32.120  19.420  23.154  1.00  0.00     0.029 A 
ATOM     21  C   UNL A   1      33.208  19.051  25.277  1.00  0.00     0.029 A 
ATOM     22  C   UNL A   1      32.568  18.180  22.699  1.00  0.00     0.041 A 
ATOM     23  C   UNL A   1      33.638  17.797  24.830  1.00  0.00     0.041 A 
ATOM     24  C   UNL A   1      33.316  17.374  23.546  1.00  0.00     0.123 A 
ATOM     25  F   UNL A   1      33.716  16.167  23.125  1.00  0.00    -0.207 F 
ENDBRANCH  17  19
ENDBRANCH  11  17
ENDBRANCH   5   6
ENDBRANCH   4   5
ENDBRANCH   2   4
ENDBRANCH   1   2
BRANCH   1  26
ATOM     26  C   UNL A   1      31.314  29.036  24.771  1.00  0.00     0.274 C 
BRANCH  26  27
ATOM     27  C   UNL A   1      31.492  30.310  25.594  1.00  0.00     0.275 C 
BRANCH  27  28
ATOM     28  O   UNL A   1      32.447  30.089  26.647  1.00  0.00    -0.458 OA
BRANCH  28  29
ATOM     29  C   UNL A   1      33.076  31.199  27.096  1.00  0.00     0.338 C 
ATOM     30  O   UNL A   1      32.614  32.328  27.133  1.00  0.00    -0.246 OA
BRANCH  29  31
ATOM     31  C   UNL A   1      34.436  30.883  27.606  1.00  0.00     0.060 A 
ATOM     32  C   UNL A   1      34.843  29.578  27.886  1.00  0.00     0.016 A 
ATOM     33  C   UNL A   1      35.276  31.951  27.949  1.00  0.00     0.016 A 
ATOM     34  C   UNL A   1      36.019  29.355  28.615  1.00  0.00     0.010 A 
ATOM     35  C   UNL A   1      36.488  31.717  28.607  1.00  0.00     0.010 A 
ATOM     36  C   UNL A   1      36.858  30.419  28.989  1.00  0.00    -0.014 A 
BRANCH  36  37
ATOM     37  C   UNL A   1      38.113  30.198  29.766  1.00  0.00     0.031 A 
ATOM     38  C   UNL A   1      39.227  29.333  29.225  1.00  0.00     0.074 A 
ATOM     39  C   UNL A   1      38.264  30.755  30.984  1.00  0.00     0.049 A 
ATOM     40  N   UNL A   1      40.270  28.834  29.845  1.00  0.00    -0.248 NA
ATOM     41  C   UNL A   1      39.165  28.985  27.799  1.00  0.00     0.031 C 
ATOM     42  C   UNL A   1      37.311  31.659  31.626  1.00  0.00     0.029 A 
ATOM     43  N   UNL A   1      39.278  30.633  31.904  1.00  0.00    -0.354 N 
ATOM     44  C   UNL A   1      40.956  28.081  28.900  1.00  0.00     0.074 A 
ATOM     45  C   UNL A   1      40.222  28.195  27.657  1.00  0.00     0.031 C 
ATOM     46  C   UNL A   1      37.798  32.038  32.815  1.00  0.00     0.029 A 
ATOM     47  C   UNL A   1      39.042  31.320  33.069  1.00  0.00     0.049 A 
ATOM     48  H   UNL A   1      40.094  30.106  31.744  1.00  0.00     0.167 HD
ATOM     49  C   UNL A   1      42.090  27.356  29.058  1.00  0.00     0.037 A 
ATOM     50  C   UNL A   1      39.706  31.330  34.239  1.00  0.00     0.037 A 
ATOM     51  C   UNL A   1      42.847  27.273  30.281  1.00  0.00     0.049 A 
ATOM     52  C   UNL A   1      40.912  30.458  34.420  1.00  0.00     0.074 A 
ATOM     53  C   UNL A   1      44.013  26.568  30.528  1.00  0.00     0.029 A 
ATOM     54  N   UNL A   1      42.521  27.927  31.458  1.00  0.00    -0.354 N 
ATOM     55  N   UNL A   1      41.492  29.667  33.553  1.00  0.00    -0.248 NA
ATOM     56  C   UNL A   1      41.530  30.452  35.754  1.00  0.00     0.031 C 
ATOM     57  C   UNL A   1      44.377  26.771  31.863  1.00  0.00     0.029 A 
ATOM     58  C   UNL A   1      43.457  27.631  32.437  1.00  0.00     0.049 A 
ATOM     59  H   UNL A   1      41.741  28.515  31.580  1.00  0.00     0.167 HD
ATOM     60  C   UNL A   1      42.539  29.061  34.235  1.00  0.00     0.074 A 
ATOM     61  C   UNL A   1      42.526  29.593  35.582  1.00  0.00     0.031 C 
ATOM     62  C   UNL A   1      43.423  28.143  33.781  1.00  0.00     0.037 A 
BRANCH  49  63
ATOM     63  C   UNL A   1      42.597  26.563  27.890  1.00  0.00     0.064 A 
ATOM     64  C   UNL A   1      43.477  27.152  26.968  1.00  0.00     0.173 A 
ATOM     65  C   UNL A   1      42.118  25.275  27.613  1.00  0.00     0.173 A 
ATOM     66  F   UNL A   1      43.954  28.386  27.185  1.00  0.00    -0.203 F 
ATOM     67  C   UNL A   1      43.842  26.488  25.799  1.00  0.00     0.198 A 
ATOM     68  C   UNL A   1      42.500  24.607  26.450  1.00  0.00     0.198 A 
ATOM     69  F   UNL A   1      41.281  24.669  28.467  1.00  0.00    -0.203 F 
ATOM     70  F   UNL A   1      44.652  27.086  24.915  1.00  0.00    -0.200 F 
ATOM     71  C   UNL A   1      43.351  25.218  25.541  1.00  0.00     0.200 A 
ATOM     72  F   UNL A   1      42.034  23.374  26.206  1.00  0.00    -0.200 F 
ATOM     73  F   UNL A   1      43.693  24.584  24.411  1.00  0.00    -0.200 F 
ENDBRANCH  49  63
BRANCH  50  74
ATOM     74  C   UNL A   1      39.183  32.160  35.351  1.00  0.00     0.064 A 
ATOM     75  C   UNL A   1      39.542  33.511  35.474  1.00  0.00     0.173 A 
ATOM     76  C   UNL A   1      38.382  31.598  36.351  1.00  0.00     0.173 A 
ATOM     77  F   UNL A   1      40.310  34.090  34.540  1.00  0.00    -0.203 F 
ATOM     78  C   UNL A   1      39.154  34.257  36.584  1.00  0.00     0.198 A 
ATOM     79  C   UNL A   1      37.972  32.353  37.447  1.00  0.00     0.198 A 
ATOM     80  F   UNL A   1      37.995  30.317  36.257  1.00  0.00    -0.203 F 
ATOM     81  F   UNL A   1      39.556  35.529  36.707  1.00  0.00    -0.200 F 
ATOM     82  C   UNL A   1      38.371  33.677  37.570  1.00  0.00     0.200 A 
ATOM     83  F   UNL A   1      37.199  31.797  38.389  1.00  0.00    -0.200 F 
ATOM     84  F   UNL A   1      38.003  34.393  38.641  1.00  0.00    -0.200 F 
ENDBRANCH  50  74
BRANCH  62  85
ATOM     85  C   UNL A   1      44.452  27.644  34.747  1.00  0.00     0.064 A 
ATOM     86  C   UNL A   1      44.216  26.494  35.514  1.00  0.00     0.173 A 
ATOM     87  C   UNL A   1      45.657  28.335  34.944  1.00  0.00     0.173 A 
ATOM     88  F   UNL A   1      43.076  25.805  35.363  1.00  0.00    -0.203 F 
ATOM     89  C   UNL A   1      45.149  26.055  36.448  1.00  0.00     0.198 A 
ATOM     90  C   UNL A   1      46.596  27.882  35.866  1.00  0.00     0.198 A 
ATOM     91  F   UNL A   1      45.931  29.432  34.223  1.00  0.00    -0.203 F 
ATOM     92  F   UNL A   1      44.897  24.961  37.181  1.00  0.00    -0.200 F 
ATOM     93  C   UNL A   1      46.339  26.746  36.620  1.00  0.00     0.200 A 
ATOM     94  F   UNL A   1      47.754  28.538  36.017  1.00  0.00    -0.200 F 
ATOM     95  F   UNL A   1      47.243  26.314  37.510  1.00  0.00    -0.200 F 
ENDBRANCH  62  85
ENDBRANCH  36  37
ENDBRANCH  29  31
ENDBRANCH  28  29
ENDBRANCH  27  28
ENDBRANCH  26  27
ENDBRANCH   1  26
TORSDOF 18
ENDMDL
