MODEL 1
REMARK VINA RESULT:     -12.3      0.000      0.000
REMARK SMILES O=C(Nc1ccccc1C(=O)OCCOC(=O)c1ccc(-c2c3nc(c(-c4c(F)c(F)c(F)c(F)c4F)c4ccc([nH]4)c(-c4c(F)c(F)c(F)c(F)c4F)c4nc(c(-c5c(F)c(F)c(F)c(F)c5F)c5ccc2[nH]5)C=C4)C=C3)cc1)c1ccncc1
REMARK SMILES IDX 13 1 12 2 10 3 11 4 9 5 4 6 5 7 6 8 8 9 7 10 3 11 1 12 2 13
REMARK SMILES IDX 81 15 82 16 86 17 83 18 85 19 84 20 14 21 15 22 16 23 17 24
REMARK SMILES IDX 18 25 19 26 80 27 20 28 79 29 21 30 22 31 23 32 73 33 24 34
REMARK SMILES IDX 78 35 72 36 74 37 25 38 77 39 71 40 70 41 26 43 58 44 38 45
REMARK SMILES IDX 57 46 39 47 42 48 56 49 75 50 40 51 41 52 55 54 76 55 43 56
REMARK SMILES IDX 27 57 28 58 36 59 29 60 30 61 34 62 37 63 31 64 32 65 35 66
REMARK SMILES IDX 33 67 59 68 60 69 68 70 61 71 62 72 66 73 69 74 63 75 64 76
REMARK SMILES IDX 67 77 65 78 44 79 45 80 53 81 46 82 47 83 51 84 54 85 48 86
REMARK SMILES IDX 49 87 52 88 50 89
REMARK H PARENT 3 14 74 42 42 53
REMARK Flexibility Score: inf
ROOT
ATOM      1  C   UNL A   1      31.778  28.924  27.251  1.00  0.00     0.275 C 
ENDROOT
BRANCH   1   2
ATOM      2  O   UNL A   1      32.646  27.940  26.646  1.00  0.00    -0.458 OA
BRANCH   2   3
ATOM      3  C   UNL A   1      32.543  27.811  25.298  1.00  0.00     0.340 C 
ATOM      4  O   UNL A   1      33.430  27.996  24.489  1.00  0.00    -0.246 OA
BRANCH   3   5
ATOM      5  C   UNL A   1      31.179  27.395  24.887  1.00  0.00     0.083 A 
ATOM      6  C   UNL A   1      30.505  26.286  25.418  1.00  0.00     0.056 A 
ATOM      7  C   UNL A   1      29.268  25.920  24.856  1.00  0.00     0.027 A 
ATOM      8  C   UNL A   1      28.655  26.703  23.874  1.00  0.00     0.002 A 
ATOM      9  C   UNL A   1      30.540  28.182  23.912  1.00  0.00     0.018 A 
ATOM     10  C   UNL A   1      29.283  27.848  23.414  1.00  0.00     0.001 A 
BRANCH   6  11
ATOM     11  N   UNL A   1      30.932  25.491  26.502  1.00  0.00    -0.321 N 
ATOM     12  O   UNL A   1      31.619  23.633  27.575  1.00  0.00    -0.269 OA
ATOM     13  C   UNL A   1      31.641  24.311  26.549  1.00  0.00     0.255 C 
ATOM     14  H   UNL A   1      30.675  25.843  27.384  1.00  0.00     0.170 HD
BRANCH  13  15
ATOM     15  C   UNL A   1      32.521  23.879  25.435  1.00  0.00     0.043 A 
ATOM     16  C   UNL A   1      32.023  22.940  24.530  1.00  0.00     0.034 A 
ATOM     17  C   UNL A   1      33.819  24.365  25.274  1.00  0.00     0.034 A 
ATOM     18  C   UNL A   1      32.815  22.589  23.453  1.00  0.00     0.112 A 
ATOM     19  C   UNL A   1      34.532  23.947  24.163  1.00  0.00     0.112 A 
ATOM     20  N   UNL A   1      34.058  23.071  23.251  1.00  0.00    -0.265 NA
ENDBRANCH  13  15
ENDBRANCH   6  11
ENDBRANCH   3   5
ENDBRANCH   2   3
ENDBRANCH   1   2
BRANCH   1  21
ATOM     21  C   UNL A   1      31.908  30.313  26.626  1.00  0.00     0.275 C 
BRANCH  21  22
ATOM     22  O   UNL A   1      33.289  30.654  26.411  1.00  0.00    -0.458 OA
BRANCH  22  23
ATOM     23  C   UNL A   1      33.766  31.577  27.268  1.00  0.00     0.338 C 
ATOM     24  O   UNL A   1      33.163  32.508  27.778  1.00  0.00    -0.246 OA
BRANCH  23  25
ATOM     25  C   UNL A   1      35.148  31.263  27.642  1.00  0.00     0.060 A 
ATOM     26  C   UNL A   1      35.449  29.927  27.872  1.00  0.00     0.016 A 
ATOM     27  C   UNL A   1      36.050  32.256  28.002  1.00  0.00     0.016 A 
ATOM     28  C   UNL A   1      36.565  29.566  28.600  1.00  0.00     0.010 A 
ATOM     29  C   UNL A   1      37.243  31.886  28.632  1.00  0.00     0.010 A 
ATOM     30  C   UNL A   1      37.482  30.543  28.986  1.00  0.00    -0.014 A 
BRANCH  30  31
ATOM     31  C   UNL A   1      38.644  30.159  29.824  1.00  0.00     0.031 A 
ATOM     32  C   UNL A   1      39.695  29.251  29.252  1.00  0.00     0.074 A 
ATOM     33  C   UNL A   1      38.774  30.654  31.071  1.00  0.00     0.049 A 
ATOM     34  N   UNL A   1      40.658  28.611  29.860  1.00  0.00    -0.248 NA
ATOM     35  C   UNL A   1      39.645  29.019  27.798  1.00  0.00     0.031 C 
ATOM     36  C   UNL A   1      37.872  31.622  31.701  1.00  0.00     0.029 A 
ATOM     37  N   UNL A   1      39.722  30.415  32.032  1.00  0.00    -0.354 N 
ATOM     38  C   UNL A   1      41.274  27.840  28.883  1.00  0.00     0.074 A 
ATOM     39  C   UNL A   1      40.586  28.100  27.637  1.00  0.00     0.031 C 
ATOM     40  C   UNL A   1      38.323  31.913  32.928  1.00  0.00     0.029 A 
ATOM     41  C   UNL A   1      39.477  31.072  33.213  1.00  0.00     0.049 A 
ATOM     42  H   UNL A   1      40.500  29.830  31.890  1.00  0.00     0.167 HD
ATOM     43  C   UNL A   1      42.315  26.986  29.028  1.00  0.00     0.037 A 
ATOM     44  C   UNL A   1      40.077  30.958  34.412  1.00  0.00     0.037 A 
ATOM     45  C   UNL A   1      43.020  26.795  30.268  1.00  0.00     0.049 A 
ATOM     46  C   UNL A   1      41.194  29.964  34.559  1.00  0.00     0.074 A 
ATOM     47  C   UNL A   1      44.101  25.974  30.531  1.00  0.00     0.029 A 
ATOM     48  N   UNL A   1      42.718  27.454  31.454  1.00  0.00    -0.354 N 
ATOM     49  N   UNL A   1      41.733  29.185  33.652  1.00  0.00    -0.248 NA
ATOM     50  C   UNL A   1      41.770  29.815  35.901  1.00  0.00     0.031 C 
ATOM     51  C   UNL A   1      44.420  26.098  31.887  1.00  0.00     0.029 A 
ATOM     52  C   UNL A   1      43.578  27.041  32.456  1.00  0.00     0.049 A 
ATOM     53  H   UNL A   1      41.997  28.115  31.565  1.00  0.00     0.167 HD
ATOM     54  C   UNL A   1      42.726  28.470  34.305  1.00  0.00     0.074 A 
ATOM     55  C   UNL A   1      42.725  28.923  35.682  1.00  0.00     0.031 C 
ATOM     56  C   UNL A   1      43.561  27.521  33.814  1.00  0.00     0.037 A 
BRANCH  43  57
ATOM     57  C   UNL A   1      42.713  26.156  27.841  1.00  0.00     0.064 A 
ATOM     58  C   UNL A   1      42.114  24.923  27.548  1.00  0.00     0.173 A 
ATOM     59  C   UNL A   1      43.702  26.627  26.961  1.00  0.00     0.173 A 
ATOM     60  F   UNL A   1      41.177  24.418  28.364  1.00  0.00    -0.203 F 
ATOM     61  C   UNL A   1      42.505  24.182  26.434  1.00  0.00     0.198 A 
ATOM     62  C   UNL A   1      44.068  25.899  25.832  1.00  0.00     0.198 A 
ATOM     63  F   UNL A   1      44.309  27.802  27.191  1.00  0.00    -0.203 F 
ATOM     64  F   UNL A   1      41.953  22.983  26.202  1.00  0.00    -0.200 F 
ATOM     65  C   UNL A   1      43.475  24.674  25.574  1.00  0.00     0.200 A 
ATOM     66  F   UNL A   1      44.997  26.384  24.996  1.00  0.00    -0.200 F 
ATOM     67  F   UNL A   1      43.844  23.963  24.499  1.00  0.00    -0.200 F 
ENDBRANCH  43  57
BRANCH  44  68
ATOM     68  C   UNL A   1      39.595  31.759  35.569  1.00  0.00     0.064 A 
ATOM     69  C   UNL A   1      40.141  33.018  35.849  1.00  0.00     0.173 A 
ATOM     70  C   UNL A   1      38.583  31.286  36.418  1.00  0.00     0.173 A 
ATOM     71  F   UNL A   1      41.127  33.506  35.082  1.00  0.00    -0.203 F 
ATOM     72  C   UNL A   1      39.704  33.767  36.941  1.00  0.00     0.198 A 
ATOM     73  C   UNL A   1      38.121  32.049  37.488  1.00  0.00     0.198 A 
ATOM     74  F   UNL A   1      38.025  30.086  36.198  1.00  0.00    -0.203 F 
ATOM     75  F   UNL A   1      40.278  34.947  37.213  1.00  0.00    -0.200 F 
ATOM     76  C   UNL A   1      38.689  33.285  37.755  1.00  0.00     0.200 A 
ATOM     77  F   UNL A   1      37.129  31.587  38.260  1.00  0.00    -0.200 F 
ATOM     78  F   UNL A   1      38.265  34.008  38.799  1.00  0.00    -0.200 F 
ENDBRANCH  44  68
BRANCH  56  79
ATOM     79  C   UNL A   1      44.574  26.954  34.764  1.00  0.00     0.064 A 
ATOM     80  C   UNL A   1      45.820  27.565  34.965  1.00  0.00     0.173 A 
ATOM     81  C   UNL A   1      44.278  25.800  35.503  1.00  0.00     0.173 A 
ATOM     82  F   UNL A   1      46.156  28.661  34.267  1.00  0.00    -0.203 F 
ATOM     83  C   UNL A   1      46.745  27.021  35.851  1.00  0.00     0.198 A 
ATOM     84  C   UNL A   1      45.192  25.279  36.413  1.00  0.00     0.198 A 
ATOM     85  F   UNL A   1      43.096  25.183  35.349  1.00  0.00    -0.203 F 
ATOM     86  F   UNL A   1      47.952  27.589  35.988  1.00  0.00    -0.200 F 
ATOM     87  C   UNL A   1      46.427  25.884  36.579  1.00  0.00     0.200 A 
ATOM     88  F   UNL A   1      44.877  24.189  37.125  1.00  0.00    -0.200 F 
ATOM     89  F   UNL A   1      47.317  25.366  37.436  1.00  0.00    -0.200 F 
ENDBRANCH  56  79
ENDBRANCH  30  31
ENDBRANCH  23  25
ENDBRANCH  22  23
ENDBRANCH  21  22
ENDBRANCH   1  21
TORSDOF 13
ENDMDL
MODEL 2
REMARK VINA RESULT:     -12.3      1.004      2.463
REMARK SMILES O=C(Nc1ccccc1C(=O)OCCOC(=O)c1ccc(-c2c3nc(c(-c4c(F)c(F)c(F)c(F)c4F)c4ccc([nH]4)c(-c4c(F)c(F)c(F)c(F)c4F)c4nc(c(-c5c(F)c(F)c(F)c(F)c5F)c5ccc2[nH]5)C=C4)C=C3)cc1)c1ccncc1
REMARK SMILES IDX 13 1 12 2 10 3 11 4 9 5 4 6 5 7 6 8 8 9 7 10 3 11 1 12 2 13
REMARK SMILES IDX 81 15 82 16 86 17 83 18 85 19 84 20 14 21 15 22 16 23 17 24
REMARK SMILES IDX 18 25 19 26 80 27 20 28 79 29 21 30 22 31 23 32 73 33 24 34
REMARK SMILES IDX 78 35 72 36 74 37 25 38 77 39 71 40 70 41 26 43 58 44 38 45
REMARK SMILES IDX 57 46 39 47 42 48 56 49 75 50 40 51 41 52 55 54 76 55 43 56
REMARK SMILES IDX 27 57 28 58 36 59 29 60 30 61 34 62 37 63 31 64 32 65 35 66
REMARK SMILES IDX 33 67 59 68 60 69 68 70 61 71 62 72 66 73 69 74 63 75 64 76
REMARK SMILES IDX 67 77 65 78 44 79 45 80 53 81 46 82 47 83 51 84 54 85 48 86
REMARK SMILES IDX 49 87 52 88 50 89
REMARK H PARENT 3 14 74 42 42 53
REMARK Flexibility Score: inf
ROOT
ATOM      1  C   UNL A   1      31.850  28.202  27.555  1.00  0.00     0.275 C 
ENDROOT
BRANCH   1   2
ATOM      2  O   UNL A   1      31.621  27.212  26.527  1.00  0.00    -0.458 OA
BRANCH   2   3
ATOM      3  C   UNL A   1      32.705  26.482  26.159  1.00  0.00     0.340 C 
ATOM      4  O   UNL A   1      33.856  26.869  26.133  1.00  0.00    -0.246 OA
BRANCH   3   5
ATOM      5  C   UNL A   1      32.333  25.096  25.780  1.00  0.00     0.083 A 
ATOM      6  C   UNL A   1      32.590  24.533  24.523  1.00  0.00     0.056 A 
ATOM      7  C   UNL A   1      32.075  23.253  24.242  1.00  0.00     0.027 A 
ATOM      8  C   UNL A   1      31.428  22.498  25.224  1.00  0.00     0.002 A 
ATOM      9  C   UNL A   1      31.695  24.317  26.762  1.00  0.00     0.018 A 
ATOM     10  C   UNL A   1      31.253  23.023  26.494  1.00  0.00     0.001 A 
BRANCH   6  11
ATOM     11  N   UNL A   1      33.351  25.114  23.487  1.00  0.00    -0.321 N 
ATOM     12  O   UNL A   1      33.745  26.234  21.572  1.00  0.00    -0.269 OA
ATOM     13  C   UNL A   1      33.057  26.113  22.585  1.00  0.00     0.255 C 
ATOM     14  H   UNL A   1      34.255  24.738  23.392  1.00  0.00     0.170 HD
BRANCH  13  15
ATOM     15  C   UNL A   1      31.998  27.120  22.844  1.00  0.00     0.043 A 
ATOM     16  C   UNL A   1      30.667  26.703  22.785  1.00  0.00     0.034 A 
ATOM     17  C   UNL A   1      32.288  28.454  23.127  1.00  0.00     0.034 A 
ATOM     18  C   UNL A   1      29.683  27.623  23.094  1.00  0.00     0.112 A 
ATOM     19  C   UNL A   1      31.228  29.297  23.419  1.00  0.00     0.112 A 
ATOM     20  N   UNL A   1      29.935  28.911  23.409  1.00  0.00    -0.265 NA
ENDBRANCH  13  15
ENDBRANCH   6  11
ENDBRANCH   3   5
ENDBRANCH   2   3
ENDBRANCH   1   2
BRANCH   1  21
ATOM     21  C   UNL A   1      31.754  29.639  27.043  1.00  0.00     0.275 C 
BRANCH  21  22
ATOM     22  O   UNL A   1      33.025  30.098  26.552  1.00  0.00    -0.458 OA
BRANCH  22  23
ATOM     23  C   UNL A   1      33.514  31.168  27.208  1.00  0.00     0.338 C 
ATOM     24  O   UNL A   1      32.906  32.159  27.582  1.00  0.00    -0.246 OA
BRANCH  23  25
ATOM     25  C   UNL A   1      34.922  30.958  27.556  1.00  0.00     0.060 A 
ATOM     26  C   UNL A   1      35.322  29.649  27.791  1.00  0.00     0.016 A 
ATOM     27  C   UNL A   1      35.757  32.016  27.889  1.00  0.00     0.016 A 
ATOM     28  C   UNL A   1      36.476  29.376  28.498  1.00  0.00     0.010 A 
ATOM     29  C   UNL A   1      36.986  31.739  28.498  1.00  0.00     0.010 A 
ATOM     30  C   UNL A   1      37.328  30.419  28.856  1.00  0.00    -0.014 A 
BRANCH  30  31
ATOM     31  C   UNL A   1      38.531  30.128  29.673  1.00  0.00     0.031 A 
ATOM     32  C   UNL A   1      39.614  29.258  29.102  1.00  0.00     0.074 A 
ATOM     33  C   UNL A   1      38.668  30.673  30.898  1.00  0.00     0.049 A 
ATOM     34  N   UNL A   1      40.627  28.692  29.704  1.00  0.00    -0.248 NA
ATOM     35  C   UNL A   1      39.538  28.972  27.659  1.00  0.00     0.031 C 
ATOM     36  C   UNL A   1      37.732  31.613  31.521  1.00  0.00     0.029 A 
ATOM     37  N   UNL A   1      39.653  30.519  31.839  1.00  0.00    -0.354 N 
ATOM     38  C   UNL A   1      41.257  27.921  28.735  1.00  0.00     0.074 A 
ATOM     39  C   UNL A   1      40.523  28.100  27.502  1.00  0.00     0.031 C 
ATOM     40  C   UNL A   1      38.200  31.971  32.724  1.00  0.00     0.029 A 
ATOM     41  C   UNL A   1      39.405  31.203  33.004  1.00  0.00     0.049 A 
ATOM     42  H   UNL A   1      40.458  29.971  31.694  1.00  0.00     0.167 HD
ATOM     43  C   UNL A   1      42.346  27.129  28.879  1.00  0.00     0.037 A 
ATOM     44  C   UNL A   1      40.043  31.163  34.188  1.00  0.00     0.037 A 
ATOM     45  C   UNL A   1      43.094  27.020  30.104  1.00  0.00     0.049 A 
ATOM     46  C   UNL A   1      41.216  30.236  34.337  1.00  0.00     0.074 A 
ATOM     47  C   UNL A   1      44.224  26.268  30.363  1.00  0.00     0.029 A 
ATOM     48  N   UNL A   1      42.789  27.703  31.275  1.00  0.00    -0.354 N 
ATOM     49  N   UNL A   1      41.771  29.455  33.441  1.00  0.00    -0.248 NA
ATOM     50  C   UNL A   1      41.835  30.166  35.665  1.00  0.00     0.031 C 
ATOM     51  C   UNL A   1      44.574  26.456  31.704  1.00  0.00     0.029 A 
ATOM     52  C   UNL A   1      43.697  27.372  32.266  1.00  0.00     0.049 A 
ATOM     53  H   UNL A   1      42.036  28.329  31.384  1.00  0.00     0.167 HD
ATOM     54  C   UNL A   1      42.819  28.818  34.089  1.00  0.00     0.074 A 
ATOM     55  C   UNL A   1      42.830  29.319  35.449  1.00  0.00     0.031 C 
ATOM     56  C   UNL A   1      43.691  27.899  33.606  1.00  0.00     0.037 A 
BRANCH  43  57
ATOM     57  C   UNL A   1      42.757  26.280  27.710  1.00  0.00     0.064 A 
ATOM     58  C   UNL A   1      42.183  25.028  27.449  1.00  0.00     0.173 A 
ATOM     59  C   UNL A   1      43.731  26.751  26.814  1.00  0.00     0.173 A 
ATOM     60  F   UNL A   1      41.261  24.522  28.281  1.00  0.00    -0.203 F 
ATOM     61  C   UNL A   1      42.585  24.269  26.351  1.00  0.00     0.198 A 
ATOM     62  C   UNL A   1      44.107  26.006  25.700  1.00  0.00     0.198 A 
ATOM     63  F   UNL A   1      44.313  27.944  27.013  1.00  0.00    -0.203 F 
ATOM     64  F   UNL A   1      42.058  23.054  26.150  1.00  0.00    -0.200 F 
ATOM     65  C   UNL A   1      43.540  24.761  25.474  1.00  0.00     0.200 A 
ATOM     66  F   UNL A   1      45.021  26.490  24.848  1.00  0.00    -0.200 F 
ATOM     67  F   UNL A   1      43.918  24.034  24.414  1.00  0.00    -0.200 F 
ENDBRANCH  43  57
BRANCH  44  68
ATOM     68  C   UNL A   1      39.550  31.978  35.331  1.00  0.00     0.064 A 
ATOM     69  C   UNL A   1      38.622  31.454  36.241  1.00  0.00     0.173 A 
ATOM     70  C   UNL A   1      39.991  33.294  35.538  1.00  0.00     0.173 A 
ATOM     71  F   UNL A   1      38.152  30.209  36.074  1.00  0.00    -0.203 F 
ATOM     72  C   UNL A   1      38.145  32.218  37.305  1.00  0.00     0.198 A 
ATOM     73  C   UNL A   1      39.541  34.045  36.621  1.00  0.00     0.198 A 
ATOM     74  F   UNL A   1      40.877  33.848  34.696  1.00  0.00    -0.203 F 
ATOM     75  F   UNL A   1      37.223  31.707  38.132  1.00  0.00    -0.200 F 
ATOM     76  C   UNL A   1      38.611  33.510  37.499  1.00  0.00     0.200 A 
ATOM     77  F   UNL A   1      40.007  35.287  36.813  1.00  0.00    -0.200 F 
ATOM     78  F   UNL A   1      38.157  34.241  38.525  1.00  0.00    -0.200 F 
ENDBRANCH  44  68
BRANCH  56  79
ATOM     79  C   UNL A   1      44.759  27.421  34.545  1.00  0.00     0.064 A 
ATOM     80  C   UNL A   1      45.982  28.092  34.674  1.00  0.00     0.173 A 
ATOM     81  C   UNL A   1      44.538  26.290  35.345  1.00  0.00     0.173 A 
ATOM     82  F   UNL A   1      46.246  29.167  33.916  1.00  0.00    -0.203 F 
ATOM     83  C   UNL A   1      46.959  27.630  35.551  1.00  0.00     0.198 A 
ATOM     84  C   UNL A   1      45.503  25.852  36.246  1.00  0.00     0.198 A 
ATOM     85  F   UNL A   1      43.380  25.617  35.262  1.00  0.00    -0.203 F 
ATOM     86  F   UNL A   1      48.143  28.254  35.620  1.00  0.00    -0.200 F 
ATOM     87  C   UNL A   1      46.716  26.516  36.341  1.00  0.00     0.200 A 
ATOM     88  F   UNL A   1      45.260  24.784  37.018  1.00  0.00    -0.200 F 
ATOM     89  F   UNL A   1      47.655  26.077  37.189  1.00  0.00    -0.200 F 
ENDBRANCH  56  79
ENDBRANCH  30  31
ENDBRANCH  23  25
ENDBRANCH  22  23
ENDBRANCH  21  22
ENDBRANCH   1  21
TORSDOF 13
ENDMDL
MODEL 3
REMARK VINA RESULT:     -12.2      1.377      2.938
REMARK SMILES O=C(Nc1ccccc1C(=O)OCCOC(=O)c1ccc(-c2c3nc(c(-c4c(F)c(F)c(F)c(F)c4F)c4ccc([nH]4)c(-c4c(F)c(F)c(F)c(F)c4F)c4nc(c(-c5c(F)c(F)c(F)c(F)c5F)c5ccc2[nH]5)C=C4)C=C3)cc1)c1ccncc1
REMARK SMILES IDX 13 1 12 2 10 3 11 4 9 5 4 6 5 7 6 8 8 9 7 10 3 11 1 12 2 13
REMARK SMILES IDX 81 15 82 16 86 17 83 18 85 19 84 20 14 21 15 22 16 23 17 24
REMARK SMILES IDX 18 25 19 26 80 27 20 28 79 29 21 30 22 31 23 32 73 33 24 34
REMARK SMILES IDX 78 35 72 36 74 37 25 38 77 39 71 40 70 41 26 43 58 44 38 45
REMARK SMILES IDX 57 46 39 47 42 48 56 49 75 50 40 51 41 52 55 54 76 55 43 56
REMARK SMILES IDX 27 57 28 58 36 59 29 60 30 61 34 62 37 63 31 64 32 65 35 66
REMARK SMILES IDX 33 67 59 68 60 69 68 70 61 71 62 72 66 73 69 74 63 75 64 76
REMARK SMILES IDX 67 77 65 78 44 79 45 80 53 81 46 82 47 83 51 84 54 85 48 86
REMARK SMILES IDX 49 87 52 88 50 89
REMARK H PARENT 3 14 74 42 42 53
REMARK Flexibility Score: inf
ROOT
ATOM      1  C   UNL A   1      31.403  29.360  25.578  1.00  0.00     0.275 C 
ENDROOT
BRANCH   1   2
ATOM      2  O   UNL A   1      31.923  28.269  26.372  1.00  0.00    -0.458 OA
BRANCH   2   3
ATOM      3  C   UNL A   1      31.406  27.044  26.102  1.00  0.00     0.340 C 
ATOM      4  O   UNL A   1      30.660  26.406  26.817  1.00  0.00    -0.246 OA
BRANCH   3   5
ATOM      5  C   UNL A   1      31.856  26.534  24.782  1.00  0.00     0.083 A 
ATOM      6  C   UNL A   1      31.011  25.907  23.856  1.00  0.00     0.056 A 
ATOM      7  C   UNL A   1      31.581  25.353  22.694  1.00  0.00     0.027 A 
ATOM      8  C   UNL A   1      32.935  25.524  22.397  1.00  0.00     0.002 A 
ATOM      9  C   UNL A   1      33.213  26.713  24.459  1.00  0.00     0.018 A 
ATOM     10  C   UNL A   1      33.751  26.222  23.271  1.00  0.00     0.001 A 
BRANCH   6  11
ATOM     11  N   UNL A   1      29.609  25.788  23.952  1.00  0.00    -0.321 N 
ATOM     12  O   UNL A   1      27.482  26.457  24.278  1.00  0.00    -0.269 OA
ATOM     13  C   UNL A   1      28.601  26.721  23.840  1.00  0.00     0.255 C 
ATOM     14  H   UNL A   1      29.294  24.873  24.132  1.00  0.00     0.170 HD
BRANCH  13  15
ATOM     15  C   UNL A   1      28.792  28.000  23.112  1.00  0.00     0.043 A 
ATOM     16  C   UNL A   1      27.706  28.873  23.021  1.00  0.00     0.034 A 
ATOM     17  C   UNL A   1      30.002  28.345  22.510  1.00  0.00     0.034 A 
ATOM     18  C   UNL A   1      27.902  30.094  22.404  1.00  0.00     0.112 A 
ATOM     19  C   UNL A   1      30.093  29.591  21.913  1.00  0.00     0.112 A 
ATOM     20  N   UNL A   1      29.072  30.471  21.847  1.00  0.00    -0.265 NA
ENDBRANCH  13  15
ENDBRANCH   6  11
ENDBRANCH   3   5
ENDBRANCH   2   3
ENDBRANCH   1   2
BRANCH   1  21
ATOM     21  C   UNL A   1      31.821  30.736  26.094  1.00  0.00     0.275 C 
BRANCH  21  22
ATOM     22  O   UNL A   1      32.713  30.618  27.215  1.00  0.00    -0.458 OA
BRANCH  22  23
ATOM     23  C   UNL A   1      33.424  31.733  27.472  1.00  0.00     0.338 C 
ATOM     24  O   UNL A   1      33.014  32.881  27.548  1.00  0.00    -0.246 OA
BRANCH  23  25
ATOM     25  C   UNL A   1      34.814  31.394  27.789  1.00  0.00     0.060 A 
ATOM     26  C   UNL A   1      35.077  30.074  28.129  1.00  0.00     0.016 A 
ATOM     27  C   UNL A   1      35.775  32.375  27.995  1.00  0.00     0.016 A 
ATOM     28  C   UNL A   1      36.224  29.733  28.818  1.00  0.00     0.010 A 
ATOM     29  C   UNL A   1      36.992  32.013  28.583  1.00  0.00     0.010 A 
ATOM     30  C   UNL A   1      37.202  30.699  29.049  1.00  0.00    -0.014 A 
BRANCH  30  31
ATOM     31  C   UNL A   1      38.400  30.344  29.847  1.00  0.00     0.031 A 
ATOM     32  C   UNL A   1      39.446  29.450  29.244  1.00  0.00     0.074 A 
ATOM     33  C   UNL A   1      38.568  30.854  31.084  1.00  0.00     0.049 A 
ATOM     34  N   UNL A   1      40.442  28.832  29.823  1.00  0.00    -0.248 NA
ATOM     35  C   UNL A   1      39.346  29.202  27.796  1.00  0.00     0.031 C 
ATOM     36  C   UNL A   1      37.672  31.812  31.738  1.00  0.00     0.029 A 
ATOM     37  N   UNL A   1      39.555  30.641  32.011  1.00  0.00    -0.354 N 
ATOM     38  C   UNL A   1      41.035  28.063  28.830  1.00  0.00     0.074 A 
ATOM     39  C   UNL A   1      40.297  28.299  27.608  1.00  0.00     0.031 C 
ATOM     40  C   UNL A   1      38.163  32.123  32.945  1.00  0.00     0.029 A 
ATOM     41  C   UNL A   1      39.342  31.306  33.195  1.00  0.00     0.049 A 
ATOM     42  H   UNL A   1      40.338  30.068  31.845  1.00  0.00     0.167 HD
ATOM     43  C   UNL A   1      42.096  27.229  28.944  1.00  0.00     0.037 A 
ATOM     44  C   UNL A   1      39.988  31.214  34.371  1.00  0.00     0.037 A 
ATOM     45  C   UNL A   1      42.850  27.063  30.159  1.00  0.00     0.049 A 
ATOM     46  C   UNL A   1      41.127  30.241  34.486  1.00  0.00     0.074 A 
ATOM     47  C   UNL A   1      43.954  26.264  30.389  1.00  0.00     0.029 A 
ATOM     48  N   UNL A   1      42.580  27.727  31.349  1.00  0.00    -0.354 N 
ATOM     49  N   UNL A   1      41.646  29.463  33.566  1.00  0.00    -0.248 NA
ATOM     50  C   UNL A   1      41.755  30.116  35.806  1.00  0.00     0.031 C 
ATOM     51  C   UNL A   1      44.322  26.407  31.731  1.00  0.00     0.029 A 
ATOM     52  C   UNL A   1      43.484  27.340  32.323  1.00  0.00     0.049 A 
ATOM     53  H   UNL A   1      41.852  28.378  31.481  1.00  0.00     0.167 HD
ATOM     54  C   UNL A   1      42.675  28.772  34.189  1.00  0.00     0.074 A 
ATOM     55  C   UNL A   1      42.717  29.239  35.560  1.00  0.00     0.031 C 
ATOM     56  C   UNL A   1      43.509  27.833  33.676  1.00  0.00     0.037 A 
BRANCH  43  57
ATOM     57  C   UNL A   1      42.465  26.395  27.751  1.00  0.00     0.064 A 
ATOM     58  C   UNL A   1      43.462  26.778  26.843  1.00  0.00     0.173 A 
ATOM     59  C   UNL A   1      41.820  25.166  27.532  1.00  0.00     0.173 A 
ATOM     60  F   UNL A   1      44.098  27.950  26.995  1.00  0.00    -0.203 F 
ATOM     61  C   UNL A   1      43.783  25.976  25.749  1.00  0.00     0.198 A 
ATOM     62  C   UNL A   1      42.165  24.352  26.456  1.00  0.00     0.198 A 
ATOM     63  F   UNL A   1      40.859  24.748  28.369  1.00  0.00    -0.203 F 
ATOM     64  F   UNL A   1      44.705  26.387  24.868  1.00  0.00    -0.200 F 
ATOM     65  C   UNL A   1      43.141  24.762  25.561  1.00  0.00     0.200 A 
ATOM     66  F   UNL A   1      41.551  23.174  26.285  1.00  0.00    -0.200 F 
ATOM     67  F   UNL A   1      43.457  23.988  24.513  1.00  0.00    -0.200 F 
ENDBRANCH  43  57
BRANCH  44  68
ATOM     68  C   UNL A   1      39.535  32.018  35.538  1.00  0.00     0.064 A 
ATOM     69  C   UNL A   1      38.574  31.518  36.426  1.00  0.00     0.173 A 
ATOM     70  C   UNL A   1      40.049  33.299  35.789  1.00  0.00     0.173 A 
ATOM     71  F   UNL A   1      38.035  30.308  36.217  1.00  0.00    -0.203 F 
ATOM     72  C   UNL A   1      38.135  32.273  37.512  1.00  0.00     0.198 A 
ATOM     73  C   UNL A   1      39.636  34.039  36.895  1.00  0.00     0.198 A 
ATOM     74  F   UNL A   1      40.970  33.828  34.970  1.00  0.00    -0.203 F 
ATOM     75  F   UNL A   1      37.180  31.789  38.319  1.00  0.00    -0.200 F 
ATOM     76  C   UNL A   1      38.671  33.529  37.750  1.00  0.00     0.200 A 
ATOM     77  F   UNL A   1      40.170  35.245  37.129  1.00  0.00    -0.200 F 
ATOM     78  F   UNL A   1      38.254  34.252  38.798  1.00  0.00    -0.200 F 
ENDBRANCH  44  68
BRANCH  56  79
ATOM     79  C   UNL A   1      44.566  27.294  34.592  1.00  0.00     0.064 A 
ATOM     80  C   UNL A   1      45.808  27.928  34.740  1.00  0.00     0.173 A 
ATOM     81  C   UNL A   1      44.318  26.142  35.353  1.00  0.00     0.173 A 
ATOM     82  F   UNL A   1      46.098  29.022  34.020  1.00  0.00    -0.203 F 
ATOM     83  C   UNL A   1      46.775  27.410  35.596  1.00  0.00     0.198 A 
ATOM     84  C   UNL A   1      45.275  25.646  36.233  1.00  0.00     0.198 A 
ATOM     85  F   UNL A   1      43.142  25.503  35.250  1.00  0.00    -0.203 F 
ATOM     86  F   UNL A   1      47.976  27.999  35.682  1.00  0.00    -0.200 F 
ATOM     87  C   UNL A   1      46.505  26.275  36.347  1.00  0.00     0.200 A 
ATOM     88  F   UNL A   1      45.006  24.559  36.967  1.00  0.00    -0.200 F 
ATOM     89  F   UNL A   1      47.435  25.781  37.175  1.00  0.00    -0.200 F 
ENDBRANCH  56  79
ENDBRANCH  30  31
ENDBRANCH  23  25
ENDBRANCH  22  23
ENDBRANCH  21  22
ENDBRANCH   1  21
TORSDOF 13
ENDMDL
