MODEL 1
REMARK VINA RESULT:     -12.0      0.000      0.000
REMARK SMILES O=C(CCSc1nc(-c2cccs2)cc(C(F)(F)F)n1)OCCOC(=O)c1ccc(-c2c3nc(c(-c4c(F)c(F)c(F)c(F)c4F)c4ccc([nH]4)c(-c4c(F)c(F)c(F)c(F)c4F)c4nc(c(-c5c(F)c(F)c(F)c(F)c5F)c5ccc2[nH]5)C=C4)C=C3)cc1
REMARK SMILES IDX 22 1 21 2 2 3 1 4 3 5 4 6 5 7 6 8 7 9 20 10 8 11 15 12 14 13
REMARK SMILES IDX 9 14 10 15 13 16 11 17 12 18 16 19 17 20 18 21 19 22 23 23
REMARK SMILES IDX 24 24 25 25 26 26 27 27 28 28 89 29 29 30 88 31 30 32 31 33
REMARK SMILES IDX 32 34 82 35 33 36 87 37 81 38 83 39 34 40 86 41 80 42 79 43
REMARK SMILES IDX 35 45 67 46 47 47 66 48 48 49 51 50 65 51 84 52 49 53 50 54
REMARK SMILES IDX 64 56 85 57 52 58 36 59 37 60 45 61 38 62 39 63 43 64 46 65
REMARK SMILES IDX 40 66 41 67 44 68 42 69 68 70 69 71 77 72 70 73 71 74 75 75
REMARK SMILES IDX 78 76 72 77 73 78 76 79 74 80 53 81 54 82 62 83 55 84 56 85
REMARK SMILES IDX 60 86 63 87 57 88 58 89 61 90 59 91
REMARK H PARENT 83 44 51 55
REMARK Flexibility Score: inf
ROOT
ATOM      1  C   UNL A   1      31.549  28.883  24.747  1.00  0.00     0.274 C 
ENDROOT
BRANCH   1   2
ATOM      2  O   UNL A   1      32.088  27.743  25.455  1.00  0.00    -0.462 OA
BRANCH   2   3
ATOM      3  C   UNL A   1      31.380  26.834  26.160  1.00  0.00     0.306 C 
ATOM      4  O   UNL A   1      31.044  27.080  27.317  1.00  0.00    -0.252 OA
BRANCH   3   5
ATOM      5  C   UNL A   1      30.999  25.523  25.523  1.00  0.00     0.134 C 
BRANCH   5   6
ATOM      6  C   UNL A   1      31.637  24.324  26.217  1.00  0.00     0.090 C 
BRANCH   6   7
ATOM      7  S   UNL A   1      30.760  22.739  25.967  1.00  0.00    -0.086 SA
BRANCH   7   8
ATOM      8  C   UNL A   1      32.154  21.688  25.654  1.00  0.00     0.188 A 
ATOM      9  N   UNL A   1      33.364  22.206  25.887  1.00  0.00    -0.222 NA
ATOM     10  N   UNL A   1      31.922  20.510  25.062  1.00  0.00    -0.218 NA
ATOM     11  C   UNL A   1      34.419  21.497  25.440  1.00  0.00     0.085 A 
ATOM     12  C   UNL A   1      33.001  19.803  24.641  1.00  0.00     0.149 A 
ATOM     13  C   UNL A   1      34.288  20.284  24.799  1.00  0.00     0.063 A 
BRANCH  11  14
ATOM     14  C   UNL A   1      35.729  22.140  25.588  1.00  0.00     0.053 A 
ATOM     15  C   UNL A   1      36.019  23.431  25.997  1.00  0.00     0.022 A 
ATOM     16  S   UNL A   1      37.170  21.274  25.236  1.00  0.00    -0.142 S 
ATOM     17  C   UNL A   1      37.418  23.706  26.014  1.00  0.00     0.012 A 
ATOM     18  C   UNL A   1      38.158  22.616  25.618  1.00  0.00     0.065 A 
ENDBRANCH  11  14
BRANCH  12  19
ATOM     19  C   UNL A   1      32.777  18.470  23.947  1.00  0.00     0.433 C 
ATOM     20  F   UNL A   1      32.180  18.598  22.729  1.00  0.00    -0.165 F 
ATOM     21  F   UNL A   1      33.929  17.775  23.733  1.00  0.00    -0.165 F 
ATOM     22  F   UNL A   1      31.969  17.629  24.660  1.00  0.00    -0.165 F 
ENDBRANCH  12  19
ENDBRANCH   7   8
ENDBRANCH   6   7
ENDBRANCH   5   6
ENDBRANCH   3   5
ENDBRANCH   2   3
ENDBRANCH   1   2
BRANCH   1  23
ATOM     23  C   UNL A   1      31.722  30.157  25.566  1.00  0.00     0.275 C 
BRANCH  23  24
ATOM     24  O   UNL A   1      33.071  30.248  26.047  1.00  0.00    -0.458 OA
BRANCH  24  25
ATOM     25  C   UNL A   1      33.303  31.256  26.927  1.00  0.00     0.338 C 
ATOM     26  O   UNL A   1      32.556  32.162  27.232  1.00  0.00    -0.246 OA
BRANCH  25  27
ATOM     27  C   UNL A   1      34.595  30.995  27.592  1.00  0.00     0.060 A 
ATOM     28  C   UNL A   1      34.882  29.689  28.008  1.00  0.00     0.016 A 
ATOM     29  C   UNL A   1      35.513  32.028  27.800  1.00  0.00     0.016 A 
ATOM     30  C   UNL A   1      36.092  29.416  28.649  1.00  0.00     0.010 A 
ATOM     31  C   UNL A   1      36.718  31.753  28.439  1.00  0.00     0.010 A 
ATOM     32  C   UNL A   1      37.007  30.451  28.881  1.00  0.00    -0.014 A 
BRANCH  32  33
ATOM     33  C   UNL A   1      38.241  30.228  29.667  1.00  0.00     0.031 A 
ATOM     34  C   UNL A   1      39.260  29.255  29.152  1.00  0.00     0.074 A 
ATOM     35  C   UNL A   1      38.394  30.816  30.866  1.00  0.00     0.049 A 
ATOM     36  N   UNL A   1      40.326  28.780  29.743  1.00  0.00    -0.248 NA
ATOM     37  C   UNL A   1      39.041  28.734  27.792  1.00  0.00     0.031 C 
ATOM     38  C   UNL A   1      37.467  31.777  31.461  1.00  0.00     0.029 A 
ATOM     39  N   UNL A   1      39.372  30.658  31.817  1.00  0.00    -0.354 N 
ATOM     40  C   UNL A   1      40.893  27.895  28.837  1.00  0.00     0.074 A 
ATOM     41  C   UNL A   1      40.048  27.881  27.663  1.00  0.00     0.031 C 
ATOM     42  C   UNL A   1      37.901  32.096  32.693  1.00  0.00     0.029 A 
ATOM     43  C   UNL A   1      39.113  31.334  32.984  1.00  0.00     0.049 A 
ATOM     44  H   UNL A   1      40.179  30.112  31.676  1.00  0.00     0.167 HD
ATOM     45  C   UNL A   1      42.023  27.162  28.979  1.00  0.00     0.037 A 
ATOM     46  C   UNL A   1      39.762  31.304  34.164  1.00  0.00     0.037 A 
ATOM     47  C   UNL A   1      42.864  27.194  30.144  1.00  0.00     0.049 A 
ATOM     48  C   UNL A   1      40.987  30.437  34.309  1.00  0.00     0.074 A 
ATOM     49  C   UNL A   1      44.071  26.550  30.352  1.00  0.00     0.029 A 
ATOM     50  N   UNL A   1      42.578  27.898  31.304  1.00  0.00    -0.354 N 
ATOM     51  N   UNL A   1      41.563  29.661  33.422  1.00  0.00    -0.248 NA
ATOM     52  C   UNL A   1      41.651  30.437  35.621  1.00  0.00     0.031 C 
ATOM     53  C   UNL A   1      44.486  26.817  31.660  1.00  0.00     0.029 A 
ATOM     54  C   UNL A   1      43.564  27.667  32.248  1.00  0.00     0.049 A 
ATOM     55  H   UNL A   1      41.791  28.474  31.436  1.00  0.00     0.167 HD
ATOM     56  C   UNL A   1      42.663  29.102  34.059  1.00  0.00     0.074 A 
ATOM     57  C   UNL A   1      42.687  29.640  35.402  1.00  0.00     0.031 C 
ATOM     58  C   UNL A   1      43.571  28.218  33.579  1.00  0.00     0.037 A 
BRANCH  45  59
ATOM     59  C   UNL A   1      42.413  26.247  27.858  1.00  0.00     0.064 A 
ATOM     60  C   UNL A   1      41.812  24.992  27.689  1.00  0.00     0.173 A 
ATOM     61  C   UNL A   1      43.341  26.670  26.894  1.00  0.00     0.173 A 
ATOM     62  F   UNL A   1      40.929  24.539  28.590  1.00  0.00    -0.203 F 
ATOM     63  C   UNL A   1      42.133  24.188  26.597  1.00  0.00     0.198 A 
ATOM     64  C   UNL A   1      43.642  25.874  25.793  1.00  0.00     0.198 A 
ATOM     65  F   UNL A   1      43.941  27.864  27.011  1.00  0.00    -0.203 F 
ATOM     66  F   UNL A   1      41.566  22.981  26.467  1.00  0.00    -0.200 F 
ATOM     67  C   UNL A   1      43.039  24.634  25.646  1.00  0.00     0.200 A 
ATOM     68  F   UNL A   1      44.508  26.312  24.868  1.00  0.00    -0.200 F 
ATOM     69  F   UNL A   1      43.332  23.867  24.587  1.00  0.00    -0.200 F 
ENDBRANCH  45  59
BRANCH  46  70
ATOM     70  C   UNL A   1      39.250  32.083  35.322  1.00  0.00     0.064 A 
ATOM     71  C   UNL A   1      39.597  33.430  35.499  1.00  0.00     0.173 A 
ATOM     72  C   UNL A   1      38.445  31.484  36.303  1.00  0.00     0.173 A 
ATOM     73  F   UNL A   1      40.387  34.041  34.603  1.00  0.00    -0.203 F 
ATOM     74  C   UNL A   1      39.186  34.138  36.627  1.00  0.00     0.198 A 
ATOM     75  C   UNL A   1      38.008  32.202  37.415  1.00  0.00     0.198 A 
ATOM     76  F   UNL A   1      38.085  30.198  36.184  1.00  0.00    -0.203 F 
ATOM     77  F   UNL A   1      39.585  35.405  36.801  1.00  0.00    -0.200 F 
ATOM     78  C   UNL A   1      38.389  33.524  37.582  1.00  0.00     0.200 A 
ATOM     79  F   UNL A   1      37.230  31.609  38.330  1.00  0.00    -0.200 F 
ATOM     80  F   UNL A   1      38.001  34.204  38.670  1.00  0.00    -0.200 F 
ENDBRANCH  46  70
BRANCH  58  81
ATOM     81  C   UNL A   1      44.676  27.791  34.500  1.00  0.00     0.064 A 
ATOM     82  C   UNL A   1      45.863  28.529  34.609  1.00  0.00     0.173 A 
ATOM     83  C   UNL A   1      44.520  26.669  35.327  1.00  0.00     0.173 A 
ATOM     84  F   UNL A   1      46.065  29.601  33.828  1.00  0.00    -0.203 F 
ATOM     85  C   UNL A   1      46.862  28.147  35.500  1.00  0.00     0.198 A 
ATOM     86  C   UNL A   1      45.507  26.307  36.238  1.00  0.00     0.198 A 
ATOM     87  F   UNL A   1      43.399  25.934  35.266  1.00  0.00    -0.203 F 
ATOM     88  F   UNL A   1      48.006  28.844  35.559  1.00  0.00    -0.200 F 
ATOM     89  C   UNL A   1      46.680  27.043  36.320  1.00  0.00     0.200 A 
ATOM     90  F   UNL A   1      45.323  25.250  37.041  1.00  0.00    -0.200 F 
ATOM     91  F   UNL A   1      47.637  26.687  37.188  1.00  0.00    -0.200 F 
ENDBRANCH  58  81
ENDBRANCH  32  33
ENDBRANCH  25  27
ENDBRANCH  24  25
ENDBRANCH  23  24
ENDBRANCH   1  23
TORSDOF 16
ENDMDL
MODEL 2
REMARK VINA RESULT:     -12.0      3.720      8.183
REMARK SMILES O=C(CCSc1nc(-c2cccs2)cc(C(F)(F)F)n1)OCCOC(=O)c1ccc(-c2c3nc(c(-c4c(F)c(F)c(F)c(F)c4F)c4ccc([nH]4)c(-c4c(F)c(F)c(F)c(F)c4F)c4nc(c(-c5c(F)c(F)c(F)c(F)c5F)c5ccc2[nH]5)C=C4)C=C3)cc1
REMARK SMILES IDX 22 1 21 2 2 3 1 4 3 5 4 6 5 7 6 8 7 9 20 10 8 11 15 12 14 13
REMARK SMILES IDX 9 14 10 15 13 16 11 17 12 18 16 19 17 20 18 21 19 22 23 23
REMARK SMILES IDX 24 24 25 25 26 26 27 27 28 28 89 29 29 30 88 31 30 32 31 33
REMARK SMILES IDX 32 34 82 35 33 36 87 37 81 38 83 39 34 40 86 41 80 42 79 43
REMARK SMILES IDX 35 45 67 46 47 47 66 48 48 49 51 50 65 51 84 52 49 53 50 54
REMARK SMILES IDX 64 56 85 57 52 58 36 59 37 60 45 61 38 62 39 63 43 64 46 65
REMARK SMILES IDX 40 66 41 67 44 68 42 69 68 70 69 71 77 72 70 73 71 74 75 75
REMARK SMILES IDX 78 76 72 77 73 78 76 79 74 80 53 81 54 82 62 83 55 84 56 85
REMARK SMILES IDX 60 86 63 87 57 88 58 89 61 90 59 91
REMARK H PARENT 83 44 51 55
REMARK Flexibility Score: inf
ROOT
ATOM      1  C   UNL A   1      42.748  20.110  26.077  1.00  0.00     0.274 C 
ENDROOT
BRANCH   1   2
ATOM      2  O   UNL A   1      41.543  20.620  26.692  1.00  0.00    -0.462 OA
BRANCH   2   3
ATOM      3  C   UNL A   1      40.288  20.510  26.204  1.00  0.00     0.306 C 
ATOM      4  O   UNL A   1      39.895  19.433  25.759  1.00  0.00    -0.252 OA
BRANCH   3   5
ATOM      5  C   UNL A   1      39.373  21.706  26.214  1.00  0.00     0.134 C 
BRANCH   5   6
ATOM      6  C   UNL A   1      38.035  21.428  25.537  1.00  0.00     0.090 C 
BRANCH   6   7
ATOM      7  S   UNL A   1      36.974  22.899  25.305  1.00  0.00    -0.086 SA
BRANCH   7   8
ATOM      8  C   UNL A   1      35.383  22.133  25.471  1.00  0.00     0.188 A 
ATOM      9  N   UNL A   1      35.283  20.860  25.077  1.00  0.00    -0.222 NA
ATOM     10  N   UNL A   1      34.354  22.912  25.828  1.00  0.00    -0.218 NA
ATOM     11  C   UNL A   1      34.038  20.352  24.990  1.00  0.00     0.085 A 
ATOM     12  C   UNL A   1      33.111  22.371  25.756  1.00  0.00     0.149 A 
ATOM     13  C   UNL A   1      32.910  21.076  25.314  1.00  0.00     0.063 A 
BRANCH  11  14
ATOM     14  C   UNL A   1      33.937  18.999  24.433  1.00  0.00     0.053 A 
ATOM     15  C   UNL A   1      34.860  17.968  24.491  1.00  0.00     0.022 A 
ATOM     16  S   UNL A   1      32.532  18.513  23.574  1.00  0.00    -0.142 S 
ATOM     17  C   UNL A   1      34.414  16.788  23.826  1.00  0.00     0.012 A 
ATOM     18  C   UNL A   1      33.162  16.950  23.280  1.00  0.00     0.065 A 
ENDBRANCH  11  14
BRANCH  12  19
ATOM     19  C   UNL A   1      31.917  23.230  26.134  1.00  0.00     0.433 C 
ATOM     20  F   UNL A   1      30.933  23.220  25.191  1.00  0.00    -0.165 F 
ATOM     21  F   UNL A   1      31.328  22.847  27.301  1.00  0.00    -0.165 F 
ATOM     22  F   UNL A   1      32.242  24.547  26.303  1.00  0.00    -0.165 F 
ENDBRANCH  12  19
ENDBRANCH   7   8
ENDBRANCH   6   7
ENDBRANCH   5   6
ENDBRANCH   3   5
ENDBRANCH   2   3
ENDBRANCH   1   2
BRANCH   1  23
ATOM     23  C   UNL A   1      43.585  21.249  25.505  1.00  0.00     0.275 C 
BRANCH  23  24
ATOM     24  O   UNL A   1      42.784  22.433  25.388  1.00  0.00    -0.458 OA
BRANCH  24  25
ATOM     25  C   UNL A   1      43.475  23.579  25.160  1.00  0.00     0.338 C 
ATOM     26  O   UNL A   1      44.251  23.809  24.255  1.00  0.00    -0.246 OA
BRANCH  25  27
ATOM     27  C   UNL A   1      43.015  24.592  26.129  1.00  0.00     0.060 A 
ATOM     28  C   UNL A   1      43.557  25.882  26.058  1.00  0.00     0.016 A 
ATOM     29  C   UNL A   1      42.058  24.273  27.096  1.00  0.00     0.016 A 
ATOM     30  C   UNL A   1      43.148  26.857  26.970  1.00  0.00     0.010 A 
ATOM     31  C   UNL A   1      41.652  25.247  28.003  1.00  0.00     0.010 A 
ATOM     32  C   UNL A   1      42.205  26.537  27.956  1.00  0.00    -0.014 A 
BRANCH  32  33
ATOM     33  C   UNL A   1      41.840  27.503  29.016  1.00  0.00     0.031 A 
ATOM     34  C   UNL A   1      42.571  27.451  30.325  1.00  0.00     0.074 A 
ATOM     35  C   UNL A   1      40.808  28.346  28.836  1.00  0.00     0.049 A 
ATOM     36  N   UNL A   1      42.314  28.079  31.443  1.00  0.00    -0.248 NA
ATOM     37  C   UNL A   1      43.739  26.557  30.388  1.00  0.00     0.031 C 
ATOM     38  C   UNL A   1      40.031  28.481  27.605  1.00  0.00     0.029 A 
ATOM     39  N   UNL A   1      40.211  29.221  29.709  1.00  0.00    -0.354 N 
ATOM     40  C   UNL A   1      43.275  27.644  32.345  1.00  0.00     0.074 A 
ATOM     41  C   UNL A   1      44.111  26.687  31.655  1.00  0.00     0.031 C 
ATOM     42  C   UNL A   1      39.036  29.359  27.811  1.00  0.00     0.029 A 
ATOM     43  C   UNL A   1      39.084  29.818  29.198  1.00  0.00     0.049 A 
ATOM     44  H   UNL A   1      40.556  29.403  30.612  1.00  0.00     0.167 HD
ATOM     45  C   UNL A   1      43.441  28.019  33.636  1.00  0.00     0.037 A 
ATOM     46  C   UNL A   1      38.176  30.611  29.799  1.00  0.00     0.037 A 
ATOM     47  C   UNL A   1      42.614  28.984  34.308  1.00  0.00     0.049 A 
ATOM     48  C   UNL A   1      38.359  30.968  31.253  1.00  0.00     0.074 A 
ATOM     49  C   UNL A   1      42.750  29.490  35.589  1.00  0.00     0.029 A 
ATOM     50  N   UNL A   1      41.488  29.577  33.758  1.00  0.00    -0.354 N 
ATOM     51  N   UNL A   1      39.314  30.616  32.079  1.00  0.00    -0.248 NA
ATOM     52  C   UNL A   1      37.334  31.830  31.860  1.00  0.00     0.031 C 
ATOM     53  C   UNL A   1      41.672  30.345  35.835  1.00  0.00     0.029 A 
ATOM     54  C   UNL A   1      40.894  30.410  34.691  1.00  0.00     0.049 A 
ATOM     55  H   UNL A   1      41.160  29.427  32.843  1.00  0.00     0.167 HD
ATOM     56  C   UNL A   1      39.018  31.229  33.290  1.00  0.00     0.074 A 
ATOM     57  C   UNL A   1      37.805  31.990  33.088  1.00  0.00     0.031 C 
ATOM     58  C   UNL A   1      39.687  31.164  34.467  1.00  0.00     0.037 A 
BRANCH  45  59
ATOM     59  C   UNL A   1      44.546  27.377  34.418  1.00  0.00     0.064 A 
ATOM     60  C   UNL A   1      44.348  26.186  35.130  1.00  0.00     0.173 A 
ATOM     61  C   UNL A   1      45.840  27.918  34.384  1.00  0.00     0.173 A 
ATOM     62  F   UNL A   1      43.126  25.637  35.202  1.00  0.00    -0.203 F 
ATOM     63  C   UNL A   1      45.406  25.564  35.789  1.00  0.00     0.198 A 
ATOM     64  C   UNL A   1      46.899  27.281  35.023  1.00  0.00     0.198 A 
ATOM     65  F   UNL A   1      46.080  29.055  33.713  1.00  0.00    -0.203 F 
ATOM     66  F   UNL A   1      45.190  24.439  36.485  1.00  0.00    -0.200 F 
ATOM     67  C   UNL A   1      46.681  26.105  35.726  1.00  0.00     0.200 A 
ATOM     68  F   UNL A   1      48.133  27.799  34.951  1.00  0.00    -0.200 F 
ATOM     69  F   UNL A   1      47.701  25.495  36.344  1.00  0.00    -0.200 F 
ENDBRANCH  45  59
BRANCH  46  70
ATOM     70  C   UNL A   1      36.986  31.092  29.049  1.00  0.00     0.064 A 
ATOM     71  C   UNL A   1      36.880  32.428  28.637  1.00  0.00     0.173 A 
ATOM     72  C   UNL A   1      35.906  30.238  28.774  1.00  0.00     0.173 A 
ATOM     73  F   UNL A   1      37.875  33.289  28.899  1.00  0.00    -0.203 F 
ATOM     74  C   UNL A   1      35.730  32.899  28.006  1.00  0.00     0.198 A 
ATOM     75  C   UNL A   1      34.769  30.703  28.116  1.00  0.00     0.198 A 
ATOM     76  F   UNL A   1      35.954  28.952  29.149  1.00  0.00    -0.203 F 
ATOM     77  F   UNL A   1      35.631  34.195  27.681  1.00  0.00    -0.200 F 
ATOM     78  C   UNL A   1      34.677  32.035  27.745  1.00  0.00     0.200 A 
ATOM     79  F   UNL A   1      33.758  29.863  27.856  1.00  0.00    -0.200 F 
ATOM     80  F   UNL A   1      33.567  32.491  27.147  1.00  0.00    -0.200 F 
ENDBRANCH  46  70
BRANCH  58  81
ATOM     81  C   UNL A   1      39.136  31.949  35.620  1.00  0.00     0.064 A 
ATOM     82  C   UNL A   1      38.306  31.354  36.580  1.00  0.00     0.173 A 
ATOM     83  C   UNL A   1      39.494  33.294  35.802  1.00  0.00     0.173 A 
ATOM     84  F   UNL A   1      37.924  30.075  36.442  1.00  0.00    -0.203 F 
ATOM     85  C   UNL A   1      37.838  32.082  37.670  1.00  0.00     0.198 A 
ATOM     86  C   UNL A   1      39.049  34.010  36.908  1.00  0.00     0.198 A 
ATOM     87  F   UNL A   1      40.293  33.907  34.915  1.00  0.00    -0.203 F 
ATOM     88  F   UNL A   1      37.012  31.504  38.554  1.00  0.00    -0.200 F 
ATOM     89  C   UNL A   1      38.217  33.406  37.839  1.00  0.00     0.200 A 
ATOM     90  F   UNL A   1      39.429  35.285  37.078  1.00  0.00    -0.200 F 
ATOM     91  F   UNL A   1      37.777  34.100  38.897  1.00  0.00    -0.200 F 
ENDBRANCH  58  81
ENDBRANCH  32  33
ENDBRANCH  25  27
ENDBRANCH  24  25
ENDBRANCH  23  24
ENDBRANCH   1  23
TORSDOF 16
ENDMDL
MODEL 3
REMARK VINA RESULT:     -11.7      5.041      9.980
REMARK SMILES O=C(CCSc1nc(-c2cccs2)cc(C(F)(F)F)n1)OCCOC(=O)c1ccc(-c2c3nc(c(-c4c(F)c(F)c(F)c(F)c4F)c4ccc([nH]4)c(-c4c(F)c(F)c(F)c(F)c4F)c4nc(c(-c5c(F)c(F)c(F)c(F)c5F)c5ccc2[nH]5)C=C4)C=C3)cc1
REMARK SMILES IDX 22 1 21 2 2 3 1 4 3 5 4 6 5 7 6 8 7 9 20 10 8 11 15 12 14 13
REMARK SMILES IDX 9 14 10 15 13 16 11 17 12 18 16 19 17 20 18 21 19 22 23 23
REMARK SMILES IDX 24 24 25 25 26 26 27 27 28 28 89 29 29 30 88 31 30 32 31 33
REMARK SMILES IDX 32 34 82 35 33 36 87 37 81 38 83 39 34 40 86 41 80 42 79 43
REMARK SMILES IDX 35 45 67 46 47 47 66 48 48 49 51 50 65 51 84 52 49 53 50 54
REMARK SMILES IDX 64 56 85 57 52 58 36 59 37 60 45 61 38 62 39 63 43 64 46 65
REMARK SMILES IDX 40 66 41 67 44 68 42 69 68 70 69 71 77 72 70 73 71 74 75 75
REMARK SMILES IDX 78 76 72 77 73 78 76 79 74 80 53 81 54 82 62 83 55 84 56 85
REMARK SMILES IDX 60 86 63 87 57 88 58 89 61 90 59 91
REMARK H PARENT 83 44 51 55
REMARK Flexibility Score: inf
ROOT
ATOM      1  C   UNL A   1      35.250  21.151  24.780  1.00  0.00     0.274 C 
ENDROOT
BRANCH   1   2
ATOM      2  O   UNL A   1      35.051  22.205  23.809  1.00  0.00    -0.462 OA
BRANCH   2   3
ATOM      3  C   UNL A   1      34.381  23.360  24.010  1.00  0.00     0.306 C 
ATOM      4  O   UNL A   1      34.631  24.052  24.995  1.00  0.00    -0.252 OA
BRANCH   3   5
ATOM      5  C   UNL A   1      33.334  23.801  23.020  1.00  0.00     0.134 C 
BRANCH   5   6
ATOM      6  C   UNL A   1      33.377  25.301  22.748  1.00  0.00     0.090 C 
BRANCH   6   7
ATOM      7  S   UNL A   1      32.099  25.904  21.587  1.00  0.00    -0.086 SA
BRANCH   7   8
ATOM      8  C   UNL A   1      31.590  27.363  22.457  1.00  0.00     0.188 A 
ATOM      9  N   UNL A   1      32.399  27.800  23.428  1.00  0.00    -0.222 NA
ATOM     10  N   UNL A   1      30.366  27.842  22.202  1.00  0.00    -0.218 NA
ATOM     11  C   UNL A   1      31.909  28.764  24.232  1.00  0.00     0.085 A 
ATOM     12  C   UNL A   1      29.903  28.829  23.010  1.00  0.00     0.149 A 
ATOM     13  C   UNL A   1      30.654  29.309  24.068  1.00  0.00     0.063 A 
BRANCH  11  14
ATOM     14  C   UNL A   1      32.757  29.139  25.369  1.00  0.00     0.053 A 
ATOM     15  C   UNL A   1      33.964  28.589  25.767  1.00  0.00     0.022 A 
ATOM     16  S   UNL A   1      32.294  30.419  26.416  1.00  0.00    -0.142 S 
ATOM     17  C   UNL A   1      34.500  29.214  26.931  1.00  0.00     0.012 A 
ATOM     18  C   UNL A   1      33.687  30.226  27.389  1.00  0.00     0.065 A 
ENDBRANCH  11  14
BRANCH  12  19
ATOM     19  C   UNL A   1      28.511  29.385  22.763  1.00  0.00     0.433 C 
ATOM     20  F   UNL A   1      28.289  29.704  21.457  1.00  0.00    -0.165 F 
ATOM     21  F   UNL A   1      27.518  28.522  23.116  1.00  0.00    -0.165 F 
ATOM     22  F   UNL A   1      28.266  30.533  23.463  1.00  0.00    -0.165 F 
ENDBRANCH  12  19
ENDBRANCH   7   8
ENDBRANCH   6   7
ENDBRANCH   5   6
ENDBRANCH   3   5
ENDBRANCH   2   3
ENDBRANCH   1   2
BRANCH   1  23
ATOM     23  C   UNL A   1      36.723  20.772  24.871  1.00  0.00     0.275 C 
BRANCH  23  24
ATOM     24  O   UNL A   1      37.406  21.676  25.751  1.00  0.00    -0.458 OA
BRANCH  24  25
ATOM     25  C   UNL A   1      38.704  21.369  26.002  1.00  0.00     0.338 C 
ATOM     26  O   UNL A   1      39.282  20.331  25.754  1.00  0.00    -0.246 OA
BRANCH  25  27
ATOM     27  C   UNL A   1      39.372  22.583  26.509  1.00  0.00     0.060 A 
ATOM     28  C   UNL A   1      38.901  23.833  26.089  1.00  0.00     0.016 A 
ATOM     29  C   UNL A   1      40.452  22.488  27.392  1.00  0.00     0.016 A 
ATOM     30  C   UNL A   1      39.522  24.997  26.545  1.00  0.00     0.010 A 
ATOM     31  C   UNL A   1      41.069  23.650  27.845  1.00  0.00     0.010 A 
ATOM     32  C   UNL A   1      40.619  24.909  27.412  1.00  0.00    -0.014 A 
BRANCH  32  33
ATOM     33  C   UNL A   1      41.381  26.111  27.817  1.00  0.00     0.031 A 
ATOM     34  C   UNL A   1      40.659  27.222  28.520  1.00  0.00     0.074 A 
ATOM     35  C   UNL A   1      42.674  26.239  27.472  1.00  0.00     0.049 A 
ATOM     36  N   UNL A   1      41.077  28.425  28.817  1.00  0.00    -0.248 NA
ATOM     37  C   UNL A   1      39.271  26.947  28.929  1.00  0.00     0.031 C 
ATOM     38  C   UNL A   1      43.472  25.222  26.790  1.00  0.00     0.029 A 
ATOM     39  N   UNL A   1      43.532  27.301  27.617  1.00  0.00    -0.354 N 
ATOM     40  C   UNL A   1      40.002  29.053  29.431  1.00  0.00     0.074 A 
ATOM     41  C   UNL A   1      38.906  28.110  29.450  1.00  0.00     0.031 C 
ATOM     42  C   UNL A   1      44.694  25.722  26.540  1.00  0.00     0.029 A 
ATOM     43  C   UNL A   1      44.750  27.104  27.012  1.00  0.00     0.049 A 
ATOM     44  H   UNL A   1      43.298  28.123  28.104  1.00  0.00     0.167 HD
ATOM     45  C   UNL A   1      39.944  30.309  29.935  1.00  0.00     0.037 A 
ATOM     46  C   UNL A   1      45.774  27.960  26.828  1.00  0.00     0.037 A 
ATOM     47  C   UNL A   1      41.045  31.234  29.926  1.00  0.00     0.049 A 
ATOM     48  C   UNL A   1      45.659  29.369  27.354  1.00  0.00     0.074 A 
ATOM     49  C   UNL A   1      41.111  32.499  30.483  1.00  0.00     0.029 A 
ATOM     50  N   UNL A   1      42.267  30.998  29.315  1.00  0.00    -0.354 N 
ATOM     51  N   UNL A   1      44.669  29.933  28.003  1.00  0.00    -0.248 NA
ATOM     52  C   UNL A   1      46.803  30.262  27.118  1.00  0.00     0.031 C 
ATOM     53  C   UNL A   1      42.353  33.052  30.158  1.00  0.00     0.029 A 
ATOM     54  C   UNL A   1      43.078  32.113  29.444  1.00  0.00     0.049 A 
ATOM     55  H   UNL A   1      42.520  30.164  28.859  1.00  0.00     0.167 HD
ATOM     56  C   UNL A   1      45.078  31.233  28.271  1.00  0.00     0.074 A 
ATOM     57  C   UNL A   1      46.414  31.371  27.731  1.00  0.00     0.031 C 
ATOM     58  C   UNL A   1      44.408  32.227  28.903  1.00  0.00     0.037 A 
BRANCH  45  59
ATOM     59  C   UNL A   1      38.647  30.770  30.526  1.00  0.00     0.064 A 
ATOM     60  C   UNL A   1      38.420  30.753  31.909  1.00  0.00     0.173 A 
ATOM     61  C   UNL A   1      37.651  31.314  29.701  1.00  0.00     0.173 A 
ATOM     62  F   UNL A   1      39.337  30.232  32.737  1.00  0.00    -0.203 F 
ATOM     63  C   UNL A   1      37.237  31.257  32.445  1.00  0.00     0.198 A 
ATOM     64  C   UNL A   1      36.480  31.838  30.242  1.00  0.00     0.198 A 
ATOM     65  F   UNL A   1      37.823  31.355  28.371  1.00  0.00    -0.203 F 
ATOM     66  F   UNL A   1      37.030  31.208  33.769  1.00  0.00    -0.200 F 
ATOM     67  C   UNL A   1      36.274  31.808  31.613  1.00  0.00     0.200 A 
ATOM     68  F   UNL A   1      35.557  32.381  29.437  1.00  0.00    -0.200 F 
ATOM     69  F   UNL A   1      35.145  32.309  32.132  1.00  0.00    -0.200 F 
ENDBRANCH  45  59
BRANCH  46  70
ATOM     70  C   UNL A   1      46.984  27.533  26.077  1.00  0.00     0.064 A 
ATOM     71  C   UNL A   1      48.108  27.023  26.742  1.00  0.00     0.173 A 
ATOM     72  C   UNL A   1      47.061  27.673  24.683  1.00  0.00     0.173 A 
ATOM     73  F   UNL A   1      48.093  26.895  28.078  1.00  0.00    -0.203 F 
ATOM     74  C   UNL A   1      49.272  26.700  26.048  1.00  0.00     0.198 A 
ATOM     75  C   UNL A   1      48.215  27.320  23.985  1.00  0.00     0.198 A 
ATOM     76  F   UNL A   1      46.016  28.158  23.997  1.00  0.00    -0.203 F 
ATOM     77  F   UNL A   1      50.352  26.275  26.717  1.00  0.00    -0.200 F 
ATOM     78  C   UNL A   1      49.323  26.846  24.670  1.00  0.00     0.200 A 
ATOM     79  F   UNL A   1      48.257  27.453  22.652  1.00  0.00    -0.200 F 
ATOM     80  F   UNL A   1      50.446  26.543  24.004  1.00  0.00    -0.200 F 
ENDBRANCH  46  70
BRANCH  58  81
ATOM     81  C   UNL A   1      45.111  33.543  29.063  1.00  0.00     0.064 A 
ATOM     82  C   UNL A   1      45.953  33.794  30.155  1.00  0.00     0.173 A 
ATOM     83  C   UNL A   1      44.991  34.539  28.081  1.00  0.00     0.173 A 
ATOM     84  F   UNL A   1      46.089  32.879  31.126  1.00  0.00    -0.203 F 
ATOM     85  C   UNL A   1      46.635  35.003  30.268  1.00  0.00     0.198 A 
ATOM     86  C   UNL A   1      45.697  35.733  28.182  1.00  0.00     0.198 A 
ATOM     87  F   UNL A   1      44.203  34.343  27.013  1.00  0.00    -0.203 F 
ATOM     88  F   UNL A   1      47.404  35.238  31.341  1.00  0.00    -0.200 F 
ATOM     89  C   UNL A   1      46.514  35.967  29.279  1.00  0.00     0.200 A 
ATOM     90  F   UNL A   1      45.591  36.657  27.217  1.00  0.00    -0.200 F 
ATOM     91  F   UNL A   1      47.183  37.123  29.382  1.00  0.00    -0.200 F 
ENDBRANCH  58  81
ENDBRANCH  32  33
ENDBRANCH  25  27
ENDBRANCH  24  25
ENDBRANCH  23  24
ENDBRANCH   1  23
TORSDOF 16
ENDMDL
