MODEL 1
REMARK VINA RESULT:     -12.4      0.000      0.000
REMARK SMILES Cc1nn(C)c(C)c1C(=O)N1CC[C@H](C(=O)OCCOC(=O)c2ccc(-c3c4nc(c(-c5c(F)c(F)c(F)c(F)c5F)c5ccc([nH]5)c(-c5c(F)c(F)c(F)c(F)c5F)c5nc(c(-c6c(F)c(F)c(F)c(F)c6F)c6ccc3[nH]6)C=C5)C=C4)cc2)[C@@H]1C
REMARK SMILES IDX 18 1 17 2 15 3 16 4 14 5 11 6 12 7 86 8 13 9 87 10 9 11
REMARK SMILES IDX 10 12 8 13 1 14 2 15 3 16 4 17 6 18 5 19 7 20 19 21 20 22
REMARK SMILES IDX 21 23 22 24 23 25 24 26 85 27 25 28 84 29 26 30 27 31 28 32
REMARK SMILES IDX 78 33 29 34 83 35 77 36 79 37 30 38 82 39 76 40 75 41 31 43
REMARK SMILES IDX 63 44 43 45 62 46 44 47 47 48 61 49 80 50 45 51 46 52 60 54
REMARK SMILES IDX 81 55 48 56 32 57 33 58 41 59 34 60 35 61 39 62 42 63 36 64
REMARK SMILES IDX 37 65 40 66 38 67 64 68 65 69 73 70 66 71 67 72 71 73 74 74
REMARK SMILES IDX 68 75 69 76 72 77 70 78 49 79 50 80 58 81 51 82 52 83 56 84
REMARK SMILES IDX 59 85 53 86 54 87 57 88 55 89
REMARK H PARENT 79 42 47 53
REMARK Flexibility Score: inf
ROOT
ATOM      1  C   UNL A   1      31.724  29.319  24.525  1.00  0.00     0.274 C 
ENDROOT
BRANCH   1   2
ATOM      2  O   UNL A   1      30.664  28.335  24.457  1.00  0.00    -0.462 OA
BRANCH   2   3
ATOM      3  C   UNL A   1      31.064  27.047  24.648  1.00  0.00     0.311 C 
ATOM      4  O   UNL A   1      30.363  26.176  25.150  1.00  0.00    -0.252 OA
BRANCH   3   5
ATOM      5  C   UNL A   1      32.534  26.856  24.303  1.00  0.00     0.123 C 
ATOM      6  N   UNL A   1      33.179  24.656  23.604  1.00  0.00    -0.335 N 
ATOM      7  C   UNL A   1      32.972  24.628  25.040  1.00  0.00     0.121 C 
ATOM      8  C   UNL A   1      32.912  26.004  23.068  1.00  0.00     0.096 C 
ATOM      9  C   UNL A   1      33.200  26.074  25.449  1.00  0.00     0.039 C 
ATOM     10  C   UNL A   1      31.940  26.035  21.902  1.00  0.00     0.032 C 
BRANCH   6  11
ATOM     11  C   UNL A   1      33.695  23.506  23.018  1.00  0.00     0.257 C 
ATOM     12  O   UNL A   1      33.568  23.342  21.802  1.00  0.00    -0.269 OA
BRANCH  11  13
ATOM     13  C   UNL A   1      34.298  22.458  23.840  1.00  0.00     0.083 A 
ATOM     14  C   UNL A   1      32.343  20.739  24.285  1.00  0.00     0.069 C 
ATOM     15  C   UNL A   1      33.724  21.272  24.390  1.00  0.00     0.072 A 
ATOM     16  N   UNL A   1      34.638  20.503  24.992  1.00  0.00    -0.178 NA
ATOM     17  N   UNL A   1      35.808  21.081  24.693  1.00  0.00    -0.272 N 
ATOM     18  C   UNL A   1      35.670  22.267  24.020  1.00  0.00     0.048 A 
ATOM     19  C   UNL A   1      37.020  20.345  24.981  1.00  0.00     0.174 C 
ATOM     20  C   UNL A   1      36.842  23.041  23.528  1.00  0.00     0.067 C 
ENDBRANCH  11  13
ENDBRANCH   6  11
ENDBRANCH   3   5
ENDBRANCH   2   3
ENDBRANCH   1   2
BRANCH   1  21
ATOM     21  C   UNL A   1      31.425  30.407  25.554  1.00  0.00     0.275 C 
BRANCH  21  22
ATOM     22  O   UNL A   1      32.313  30.256  26.673  1.00  0.00    -0.458 OA
BRANCH  22  23
ATOM     23  C   UNL A   1      32.938  31.378  27.094  1.00  0.00     0.338 C 
ATOM     24  O   UNL A   1      32.455  32.501  27.160  1.00  0.00    -0.246 OA
BRANCH  23  25
ATOM     25  C   UNL A   1      34.307  31.060  27.571  1.00  0.00     0.060 A 
ATOM     26  C   UNL A   1      34.704  29.738  27.764  1.00  0.00     0.016 A 
ATOM     27  C   UNL A   1      35.149  32.090  27.992  1.00  0.00     0.016 A 
ATOM     28  C   UNL A   1      35.847  29.448  28.506  1.00  0.00     0.010 A 
ATOM     29  C   UNL A   1      36.370  31.790  28.614  1.00  0.00     0.010 A 
ATOM     30  C   UNL A   1      36.713  30.464  28.930  1.00  0.00    -0.014 A 
BRANCH  30  31
ATOM     31  C   UNL A   1      37.923  30.132  29.746  1.00  0.00     0.031 A 
ATOM     32  C   UNL A   1      39.056  29.326  29.155  1.00  0.00     0.074 A 
ATOM     33  C   UNL A   1      38.059  30.595  31.007  1.00  0.00     0.049 A 
ATOM     34  N   UNL A   1      40.105  28.808  29.747  1.00  0.00    -0.248 NA
ATOM     35  C   UNL A   1      39.001  29.062  27.709  1.00  0.00     0.031 C 
ATOM     36  C   UNL A   1      37.093  31.438  31.713  1.00  0.00     0.029 A 
ATOM     37  N   UNL A   1      39.085  30.450  31.912  1.00  0.00    -0.354 N 
ATOM     38  C   UNL A   1      40.787  28.098  28.768  1.00  0.00     0.074 A 
ATOM     39  C   UNL A   1      40.039  28.255  27.538  1.00  0.00     0.031 C 
ATOM     40  C   UNL A   1      37.611  31.814  32.891  1.00  0.00     0.029 A 
ATOM     41  C   UNL A   1      38.891  31.142  33.082  1.00  0.00     0.049 A 
ATOM     42  H   UNL A   1      39.884  29.901  31.737  1.00  0.00     0.167 HD
ATOM     43  C   UNL A   1      41.934  27.385  28.881  1.00  0.00     0.037 A 
ATOM     44  C   UNL A   1      39.632  31.208  34.205  1.00  0.00     0.037 A 
ATOM     45  C   UNL A   1      42.730  27.290  30.078  1.00  0.00     0.049 A 
ATOM     46  C   UNL A   1      40.881  30.384  34.317  1.00  0.00     0.074 A 
ATOM     47  C   UNL A   1      43.903  26.583  30.281  1.00  0.00     0.029 A 
ATOM     48  N   UNL A   1      42.452  27.946  31.268  1.00  0.00    -0.354 N 
ATOM     49  N   UNL A   1      41.454  29.619  33.421  1.00  0.00    -0.248 NA
ATOM     50  C   UNL A   1      41.568  30.403  35.617  1.00  0.00     0.031 C 
ATOM     51  C   UNL A   1      44.321  26.787  31.601  1.00  0.00     0.029 A 
ATOM     52  C   UNL A   1      43.432  27.657  32.207  1.00  0.00     0.049 A 
ATOM     53  H   UNL A   1      41.675  28.530  31.423  1.00  0.00     0.167 HD
ATOM     54  C   UNL A   1      42.565  29.071  34.043  1.00  0.00     0.074 A 
ATOM     55  C   UNL A   1      42.604  29.610  35.386  1.00  0.00     0.031 C 
ATOM     56  C   UNL A   1      43.465  28.189  33.545  1.00  0.00     0.037 A 
BRANCH  43  57
ATOM     57  C   UNL A   1      42.385  26.607  27.679  1.00  0.00     0.064 A 
ATOM     58  C   UNL A   1      43.338  27.108  26.783  1.00  0.00     0.173 A 
ATOM     59  C   UNL A   1      41.881  25.317  27.452  1.00  0.00     0.173 A 
ATOM     60  F   UNL A   1      43.841  28.342  26.949  1.00  0.00    -0.203 F 
ATOM     61  C   UNL A   1      43.753  26.352  25.688  1.00  0.00     0.198 A 
ATOM     62  C   UNL A   1      42.319  24.554  26.373  1.00  0.00     0.198 A 
ATOM     63  F   UNL A   1      40.972  24.790  28.286  1.00  0.00    -0.203 F 
ATOM     64  F   UNL A   1      44.636  26.866  24.819  1.00  0.00    -0.200 F 
ATOM     65  C   UNL A   1      43.250  25.075  25.489  1.00  0.00     0.200 A 
ATOM     66  F   UNL A   1      41.841  23.316  26.191  1.00  0.00    -0.200 F 
ATOM     67  F   UNL A   1      43.659  24.348  24.440  1.00  0.00    -0.200 F 
ENDBRANCH  43  57
BRANCH  44  68
ATOM     68  C   UNL A   1      39.180  32.058  35.338  1.00  0.00     0.064 A 
ATOM     69  C   UNL A   1      38.421  31.518  36.385  1.00  0.00     0.173 A 
ATOM     70  C   UNL A   1      39.505  33.421  35.402  1.00  0.00     0.173 A 
ATOM     71  F   UNL A   1      38.052  30.230  36.349  1.00  0.00    -0.203 F 
ATOM     72  C   UNL A   1      38.008  32.310  37.454  1.00  0.00     0.198 A 
ATOM     73  C   UNL A   1      39.121  34.203  36.488  1.00  0.00     0.198 A 
ATOM     74  F   UNL A   1      40.221  33.990  34.420  1.00  0.00    -0.203 F 
ATOM     75  F   UNL A   1      37.251  31.779  38.424  1.00  0.00    -0.200 F 
ATOM     76  C   UNL A   1      38.369  33.647  37.511  1.00  0.00     0.200 A 
ATOM     77  F   UNL A   1      39.483  35.491  36.544  1.00  0.00    -0.200 F 
ATOM     78  F   UNL A   1      37.983  34.404  38.548  1.00  0.00    -0.200 F 
ENDBRANCH  44  68
BRANCH  56  79
ATOM     79  C   UNL A   1      44.585  27.771  34.451  1.00  0.00     0.064 A 
ATOM     80  C   UNL A   1      44.483  26.637  35.270  1.00  0.00     0.173 A 
ATOM     81  C   UNL A   1      45.775  28.512  34.500  1.00  0.00     0.173 A 
ATOM     82  F   UNL A   1      43.358  25.905  35.271  1.00  0.00    -0.203 F 
ATOM     83  C   UNL A   1      45.520  26.276  36.126  1.00  0.00     0.198 A 
ATOM     84  C   UNL A   1      46.820  28.135  35.338  1.00  0.00     0.198 A 
ATOM     85  F   UNL A   1      45.925  29.603  33.734  1.00  0.00    -0.203 F 
ATOM     86  F   UNL A   1      45.380  25.219  36.938  1.00  0.00    -0.200 F 
ATOM     87  C   UNL A   1      46.688  27.024  36.157  1.00  0.00     0.200 A 
ATOM     88  F   UNL A   1      47.952  28.852  35.361  1.00  0.00    -0.200 F 
ATOM     89  F   UNL A   1      47.683  26.677  36.986  1.00  0.00    -0.200 F 
ENDBRANCH  56  79
ENDBRANCH  30  31
ENDBRANCH  23  25
ENDBRANCH  22  23
ENDBRANCH  21  22
ENDBRANCH   1  21
TORSDOF 13
ENDMDL
MODEL 2
REMARK VINA RESULT:     -12.3      0.569      1.783
REMARK SMILES Cc1nn(C)c(C)c1C(=O)N1CC[C@H](C(=O)OCCOC(=O)c2ccc(-c3c4nc(c(-c5c(F)c(F)c(F)c(F)c5F)c5ccc([nH]5)c(-c5c(F)c(F)c(F)c(F)c5F)c5nc(c(-c6c(F)c(F)c(F)c(F)c6F)c6ccc3[nH]6)C=C5)C=C4)cc2)[C@@H]1C
REMARK SMILES IDX 18 1 17 2 15 3 16 4 14 5 11 6 12 7 86 8 13 9 87 10 9 11
REMARK SMILES IDX 10 12 8 13 1 14 2 15 3 16 4 17 6 18 5 19 7 20 19 21 20 22
REMARK SMILES IDX 21 23 22 24 23 25 24 26 85 27 25 28 84 29 26 30 27 31 28 32
REMARK SMILES IDX 78 33 29 34 83 35 77 36 79 37 30 38 82 39 76 40 75 41 31 43
REMARK SMILES IDX 63 44 43 45 62 46 44 47 47 48 61 49 80 50 45 51 46 52 60 54
REMARK SMILES IDX 81 55 48 56 32 57 33 58 41 59 34 60 35 61 39 62 42 63 36 64
REMARK SMILES IDX 37 65 40 66 38 67 64 68 65 69 73 70 66 71 67 72 71 73 74 74
REMARK SMILES IDX 68 75 69 76 72 77 70 78 49 79 50 80 58 81 51 82 52 83 56 84
REMARK SMILES IDX 59 85 53 86 54 87 57 88 55 89
REMARK H PARENT 79 42 47 53
REMARK Flexibility Score: inf
ROOT
ATOM      1  C   UNL A   1      31.728  29.691  24.952  1.00  0.00     0.274 C 
ENDROOT
BRANCH   1   2
ATOM      2  O   UNL A   1      31.348  28.379  25.432  1.00  0.00    -0.462 OA
BRANCH   2   3
ATOM      3  C   UNL A   1      31.259  27.419  24.470  1.00  0.00     0.311 C 
ATOM      4  O   UNL A   1      30.943  27.638  23.306  1.00  0.00    -0.252 OA
BRANCH   3   5
ATOM      5  C   UNL A   1      31.450  26.024  25.046  1.00  0.00     0.123 C 
ATOM      6  N   UNL A   1      32.660  24.471  23.679  1.00  0.00    -0.335 N 
ATOM      7  C   UNL A   1      31.332  24.626  23.115  1.00  0.00     0.121 C 
ATOM      8  C   UNL A   1      32.817  25.320  24.875  1.00  0.00     0.096 C 
ATOM      9  C   UNL A   1      30.499  25.063  24.309  1.00  0.00     0.039 C 
ATOM     10  C   UNL A   1      34.041  26.218  24.852  1.00  0.00     0.032 C 
BRANCH   6  11
ATOM     11  C   UNL A   1      33.479  23.502  23.111  1.00  0.00     0.257 C 
ATOM     12  O   UNL A   1      33.600  23.461  21.884  1.00  0.00    -0.269 OA
BRANCH  11  13
ATOM     13  C   UNL A   1      34.114  22.483  23.945  1.00  0.00     0.083 A 
ATOM     14  C   UNL A   1      32.154  20.850  24.629  1.00  0.00     0.069 C 
ATOM     15  C   UNL A   1      33.553  21.346  24.602  1.00  0.00     0.072 A 
ATOM     16  N   UNL A   1      34.488  20.585  25.178  1.00  0.00    -0.178 NA
ATOM     17  N   UNL A   1      35.648  21.111  24.762  1.00  0.00    -0.272 N 
ATOM     18  C   UNL A   1      35.490  22.261  24.034  1.00  0.00     0.048 A 
ATOM     19  C   UNL A   1      36.858  20.356  25.001  1.00  0.00     0.174 C 
ATOM     20  C   UNL A   1      36.642  22.972  23.415  1.00  0.00     0.067 C 
ENDBRANCH  11  13
ENDBRANCH   6  11
ENDBRANCH   3   5
ENDBRANCH   2   3
ENDBRANCH   1   2
BRANCH   1  21
ATOM     21  C   UNL A   1      31.400  30.785  25.966  1.00  0.00     0.275 C 
BRANCH  21  22
ATOM     22  O   UNL A   1      32.312  30.692  27.072  1.00  0.00    -0.458 OA
BRANCH  22  23
ATOM     23  C   UNL A   1      33.076  31.782  27.309  1.00  0.00     0.338 C 
ATOM     24  O   UNL A   1      32.723  32.951  27.227  1.00  0.00    -0.246 OA
BRANCH  23  25
ATOM     25  C   UNL A   1      34.421  31.377  27.788  1.00  0.00     0.060 A 
ATOM     26  C   UNL A   1      34.726  30.034  28.002  1.00  0.00     0.016 A 
ATOM     27  C   UNL A   1      35.334  32.353  28.190  1.00  0.00     0.016 A 
ATOM     28  C   UNL A   1      35.848  29.678  28.745  1.00  0.00     0.010 A 
ATOM     29  C   UNL A   1      36.533  31.979  28.813  1.00  0.00     0.010 A 
ATOM     30  C   UNL A   1      36.785  30.638  29.150  1.00  0.00    -0.014 A 
BRANCH  30  31
ATOM     31  C   UNL A   1      37.972  30.236  29.969  1.00  0.00     0.031 A 
ATOM     32  C   UNL A   1      39.076  29.398  29.368  1.00  0.00     0.074 A 
ATOM     33  C   UNL A   1      38.114  30.662  31.242  1.00  0.00     0.049 A 
ATOM     34  N   UNL A   1      40.097  28.823  29.957  1.00  0.00    -0.248 NA
ATOM     35  C   UNL A   1      39.025  29.172  27.915  1.00  0.00     0.031 C 
ATOM     36  C   UNL A   1      37.177  31.527  31.960  1.00  0.00     0.029 A 
ATOM     37  N   UNL A   1      39.125  30.452  32.152  1.00  0.00    -0.354 N 
ATOM     38  C   UNL A   1      40.759  28.109  28.966  1.00  0.00     0.074 A 
ATOM     39  C   UNL A   1      40.030  28.327  27.734  1.00  0.00     0.031 C 
ATOM     40  C   UNL A   1      37.698  31.852  33.151  1.00  0.00     0.029 A 
ATOM     41  C   UNL A   1      38.947  31.123  33.338  1.00  0.00     0.049 A 
ATOM     42  H   UNL A   1      39.902  29.875  31.971  1.00  0.00     0.167 HD
ATOM     43  C   UNL A   1      41.874  27.346  29.072  1.00  0.00     0.037 A 
ATOM     44  C   UNL A   1      39.680  31.131  34.468  1.00  0.00     0.037 A 
ATOM     45  C   UNL A   1      42.654  27.190  30.273  1.00  0.00     0.049 A 
ATOM     46  C   UNL A   1      40.892  30.253  34.571  1.00  0.00     0.074 A 
ATOM     47  C   UNL A   1      43.794  26.429  30.469  1.00  0.00     0.029 A 
ATOM     48  N   UNL A   1      42.392  27.827  31.476  1.00  0.00    -0.354 N 
ATOM     49  N   UNL A   1      41.442  29.488  33.661  1.00  0.00    -0.248 NA
ATOM     50  C   UNL A   1      41.566  30.212  35.877  1.00  0.00     0.031 C 
ATOM     51  C   UNL A   1      44.207  26.584  31.797  1.00  0.00     0.029 A 
ATOM     52  C   UNL A   1      43.349  27.474  32.417  1.00  0.00     0.049 A 
ATOM     53  H   UNL A   1      41.638  28.439  31.639  1.00  0.00     0.167 HD
ATOM     54  C   UNL A   1      42.523  28.878  34.280  1.00  0.00     0.074 A 
ATOM     55  C   UNL A   1      42.571  29.382  35.635  1.00  0.00     0.031 C 
ATOM     56  C   UNL A   1      43.391  27.972  33.768  1.00  0.00     0.037 A 
BRANCH  43  57
ATOM     57  C   UNL A   1      42.305  26.580  27.855  1.00  0.00     0.064 A 
ATOM     58  C   UNL A   1      43.270  27.073  26.968  1.00  0.00     0.173 A 
ATOM     59  C   UNL A   1      41.767  25.308  27.604  1.00  0.00     0.173 A 
ATOM     60  F   UNL A   1      43.804  28.290  27.156  1.00  0.00    -0.203 F 
ATOM     61  C   UNL A   1      43.665  26.328  25.858  1.00  0.00     0.198 A 
ATOM     62  C   UNL A   1      42.185  24.554  26.511  1.00  0.00     0.198 A 
ATOM     63  F   UNL A   1      40.846  24.788  28.430  1.00  0.00    -0.203 F 
ATOM     64  F   UNL A   1      44.559  26.835  24.997  1.00  0.00    -0.200 F 
ATOM     65  C   UNL A   1      43.128  25.068  25.636  1.00  0.00     0.200 A 
ATOM     66  F   UNL A   1      41.676  23.332  26.307  1.00  0.00    -0.200 F 
ATOM     67  F   UNL A   1      43.518  24.350  24.573  1.00  0.00    -0.200 F 
ENDBRANCH  43  57
BRANCH  44  68
ATOM     68  C   UNL A   1      39.252  31.972  35.617  1.00  0.00     0.064 A 
ATOM     69  C   UNL A   1      39.729  33.281  35.767  1.00  0.00     0.173 A 
ATOM     70  C   UNL A   1      38.352  31.490  36.580  1.00  0.00     0.173 A 
ATOM     71  F   UNL A   1      40.621  33.773  34.895  1.00  0.00    -0.203 F 
ATOM     72  C   UNL A   1      39.320  34.076  36.835  1.00  0.00     0.198 A 
ATOM     73  C   UNL A   1      37.917  32.298  37.627  1.00  0.00     0.198 A 
ATOM     74  F   UNL A   1      37.874  30.240  36.488  1.00  0.00    -0.203 F 
ATOM     75  F   UNL A   1      39.820  35.311  36.978  1.00  0.00    -0.200 F 
ATOM     76  C   UNL A   1      38.405  33.589  37.757  1.00  0.00     0.200 A 
ATOM     77  F   UNL A   1      37.025  31.826  38.507  1.00  0.00    -0.200 F 
ATOM     78  F   UNL A   1      38.001  34.360  38.775  1.00  0.00    -0.200 F 
ENDBRANCH  44  68
BRANCH  56  79
ATOM     79  C   UNL A   1      44.483  27.486  34.673  1.00  0.00     0.064 A 
ATOM     80  C   UNL A   1      45.708  28.163  34.776  1.00  0.00     0.173 A 
ATOM     81  C   UNL A   1      44.303  26.332  35.450  1.00  0.00     0.173 A 
ATOM     82  F   UNL A   1      45.934  29.263  34.041  1.00  0.00    -0.203 F 
ATOM     83  C   UNL A   1      46.723  27.686  35.600  1.00  0.00     0.198 A 
ATOM     84  C   UNL A   1      45.311  25.871  36.292  1.00  0.00     0.198 A 
ATOM     85  F   UNL A   1      43.150  25.651  35.391  1.00  0.00    -0.203 F 
ATOM     86  F   UNL A   1      47.903  28.318  35.643  1.00  0.00    -0.200 F 
ATOM     87  C   UNL A   1      46.522  26.542  36.360  1.00  0.00     0.200 A 
ATOM     88  F   UNL A   1      45.112  24.772  37.033  1.00  0.00    -0.200 F 
ATOM     89  F   UNL A   1      47.503  26.081  37.149  1.00  0.00    -0.200 F 
ENDBRANCH  56  79
ENDBRANCH  30  31
ENDBRANCH  23  25
ENDBRANCH  22  23
ENDBRANCH  21  22
ENDBRANCH   1  21
TORSDOF 13
ENDMDL
MODEL 3
REMARK VINA RESULT:     -12.3      0.869      2.029
REMARK SMILES Cc1nn(C)c(C)c1C(=O)N1CC[C@H](C(=O)OCCOC(=O)c2ccc(-c3c4nc(c(-c5c(F)c(F)c(F)c(F)c5F)c5ccc([nH]5)c(-c5c(F)c(F)c(F)c(F)c5F)c5nc(c(-c6c(F)c(F)c(F)c(F)c6F)c6ccc3[nH]6)C=C5)C=C4)cc2)[C@@H]1C
REMARK SMILES IDX 18 1 17 2 15 3 16 4 14 5 11 6 12 7 86 8 13 9 87 10 9 11
REMARK SMILES IDX 10 12 8 13 1 14 2 15 3 16 4 17 6 18 5 19 7 20 19 21 20 22
REMARK SMILES IDX 21 23 22 24 23 25 24 26 85 27 25 28 84 29 26 30 27 31 28 32
REMARK SMILES IDX 78 33 29 34 83 35 77 36 79 37 30 38 82 39 76 40 75 41 31 43
REMARK SMILES IDX 63 44 43 45 62 46 44 47 47 48 61 49 80 50 45 51 46 52 60 54
REMARK SMILES IDX 81 55 48 56 32 57 33 58 41 59 34 60 35 61 39 62 42 63 36 64
REMARK SMILES IDX 37 65 40 66 38 67 64 68 65 69 73 70 66 71 67 72 71 73 74 74
REMARK SMILES IDX 68 75 69 76 72 77 70 78 49 79 50 80 58 81 51 82 52 83 56 84
REMARK SMILES IDX 59 85 53 86 54 87 57 88 55 89
REMARK H PARENT 79 42 47 53
REMARK Flexibility Score: inf
ROOT
ATOM      1  C   UNL A   1      31.431  29.309  25.244  1.00  0.00     0.274 C 
ENDROOT
BRANCH   1   2
ATOM      2  O   UNL A   1      30.881  29.300  23.905  1.00  0.00    -0.462 OA
BRANCH   2   3
ATOM      3  C   UNL A   1      30.893  28.087  23.287  1.00  0.00     0.311 C 
ATOM      4  O   UNL A   1      30.278  27.831  22.259  1.00  0.00    -0.252 OA
BRANCH   3   5
ATOM      5  C   UNL A   1      31.638  27.044  24.108  1.00  0.00     0.123 C 
ATOM      6  N   UNL A   1      32.475  25.149  22.902  1.00  0.00    -0.335 N 
ATOM      7  C   UNL A   1      31.039  24.994  23.042  1.00  0.00     0.121 C 
ATOM      8  C   UNL A   1      32.923  26.407  23.527  1.00  0.00     0.096 C 
ATOM      9  C   UNL A   1      30.722  25.819  24.278  1.00  0.00     0.039 C 
ATOM     10  C   UNL A   1      33.767  27.291  22.625  1.00  0.00     0.032 C 
BRANCH   6  11
ATOM     11  C   UNL A   1      33.175  24.082  22.350  1.00  0.00     0.257 C 
ATOM     12  O   UNL A   1      33.386  24.066  21.136  1.00  0.00    -0.269 OA
BRANCH  11  13
ATOM     13  C   UNL A   1      33.574  22.945  23.179  1.00  0.00     0.083 A 
ATOM     14  C   UNL A   1      35.175  23.973  25.011  1.00  0.00     0.069 C 
ATOM     15  C   UNL A   1      34.433  22.890  24.318  1.00  0.00     0.072 A 
ATOM     16  N   UNL A   1      34.455  21.674  24.874  1.00  0.00    -0.178 NA
ATOM     17  N   UNL A   1      33.500  20.995  24.225  1.00  0.00    -0.272 N 
ATOM     18  C   UNL A   1      32.948  21.697  23.185  1.00  0.00     0.048 A 
ATOM     19  C   UNL A   1      33.092  19.717  24.766  1.00  0.00     0.174 C 
ATOM     20  C   UNL A   1      31.822  21.158  22.375  1.00  0.00     0.067 C 
ENDBRANCH  11  13
ENDBRANCH   6  11
ENDBRANCH   3   5
ENDBRANCH   2   3
ENDBRANCH   1   2
BRANCH   1  21
ATOM     21  C   UNL A   1      31.594  30.728  25.783  1.00  0.00     0.275 C 
BRANCH  21  22
ATOM     22  O   UNL A   1      32.331  30.684  27.015  1.00  0.00    -0.458 OA
BRANCH  22  23
ATOM     23  C   UNL A   1      33.069  31.778  27.309  1.00  0.00     0.338 C 
ATOM     24  O   UNL A   1      32.692  32.942  27.274  1.00  0.00    -0.246 OA
BRANCH  23  25
ATOM     25  C   UNL A   1      34.416  31.380  27.787  1.00  0.00     0.060 A 
ATOM     26  C   UNL A   1      34.716  30.043  28.039  1.00  0.00     0.016 A 
ATOM     27  C   UNL A   1      35.340  32.363  28.147  1.00  0.00     0.016 A 
ATOM     28  C   UNL A   1      35.844  29.703  28.782  1.00  0.00     0.010 A 
ATOM     29  C   UNL A   1      36.543  32.001  28.769  1.00  0.00     0.010 A 
ATOM     30  C   UNL A   1      36.791  30.670  29.147  1.00  0.00    -0.014 A 
BRANCH  30  31
ATOM     31  C   UNL A   1      37.984  30.287  29.965  1.00  0.00     0.031 A 
ATOM     32  C   UNL A   1      39.097  29.460  29.366  1.00  0.00     0.074 A 
ATOM     33  C   UNL A   1      38.124  30.721  31.236  1.00  0.00     0.049 A 
ATOM     34  N   UNL A   1      40.126  28.900  29.956  1.00  0.00    -0.248 NA
ATOM     35  C   UNL A   1      39.046  29.225  27.915  1.00  0.00     0.031 C 
ATOM     36  C   UNL A   1      37.177  31.579  31.951  1.00  0.00     0.029 A 
ATOM     37  N   UNL A   1      39.138  30.529  32.144  1.00  0.00    -0.354 N 
ATOM     38  C   UNL A   1      40.795  28.189  28.968  1.00  0.00     0.074 A 
ATOM     39  C   UNL A   1      40.061  28.391  27.736  1.00  0.00     0.031 C 
ATOM     40  C   UNL A   1      37.697  31.917  33.139  1.00  0.00     0.029 A 
ATOM     41  C   UNL A   1      38.955  31.204  33.327  1.00  0.00     0.049 A 
ATOM     42  H   UNL A   1      39.922  29.960  31.965  1.00  0.00     0.167 HD
ATOM     43  C   UNL A   1      41.920  27.441  29.075  1.00  0.00     0.037 A 
ATOM     44  C   UNL A   1      39.689  31.226  34.456  1.00  0.00     0.037 A 
ATOM     45  C   UNL A   1      42.704  27.300  30.276  1.00  0.00     0.049 A 
ATOM     46  C   UNL A   1      40.913  30.365  34.561  1.00  0.00     0.074 A 
ATOM     47  C   UNL A   1      43.854  26.554  30.473  1.00  0.00     0.029 A 
ATOM     48  N   UNL A   1      42.436  27.940  31.476  1.00  0.00    -0.354 N 
ATOM     49  N   UNL A   1      41.470  29.601  33.654  1.00  0.00    -0.248 NA
ATOM     50  C   UNL A   1      41.590  30.339  35.866  1.00  0.00     0.031 C 
ATOM     51  C   UNL A   1      44.267  26.721  31.800  1.00  0.00     0.029 A 
ATOM     52  C   UNL A   1      43.399  27.604  32.417  1.00  0.00     0.049 A 
ATOM     53  H   UNL A   1      41.675  28.544  31.637  1.00  0.00     0.167 HD
ATOM     54  C   UNL A   1      42.560  29.008  34.274  1.00  0.00     0.074 A 
ATOM     55  C   UNL A   1      42.604  29.520  35.627  1.00  0.00     0.031 C 
ATOM     56  C   UNL A   1      43.438  28.110  33.765  1.00  0.00     0.037 A 
BRANCH  43  57
ATOM     57  C   UNL A   1      42.357  26.673  27.862  1.00  0.00     0.064 A 
ATOM     58  C   UNL A   1      41.842  25.406  27.558  1.00  0.00     0.173 A 
ATOM     59  C   UNL A   1      43.277  27.243  26.968  1.00  0.00     0.173 A 
ATOM     60  F   UNL A   1      40.970  24.812  28.387  1.00  0.00    -0.203 F 
ATOM     61  C   UNL A   1      42.252  24.727  26.411  1.00  0.00     0.198 A 
ATOM     62  C   UNL A   1      43.663  26.574  25.810  1.00  0.00     0.198 A 
ATOM     63  F   UNL A   1      43.793  28.457  27.211  1.00  0.00    -0.203 F 
ATOM     64  F   UNL A   1      41.779  23.498  26.159  1.00  0.00    -0.200 F 
ATOM     65  C   UNL A   1      43.154  25.314  25.536  1.00  0.00     0.200 A 
ATOM     66  F   UNL A   1      44.523  27.149  24.960  1.00  0.00    -0.200 F 
ATOM     67  F   UNL A   1      43.538  24.662  24.430  1.00  0.00    -0.200 F 
ENDBRANCH  43  57
BRANCH  44  68
ATOM     68  C   UNL A   1      39.254  32.068  35.602  1.00  0.00     0.064 A 
ATOM     69  C   UNL A   1      38.401  31.555  36.588  1.00  0.00     0.173 A 
ATOM     70  C   UNL A   1      39.688  33.395  35.740  1.00  0.00     0.173 A 
ATOM     71  F   UNL A   1      37.928  30.305  36.480  1.00  0.00    -0.203 F 
ATOM     72  C   UNL A   1      38.002  32.336  37.670  1.00  0.00     0.198 A 
ATOM     73  C   UNL A   1      39.316  34.164  36.839  1.00  0.00     0.198 A 
ATOM     74  F   UNL A   1      40.497  33.937  34.817  1.00  0.00    -0.203 F 
ATOM     75  F   UNL A   1      37.155  31.835  38.580  1.00  0.00    -0.200 F 
ATOM     76  C   UNL A   1      38.470  33.635  37.801  1.00  0.00     0.200 A 
ATOM     77  F   UNL A   1      39.781  35.413  36.967  1.00  0.00    -0.200 F 
ATOM     78  F   UNL A   1      38.097  34.381  38.849  1.00  0.00    -0.200 F 
ENDBRANCH  44  68
BRANCH  56  79
ATOM     79  C   UNL A   1      44.538  27.642  34.671  1.00  0.00     0.064 A 
ATOM     80  C   UNL A   1      45.751  28.340  34.774  1.00  0.00     0.173 A 
ATOM     81  C   UNL A   1      44.377  26.485  35.447  1.00  0.00     0.173 A 
ATOM     82  F   UNL A   1      45.958  29.443  34.040  1.00  0.00    -0.203 F 
ATOM     83  C   UNL A   1      46.773  27.879  35.599  1.00  0.00     0.198 A 
ATOM     84  C   UNL A   1      45.392  26.041  36.289  1.00  0.00     0.198 A 
ATOM     85  F   UNL A   1      43.235  25.784  35.387  1.00  0.00    -0.203 F 
ATOM     86  F   UNL A   1      47.942  28.532  35.643  1.00  0.00    -0.200 F 
ATOM     87  C   UNL A   1      46.591  26.732  36.358  1.00  0.00     0.200 A 
ATOM     88  F   UNL A   1      45.212  24.937  37.029  1.00  0.00    -0.200 F 
ATOM     89  F   UNL A   1      47.579  26.287  37.148  1.00  0.00    -0.200 F 
ENDBRANCH  56  79
ENDBRANCH  30  31
ENDBRANCH  23  25
ENDBRANCH  22  23
ENDBRANCH  21  22
ENDBRANCH   1  21
TORSDOF 13
ENDMDL
