MODEL 1
REMARK VINA RESULT:     -13.0      0.000      0.000
REMARK SMILES C[N@H+]1CCO[C@H](c2noc(-c3ccccc3C(=O)OCCOC(=O)c3ccc(-c4c5nc(c(-c6c(F)c(F)c(F)c(F)c6F)c6ccc([nH]6)c(-c6c(F)c(F)c(F)c(F)c6F)c6nc(c(-c7c(F)c(F)c(F)c(F)c7F)c7ccc4[nH]7)C=C6)C=C5)cc3)n2)C1
REMARK SMILES IDX 20 1 19 2 17 3 18 4 16 5 11 6 12 7 13 8 15 9 14 10 10 11
REMARK SMILES IDX 7 12 8 13 88 14 9 15 6 16 1 17 2 18 3 19 89 20 4 22 5 23
REMARK SMILES IDX 21 24 22 25 23 26 24 27 25 28 26 29 87 30 27 31 86 32 28 33
REMARK SMILES IDX 29 34 30 35 80 36 31 37 85 38 79 39 81 40 32 41 84 42 78 43
REMARK SMILES IDX 77 44 33 46 65 47 45 48 64 49 46 50 49 51 63 52 82 53 47 54
REMARK SMILES IDX 48 55 62 57 83 58 50 59 34 60 35 61 43 62 36 63 37 64 41 65
REMARK SMILES IDX 44 66 38 67 39 68 42 69 40 70 66 71 67 72 75 73 68 74 69 75
REMARK SMILES IDX 73 76 76 77 70 78 71 79 74 80 72 81 51 82 52 83 60 84 53 85
REMARK SMILES IDX 54 86 58 87 61 88 55 89 56 90 59 91 57 92
REMARK H PARENT 2 21 81 45 49 56
REMARK Flexibility Score: inf
ROOT
ATOM      1  C   UNL A   1      32.594  29.360  24.785  1.00  0.00     0.275 C 
ENDROOT
BRANCH   1   2
ATOM      2  O   UNL A   1      33.164  28.177  25.384  1.00  0.00    -0.458 OA
BRANCH   2   3
ATOM      3  C   UNL A   1      32.356  27.093  25.481  1.00  0.00     0.339 C 
ATOM      4  O   UNL A   1      31.463  26.920  26.295  1.00  0.00    -0.246 OA
BRANCH   3   5
ATOM      5  C   UNL A   1      32.597  26.159  24.349  1.00  0.00     0.072 A 
ATOM      6  C   UNL A   1      31.683  25.963  23.297  1.00  0.00     0.054 A 
ATOM      7  C   UNL A   1      31.989  25.011  22.307  1.00  0.00     0.015 A 
ATOM      8  C   UNL A   1      33.189  24.294  22.347  1.00  0.00     0.001 A 
ATOM      9  C   UNL A   1      33.820  25.464  24.355  1.00  0.00     0.016 A 
ATOM     10  C   UNL A   1      34.108  24.526  23.365  1.00  0.00     0.001 A 
BRANCH   6  11
ATOM     11  C   UNL A   1      30.493  26.786  23.171  1.00  0.00     0.258 A 
ATOM     12  C   UNL A   1      29.066  28.291  22.888  1.00  0.00     0.206 A 
ATOM     13  N   UNL A   1      28.387  27.350  23.563  1.00  0.00    -0.059 NA
ATOM     14  N   UNL A   1      30.355  27.944  22.570  1.00  0.00    -0.189 NA
ATOM     15  O   UNL A   1      29.345  26.347  23.764  1.00  0.00    -0.334 OA
BRANCH  12  16
ATOM     16  C   UNL A   1      28.485  29.624  22.520  1.00  0.00     0.245 C 
ATOM     17  C   UNL A   1      27.920  31.738  20.205  1.00  0.00     0.332 C 
ATOM     18  N   UNL A   1      28.986  31.769  21.200  1.00  0.00    -0.333 N 
ATOM     19  C   UNL A   1      28.590  32.488  22.426  1.00  0.00     0.290 C 
ATOM     20  C   UNL A   1      29.433  30.404  21.565  1.00  0.00     0.303 C 
ATOM     21  H   UNL A   1      29.759  32.272  20.763  1.00  0.00     0.348 HD
ATOM     22  C   UNL A   1      27.659  31.685  23.351  1.00  0.00     0.222 C 
ATOM     23  O   UNL A   1      28.234  30.422  23.702  1.00  0.00    -0.358 OA
ENDBRANCH  12  16
ENDBRANCH   6  11
ENDBRANCH   3   5
ENDBRANCH   2   3
ENDBRANCH   1   2
BRANCH   1  24
ATOM     24  C   UNL A   1      31.795  30.155  25.812  1.00  0.00     0.275 C 
BRANCH  24  25
ATOM     25  O   UNL A   1      32.535  30.219  27.042  1.00  0.00    -0.458 OA
BRANCH  25  26
ATOM     26  C   UNL A   1      33.191  31.380  27.241  1.00  0.00     0.338 C 
ATOM     27  O   UNL A   1      32.747  32.515  27.230  1.00  0.00    -0.246 OA
BRANCH  26  28
ATOM     28  C   UNL A   1      34.576  31.087  27.620  1.00  0.00     0.060 A 
ATOM     29  C   UNL A   1      34.919  29.751  27.814  1.00  0.00     0.016 A 
ATOM     30  C   UNL A   1      35.457  32.111  27.958  1.00  0.00     0.016 A 
ATOM     31  C   UNL A   1      36.119  29.427  28.436  1.00  0.00     0.010 A 
ATOM     32  C   UNL A   1      36.685  31.782  28.539  1.00  0.00     0.010 A 
ATOM     33  C   UNL A   1      37.000  30.442  28.836  1.00  0.00    -0.014 A 
BRANCH  33  34
ATOM     34  C   UNL A   1      38.161  30.105  29.701  1.00  0.00     0.031 A 
ATOM     35  C   UNL A   1      39.277  29.262  29.139  1.00  0.00     0.074 A 
ATOM     36  C   UNL A   1      38.263  30.601  30.947  1.00  0.00     0.049 A 
ATOM     37  N   UNL A   1      40.321  28.752  29.743  1.00  0.00    -0.248 NA
ATOM     38  C   UNL A   1      39.201  28.939  27.704  1.00  0.00     0.031 C 
ATOM     39  C   UNL A   1      37.288  31.481  31.590  1.00  0.00     0.029 A 
ATOM     40  N   UNL A   1      39.249  30.448  31.889  1.00  0.00    -0.354 N 
ATOM     41  C   UNL A   1      40.985  28.000  28.781  1.00  0.00     0.074 A 
ATOM     42  C   UNL A   1      40.230  28.120  27.554  1.00  0.00     0.031 C 
ATOM     43  C   UNL A   1      37.743  31.821  32.807  1.00  0.00     0.029 A 
ATOM     44  C   UNL A   1      39.007  31.134  33.054  1.00  0.00     0.049 A 
ATOM     45  H   UNL A   1      40.053  29.899  31.745  1.00  0.00     0.167 HD
ATOM     46  C   UNL A   1      42.122  27.277  28.913  1.00  0.00     0.037 A 
ATOM     47  C   UNL A   1      39.716  31.184  34.198  1.00  0.00     0.037 A 
ATOM     48  C   UNL A   1      42.910  27.216  30.115  1.00  0.00     0.049 A 
ATOM     49  C   UNL A   1      40.988  30.389  34.312  1.00  0.00     0.074 A 
ATOM     50  C   UNL A   1      44.071  26.502  30.355  1.00  0.00     0.029 A 
ATOM     51  N   UNL A   1      42.630  27.926  31.273  1.00  0.00    -0.354 N 
ATOM     52  N   UNL A   1      41.566  29.618  33.422  1.00  0.00    -0.248 NA
ATOM     53  C   UNL A   1      41.701  30.462  35.595  1.00  0.00     0.031 C 
ATOM     54  C   UNL A   1      44.486  26.768  31.665  1.00  0.00     0.029 A 
ATOM     55  C   UNL A   1      43.602  27.675  32.228  1.00  0.00     0.049 A 
ATOM     56  H   UNL A   1      41.855  28.519  31.398  1.00  0.00     0.167 HD
ATOM     57  C   UNL A   1      42.715  29.130  34.030  1.00  0.00     0.074 A 
ATOM     58  C   UNL A   1      42.765  29.707  35.357  1.00  0.00     0.031 C 
ATOM     59  C   UNL A   1      43.643  28.274  33.535  1.00  0.00     0.037 A 
BRANCH  46  60
ATOM     60  C   UNL A   1      42.563  26.463  27.731  1.00  0.00     0.064 A 
ATOM     61  C   UNL A   1      42.040  25.189  27.467  1.00  0.00     0.173 A 
ATOM     62  C   UNL A   1      43.514  26.981  26.837  1.00  0.00     0.173 A 
ATOM     63  F   UNL A   1      41.143  24.643  28.301  1.00  0.00    -0.203 F 
ATOM     64  C   UNL A   1      42.472  24.454  26.366  1.00  0.00     0.198 A 
ATOM     65  C   UNL A   1      43.921  26.253  25.722  1.00  0.00     0.198 A 
ATOM     66  F   UNL A   1      44.043  28.197  27.041  1.00  0.00    -0.203 F 
ATOM     67  F   UNL A   1      41.993  23.219  26.160  1.00  0.00    -0.200 F 
ATOM     68  C   UNL A   1      43.406  24.988  25.492  1.00  0.00     0.200 A 
ATOM     69  F   UNL A   1      44.817  26.777  24.873  1.00  0.00    -0.200 F 
ATOM     70  F   UNL A   1      43.816  24.279  24.431  1.00  0.00    -0.200 F 
ENDBRANCH  46  60
BRANCH  47  71
ATOM     71  C   UNL A   1      39.234  32.014  35.331  1.00  0.00     0.064 A 
ATOM     72  C   UNL A   1      39.562  33.375  35.418  1.00  0.00     0.173 A 
ATOM     73  C   UNL A   1      38.439  31.467  36.349  1.00  0.00     0.173 A 
ATOM     74  F   UNL A   1      40.341  33.937  34.483  1.00  0.00    -0.203 F 
ATOM     75  C   UNL A   1      39.123  34.153  36.487  1.00  0.00     0.198 A 
ATOM     76  C   UNL A   1      37.978  32.253  37.402  1.00  0.00     0.198 A 
ATOM     77  F   UNL A   1      38.100  30.170  36.312  1.00  0.00    -0.203 F 
ATOM     78  F   UNL A   1      39.486  35.441  36.569  1.00  0.00    -0.200 F 
ATOM     79  C   UNL A   1      38.325  33.593  37.475  1.00  0.00     0.200 A 
ATOM     80  F   UNL A   1      37.197  31.712  38.347  1.00  0.00    -0.200 F 
ATOM     81  F   UNL A   1      37.898  34.344  38.499  1.00  0.00    -0.200 F 
ENDBRANCH  47  71
BRANCH  59  82
ATOM     82  C   UNL A   1      44.811  27.949  34.417  1.00  0.00     0.064 A 
ATOM     83  C   UNL A   1      45.982  28.722  34.400  1.00  0.00     0.173 A 
ATOM     84  C   UNL A   1      44.746  26.867  35.307  1.00  0.00     0.173 A 
ATOM     85  F   UNL A   1      46.095  29.757  33.556  1.00  0.00    -0.203 F 
ATOM     86  C   UNL A   1      47.058  28.403  35.224  1.00  0.00     0.198 A 
ATOM     87  C   UNL A   1      45.815  26.567  36.146  1.00  0.00     0.198 A 
ATOM     88  F   UNL A   1      43.645  26.104  35.364  1.00  0.00    -0.203 F 
ATOM     89  F   UNL A   1      48.185  29.124  35.159  1.00  0.00    -0.200 F 
ATOM     90  C   UNL A   1      46.972  27.330  36.099  1.00  0.00     0.200 A 
ATOM     91  F   UNL A   1      45.727  25.535  36.996  1.00  0.00    -0.200 F 
ATOM     92  F   UNL A   1      48.010  27.024  36.889  1.00  0.00    -0.200 F 
ENDBRANCH  59  82
ENDBRANCH  33  34
ENDBRANCH  26  28
ENDBRANCH  25  26
ENDBRANCH  24  25
ENDBRANCH   1  24
TORSDOF 13
ENDMDL
MODEL 2
REMARK VINA RESULT:     -13.0      0.109      1.132
REMARK SMILES C[N@H+]1CCO[C@H](c2noc(-c3ccccc3C(=O)OCCOC(=O)c3ccc(-c4c5nc(c(-c6c(F)c(F)c(F)c(F)c6F)c6ccc([nH]6)c(-c6c(F)c(F)c(F)c(F)c6F)c6nc(c(-c7c(F)c(F)c(F)c(F)c7F)c7ccc4[nH]7)C=C6)C=C5)cc3)n2)C1
REMARK SMILES IDX 20 1 19 2 17 3 18 4 16 5 11 6 12 7 13 8 15 9 14 10 10 11
REMARK SMILES IDX 7 12 8 13 88 14 9 15 6 16 1 17 2 18 3 19 89 20 4 22 5 23
REMARK SMILES IDX 21 24 22 25 23 26 24 27 25 28 26 29 87 30 27 31 86 32 28 33
REMARK SMILES IDX 29 34 30 35 80 36 31 37 85 38 79 39 81 40 32 41 84 42 78 43
REMARK SMILES IDX 77 44 33 46 65 47 45 48 64 49 46 50 49 51 63 52 82 53 47 54
REMARK SMILES IDX 48 55 62 57 83 58 50 59 34 60 35 61 43 62 36 63 37 64 41 65
REMARK SMILES IDX 44 66 38 67 39 68 42 69 40 70 66 71 67 72 75 73 68 74 69 75
REMARK SMILES IDX 73 76 76 77 70 78 71 79 74 80 72 81 51 82 52 83 60 84 53 85
REMARK SMILES IDX 54 86 58 87 61 88 55 89 56 90 59 91 57 92
REMARK H PARENT 2 21 81 45 49 56
REMARK Flexibility Score: inf
ROOT
ATOM      1  C   UNL A   1      32.601  29.436  24.800  1.00  0.00     0.275 C 
ENDROOT
BRANCH   1   2
ATOM      2  O   UNL A   1      33.166  28.223  25.340  1.00  0.00    -0.458 OA
BRANCH   2   3
ATOM      3  C   UNL A   1      32.347  27.144  25.405  1.00  0.00     0.339 C 
ATOM      4  O   UNL A   1      31.446  26.961  26.208  1.00  0.00    -0.246 OA
BRANCH   3   5
ATOM      5  C   UNL A   1      32.588  26.235  24.253  1.00  0.00     0.072 A 
ATOM      6  C   UNL A   1      31.675  26.065  23.195  1.00  0.00     0.054 A 
ATOM      7  C   UNL A   1      31.982  25.134  22.185  1.00  0.00     0.015 A 
ATOM      8  C   UNL A   1      33.179  24.413  22.211  1.00  0.00     0.001 A 
ATOM      9  C   UNL A   1      33.809  25.537  24.246  1.00  0.00     0.016 A 
ATOM     10  C   UNL A   1      34.097  24.620  23.236  1.00  0.00     0.001 A 
BRANCH   6  11
ATOM     11  C   UNL A   1      30.488  26.894  23.086  1.00  0.00     0.258 A 
ATOM     12  C   UNL A   1      29.064  28.404  22.820  1.00  0.00     0.206 A 
ATOM     13  N   UNL A   1      28.391  27.469  23.509  1.00  0.00    -0.059 NA
ATOM     14  N   UNL A   1      30.346  28.050  22.482  1.00  0.00    -0.189 NA
ATOM     15  O   UNL A   1      29.347  26.462  23.698  1.00  0.00    -0.334 OA
BRANCH  12  16
ATOM     16  C   UNL A   1      28.484  29.738  22.456  1.00  0.00     0.245 C 
ATOM     17  C   UNL A   1      27.865  31.834  20.138  1.00  0.00     0.332 C 
ATOM     18  N   UNL A   1      28.963  31.865  21.098  1.00  0.00    -0.333 N 
ATOM     19  C   UNL A   1      28.611  32.601  22.329  1.00  0.00     0.290 C 
ATOM     20  C   UNL A   1      29.409  30.500  21.463  1.00  0.00     0.303 C 
ATOM     21  H   UNL A   1      29.726  32.356  20.632  1.00  0.00     0.348 HD
ATOM     22  C   UNL A   1      27.703  31.815  23.291  1.00  0.00     0.222 C 
ATOM     23  O   UNL A   1      28.277  30.552  23.637  1.00  0.00    -0.358 OA
ENDBRANCH  12  16
ENDBRANCH   6  11
ENDBRANCH   3   5
ENDBRANCH   2   3
ENDBRANCH   1   2
BRANCH   1  24
ATOM     24  C   UNL A   1      31.825  30.194  25.871  1.00  0.00     0.275 C 
BRANCH  24  25
ATOM     25  O   UNL A   1      32.596  30.224  27.083  1.00  0.00    -0.458 OA
BRANCH  25  26
ATOM     26  C   UNL A   1      33.260  31.378  27.297  1.00  0.00     0.338 C 
ATOM     27  O   UNL A   1      32.824  32.515  27.303  1.00  0.00    -0.246 OA
BRANCH  26  28
ATOM     28  C   UNL A   1      34.643  31.071  27.669  1.00  0.00     0.060 A 
ATOM     29  C   UNL A   1      34.966  29.734  27.890  1.00  0.00     0.016 A 
ATOM     30  C   UNL A   1      35.544  32.087  27.975  1.00  0.00     0.016 A 
ATOM     31  C   UNL A   1      36.167  29.403  28.508  1.00  0.00     0.010 A 
ATOM     32  C   UNL A   1      36.773  31.751  28.552  1.00  0.00     0.010 A 
ATOM     33  C   UNL A   1      37.068  30.413  28.876  1.00  0.00    -0.014 A 
BRANCH  33  34
ATOM     34  C   UNL A   1      38.232  30.076  29.738  1.00  0.00     0.031 A 
ATOM     35  C   UNL A   1      39.346  29.232  29.173  1.00  0.00     0.074 A 
ATOM     36  C   UNL A   1      38.339  30.573  30.983  1.00  0.00     0.049 A 
ATOM     37  N   UNL A   1      40.392  28.722  29.774  1.00  0.00    -0.248 NA
ATOM     38  C   UNL A   1      39.265  28.908  27.739  1.00  0.00     0.031 C 
ATOM     39  C   UNL A   1      37.367  31.455  31.629  1.00  0.00     0.029 A 
ATOM     40  N   UNL A   1      39.328  30.421  31.922  1.00  0.00    -0.354 N 
ATOM     41  C   UNL A   1      41.052  27.969  28.811  1.00  0.00     0.074 A 
ATOM     42  C   UNL A   1      40.293  28.087  27.586  1.00  0.00     0.031 C 
ATOM     43  C   UNL A   1      37.826  31.796  32.844  1.00  0.00     0.029 A 
ATOM     44  C   UNL A   1      39.091  31.109  33.087  1.00  0.00     0.049 A 
ATOM     45  H   UNL A   1      40.131  29.872  31.776  1.00  0.00     0.167 HD
ATOM     46  C   UNL A   1      42.189  27.245  28.940  1.00  0.00     0.037 A 
ATOM     47  C   UNL A   1      39.803  31.160  34.229  1.00  0.00     0.037 A 
ATOM     48  C   UNL A   1      42.981  27.186  30.139  1.00  0.00     0.049 A 
ATOM     49  C   UNL A   1      41.075  30.364  34.339  1.00  0.00     0.074 A 
ATOM     50  C   UNL A   1      44.143  26.471  30.376  1.00  0.00     0.029 A 
ATOM     51  N   UNL A   1      42.706  27.897  31.297  1.00  0.00    -0.354 N 
ATOM     52  N   UNL A   1      41.650  29.592  33.448  1.00  0.00    -0.248 NA
ATOM     53  C   UNL A   1      41.792  30.439  35.620  1.00  0.00     0.031 C 
ATOM     54  C   UNL A   1      44.562  26.738  31.685  1.00  0.00     0.029 A 
ATOM     55  C   UNL A   1      43.681  27.647  32.249  1.00  0.00     0.049 A 
ATOM     56  H   UNL A   1      41.931  28.491  31.425  1.00  0.00     0.167 HD
ATOM     57  C   UNL A   1      42.801  29.105  34.052  1.00  0.00     0.074 A 
ATOM     58  C   UNL A   1      42.855  29.683  35.379  1.00  0.00     0.031 C 
ATOM     59  C   UNL A   1      43.726  28.247  33.555  1.00  0.00     0.037 A 
BRANCH  46  60
ATOM     60  C   UNL A   1      42.626  26.430  27.757  1.00  0.00     0.064 A 
ATOM     61  C   UNL A   1      42.115  25.148  27.507  1.00  0.00     0.173 A 
ATOM     62  C   UNL A   1      43.560  26.954  26.849  1.00  0.00     0.173 A 
ATOM     63  F   UNL A   1      41.234  24.596  28.355  1.00  0.00    -0.203 F 
ATOM     64  C   UNL A   1      42.542  24.411  26.405  1.00  0.00     0.198 A 
ATOM     65  C   UNL A   1      43.962  26.224  25.734  1.00  0.00     0.198 A 
ATOM     66  F   UNL A   1      44.077  28.177  27.040  1.00  0.00    -0.203 F 
ATOM     67  F   UNL A   1      42.076  23.170  26.212  1.00  0.00    -0.200 F 
ATOM     68  C   UNL A   1      43.459  24.952  25.517  1.00  0.00     0.200 A 
ATOM     69  F   UNL A   1      44.842  26.754  24.871  1.00  0.00    -0.200 F 
ATOM     70  F   UNL A   1      43.865  24.241  24.455  1.00  0.00    -0.200 F 
ENDBRANCH  46  60
BRANCH  47  71
ATOM     71  C   UNL A   1      39.326  31.992  35.362  1.00  0.00     0.064 A 
ATOM     72  C   UNL A   1      39.683  33.344  35.465  1.00  0.00     0.173 A 
ATOM     73  C   UNL A   1      38.506  31.454  36.365  1.00  0.00     0.173 A 
ATOM     74  F   UNL A   1      40.487  33.896  34.544  1.00  0.00    -0.203 F 
ATOM     75  C   UNL A   1      39.248  34.123  36.535  1.00  0.00     0.198 A 
ATOM     76  C   UNL A   1      38.048  32.242  37.419  1.00  0.00     0.198 A 
ATOM     77  F   UNL A   1      38.138  30.166  36.314  1.00  0.00    -0.203 F 
ATOM     78  F   UNL A   1      39.638  35.402  36.631  1.00  0.00    -0.200 F 
ATOM     79  C   UNL A   1      38.425  33.573  37.507  1.00  0.00     0.200 A 
ATOM     80  F   UNL A   1      37.244  31.711  38.350  1.00  0.00    -0.200 F 
ATOM     81  F   UNL A   1      38.002  34.326  38.532  1.00  0.00    -0.200 F 
ENDBRANCH  47  71
BRANCH  59  82
ATOM     82  C   UNL A   1      44.897  27.923  34.434  1.00  0.00     0.064 A 
ATOM     83  C   UNL A   1      44.878  26.826  35.308  1.00  0.00     0.173 A 
ATOM     84  C   UNL A   1      46.059  28.706  34.382  1.00  0.00     0.173 A 
ATOM     85  F   UNL A   1      43.783  26.058  35.403  1.00  0.00    -0.203 F 
ATOM     86  C   UNL A   1      45.973  26.542  36.120  1.00  0.00     0.198 A 
ATOM     87  C   UNL A   1      47.160  28.404  35.178  1.00  0.00     0.198 A 
ATOM     88  F   UNL A   1      46.127  29.761  33.558  1.00  0.00    -0.203 F 
ATOM     89  F   UNL A   1      45.918  25.518  36.982  1.00  0.00    -0.200 F 
ATOM     90  C   UNL A   1      47.114  27.328  36.051  1.00  0.00     0.200 A 
ATOM     91  F   UNL A   1      48.265  29.160  35.104  1.00  0.00    -0.200 F 
ATOM     92  F   UNL A   1      48.166  27.054  36.834  1.00  0.00    -0.200 F 
ENDBRANCH  59  82
ENDBRANCH  33  34
ENDBRANCH  26  28
ENDBRANCH  25  26
ENDBRANCH  24  25
ENDBRANCH   1  24
TORSDOF 13
ENDMDL
MODEL 3
REMARK VINA RESULT:     -13.0      5.098     10.259
REMARK SMILES C[N@H+]1CCO[C@H](c2noc(-c3ccccc3C(=O)OCCOC(=O)c3ccc(-c4c5nc(c(-c6c(F)c(F)c(F)c(F)c6F)c6ccc([nH]6)c(-c6c(F)c(F)c(F)c(F)c6F)c6nc(c(-c7c(F)c(F)c(F)c(F)c7F)c7ccc4[nH]7)C=C6)C=C5)cc3)n2)C1
REMARK SMILES IDX 20 1 19 2 17 3 18 4 16 5 11 6 12 7 13 8 15 9 14 10 10 11
REMARK SMILES IDX 7 12 8 13 88 14 9 15 6 16 1 17 2 18 3 19 89 20 4 22 5 23
REMARK SMILES IDX 21 24 22 25 23 26 24 27 25 28 26 29 87 30 27 31 86 32 28 33
REMARK SMILES IDX 29 34 30 35 80 36 31 37 85 38 79 39 81 40 32 41 84 42 78 43
REMARK SMILES IDX 77 44 33 46 65 47 45 48 64 49 46 50 49 51 63 52 82 53 47 54
REMARK SMILES IDX 48 55 62 57 83 58 50 59 34 60 35 61 43 62 36 63 37 64 41 65
REMARK SMILES IDX 44 66 38 67 39 68 42 69 40 70 66 71 67 72 75 73 68 74 69 75
REMARK SMILES IDX 73 76 76 77 70 78 71 79 74 80 72 81 51 82 52 83 60 84 53 85
REMARK SMILES IDX 54 86 58 87 61 88 55 89 56 90 59 91 57 92
REMARK H PARENT 2 21 81 45 49 56
REMARK Flexibility Score: inf
ROOT
ATOM      1  C   UNL A   1      35.488  21.694  25.990  1.00  0.00     0.275 C 
ENDROOT
BRANCH   1   2
ATOM      2  O   UNL A   1      35.424  23.059  25.526  1.00  0.00    -0.458 OA
BRANCH   2   3
ATOM      3  C   UNL A   1      34.532  23.328  24.542  1.00  0.00     0.339 C 
ATOM      4  O   UNL A   1      34.702  23.176  23.343  1.00  0.00    -0.246 OA
BRANCH   3   5
ATOM      5  C   UNL A   1      33.216  23.713  25.120  1.00  0.00     0.072 A 
ATOM      6  C   UNL A   1      32.058  22.921  25.008  1.00  0.00     0.054 A 
ATOM      7  C   UNL A   1      30.853  23.410  25.544  1.00  0.00     0.015 A 
ATOM      8  C   UNL A   1      30.808  24.644  26.201  1.00  0.00     0.001 A 
ATOM      9  C   UNL A   1      33.168  24.932  25.821  1.00  0.00     0.016 A 
ATOM     10  C   UNL A   1      31.966  25.401  26.347  1.00  0.00     0.001 A 
BRANCH   6  11
ATOM     11  C   UNL A   1      32.113  21.585  24.441  1.00  0.00     0.258 A 
ATOM     12  C   UNL A   1      32.382  19.555  24.008  1.00  0.00     0.206 A 
ATOM     13  N   UNL A   1      32.150  20.096  22.802  1.00  0.00    -0.059 NA
ATOM     14  N   UNL A   1      32.299  20.439  25.054  1.00  0.00    -0.189 NA
ATOM     15  O   UNL A   1      31.981  21.457  23.089  1.00  0.00    -0.334 OA
BRANCH  12  16
ATOM     16  C   UNL A   1      32.723  18.108  24.213  1.00  0.00     0.245 C 
ATOM     17  C   UNL A   1      32.185  15.453  25.888  1.00  0.00     0.332 C 
ATOM     18  N   UNL A   1      33.294  16.389  26.032  1.00  0.00    -0.333 N 
ATOM     19  C   UNL A   1      34.446  16.030  25.181  1.00  0.00     0.290 C 
ATOM     20  C   UNL A   1      32.882  17.779  25.724  1.00  0.00     0.303 C 
ATOM     21  H   UNL A   1      33.582  16.331  27.009  1.00  0.00     0.348 HD
ATOM     22  C   UNL A   1      34.258  16.378  23.694  1.00  0.00     0.222 C 
ATOM     23  O   UNL A   1      33.946  17.763  23.517  1.00  0.00    -0.358 OA
ENDBRANCH  12  16
ENDBRANCH   6  11
ENDBRANCH   3   5
ENDBRANCH   2   3
ENDBRANCH   1   2
BRANCH   1  24
ATOM     24  C   UNL A   1      36.561  20.916  25.236  1.00  0.00     0.275 C 
BRANCH  24  25
ATOM     25  O   UNL A   1      37.718  21.750  25.066  1.00  0.00    -0.458 OA
BRANCH  25  26
ATOM     26  C   UNL A   1      38.785  21.387  25.805  1.00  0.00     0.338 C 
ATOM     27  O   UNL A   1      39.361  20.314  25.832  1.00  0.00    -0.246 OA
BRANCH  26  28
ATOM     28  C   UNL A   1      39.281  22.557  26.535  1.00  0.00     0.060 A 
ATOM     29  C   UNL A   1      38.724  23.794  26.218  1.00  0.00     0.016 A 
ATOM     30  C   UNL A   1      40.392  22.463  27.368  1.00  0.00     0.016 A 
ATOM     31  C   UNL A   1      39.332  24.963  26.662  1.00  0.00     0.010 A 
ATOM     32  C   UNL A   1      40.975  23.637  27.855  1.00  0.00     0.010 A 
ATOM     33  C   UNL A   1      40.484  24.896  27.458  1.00  0.00    -0.014 A 
BRANCH  33  34
ATOM     34  C   UNL A   1      41.257  26.136  27.733  1.00  0.00     0.031 A 
ATOM     35  C   UNL A   1      40.637  27.215  28.582  1.00  0.00     0.074 A 
ATOM     36  C   UNL A   1      42.522  26.275  27.298  1.00  0.00     0.049 A 
ATOM     37  N   UNL A   1      41.077  28.419  28.852  1.00  0.00    -0.248 NA
ATOM     38  C   UNL A   1      39.339  26.902  29.203  1.00  0.00     0.031 C 
ATOM     39  C   UNL A   1      43.264  25.281  26.523  1.00  0.00     0.029 A 
ATOM     40  N   UNL A   1      43.414  27.304  27.464  1.00  0.00    -0.354 N 
ATOM     41  C   UNL A   1      40.085  29.023  29.615  1.00  0.00     0.074 A 
ATOM     42  C   UNL A   1      39.021  28.057  29.768  1.00  0.00     0.031 C 
ATOM     43  C   UNL A   1      44.511  25.733  26.314  1.00  0.00     0.029 A 
ATOM     44  C   UNL A   1      44.636  27.071  26.883  1.00  0.00     0.049 A 
ATOM     45  H   UNL A   1      43.199  28.131  27.953  1.00  0.00     0.167 HD
ATOM     46  C   UNL A   1      40.067  30.272  30.140  1.00  0.00     0.037 A 
ATOM     47  C   UNL A   1      45.726  27.859  26.801  1.00  0.00     0.037 A 
ATOM     48  C   UNL A   1      41.156  31.206  30.046  1.00  0.00     0.049 A 
ATOM     49  C   UNL A   1      45.688  29.233  27.411  1.00  0.00     0.074 A 
ATOM     50  C   UNL A   1      41.232  32.500  30.532  1.00  0.00     0.029 A 
ATOM     51  N   UNL A   1      42.377  30.932  29.448  1.00  0.00    -0.354 N 
ATOM     52  N   UNL A   1      44.716  29.824  28.063  1.00  0.00    -0.248 NA
ATOM     53  C   UNL A   1      46.898  30.055  27.264  1.00  0.00     0.031 C 
ATOM     54  C   UNL A   1      42.494  33.014  30.214  1.00  0.00     0.029 A 
ATOM     55  C   UNL A   1      43.217  32.028  29.562  1.00  0.00     0.049 A 
ATOM     56  H   UNL A   1      42.611  30.083  29.008  1.00  0.00     0.167 HD
ATOM     57  C   UNL A   1      45.201  31.076  28.418  1.00  0.00     0.074 A 
ATOM     58  C   UNL A   1      46.561  31.153  27.927  1.00  0.00     0.031 C 
ATOM     59  C   UNL A   1      44.572  32.076  29.084  1.00  0.00     0.037 A 
BRANCH  46  60
ATOM     60  C   UNL A   1      38.810  30.710  30.834  1.00  0.00     0.064 A 
ATOM     61  C   UNL A   1      37.707  31.212  30.130  1.00  0.00     0.173 A 
ATOM     62  C   UNL A   1      38.707  30.604  32.231  1.00  0.00     0.173 A 
ATOM     63  F   UNL A   1      37.763  31.349  28.797  1.00  0.00    -0.203 F 
ATOM     64  C   UNL A   1      36.555  31.617  30.801  1.00  0.00     0.198 A 
ATOM     65  C   UNL A   1      37.543  30.984  32.894  1.00  0.00     0.198 A 
ATOM     66  F   UNL A   1      39.732  30.127  32.951  1.00  0.00    -0.203 F 
ATOM     67  F   UNL A   1      35.530  32.138  30.113  1.00  0.00    -0.200 F 
ATOM     68  C   UNL A   1      36.472  31.496  32.180  1.00  0.00     0.200 A 
ATOM     69  F   UNL A   1      37.462  30.857  34.227  1.00  0.00    -0.200 F 
ATOM     70  F   UNL A   1      35.360  31.883  32.822  1.00  0.00    -0.200 F 
ENDBRANCH  46  60
BRANCH  47  71
ATOM     71  C   UNL A   1      46.944  27.367  26.109  1.00  0.00     0.064 A 
ATOM     72  C   UNL A   1      47.946  26.682  26.811  1.00  0.00     0.173 A 
ATOM     73  C   UNL A   1      47.133  27.572  24.734  1.00  0.00     0.173 A 
ATOM     74  F   UNL A   1      47.823  26.486  28.132  1.00  0.00    -0.203 F 
ATOM     75  C   UNL A   1      49.096  26.232  26.167  1.00  0.00     0.198 A 
ATOM     76  C   UNL A   1      48.270  27.096  24.086  1.00  0.00     0.198 A 
ATOM     77  F   UNL A   1      46.205  28.223  24.018  1.00  0.00    -0.203 F 
ATOM     78  F   UNL A   1      50.058  25.618  26.869  1.00  0.00    -0.200 F 
ATOM     79  C   UNL A   1      49.254  26.434  24.803  1.00  0.00     0.200 A 
ATOM     80  F   UNL A   1      48.414  27.281  22.766  1.00  0.00    -0.200 F 
ATOM     81  F   UNL A   1      50.358  25.994  24.183  1.00  0.00    -0.200 F 
ENDBRANCH  47  71
BRANCH  59  82
ATOM     82  C   UNL A   1      45.367  33.318  29.358  1.00  0.00     0.064 A 
ATOM     83  C   UNL A   1      45.376  34.398  28.463  1.00  0.00     0.173 A 
ATOM     84  C   UNL A   1      46.108  33.436  30.543  1.00  0.00     0.173 A 
ATOM     85  F   UNL A   1      44.694  34.324  27.311  1.00  0.00    -0.203 F 
ATOM     86  C   UNL A   1      46.123  35.541  28.733  1.00  0.00     0.198 A 
ATOM     87  C   UNL A   1      46.834  34.590  30.820  1.00  0.00     0.198 A 
ATOM     88  F   UNL A   1      46.125  32.432  31.433  1.00  0.00    -0.203 F 
ATOM     89  F   UNL A   1      46.156  36.543  27.843  1.00  0.00    -0.200 F 
ATOM     90  C   UNL A   1      46.847  35.638  29.912  1.00  0.00     0.200 A 
ATOM     91  F   UNL A   1      47.527  34.685  31.963  1.00  0.00    -0.200 F 
ATOM     92  F   UNL A   1      47.567  36.739  30.169  1.00  0.00    -0.200 F 
ENDBRANCH  59  82
ENDBRANCH  33  34
ENDBRANCH  26  28
ENDBRANCH  25  26
ENDBRANCH  24  25
ENDBRANCH   1  24
TORSDOF 13
ENDMDL
