MODEL 1
REMARK VINA RESULT:     -12.3      0.000      0.000
REMARK SMILES O=C(OCCOC(=O)c1ccc2nc(C3CCCCC3)[nH]c2c1)c1ccc(-c2c3nc(c(-c4c(F)c(F)c(F)c(F)c4F)c4ccc([nH]4)c(-c4c(F)c(F)c(F)c(F)c4F)c4nc(c(-c5c(F)c(F)c(F)c(F)c5F)c5ccc2[nH]5)C=C4)C=C3)cc1
REMARK SMILES IDX 4 1 3 2 2 3 1 4 24 5 25 6 86 7 26 8 85 9 27 10 28 11 29 12
REMARK SMILES IDX 79 13 30 14 84 15 78 16 80 17 31 18 83 19 77 20 76 21 32 23
REMARK SMILES IDX 64 24 44 25 63 26 45 27 48 28 62 29 81 30 46 31 47 32 61 34
REMARK SMILES IDX 82 35 49 36 33 37 34 38 42 39 35 40 36 41 40 42 43 43 37 44
REMARK SMILES IDX 38 45 41 46 39 47 65 48 66 49 74 50 67 51 68 52 72 53 75 54
REMARK SMILES IDX 69 55 70 56 73 57 71 58 50 59 51 60 59 61 52 62 53 63 57 64
REMARK SMILES IDX 60 65 54 66 55 67 58 68 56 69 5 70 6 71 7 72 8 73 9 74 10 75
REMARK SMILES IDX 23 76 11 77 22 78 12 79 21 80 13 81 14 82 15 84 16 85 20 86
REMARK SMILES IDX 17 87 19 88 18 89
REMARK H PARENT 80 22 48 33 21 83
REMARK Flexibility Score: inf
ROOT
ATOM      1  C   UNL A   1      43.934  21.517  25.298  1.00  0.00     0.275 C 
ENDROOT
BRANCH   1   2
ATOM      2  O   UNL A   1      43.581  22.819  24.800  1.00  0.00    -0.458 OA
BRANCH   2   3
ATOM      3  C   UNL A   1      44.135  24.028  25.047  1.00  0.00     0.338 C 
ATOM      4  O   UNL A   1      45.187  24.328  24.483  1.00  0.00    -0.246 OA
BRANCH   3   5
ATOM      5  C   UNL A   1      43.621  24.978  26.080  1.00  0.00     0.060 A 
ATOM      6  C   UNL A   1      44.061  26.286  26.286  1.00  0.00     0.016 A 
ATOM      7  C   UNL A   1      42.620  24.478  26.935  1.00  0.00     0.016 A 
ATOM      8  C   UNL A   1      43.469  27.101  27.255  1.00  0.00     0.010 A 
ATOM      9  C   UNL A   1      42.016  25.289  27.898  1.00  0.00     0.010 A 
ATOM     10  C   UNL A   1      42.443  26.609  28.064  1.00  0.00    -0.014 A 
BRANCH  10  11
ATOM     11  C   UNL A   1      41.930  27.429  29.181  1.00  0.00     0.031 A 
ATOM     12  C   UNL A   1      42.609  27.326  30.512  1.00  0.00     0.074 A 
ATOM     13  C   UNL A   1      40.901  28.274  28.999  1.00  0.00     0.049 A 
ATOM     14  N   UNL A   1      42.364  27.976  31.618  1.00  0.00    -0.248 NA
ATOM     15  C   UNL A   1      43.739  26.385  30.600  1.00  0.00     0.031 C 
ATOM     16  C   UNL A   1      40.217  28.504  27.730  1.00  0.00     0.029 A 
ATOM     17  N   UNL A   1      40.236  29.082  29.884  1.00  0.00    -0.354 N 
ATOM     18  C   UNL A   1      43.336  27.560  32.514  1.00  0.00     0.074 A 
ATOM     19  C   UNL A   1      44.127  26.547  31.854  1.00  0.00     0.031 C 
ATOM     20  C   UNL A   1      39.177  29.330  27.931  1.00  0.00     0.029 A 
ATOM     21  C   UNL A   1      39.136  29.700  29.341  1.00  0.00     0.049 A 
ATOM     22  H   UNL A   1      40.519  29.207  30.819  1.00  0.00     0.167 HD
ATOM     23  C   UNL A   1      43.570  28.021  33.765  1.00  0.00     0.037 A 
ATOM     24  C   UNL A   1      38.199  30.467  29.928  1.00  0.00     0.037 A 
ATOM     25  C   UNL A   1      42.749  28.999  34.422  1.00  0.00     0.049 A 
ATOM     26  C   UNL A   1      38.382  30.840  31.373  1.00  0.00     0.074 A 
ATOM     27  C   UNL A   1      42.887  29.538  35.687  1.00  0.00     0.029 A 
ATOM     28  N   UNL A   1      41.613  29.569  33.862  1.00  0.00    -0.354 N 
ATOM     29  N   UNL A   1      39.347  30.504  32.195  1.00  0.00    -0.248 NA
ATOM     30  C   UNL A   1      37.375  31.731  31.962  1.00  0.00     0.031 C 
ATOM     31  C   UNL A   1      41.805  30.397  35.911  1.00  0.00     0.029 A 
ATOM     32  C   UNL A   1      41.020  30.432  34.769  1.00  0.00     0.049 A 
ATOM     33  H   UNL A   1      41.278  29.386  32.954  1.00  0.00     0.167 HD
ATOM     34  C   UNL A   1      39.097  31.182  33.379  1.00  0.00     0.074 A 
ATOM     35  C   UNL A   1      37.881  31.942  33.170  1.00  0.00     0.031 C 
ATOM     36  C   UNL A   1      39.817  31.188  34.527  1.00  0.00     0.037 A 
BRANCH  23  37
ATOM     37  C   UNL A   1      44.756  27.448  34.481  1.00  0.00     0.064 A 
ATOM     38  C   UNL A   1      44.640  26.296  35.277  1.00  0.00     0.173 A 
ATOM     39  C   UNL A   1      46.010  28.068  34.401  1.00  0.00     0.173 A 
ATOM     40  F   UNL A   1      43.455  25.680  35.404  1.00  0.00    -0.203 F 
ATOM     41  C   UNL A   1      45.728  25.811  35.996  1.00  0.00     0.198 A 
ATOM     42  C   UNL A   1      47.102  27.564  35.102  1.00  0.00     0.198 A 
ATOM     43  F   UNL A   1      46.171  29.173  33.658  1.00  0.00    -0.203 F 
ATOM     44  F   UNL A   1      45.577  24.748  36.799  1.00  0.00    -0.200 F 
ATOM     45  C   UNL A   1      46.958  26.443  35.906  1.00  0.00     0.200 A 
ATOM     46  F   UNL A   1      48.292  28.174  35.014  1.00  0.00    -0.200 F 
ATOM     47  F   UNL A   1      48.003  25.981  36.608  1.00  0.00    -0.200 F 
ENDBRANCH  23  37
BRANCH  24  48
ATOM     48  C   UNL A   1      37.028  30.944  29.147  1.00  0.00     0.064 A 
ATOM     49  C   UNL A   1      36.935  32.269  28.705  1.00  0.00     0.173 A 
ATOM     50  C   UNL A   1      35.967  30.078  28.837  1.00  0.00     0.173 A 
ATOM     51  F   UNL A   1      37.913  33.140  28.990  1.00  0.00    -0.203 F 
ATOM     52  C   UNL A   1      35.817  32.718  28.001  1.00  0.00     0.198 A 
ATOM     53  C   UNL A   1      34.861  30.521  28.114  1.00  0.00     0.198 A 
ATOM     54  F   UNL A   1      36.006  28.799  29.235  1.00  0.00    -0.203 F 
ATOM     55  F   UNL A   1      35.735  34.001  27.626  1.00  0.00    -0.200 F 
ATOM     56  C   UNL A   1      34.783  31.843  27.704  1.00  0.00     0.200 A 
ATOM     57  F   UNL A   1      33.867  29.671  27.822  1.00  0.00    -0.200 F 
ATOM     58  F   UNL A   1      33.709  32.276  27.028  1.00  0.00    -0.200 F 
ENDBRANCH  24  48
BRANCH  36  59
ATOM     59  C   UNL A   1      39.339  32.089  35.626  1.00  0.00     0.064 A 
ATOM     60  C   UNL A   1      38.451  31.641  36.614  1.00  0.00     0.173 A 
ATOM     61  C   UNL A   1      39.816  33.406  35.713  1.00  0.00     0.173 A 
ATOM     62  F   UNL A   1      37.955  30.396  36.561  1.00  0.00    -0.203 F 
ATOM     63  C   UNL A   1      38.042  32.486  37.641  1.00  0.00     0.198 A 
ATOM     64  C   UNL A   1      39.428  34.238  36.759  1.00  0.00     0.198 A 
ATOM     65  F   UNL A   1      40.670  33.880  34.795  1.00  0.00    -0.203 F 
ATOM     66  F   UNL A   1      37.159  32.052  38.551  1.00  0.00    -0.200 F 
ATOM     67  C   UNL A   1      38.538  33.780  37.718  1.00  0.00     0.200 A 
ATOM     68  F   UNL A   1      39.919  35.483  36.840  1.00  0.00    -0.200 F 
ATOM     69  F   UNL A   1      38.151  34.588  38.714  1.00  0.00    -0.200 F 
ENDBRANCH  36  59
ENDBRANCH  10  11
ENDBRANCH   3   5
ENDBRANCH   2   3
ENDBRANCH   1   2
BRANCH   1  70
ATOM     70  C   UNL A   1      42.853  20.820  26.129  1.00  0.00     0.275 C 
BRANCH  70  71
ATOM     71  O   UNL A   1      41.515  21.159  25.739  1.00  0.00    -0.458 OA
BRANCH  71  72
ATOM     72  C   UNL A   1      40.626  21.239  26.765  1.00  0.00     0.338 C 
ATOM     73  O   UNL A   1      40.776  20.816  27.898  1.00  0.00    -0.246 OA
BRANCH  72  74
ATOM     74  C   UNL A   1      39.468  22.052  26.347  1.00  0.00     0.062 A 
ATOM     75  C   UNL A   1      39.270  23.339  26.862  1.00  0.00     0.018 A 
ATOM     76  C   UNL A   1      38.566  21.478  25.434  1.00  0.00     0.044 A 
ATOM     77  C   UNL A   1      38.135  24.078  26.498  1.00  0.00     0.031 A 
ATOM     78  C   UNL A   1      37.416  22.219  25.145  1.00  0.00     0.066 A 
ATOM     79  C   UNL A   1      37.183  23.489  25.655  1.00  0.00     0.089 A 
ATOM     80  N   UNL A   1      36.306  21.950  24.386  1.00  0.00    -0.342 N 
ATOM     81  N   UNL A   1      35.983  23.980  25.214  1.00  0.00    -0.233 NA
ATOM     82  C   UNL A   1      35.475  23.047  24.434  1.00  0.00     0.110 A 
ATOM     83  H   UNL A   1      36.132  21.117  23.893  1.00  0.00     0.168 HD
BRANCH  82  84
ATOM     84  C   UNL A   1      34.217  23.169  23.627  1.00  0.00     0.055 C 
ATOM     85  C   UNL A   1      33.303  21.959  23.869  1.00  0.00     0.011 C 
ATOM     86  C   UNL A   1      33.476  24.489  23.880  1.00  0.00     0.011 C 
ATOM     87  C   UNL A   1      32.022  22.048  23.050  1.00  0.00     0.001 C 
ATOM     88  C   UNL A   1      32.184  24.567  23.064  1.00  0.00     0.001 C 
ATOM     89  C   UNL A   1      31.285  23.359  23.309  1.00  0.00     0.000 C 
ENDBRANCH  82  84
ENDBRANCH  72  74
ENDBRANCH  71  72
ENDBRANCH  70  71
ENDBRANCH   1  70
TORSDOF 12
ENDMDL
MODEL 2
REMARK VINA RESULT:     -12.3      0.563      1.798
REMARK SMILES O=C(OCCOC(=O)c1ccc2nc(C3CCCCC3)[nH]c2c1)c1ccc(-c2c3nc(c(-c4c(F)c(F)c(F)c(F)c4F)c4ccc([nH]4)c(-c4c(F)c(F)c(F)c(F)c4F)c4nc(c(-c5c(F)c(F)c(F)c(F)c5F)c5ccc2[nH]5)C=C4)C=C3)cc1
REMARK SMILES IDX 4 1 3 2 2 3 1 4 24 5 25 6 86 7 26 8 85 9 27 10 28 11 29 12
REMARK SMILES IDX 79 13 30 14 84 15 78 16 80 17 31 18 83 19 77 20 76 21 32 23
REMARK SMILES IDX 64 24 44 25 63 26 45 27 48 28 62 29 81 30 46 31 47 32 61 34
REMARK SMILES IDX 82 35 49 36 33 37 34 38 42 39 35 40 36 41 40 42 43 43 37 44
REMARK SMILES IDX 38 45 41 46 39 47 65 48 66 49 74 50 67 51 68 52 72 53 75 54
REMARK SMILES IDX 69 55 70 56 73 57 71 58 50 59 51 60 59 61 52 62 53 63 57 64
REMARK SMILES IDX 60 65 54 66 55 67 58 68 56 69 5 70 6 71 7 72 8 73 9 74 10 75
REMARK SMILES IDX 23 76 11 77 22 78 12 79 21 80 13 81 14 82 15 84 16 85 20 86
REMARK SMILES IDX 17 87 19 88 18 89
REMARK H PARENT 80 22 48 33 21 83
REMARK Flexibility Score: inf
ROOT
ATOM      1  C   UNL A   1      43.937  22.131  24.789  1.00  0.00     0.275 C 
ENDROOT
BRANCH   1   2
ATOM      2  O   UNL A   1      43.573  23.512  24.613  1.00  0.00    -0.458 OA
BRANCH   2   3
ATOM      3  C   UNL A   1      44.191  24.638  25.036  1.00  0.00     0.338 C 
ATOM      4  O   UNL A   1      45.317  24.897  24.610  1.00  0.00    -0.246 OA
BRANCH   3   5
ATOM      5  C   UNL A   1      43.647  25.527  26.107  1.00  0.00     0.060 A 
ATOM      6  C   UNL A   1      44.019  26.850  26.345  1.00  0.00     0.016 A 
ATOM      7  C   UNL A   1      42.692  24.948  26.964  1.00  0.00     0.016 A 
ATOM      8  C   UNL A   1      43.403  27.602  27.350  1.00  0.00     0.010 A 
ATOM      9  C   UNL A   1      42.063  25.695  27.963  1.00  0.00     0.010 A 
ATOM     10  C   UNL A   1      42.421  27.030  28.162  1.00  0.00    -0.014 A 
BRANCH  10  11
ATOM     11  C   UNL A   1      41.886  27.788  29.313  1.00  0.00     0.031 A 
ATOM     12  C   UNL A   1      42.547  27.618  30.646  1.00  0.00     0.074 A 
ATOM     13  C   UNL A   1      40.854  28.635  29.160  1.00  0.00     0.049 A 
ATOM     14  N   UNL A   1      42.282  28.208  31.781  1.00  0.00    -0.248 NA
ATOM     15  C   UNL A   1      43.682  26.682  30.702  1.00  0.00     0.031 C 
ATOM     16  C   UNL A   1      40.187  28.927  27.896  1.00  0.00     0.029 A 
ATOM     17  N   UNL A   1      40.171  29.390  30.077  1.00  0.00    -0.354 N 
ATOM     18  C   UNL A   1      43.244  27.752  32.668  1.00  0.00     0.074 A 
ATOM     19  C   UNL A   1      44.051  26.780  31.967  1.00  0.00     0.031 C 
ATOM     20  C   UNL A   1      39.138  29.734  28.125  1.00  0.00     0.029 A 
ATOM     21  C   UNL A   1      39.075  30.029  29.551  1.00  0.00     0.049 A 
ATOM     22  H   UNL A   1      40.440  29.468  31.021  1.00  0.00     0.167 HD
ATOM     23  C   UNL A   1      43.457  28.147  33.945  1.00  0.00     0.037 A 
ATOM     24  C   UNL A   1      38.124  30.758  30.164  1.00  0.00     0.037 A 
ATOM     25  C   UNL A   1      42.620  29.085  34.641  1.00  0.00     0.049 A 
ATOM     26  C   UNL A   1      38.284  31.056  31.629  1.00  0.00     0.074 A 
ATOM     27  C   UNL A   1      42.736  29.557  35.934  1.00  0.00     0.029 A 
ATOM     28  N   UNL A   1      41.488  29.676  34.095  1.00  0.00    -0.354 N 
ATOM     29  N   UNL A   1      39.240  30.683  32.446  1.00  0.00    -0.248 NA
ATOM     30  C   UNL A   1      37.263  31.909  32.250  1.00  0.00     0.031 C 
ATOM     31  C   UNL A   1      41.645  30.396  36.188  1.00  0.00     0.029 A 
ATOM     32  C   UNL A   1      40.877  30.486  35.037  1.00  0.00     0.049 A 
ATOM     33  H   UNL A   1      41.168  29.539  33.174  1.00  0.00     0.167 HD
ATOM     34  C   UNL A   1      38.968  31.297  33.660  1.00  0.00     0.074 A 
ATOM     35  C   UNL A   1      37.749  32.059  33.474  1.00  0.00     0.031 C 
ATOM     36  C   UNL A   1      39.672  31.247  34.818  1.00  0.00     0.037 A 
BRANCH  23  37
ATOM     37  C   UNL A   1      44.636  27.545  34.647  1.00  0.00     0.064 A 
ATOM     38  C   UNL A   1      45.904  28.148  34.589  1.00  0.00     0.173 A 
ATOM     39  C   UNL A   1      44.512  26.343  35.356  1.00  0.00     0.173 A 
ATOM     40  F   UNL A   1      46.080  29.287  33.904  1.00  0.00    -0.203 F 
ATOM     41  C   UNL A   1      47.010  27.547  35.184  1.00  0.00     0.198 A 
ATOM     42  C   UNL A   1      45.615  25.759  35.971  1.00  0.00     0.198 A 
ATOM     43  F   UNL A   1      43.324  25.726  35.436  1.00  0.00    -0.203 F 
ATOM     44  F   UNL A   1      48.221  28.108  35.062  1.00  0.00    -0.200 F 
ATOM     45  C   UNL A   1      46.865  26.355  35.877  1.00  0.00     0.200 A 
ATOM     46  F   UNL A   1      45.475  24.607  36.642  1.00  0.00    -0.200 F 
ATOM     47  F   UNL A   1      47.932  25.771  36.440  1.00  0.00    -0.200 F 
ENDBRANCH  23  37
BRANCH  24  48
ATOM     48  C   UNL A   1      36.961  31.268  29.393  1.00  0.00     0.064 A 
ATOM     49  C   UNL A   1      35.908  30.426  29.014  1.00  0.00     0.173 A 
ATOM     50  C   UNL A   1      36.886  32.617  29.009  1.00  0.00     0.173 A 
ATOM     51  F   UNL A   1      35.940  29.126  29.342  1.00  0.00    -0.203 F 
ATOM     52  C   UNL A   1      34.836  30.905  28.262  1.00  0.00     0.198 A 
ATOM     53  C   UNL A   1      35.803  33.100  28.276  1.00  0.00     0.198 A 
ATOM     54  F   UNL A   1      37.866  33.466  29.346  1.00  0.00    -0.203 F 
ATOM     55  F   UNL A   1      33.862  30.068  27.878  1.00  0.00    -0.200 F 
ATOM     56  C   UNL A   1      34.782  32.242  27.897  1.00  0.00     0.200 A 
ATOM     57  F   UNL A   1      35.750  34.394  27.932  1.00  0.00    -0.200 F 
ATOM     58  F   UNL A   1      33.751  32.700  27.173  1.00  0.00    -0.200 F 
ENDBRANCH  24  48
BRANCH  36  59
ATOM     59  C   UNL A   1      39.171  32.086  35.956  1.00  0.00     0.064 A 
ATOM     60  C   UNL A   1      38.275  31.579  36.908  1.00  0.00     0.173 A 
ATOM     61  C   UNL A   1      39.635  33.400  36.117  1.00  0.00     0.173 A 
ATOM     62  F   UNL A   1      37.791  30.335  36.783  1.00  0.00    -0.203 F 
ATOM     63  C   UNL A   1      37.846  32.367  37.971  1.00  0.00     0.198 A 
ATOM     64  C   UNL A   1      39.228  34.173  37.200  1.00  0.00     0.198 A 
ATOM     65  F   UNL A   1      40.498  33.927  35.236  1.00  0.00    -0.203 F 
ATOM     66  F   UNL A   1      36.955  31.879  38.846  1.00  0.00    -0.200 F 
ATOM     67  C   UNL A   1      38.329  33.659  38.121  1.00  0.00     0.200 A 
ATOM     68  F   UNL A   1      39.706  35.416  37.351  1.00  0.00    -0.200 F 
ATOM     69  F   UNL A   1      37.922  34.411  39.153  1.00  0.00    -0.200 F 
ENDBRANCH  36  59
ENDBRANCH  10  11
ENDBRANCH   3   5
ENDBRANCH   2   3
ENDBRANCH   1   2
BRANCH   1  70
ATOM     70  C   UNL A   1      43.141  21.377  25.857  1.00  0.00     0.275 C 
BRANCH  70  71
ATOM     71  O   UNL A   1      41.721  21.432  25.667  1.00  0.00    -0.458 OA
BRANCH  71  72
ATOM     72  C   UNL A   1      41.002  21.642  26.803  1.00  0.00     0.338 C 
ATOM     73  O   UNL A   1      41.378  21.471  27.950  1.00  0.00    -0.246 OA
BRANCH  72  74
ATOM     74  C   UNL A   1      39.705  22.254  26.455  1.00  0.00     0.062 A 
ATOM     75  C   UNL A   1      39.416  23.576  26.812  1.00  0.00     0.018 A 
ATOM     76  C   UNL A   1      38.770  21.452  25.775  1.00  0.00     0.044 A 
ATOM     77  C   UNL A   1      38.157  24.126  26.524  1.00  0.00     0.031 A 
ATOM     78  C   UNL A   1      37.508  22.014  25.563  1.00  0.00     0.066 A 
ATOM     79  C   UNL A   1      37.184  23.315  25.922  1.00  0.00     0.089 A 
ATOM     80  N   UNL A   1      36.350  21.515  25.024  1.00  0.00    -0.342 N 
ATOM     81  N   UNL A   1      35.884  23.602  25.603  1.00  0.00    -0.233 NA
ATOM     82  C   UNL A   1      35.400  22.511  25.044  1.00  0.00     0.110 A 
ATOM     83  H   UNL A   1      36.220  20.602  24.682  1.00  0.00     0.168 HD
BRANCH  82  84
ATOM     84  C   UNL A   1      34.040  22.373  24.425  1.00  0.00     0.055 C 
ATOM     85  C   UNL A   1      34.034  22.958  23.005  1.00  0.00     0.011 C 
ATOM     86  C   UNL A   1      33.529  20.927  24.437  1.00  0.00     0.011 C 
ATOM     87  C   UNL A   1      32.660  22.846  22.356  1.00  0.00     0.001 C 
ATOM     88  C   UNL A   1      32.154  20.818  23.773  1.00  0.00     0.001 C 
ATOM     89  C   UNL A   1      32.157  21.406  22.364  1.00  0.00     0.000 C 
ENDBRANCH  82  84
ENDBRANCH  72  74
ENDBRANCH  71  72
ENDBRANCH  70  71
ENDBRANCH   1  70
TORSDOF 12
ENDMDL
MODEL 3
REMARK VINA RESULT:     -12.2      0.228      1.636
REMARK SMILES O=C(OCCOC(=O)c1ccc2nc(C3CCCCC3)[nH]c2c1)c1ccc(-c2c3nc(c(-c4c(F)c(F)c(F)c(F)c4F)c4ccc([nH]4)c(-c4c(F)c(F)c(F)c(F)c4F)c4nc(c(-c5c(F)c(F)c(F)c(F)c5F)c5ccc2[nH]5)C=C4)C=C3)cc1
REMARK SMILES IDX 4 1 3 2 2 3 1 4 24 5 25 6 86 7 26 8 85 9 27 10 28 11 29 12
REMARK SMILES IDX 79 13 30 14 84 15 78 16 80 17 31 18 83 19 77 20 76 21 32 23
REMARK SMILES IDX 64 24 44 25 63 26 45 27 48 28 62 29 81 30 46 31 47 32 61 34
REMARK SMILES IDX 82 35 49 36 33 37 34 38 42 39 35 40 36 41 40 42 43 43 37 44
REMARK SMILES IDX 38 45 41 46 39 47 65 48 66 49 74 50 67 51 68 52 72 53 75 54
REMARK SMILES IDX 69 55 70 56 73 57 71 58 50 59 51 60 59 61 52 62 53 63 57 64
REMARK SMILES IDX 60 65 54 66 55 67 58 68 56 69 5 70 6 71 7 72 8 73 9 74 10 75
REMARK SMILES IDX 23 76 11 77 22 78 12 79 21 80 13 81 14 82 15 84 16 85 20 86
REMARK SMILES IDX 17 87 19 88 18 89
REMARK H PARENT 80 22 48 33 21 83
REMARK Flexibility Score: inf
ROOT
ATOM      1  C   UNL A   1      44.037  21.759  25.352  1.00  0.00     0.275 C 
ENDROOT
BRANCH   1   2
ATOM      2  O   UNL A   1      43.679  23.072  24.885  1.00  0.00    -0.458 OA
BRANCH   2   3
ATOM      3  C   UNL A   1      44.224  24.277  25.166  1.00  0.00     0.338 C 
ATOM      4  O   UNL A   1      45.282  24.595  24.624  1.00  0.00    -0.246 OA
BRANCH   3   5
ATOM      5  C   UNL A   1      43.690  25.202  26.213  1.00  0.00     0.060 A 
ATOM      6  C   UNL A   1      44.098  26.518  26.432  1.00  0.00     0.016 A 
ATOM      7  C   UNL A   1      42.706  24.667  27.066  1.00  0.00     0.016 A 
ATOM      8  C   UNL A   1      43.490  27.306  27.413  1.00  0.00     0.010 A 
ATOM      9  C   UNL A   1      42.086  25.451  28.042  1.00  0.00     0.010 A 
ATOM     10  C   UNL A   1      42.480  26.778  28.221  1.00  0.00    -0.014 A 
BRANCH  10  11
ATOM     11  C   UNL A   1      41.951  27.573  29.350  1.00  0.00     0.031 A 
ATOM     12  C   UNL A   1      42.610  27.435  30.688  1.00  0.00     0.074 A 
ATOM     13  C   UNL A   1      40.927  28.424  29.173  1.00  0.00     0.049 A 
ATOM     14  N   UNL A   1      42.349  28.059  31.806  1.00  0.00    -0.248 NA
ATOM     15  C   UNL A   1      43.737  26.490  30.771  1.00  0.00     0.031 C 
ATOM     16  C   UNL A   1      40.263  28.687  27.900  1.00  0.00     0.029 A 
ATOM     17  N   UNL A   1      40.250  29.211  30.068  1.00  0.00    -0.354 N 
ATOM     18  C   UNL A   1      43.307  27.619  32.706  1.00  0.00     0.074 A 
ATOM     19  C   UNL A   1      44.106  26.621  32.034  1.00  0.00     0.031 C 
ATOM     20  C   UNL A   1      39.221  29.509  28.105  1.00  0.00     0.029 A 
ATOM     21  C   UNL A   1      39.160  29.845  29.523  1.00  0.00     0.049 A 
ATOM     22  H   UNL A   1      40.519  29.313  31.009  1.00  0.00     0.167 HD
ATOM     23  C   UNL A   1      43.523  28.048  33.971  1.00  0.00     0.037 A 
ATOM     24  C   UNL A   1      38.215  30.599  30.114  1.00  0.00     0.037 A 
ATOM     25  C   UNL A   1      42.693  29.012  34.640  1.00  0.00     0.049 A 
ATOM     26  C   UNL A   1      38.377  30.937  31.571  1.00  0.00     0.074 A 
ATOM     27  C   UNL A   1      42.813  29.520  35.920  1.00  0.00     0.029 A 
ATOM     28  N   UNL A   1      41.567  29.598  34.076  1.00  0.00    -0.354 N 
ATOM     29  N   UNL A   1      39.329  30.578  32.399  1.00  0.00    -0.248 NA
ATOM     30  C   UNL A   1      37.363  31.815  32.166  1.00  0.00     0.031 C 
ATOM     31  C   UNL A   1      41.729  30.375  36.148  1.00  0.00     0.029 A 
ATOM     32  C   UNL A   1      40.962  30.440  34.995  1.00  0.00     0.049 A 
ATOM     33  H   UNL A   1      41.246  29.438  33.160  1.00  0.00     0.167 HD
ATOM     34  C   UNL A   1      39.061  31.228  33.595  1.00  0.00     0.074 A 
ATOM     35  C   UNL A   1      37.850  31.996  33.386  1.00  0.00     0.031 C 
ATOM     36  C   UNL A   1      39.764  31.205  34.754  1.00  0.00     0.037 A 
BRANCH  23  37
ATOM     37  C   UNL A   1      44.696  27.456  34.691  1.00  0.00     0.064 A 
ATOM     38  C   UNL A   1      45.970  28.044  34.616  1.00  0.00     0.173 A 
ATOM     39  C   UNL A   1      44.560  26.277  35.435  1.00  0.00     0.173 A 
ATOM     40  F   UNL A   1      46.156  29.161  33.897  1.00  0.00    -0.203 F 
ATOM     41  C   UNL A   1      47.069  27.451  35.228  1.00  0.00     0.198 A 
ATOM     42  C   UNL A   1      45.658  25.700  36.068  1.00  0.00     0.198 A 
ATOM     43  F   UNL A   1      43.366  25.674  35.534  1.00  0.00    -0.203 F 
ATOM     44  F   UNL A   1      48.286  27.996  35.090  1.00  0.00    -0.200 F 
ATOM     45  C   UNL A   1      46.913  26.281  35.956  1.00  0.00     0.200 A 
ATOM     46  F   UNL A   1      45.507  24.570  36.772  1.00  0.00    -0.200 F 
ATOM     47  F   UNL A   1      47.975  25.704  36.536  1.00  0.00    -0.200 F 
ENDBRANCH  23  37
BRANCH  24  48
ATOM     48  C   UNL A   1      37.057  31.097  29.328  1.00  0.00     0.064 A 
ATOM     49  C   UNL A   1      36.997  32.421  28.873  1.00  0.00     0.173 A 
ATOM     50  C   UNL A   1      35.976  30.255  29.024  1.00  0.00     0.173 A 
ATOM     51  F   UNL A   1      37.996  33.270  29.152  1.00  0.00    -0.203 F 
ATOM     52  C   UNL A   1      35.891  32.890  28.164  1.00  0.00     0.198 A 
ATOM     53  C   UNL A   1      34.881  30.719  28.296  1.00  0.00     0.198 A 
ATOM     54  F   UNL A   1      35.983  28.979  29.434  1.00  0.00    -0.203 F 
ATOM     55  F   UNL A   1      35.841  34.172  27.776  1.00  0.00    -0.200 F 
ATOM     56  C   UNL A   1      34.836  32.038  27.873  1.00  0.00     0.200 A 
ATOM     57  F   UNL A   1      33.867  29.891  28.010  1.00  0.00    -0.200 F 
ATOM     58  F   UNL A   1      33.774  32.491  27.192  1.00  0.00    -0.200 F 
ENDBRANCH  24  48
BRANCH  36  59
ATOM     59  C   UNL A   1      39.271  32.079  35.867  1.00  0.00     0.064 A 
ATOM     60  C   UNL A   1      39.706  33.403  36.014  1.00  0.00     0.173 A 
ATOM     61  C   UNL A   1      38.313  31.594  36.770  1.00  0.00     0.173 A 
ATOM     62  F   UNL A   1      40.634  33.904  35.186  1.00  0.00    -0.203 F 
ATOM     63  C   UNL A   1      39.213  34.206  37.038  1.00  0.00     0.198 A 
ATOM     64  C   UNL A   1      37.799  32.409  37.774  1.00  0.00     0.198 A 
ATOM     65  F   UNL A   1      37.861  30.335  36.668  1.00  0.00    -0.203 F 
ATOM     66  F   UNL A   1      39.674  35.455  37.189  1.00  0.00    -0.200 F 
ATOM     67  C   UNL A   1      38.255  33.711  37.912  1.00  0.00     0.200 A 
ATOM     68  F   UNL A   1      36.864  31.934  38.608  1.00  0.00    -0.200 F 
ATOM     69  F   UNL A   1      37.774  34.490  38.890  1.00  0.00    -0.200 F 
ENDBRANCH  36  59
ENDBRANCH  10  11
ENDBRANCH   3   5
ENDBRANCH   2   3
ENDBRANCH   1   2
BRANCH   1  70
ATOM     70  C   UNL A   1      42.944  21.020  26.128  1.00  0.00     0.275 C 
BRANCH  70  71
ATOM     71  O   UNL A   1      41.613  21.343  25.702  1.00  0.00    -0.458 OA
BRANCH  71  72
ATOM     72  C   UNL A   1      40.668  21.261  26.677  1.00  0.00     0.338 C 
ATOM     73  O   UNL A   1      40.778  20.711  27.759  1.00  0.00    -0.246 OA
BRANCH  72  74
ATOM     74  C   UNL A   1      39.495  22.070  26.291  1.00  0.00     0.062 A 
ATOM     75  C   UNL A   1      39.290  23.342  26.836  1.00  0.00     0.018 A 
ATOM     76  C   UNL A   1      38.588  21.504  25.376  1.00  0.00     0.044 A 
ATOM     77  C   UNL A   1      38.142  24.077  26.502  1.00  0.00     0.031 A 
ATOM     78  C   UNL A   1      37.427  22.238  25.118  1.00  0.00     0.066 A 
ATOM     79  C   UNL A   1      37.186  23.494  25.659  1.00  0.00     0.089 A 
ATOM     80  N   UNL A   1      36.311  21.973  24.368  1.00  0.00    -0.342 N 
ATOM     81  N   UNL A   1      35.975  23.981  25.244  1.00  0.00    -0.233 NA
ATOM     82  C   UNL A   1      35.468  23.059  24.449  1.00  0.00     0.110 A 
ATOM     83  H   UNL A   1      36.140  21.149  23.859  1.00  0.00     0.168 HD
BRANCH  82  84
ATOM     84  C   UNL A   1      34.198  23.184  23.661  1.00  0.00     0.055 C 
ATOM     85  C   UNL A   1      33.306  21.954  23.881  1.00  0.00     0.011 C 
ATOM     86  C   UNL A   1      33.442  24.485  23.959  1.00  0.00     0.011 C 
ATOM     87  C   UNL A   1      32.013  22.046  23.079  1.00  0.00     0.001 C 
ATOM     88  C   UNL A   1      32.139  24.566  23.160  1.00  0.00     0.001 C 
ATOM     89  C   UNL A   1      31.260  23.338  23.382  1.00  0.00     0.000 C 
ENDBRANCH  82  84
ENDBRANCH  72  74
ENDBRANCH  71  72
ENDBRANCH  70  71
ENDBRANCH   1  70
TORSDOF 12
ENDMDL
