MODEL 1
REMARK VINA RESULT:     -12.1      0.000      0.000
REMARK SMILES Cc1noc(C)c1CNc1ccc(Cl)c(C(=O)OCCOC(=O)c2ccc(-c3c4nc(c(-c5c(F)c(F)c(F)c(F)c5F)c5ccc([nH]5)c(-c5c(F)c(F)c(F)c(F)c5F)c5nc(c(-c6c(F)c(F)c(F)c(F)c6F)c6ccc3[nH]6)C=C5)C=C4)cc2)n1
REMARK SMILES IDX 19 1 18 2 16 3 17 4 15 5 10 6 11 7 87 8 12 9 13 10 14 11
REMARK SMILES IDX 9 12 8 14 7 15 1 16 2 17 3 18 4 19 5 20 6 21 20 22 21 23
REMARK SMILES IDX 22 24 23 25 24 26 25 27 86 28 26 29 85 30 27 31 28 32 29 33
REMARK SMILES IDX 79 34 30 35 84 36 78 37 80 38 31 39 83 40 77 41 76 42 32 44
REMARK SMILES IDX 64 45 44 46 63 47 45 48 48 49 62 50 81 51 46 52 47 53 61 55
REMARK SMILES IDX 82 56 49 57 33 58 34 59 42 60 35 61 36 62 40 63 43 64 37 65
REMARK SMILES IDX 38 66 41 67 39 68 65 69 66 70 74 71 67 72 68 73 72 74 75 75
REMARK SMILES IDX 69 76 70 77 73 78 71 79 50 80 51 81 59 82 52 83 53 84 57 85
REMARK SMILES IDX 60 86 54 87 55 88 58 89 56 90
REMARK H PARENT 9 13 80 43 48 54
REMARK Flexibility Score: inf
ROOT
ATOM      1  C   UNL A   1      37.575  19.813  24.995  1.00  0.00     0.275 C 
ENDROOT
BRANCH   1   2
ATOM      2  O   UNL A   1      37.151  21.143  25.357  1.00  0.00    -0.457 OA
BRANCH   2   3
ATOM      3  C   UNL A   1      36.453  21.824  24.415  1.00  0.00     0.358 C 
ATOM      4  O   UNL A   1      36.925  22.401  23.446  1.00  0.00    -0.244 OA
BRANCH   3   5
ATOM      5  C   UNL A   1      34.986  21.682  24.624  1.00  0.00     0.169 A 
ATOM      6  C   UNL A   1      33.360  20.249  25.491  1.00  0.00     0.127 A 
ATOM      7  C   UNL A   1      32.355  21.081  25.035  1.00  0.00     0.048 A 
ATOM      8  N   UNL A   1      34.649  20.532  25.277  1.00  0.00    -0.222 NA
ATOM      9  C   UNL A   1      32.700  22.259  24.362  1.00  0.00     0.027 A 
ATOM     10  C   UNL A   1      34.042  22.575  24.143  1.00  0.00     0.074 A 
ATOM     11  Cl  UNL A   1      34.416  23.994  23.245  1.00  0.00    -0.082 Cl
BRANCH   6  12
ATOM     12  N   UNL A   1      33.143  19.097  26.205  1.00  0.00    -0.366 N 
ATOM     13  H   UNL A   1      33.439  19.044  27.143  1.00  0.00     0.162 HD
BRANCH  12  14
ATOM     14  C   UNL A   1      32.482  17.954  25.597  1.00  0.00     0.156 C 
BRANCH  14  15
ATOM     15  C   UNL A   1      33.175  17.421  24.385  1.00  0.00     0.037 A 
ATOM     16  C   UNL A   1      34.901  15.752  25.443  1.00  0.00     0.071 C 
ATOM     17  C   UNL A   1      34.232  16.466  24.327  1.00  0.00     0.086 A 
ATOM     18  N   UNL A   1      34.601  16.217  23.066  1.00  0.00    -0.085 NA
ATOM     19  O   UNL A   1      33.790  17.004  22.274  1.00  0.00    -0.361 OA
ATOM     20  C   UNL A   1      32.940  17.717  23.057  1.00  0.00     0.138 A 
ATOM     21  C   UNL A   1      31.995  18.602  22.348  1.00  0.00     0.091 C 
ENDBRANCH  14  15
ENDBRANCH  12  14
ENDBRANCH   6  12
ENDBRANCH   3   5
ENDBRANCH   2   3
ENDBRANCH   1   2
BRANCH   1  22
ATOM     22  C   UNL A   1      38.977  19.521  25.533  1.00  0.00     0.275 C 
BRANCH  22  23
ATOM     23  O   UNL A   1      39.683  20.739  25.839  1.00  0.00    -0.458 OA
BRANCH  23  24
ATOM     24  C   UNL A   1      40.395  20.718  26.987  1.00  0.00     0.338 C 
ATOM     25  O   UNL A   1      40.764  19.740  27.618  1.00  0.00    -0.246 OA
BRANCH  24  26
ATOM     26  C   UNL A   1      40.788  22.088  27.346  1.00  0.00     0.060 A 
ATOM     27  C   UNL A   1      40.303  23.123  26.551  1.00  0.00     0.016 A 
ATOM     28  C   UNL A   1      41.692  22.354  28.374  1.00  0.00     0.016 A 
ATOM     29  C   UNL A   1      40.739  24.428  26.746  1.00  0.00     0.010 A 
ATOM     30  C   UNL A   1      42.112  23.674  28.591  1.00  0.00     0.010 A 
ATOM     31  C   UNL A   1      41.651  24.717  27.766  1.00  0.00    -0.014 A 
BRANCH  31  32
ATOM     32  C   UNL A   1      42.132  26.112  27.928  1.00  0.00     0.031 A 
ATOM     33  C   UNL A   1      43.451  26.529  27.346  1.00  0.00     0.074 A 
ATOM     34  C   UNL A   1      41.359  27.018  28.557  1.00  0.00     0.049 A 
ATOM     35  N   UNL A   1      44.072  27.678  27.441  1.00  0.00    -0.248 NA
ATOM     36  C   UNL A   1      44.168  25.524  26.546  1.00  0.00     0.031 C 
ATOM     37  C   UNL A   1      40.034  26.751  29.118  1.00  0.00     0.029 A 
ATOM     38  N   UNL A   1      41.573  28.347  28.820  1.00  0.00    -0.354 N 
ATOM     39  C   UNL A   1      45.266  27.521  26.750  1.00  0.00     0.074 A 
ATOM     40  C   UNL A   1      45.284  26.169  26.235  1.00  0.00     0.031 C 
ATOM     41  C   UNL A   1      39.548  27.884  29.650  1.00  0.00     0.029 A 
ATOM     42  C   UNL A   1      40.548  28.939  29.517  1.00  0.00     0.049 A 
ATOM     43  H   UNL A   1      42.383  28.831  28.538  1.00  0.00     0.167 HD
ATOM     44  C   UNL A   1      46.255  28.428  26.565  1.00  0.00     0.037 A 
ATOM     45  C   UNL A   1      40.440  30.183  30.020  1.00  0.00     0.037 A 
ATOM     46  C   UNL A   1      46.215  29.787  27.035  1.00  0.00     0.049 A 
ATOM     47  C   UNL A   1      41.565  31.160  29.821  1.00  0.00     0.074 A 
ATOM     48  C   UNL A   1      47.156  30.789  26.858  1.00  0.00     0.029 A 
ATOM     49  N   UNL A   1      45.176  30.340  27.767  1.00  0.00    -0.354 N 
ATOM     50  N   UNL A   1      42.696  30.997  29.180  1.00  0.00    -0.248 NA
ATOM     51  C   UNL A   1      41.402  32.490  30.425  1.00  0.00     0.031 C 
ATOM     52  C   UNL A   1      46.700  31.938  27.513  1.00  0.00     0.029 A 
ATOM     53  C   UNL A   1      45.460  31.661  28.069  1.00  0.00     0.049 A 
ATOM     54  H   UNL A   1      44.357  29.863  28.034  1.00  0.00     0.167 HD
ATOM     55  C   UNL A   1      43.376  32.201  29.297  1.00  0.00     0.074 A 
ATOM     56  C   UNL A   1      42.523  33.094  30.052  1.00  0.00     0.031 C 
ATOM     57  C   UNL A   1      44.601  32.534  28.825  1.00  0.00     0.037 A 
BRANCH  44  58
ATOM     58  C   UNL A   1      47.487  27.974  25.844  1.00  0.00     0.064 A 
ATOM     59  C   UNL A   1      48.649  27.599  26.532  1.00  0.00     0.173 A 
ATOM     60  C   UNL A   1      47.479  27.857  24.446  1.00  0.00     0.173 A 
ATOM     61  F   UNL A   1      48.706  27.704  27.868  1.00  0.00    -0.203 F 
ATOM     62  C   UNL A   1      49.766  27.134  25.843  1.00  0.00     0.198 A 
ATOM     63  C   UNL A   1      48.591  27.373  23.762  1.00  0.00     0.198 A 
ATOM     64  F   UNL A   1      46.388  28.200  23.745  1.00  0.00    -0.203 F 
ATOM     65  F   UNL A   1      50.876  26.803  26.516  1.00  0.00    -0.200 F 
ATOM     66  C   UNL A   1      49.734  27.015  24.461  1.00  0.00     0.200 A 
ATOM     67  F   UNL A   1      48.554  27.251  22.428  1.00  0.00    -0.200 F 
ATOM     68  F   UNL A   1      50.806  26.555  23.801  1.00  0.00    -0.200 F 
ENDBRANCH  44  58
BRANCH  45  69
ATOM     69  C   UNL A   1      39.237  30.557  30.806  1.00  0.00     0.064 A 
ATOM     70  C   UNL A   1      39.170  30.327  32.186  1.00  0.00     0.173 A 
ATOM     71  C   UNL A   1      38.125  31.146  30.184  1.00  0.00     0.173 A 
ATOM     72  F   UNL A   1      40.191  29.729  32.817  1.00  0.00    -0.203 F 
ATOM     73  C   UNL A   1      38.029  30.663  32.914  1.00  0.00     0.198 A 
ATOM     74  C   UNL A   1      36.998  31.505  30.918  1.00  0.00     0.198 A 
ATOM     75  F   UNL A   1      38.138  31.378  28.864  1.00  0.00    -0.203 F 
ATOM     76  F   UNL A   1      37.968  30.387  34.224  1.00  0.00    -0.200 F 
ATOM     77  C   UNL A   1      36.947  31.257  32.281  1.00  0.00     0.200 A 
ATOM     78  F   UNL A   1      35.956  32.081  30.302  1.00  0.00    -0.200 F 
ATOM     79  F   UNL A   1      35.851  31.577  32.981  1.00  0.00    -0.200 F 
ENDBRANCH  45  69
BRANCH  57  80
ATOM     80  C   UNL A   1      45.086  33.924  29.105  1.00  0.00     0.064 A 
ATOM     81  C   UNL A   1      44.777  34.988  28.248  1.00  0.00     0.173 A 
ATOM     82  C   UNL A   1      45.838  34.198  30.257  1.00  0.00     0.173 A 
ATOM     83  F   UNL A   1      44.075  34.770  27.126  1.00  0.00    -0.203 F 
ATOM     84  C   UNL A   1      45.219  36.279  28.525  1.00  0.00     0.198 A 
ATOM     85  C   UNL A   1      46.260  35.493  30.542  1.00  0.00     0.198 A 
ATOM     86  F   UNL A   1      46.154  33.212  31.109  1.00  0.00    -0.203 F 
ATOM     87  F   UNL A   1      44.943  37.277  27.674  1.00  0.00    -0.200 F 
ATOM     88  C   UNL A   1      45.954  36.531  29.674  1.00  0.00     0.200 A 
ATOM     89  F   UNL A   1      46.963  35.738  31.656  1.00  0.00    -0.200 F 
ATOM     90  F   UNL A   1      46.375  37.775  29.942  1.00  0.00    -0.200 F 
ENDBRANCH  57  80
ENDBRANCH  31  32
ENDBRANCH  24  26
ENDBRANCH  23  24
ENDBRANCH  22  23
ENDBRANCH   1  22
TORSDOF 14
ENDMDL
MODEL 2
REMARK VINA RESULT:     -12.0      0.296      1.649
REMARK SMILES Cc1noc(C)c1CNc1ccc(Cl)c(C(=O)OCCOC(=O)c2ccc(-c3c4nc(c(-c5c(F)c(F)c(F)c(F)c5F)c5ccc([nH]5)c(-c5c(F)c(F)c(F)c(F)c5F)c5nc(c(-c6c(F)c(F)c(F)c(F)c6F)c6ccc3[nH]6)C=C5)C=C4)cc2)n1
REMARK SMILES IDX 19 1 18 2 16 3 17 4 15 5 10 6 11 7 87 8 12 9 13 10 14 11
REMARK SMILES IDX 9 12 8 14 7 15 1 16 2 17 3 18 4 19 5 20 6 21 20 22 21 23
REMARK SMILES IDX 22 24 23 25 24 26 25 27 86 28 26 29 85 30 27 31 28 32 29 33
REMARK SMILES IDX 79 34 30 35 84 36 78 37 80 38 31 39 83 40 77 41 76 42 32 44
REMARK SMILES IDX 64 45 44 46 63 47 45 48 48 49 62 50 81 51 46 52 47 53 61 55
REMARK SMILES IDX 82 56 49 57 33 58 34 59 42 60 35 61 36 62 40 63 43 64 37 65
REMARK SMILES IDX 38 66 41 67 39 68 65 69 66 70 74 71 67 72 68 73 72 74 75 75
REMARK SMILES IDX 69 76 70 77 73 78 71 79 50 80 51 81 59 82 52 83 53 84 57 85
REMARK SMILES IDX 60 86 54 87 55 88 58 89 56 90
REMARK H PARENT 9 13 80 43 48 54
REMARK Flexibility Score: inf
ROOT
ATOM      1  C   UNL A   1      37.658  19.616  25.014  1.00  0.00     0.275 C 
ENDROOT
BRANCH   1   2
ATOM      2  O   UNL A   1      37.352  20.921  24.483  1.00  0.00    -0.457 OA
BRANCH   2   3
ATOM      3  C   UNL A   1      36.593  21.724  25.270  1.00  0.00     0.358 C 
ATOM      4  O   UNL A   1      37.009  22.581  26.035  1.00  0.00    -0.244 OA
BRANCH   3   5
ATOM      5  C   UNL A   1      35.143  21.531  24.997  1.00  0.00     0.169 A 
ATOM      6  C   UNL A   1      33.346  20.098  25.409  1.00  0.00     0.127 A 
ATOM      7  C   UNL A   1      32.534  20.845  24.575  1.00  0.00     0.048 A 
ATOM      8  N   UNL A   1      34.629  20.422  25.605  1.00  0.00    -0.222 NA
ATOM      9  C   UNL A   1      33.063  21.979  23.948  1.00  0.00     0.027 A 
ATOM     10  C   UNL A   1      34.396  22.339  24.155  1.00  0.00     0.074 A 
ATOM     11  Cl  UNL A   1      35.022  23.697  23.305  1.00  0.00    -0.082 Cl
BRANCH   6  12
ATOM     12  N   UNL A   1      32.925  18.998  26.113  1.00  0.00    -0.366 N 
ATOM     13  H   UNL A   1      33.026  18.981  27.092  1.00  0.00     0.162 HD
BRANCH  12  14
ATOM     14  C   UNL A   1      32.331  17.859  25.435  1.00  0.00     0.156 C 
BRANCH  14  15
ATOM     15  C   UNL A   1      33.149  17.327  24.302  1.00  0.00     0.037 A 
ATOM     16  C   UNL A   1      34.853  15.773  25.553  1.00  0.00     0.071 C 
ATOM     17  C   UNL A   1      34.251  16.423  24.364  1.00  0.00     0.086 A 
ATOM     18  N   UNL A   1      34.738  16.159  23.146  1.00  0.00    -0.085 NA
ATOM     19  O   UNL A   1      33.962  16.884  22.265  1.00  0.00    -0.361 OA
ATOM     20  C   UNL A   1      33.016  17.576  22.951  1.00  0.00     0.138 A 
ATOM     21  C   UNL A   1      32.096  18.394  22.137  1.00  0.00     0.091 C 
ENDBRANCH  14  15
ENDBRANCH  12  14
ENDBRANCH   6  12
ENDBRANCH   3   5
ENDBRANCH   2   3
ENDBRANCH   1   2
BRANCH   1  22
ATOM     22  C   UNL A   1      39.129  19.523  25.425  1.00  0.00     0.275 C 
BRANCH  22  23
ATOM     23  O   UNL A   1      39.630  20.802  25.861  1.00  0.00    -0.458 OA
BRANCH  23  24
ATOM     24  C   UNL A   1      40.372  20.774  26.990  1.00  0.00     0.338 C 
ATOM     25  O   UNL A   1      40.762  19.792  27.602  1.00  0.00    -0.246 OA
BRANCH  24  26
ATOM     26  C   UNL A   1      40.770  22.142  27.350  1.00  0.00     0.060 A 
ATOM     27  C   UNL A   1      40.283  23.180  26.561  1.00  0.00     0.016 A 
ATOM     28  C   UNL A   1      41.681  22.404  28.373  1.00  0.00     0.016 A 
ATOM     29  C   UNL A   1      40.722  24.484  26.756  1.00  0.00     0.010 A 
ATOM     30  C   UNL A   1      42.104  23.722  28.591  1.00  0.00     0.010 A 
ATOM     31  C   UNL A   1      41.641  24.768  27.772  1.00  0.00    -0.014 A 
BRANCH  31  32
ATOM     32  C   UNL A   1      42.126  26.162  27.935  1.00  0.00     0.031 A 
ATOM     33  C   UNL A   1      43.441  26.579  27.342  1.00  0.00     0.074 A 
ATOM     34  C   UNL A   1      41.360  27.067  28.573  1.00  0.00     0.049 A 
ATOM     35  N   UNL A   1      44.065  27.726  27.437  1.00  0.00    -0.248 NA
ATOM     36  C   UNL A   1      44.149  25.575  26.533  1.00  0.00     0.031 C 
ATOM     37  C   UNL A   1      40.039  26.801  29.144  1.00  0.00     0.029 A 
ATOM     38  N   UNL A   1      41.578  28.395  28.839  1.00  0.00    -0.354 N 
ATOM     39  C   UNL A   1      45.252  27.570  26.735  1.00  0.00     0.074 A 
ATOM     40  C   UNL A   1      45.263  26.220  26.215  1.00  0.00     0.031 C 
ATOM     41  C   UNL A   1      39.559  27.933  29.684  1.00  0.00     0.029 A 
ATOM     42  C   UNL A   1      40.560  28.986  29.546  1.00  0.00     0.049 A 
ATOM     43  H   UNL A   1      42.386  28.878  28.551  1.00  0.00     0.167 HD
ATOM     44  C   UNL A   1      46.241  28.476  26.545  1.00  0.00     0.037 A 
ATOM     45  C   UNL A   1      40.458  30.228  30.055  1.00  0.00     0.037 A 
ATOM     46  C   UNL A   1      46.208  29.834  27.020  1.00  0.00     0.049 A 
ATOM     47  C   UNL A   1      41.583  31.204  29.849  1.00  0.00     0.074 A 
ATOM     48  C   UNL A   1      47.148  30.834  26.839  1.00  0.00     0.029 A 
ATOM     49  N   UNL A   1      45.175  30.385  27.763  1.00  0.00    -0.354 N 
ATOM     50  N   UNL A   1      42.708  31.042  29.199  1.00  0.00    -0.248 NA
ATOM     51  C   UNL A   1      41.428  32.532  30.459  1.00  0.00     0.031 C 
ATOM     52  C   UNL A   1      46.699  31.982  27.501  1.00  0.00     0.029 A 
ATOM     53  C   UNL A   1      45.464  31.706  28.067  1.00  0.00     0.049 A 
ATOM     54  H   UNL A   1      44.358  29.909  28.035  1.00  0.00     0.167 HD
ATOM     55  C   UNL A   1      43.391  32.244  29.314  1.00  0.00     0.074 A 
ATOM     56  C   UNL A   1      42.546  33.136  30.079  1.00  0.00     0.031 C 
ATOM     57  C   UNL A   1      44.613  32.577  28.833  1.00  0.00     0.037 A 
BRANCH  44  58
ATOM     58  C   UNL A   1      47.466  28.022  25.812  1.00  0.00     0.064 A 
ATOM     59  C   UNL A   1      48.637  27.656  26.489  1.00  0.00     0.173 A 
ATOM     60  C   UNL A   1      47.442  27.897  24.415  1.00  0.00     0.173 A 
ATOM     61  F   UNL A   1      48.710  27.769  27.823  1.00  0.00    -0.203 F 
ATOM     62  C   UNL A   1      49.748  27.191  25.789  1.00  0.00     0.198 A 
ATOM     63  C   UNL A   1      48.548  27.414  23.721  1.00  0.00     0.198 A 
ATOM     64  F   UNL A   1      46.341  28.232  23.725  1.00  0.00    -0.203 F 
ATOM     65  F   UNL A   1      50.868  26.868  26.451  1.00  0.00    -0.200 F 
ATOM     66  C   UNL A   1      49.700  27.064  24.408  1.00  0.00     0.200 A 
ATOM     67  F   UNL A   1      48.496  27.284  22.388  1.00  0.00    -0.200 F 
ATOM     68  F   UNL A   1      50.766  26.605  23.738  1.00  0.00    -0.200 F 
ENDBRANCH  44  58
BRANCH  45  69
ATOM     69  C   UNL A   1      39.262  30.602  30.852  1.00  0.00     0.064 A 
ATOM     70  C   UNL A   1      38.151  31.210  30.255  1.00  0.00     0.173 A 
ATOM     71  C   UNL A   1      39.215  30.363  32.234  1.00  0.00     0.173 A 
ATOM     72  F   UNL A   1      38.166  31.495  28.945  1.00  0.00    -0.203 F 
ATOM     73  C   UNL A   1      37.040  31.575  31.014  1.00  0.00     0.198 A 
ATOM     74  C   UNL A   1      38.095  30.705  32.985  1.00  0.00     0.198 A 
ATOM     75  F   UNL A   1      40.259  29.792  32.853  1.00  0.00    -0.203 F 
ATOM     76  F   UNL A   1      36.009  32.202  30.430  1.00  0.00    -0.200 F 
ATOM     77  C   UNL A   1      37.010  31.317  32.377  1.00  0.00     0.200 A 
ATOM     78  F   UNL A   1      38.069  30.450  34.301  1.00  0.00    -0.200 F 
ATOM     79  F   UNL A   1      35.943  31.671  33.104  1.00  0.00    -0.200 F 
ENDBRANCH  45  69
BRANCH  57  80
ATOM     80  C   UNL A   1      45.103  33.965  29.114  1.00  0.00     0.064 A 
ATOM     81  C   UNL A   1      45.886  34.245  30.242  1.00  0.00     0.173 A 
ATOM     82  C   UNL A   1      44.814  35.016  28.230  1.00  0.00     0.173 A 
ATOM     83  F   UNL A   1      46.173  33.274  31.122  1.00  0.00    -0.203 F 
ATOM     84  C   UNL A   1      46.350  35.534  30.486  1.00  0.00     0.198 A 
ATOM     85  C   UNL A   1      45.298  36.299  28.467  1.00  0.00     0.198 A 
ATOM     86  F   UNL A   1      44.072  34.794  27.136  1.00  0.00    -0.203 F 
ATOM     87  F   UNL A   1      47.068  35.788  31.589  1.00  0.00    -0.200 F 
ATOM     88  C   UNL A   1      46.061  36.558  29.595  1.00  0.00     0.200 A 
ATOM     89  F   UNL A   1      45.025  37.286  27.602  1.00  0.00    -0.200 F 
ATOM     90  F   UNL A   1      46.513  37.798  29.830  1.00  0.00    -0.200 F 
ENDBRANCH  57  80
ENDBRANCH  31  32
ENDBRANCH  24  26
ENDBRANCH  23  24
ENDBRANCH  22  23
ENDBRANCH   1  22
TORSDOF 14
ENDMDL
MODEL 3
REMARK VINA RESULT:     -11.9      1.367      7.406
REMARK SMILES Cc1noc(C)c1CNc1ccc(Cl)c(C(=O)OCCOC(=O)c2ccc(-c3c4nc(c(-c5c(F)c(F)c(F)c(F)c5F)c5ccc([nH]5)c(-c5c(F)c(F)c(F)c(F)c5F)c5nc(c(-c6c(F)c(F)c(F)c(F)c6F)c6ccc3[nH]6)C=C5)C=C4)cc2)n1
REMARK SMILES IDX 19 1 18 2 16 3 17 4 15 5 10 6 11 7 87 8 12 9 13 10 14 11
REMARK SMILES IDX 9 12 8 14 7 15 1 16 2 17 3 18 4 19 5 20 6 21 20 22 21 23
REMARK SMILES IDX 22 24 23 25 24 26 25 27 86 28 26 29 85 30 27 31 28 32 29 33
REMARK SMILES IDX 79 34 30 35 84 36 78 37 80 38 31 39 83 40 77 41 76 42 32 44
REMARK SMILES IDX 64 45 44 46 63 47 45 48 48 49 62 50 81 51 46 52 47 53 61 55
REMARK SMILES IDX 82 56 49 57 33 58 34 59 42 60 35 61 36 62 40 63 43 64 37 65
REMARK SMILES IDX 38 66 41 67 39 68 65 69 66 70 74 71 67 72 68 73 72 74 75 75
REMARK SMILES IDX 69 76 70 77 73 78 71 79 50 80 51 81 59 82 52 83 53 84 57 85
REMARK SMILES IDX 60 86 54 87 55 88 58 89 56 90
REMARK H PARENT 9 13 80 43 48 54
REMARK Flexibility Score: inf
ROOT
ATOM      1  C   UNL A   1      38.539  21.013  25.371  1.00  0.00     0.275 C 
ENDROOT
BRANCH   1   2
ATOM      2  O   UNL A   1      37.166  20.838  24.966  1.00  0.00    -0.457 OA
BRANCH   2   3
ATOM      3  C   UNL A   1      36.483  21.969  24.665  1.00  0.00     0.358 C 
ATOM      4  O   UNL A   1      36.970  23.024  24.286  1.00  0.00    -0.244 OA
BRANCH   3   5
ATOM      5  C   UNL A   1      35.013  21.743  24.723  1.00  0.00     0.169 A 
ATOM      6  C   UNL A   1      33.389  20.238  25.466  1.00  0.00     0.127 A 
ATOM      7  C   UNL A   1      32.392  20.993  24.878  1.00  0.00     0.048 A 
ATOM      8  N   UNL A   1      34.676  20.594  25.378  1.00  0.00    -0.222 NA
ATOM      9  C   UNL A   1      32.738  22.169  24.202  1.00  0.00     0.027 A 
ATOM     10  C   UNL A   1      34.075  22.562  24.115  1.00  0.00     0.074 A 
ATOM     11  Cl  UNL A   1      34.460  23.973  23.211  1.00  0.00    -0.082 Cl
BRANCH   6  12
ATOM     12  N   UNL A   1      33.165  19.096  26.194  1.00  0.00    -0.366 N 
ATOM     13  H   UNL A   1      33.449  19.058  27.136  1.00  0.00     0.162 HD
BRANCH  12  14
ATOM     14  C   UNL A   1      32.513  17.944  25.595  1.00  0.00     0.156 C 
BRANCH  14  15
ATOM     15  C   UNL A   1      33.208  17.409  24.384  1.00  0.00     0.037 A 
ATOM     16  C   UNL A   1      34.950  15.761  25.449  1.00  0.00     0.071 C 
ATOM     17  C   UNL A   1      34.273  16.463  24.330  1.00  0.00     0.086 A 
ATOM     18  N   UNL A   1      34.642  16.209  23.070  1.00  0.00    -0.085 NA
ATOM     19  O   UNL A   1      33.823  16.984  22.275  1.00  0.00    -0.361 OA
ATOM     20  C   UNL A   1      32.968  17.696  23.055  1.00  0.00     0.138 A 
ATOM     21  C   UNL A   1      32.014  18.567  22.343  1.00  0.00     0.091 C 
ENDBRANCH  14  15
ENDBRANCH  12  14
ENDBRANCH   6  12
ENDBRANCH   3   5
ENDBRANCH   2   3
ENDBRANCH   1   2
BRANCH   1  22
ATOM     22  C   UNL A   1      39.277  19.672  25.398  1.00  0.00     0.275 C 
BRANCH  22  23
ATOM     23  O   UNL A   1      40.175  19.593  26.523  1.00  0.00    -0.458 OA
BRANCH  23  24
ATOM     24  C   UNL A   1      41.488  19.548  26.208  1.00  0.00     0.338 C 
ATOM     25  O   UNL A   1      42.108  18.610  25.731  1.00  0.00    -0.246 OA
BRANCH  24  26
ATOM     26  C   UNL A   1      42.089  20.872  26.415  1.00  0.00     0.060 A 
ATOM     27  C   UNL A   1      42.379  21.247  27.725  1.00  0.00     0.016 A 
ATOM     28  C   UNL A   1      42.274  21.774  25.368  1.00  0.00     0.016 A 
ATOM     29  C   UNL A   1      42.822  22.532  28.012  1.00  0.00     0.010 A 
ATOM     30  C   UNL A   1      42.747  23.063  25.651  1.00  0.00     0.010 A 
ATOM     31  C   UNL A   1      43.008  23.455  26.978  1.00  0.00    -0.014 A 
BRANCH  31  32
ATOM     32  C   UNL A   1      43.442  24.834  27.313  1.00  0.00     0.031 A 
ATOM     33  C   UNL A   1      42.480  25.798  27.946  1.00  0.00     0.074 A 
ATOM     34  C   UNL A   1      44.718  25.206  27.095  1.00  0.00     0.049 A 
ATOM     35  N   UNL A   1      42.651  27.061  28.247  1.00  0.00    -0.248 NA
ATOM     36  C   UNL A   1      41.149  25.273  28.289  1.00  0.00     0.031 C 
ATOM     37  C   UNL A   1      45.763  24.346  26.538  1.00  0.00     0.029 A 
ATOM     38  N   UNL A   1      45.354  26.400  27.325  1.00  0.00    -0.354 N 
ATOM     39  C   UNL A   1      41.442  27.490  28.777  1.00  0.00     0.074 A 
ATOM     40  C   UNL A   1      40.545  26.354  28.762  1.00  0.00     0.031 C 
ATOM     41  C   UNL A   1      46.913  25.037  26.480  1.00  0.00     0.029 A 
ATOM     42  C   UNL A   1      46.673  26.400  26.942  1.00  0.00     0.049 A 
ATOM     43  H   UNL A   1      44.909  27.181  27.727  1.00  0.00     0.167 HD
ATOM     44  C   UNL A   1      41.115  28.722  29.234  1.00  0.00     0.037 A 
ATOM     45  C   UNL A   1      47.578  27.396  26.932  1.00  0.00     0.037 A 
ATOM     46  C   UNL A   1      42.021  29.838  29.295  1.00  0.00     0.049 A 
ATOM     47  C   UNL A   1      47.179  28.761  27.422  1.00  0.00     0.074 A 
ATOM     48  C   UNL A   1      41.787  31.114  29.780  1.00  0.00     0.029 A 
ATOM     49  N   UNL A   1      43.338  29.810  28.864  1.00  0.00    -0.354 N 
ATOM     50  N   UNL A   1      46.029  29.160  27.905  1.00  0.00    -0.248 NA
ATOM     51  C   UNL A   1      48.200  29.815  27.352  1.00  0.00     0.031 C 
ATOM     52  C   UNL A   1      42.954  31.867  29.612  1.00  0.00     0.029 A 
ATOM     53  C   UNL A   1      43.924  31.051  29.052  1.00  0.00     0.049 A 
ATOM     54  H   UNL A   1      43.790  29.024  28.480  1.00  0.00     0.167 HD
ATOM     55  C   UNL A   1      46.188  30.505  28.204  1.00  0.00     0.074 A 
ATOM     56  C   UNL A   1      47.553  30.852  27.867  1.00  0.00     0.031 C 
ATOM     57  C   UNL A   1      45.283  31.377  28.708  1.00  0.00     0.037 A 
BRANCH  44  58
ATOM     58  C   UNL A   1      39.703  28.944  29.682  1.00  0.00     0.064 A 
ATOM     59  C   UNL A   1      39.301  28.710  31.004  1.00  0.00     0.173 A 
ATOM     60  C   UNL A   1      38.755  29.457  28.783  1.00  0.00     0.173 A 
ATOM     61  F   UNL A   1      40.169  28.210  31.895  1.00  0.00    -0.203 F 
ATOM     62  C   UNL A   1      37.994  28.970  31.408  1.00  0.00     0.198 A 
ATOM     63  C   UNL A   1      37.455  29.734  29.196  1.00  0.00     0.198 A 
ATOM     64  F   UNL A   1      39.094  29.701  27.508  1.00  0.00    -0.203 F 
ATOM     65  F   UNL A   1      37.622  28.717  32.670  1.00  0.00    -0.200 F 
ATOM     66  C   UNL A   1      37.075  29.488  30.506  1.00  0.00     0.200 A 
ATOM     67  F   UNL A   1      36.571  30.242  28.325  1.00  0.00    -0.200 F 
ATOM     68  F   UNL A   1      35.821  29.749  30.901  1.00  0.00    -0.200 F 
ENDBRANCH  44  58
BRANCH  45  69
ATOM     69  C   UNL A   1      48.939  27.149  26.394  1.00  0.00     0.064 A 
ATOM     70  C   UNL A   1      49.990  26.746  27.228  1.00  0.00     0.173 A 
ATOM     71  C   UNL A   1      49.216  27.322  25.028  1.00  0.00     0.173 A 
ATOM     72  F   UNL A   1      49.783  26.606  28.546  1.00  0.00    -0.203 F 
ATOM     73  C   UNL A   1      51.269  26.535  26.718  1.00  0.00     0.198 A 
ATOM     74  C   UNL A   1      50.489  27.086  24.517  1.00  0.00     0.198 A 
ATOM     75  F   UNL A   1      48.246  27.717  24.191  1.00  0.00    -0.203 F 
ATOM     76  F   UNL A   1      52.270  26.198  27.544  1.00  0.00    -0.200 F 
ATOM     77  C   UNL A   1      51.517  26.699  25.363  1.00  0.00     0.200 A 
ATOM     78  F   UNL A   1      50.722  27.243  23.207  1.00  0.00    -0.200 F 
ATOM     79  F   UNL A   1      52.748  26.498  24.875  1.00  0.00    -0.200 F 
ENDBRANCH  45  69
BRANCH  57  80
ATOM     80  C   UNL A   1      45.742  32.786  28.931  1.00  0.00     0.064 A 
ATOM     81  C   UNL A   1      45.594  33.765  27.939  1.00  0.00     0.173 A 
ATOM     82  C   UNL A   1      46.303  33.167  30.159  1.00  0.00     0.173 A 
ATOM     83  F   UNL A   1      45.078  33.442  26.744  1.00  0.00    -0.203 F 
ATOM     84  C   UNL A   1      46.009  35.075  28.162  1.00  0.00     0.198 A 
ATOM     85  C   UNL A   1      46.697  34.483  30.386  1.00  0.00     0.198 A 
ATOM     86  F   UNL A   1      46.459  32.266  31.140  1.00  0.00    -0.203 F 
ATOM     87  F   UNL A   1      45.892  35.988  27.188  1.00  0.00    -0.200 F 
ATOM     88  C   UNL A   1      46.553  35.434  29.387  1.00  0.00     0.200 A 
ATOM     89  F   UNL A   1      47.216  34.830  31.572  1.00  0.00    -0.200 F 
ATOM     90  F   UNL A   1      46.948  36.696  29.601  1.00  0.00    -0.200 F 
ENDBRANCH  57  80
ENDBRANCH  31  32
ENDBRANCH  24  26
ENDBRANCH  23  24
ENDBRANCH  22  23
ENDBRANCH   1  22
TORSDOF 14
ENDMDL
