MODEL 1
REMARK VINA RESULT:     -17.3      0.000      0.000
REMARK SMILES Cc1ccccc1NC(=S)NN1C(=O)CS[C@H]1c1ccccc1C(=O)OCCOC(=O)c1ccc(-c2c3nc(c(-c4c(F)c(F)c(F)c(F)c4F)c4ccc([nH]4)c(-c4c(F)c(F)c(F)c(F)c4F)c4nc(c(-c5c(F)c(F)c(F)c(F)c5F)c5ccc2[nH]5)C=C4)C=C3)cc1
REMARK SMILES IDX 26 1 24 2 25 3 23 4 18 5 19 6 20 7 22 8 21 9 17 10 12 11
REMARK SMILES IDX 13 12 14 13 15 14 16 15 11 16 9 18 10 19 8 20 7 22 1 23 2 24
REMARK SMILES IDX 3 25 4 26 6 27 5 28 27 29 28 30 29 31 30 32 31 33 32 34
REMARK SMILES IDX 33 35 94 36 34 37 93 38 35 39 36 40 37 41 87 42 38 43 92 44
REMARK SMILES IDX 86 45 88 46 39 47 91 48 85 49 84 50 40 52 72 53 52 54 71 55
REMARK SMILES IDX 53 56 56 57 70 58 89 59 54 60 55 61 69 63 90 64 57 65 41 66
REMARK SMILES IDX 42 67 50 68 43 69 44 70 48 71 51 72 45 73 46 74 49 75 47 76
REMARK SMILES IDX 73 77 74 78 82 79 75 80 76 81 80 82 83 83 77 84 78 85 81 86
REMARK SMILES IDX 79 87 58 88 59 89 67 90 60 91 61 92 65 93 68 94 62 95 63 96
REMARK SMILES IDX 66 97 64 98
REMARK H PARENT 11 17 8 21 88 51 56 62
REMARK Flexibility Score: inf
ROOT
ATOM      1  O   UNL A   1      35.658  24.200  25.228  1.00  0.00    -0.458 OA
ENDROOT
BRANCH   1   2
ATOM      2  C   UNL A   1      34.463  25.341  24.605  1.00  0.00     0.338 C 
ATOM      3  O   UNL A   1      34.143  24.676  23.588  1.00  0.00    -0.246 OA
BRANCH   2   4
ATOM      4  C   UNL A   1      33.631  27.052  25.679  1.00  0.00     0.066 A 
ATOM      5  C   UNL A   1      32.215  27.847  25.161  1.00  0.00     0.001 A 
ATOM      6  C   UNL A   1      31.592  28.931  25.829  1.00  0.00     0.008 A 
ATOM      7  C   UNL A   1      32.227  29.541  26.887  1.00  0.00     0.000 A 
ATOM      8  C   UNL A   1      34.126  27.948  26.760  1.00  0.00     0.016 A 
ATOM      9  C   UNL A   1      33.484  29.111  27.285  1.00  0.00     0.001 A 
BRANCH   5  10
ATOM     10  C   UNL A   1      31.400  27.505  23.587  1.00  0.00     0.197 C 
ATOM     11  N   UNL A   1      30.459  26.128  23.312  1.00  0.00    -0.236 N 
ATOM     12  C   UNL A   1      28.935  26.690  23.610  1.00  0.00     0.252 C 
ATOM     13  O   UNL A   1      28.098  26.310  24.442  1.00  0.00    -0.272 OA
ATOM     14  C   UNL A   1      28.707  28.053  23.094  1.00  0.00     0.174 C 
ATOM     15  S   UNL A   1      30.187  28.980  23.341  1.00  0.00    -0.120 SA
BRANCH  11  16
ATOM     16  N   UNL A   1      31.111  24.257  23.557  1.00  0.00    -0.270 N 
ATOM     17  H   UNL A   1      31.258  23.806  22.695  1.00  0.00     0.191 HD
BRANCH  16  18
ATOM     18  C   UNL A   1      31.479  23.231  24.886  1.00  0.00     0.189 C 
ATOM     19  S   UNL A   1      31.238  23.853  26.438  1.00  0.00    -0.039 S 
BRANCH  18  20
ATOM     20  N   UNL A   1      31.547  21.614  24.756  1.00  0.00    -0.331 N 
ATOM     21  H   UNL A   1      30.764  21.207  25.191  1.00  0.00     0.169 HD
BRANCH  20  22
ATOM     22  C   UNL A   1      32.471  20.496  24.154  1.00  0.00     0.043 A 
ATOM     23  C   UNL A   1      34.609  20.937  25.524  1.00  0.00     0.046 C 
ATOM     24  C   UNL A   1      33.656  20.049  24.783  1.00  0.00    -0.028 A 
ATOM     25  C   UNL A   1      34.131  18.711  24.567  1.00  0.00     0.005 A 
ATOM     26  C   UNL A   1      33.484  17.824  23.719  1.00  0.00     0.000 A 
ATOM     27  C   UNL A   1      32.150  19.703  23.035  1.00  0.00     0.026 A 
ATOM     28  C   UNL A   1      32.517  18.348  22.900  1.00  0.00     0.002 A 
ENDBRANCH  20  22
ENDBRANCH  18  20
ENDBRANCH  16  18
ENDBRANCH  11  16
ENDBRANCH   5  10
ENDBRANCH   2   4
ENDBRANCH   1   2
BRANCH   1  29
ATOM     29  C   UNL A   1      37.416  23.596  24.948  1.00  0.00     0.275 C 
BRANCH  29  30
ATOM     30  C   UNL A   1      38.132  21.795  25.721  1.00  0.00     0.275 C 
BRANCH  30  31
ATOM     31  O   UNL A   1      39.705  21.818  26.714  1.00  0.00    -0.458 OA
BRANCH  31  32
ATOM     32  C   UNL A   1      40.518  22.916  27.367  1.00  0.00     0.338 C 
ATOM     33  O   UNL A   1      41.460  22.629  28.103  1.00  0.00    -0.246 OA
BRANCH  32  34
ATOM     34  C   UNL A   1      40.172  24.545  27.187  1.00  0.00     0.060 A 
ATOM     35  C   UNL A   1      41.154  25.648  26.139  1.00  0.00     0.016 A 
ATOM     36  C   UNL A   1      38.958  25.517  28.289  1.00  0.00     0.016 A 
ATOM     37  C   UNL A   1      40.945  27.464  26.389  1.00  0.00     0.010 A 
ATOM     38  C   UNL A   1      38.786  27.180  28.356  1.00  0.00     0.010 A 
ATOM     39  C   UNL A   1      39.770  28.179  27.526  1.00  0.00    -0.014 A 
BRANCH  39  40
ATOM     40  C   UNL A   1      39.935  29.119  28.744  1.00  0.00     0.031 A 
ATOM     41  C   UNL A   1      38.893  30.346  28.781  1.00  0.00     0.074 A 
ATOM     42  C   UNL A   1      40.577  28.567  29.828  1.00  0.00     0.049 A 
ATOM     43  N   UNL A   1      39.196  31.570  29.062  1.00  0.00    -0.248 NA
ATOM     44  C   UNL A   1      37.418  30.375  28.358  1.00  0.00     0.031 C 
ATOM     45  C   UNL A   1      40.692  28.899  31.255  1.00  0.00     0.029 A 
ATOM     46  N   UNL A   1      41.465  27.483  29.749  1.00  0.00    -0.354 N 
ATOM     47  C   UNL A   1      37.990  32.183  29.423  1.00  0.00     0.074 A 
ATOM     48  C   UNL A   1      36.997  31.608  28.606  1.00  0.00     0.031 C 
ATOM     49  C   UNL A   1      41.851  28.383  31.741  1.00  0.00     0.029 A 
ATOM     50  C   UNL A   1      42.495  27.624  30.680  1.00  0.00     0.049 A 
ATOM     51  H   UNL A   1      41.374  26.729  29.124  1.00  0.00     0.167 HD
ATOM     52  C   UNL A   1      37.867  32.759  30.655  1.00  0.00     0.037 A 
ATOM     53  C   UNL A   1      43.726  27.818  30.128  1.00  0.00     0.037 A 
ATOM     54  C   UNL A   1      39.152  32.625  31.347  1.00  0.00     0.049 A 
ATOM     55  C   UNL A   1      43.926  29.322  30.009  1.00  0.00     0.074 A 
ATOM     56  C   UNL A   1      39.601  31.967  32.473  1.00  0.00     0.029 A 
ATOM     57  N   UNL A   1      40.290  32.944  30.623  1.00  0.00    -0.354 N 
ATOM     58  N   UNL A   1      42.960  30.199  30.134  1.00  0.00    -0.248 NA
ATOM     59  C   UNL A   1      45.229  29.963  29.899  1.00  0.00     0.031 C 
ATOM     60  C   UNL A   1      41.029  31.831  32.347  1.00  0.00     0.029 A 
ATOM     61  C   UNL A   1      41.432  32.384  31.140  1.00  0.00     0.049 A 
ATOM     62  H   UNL A   1      40.282  33.514  29.821  1.00  0.00     0.167 HD
ATOM     63  C   UNL A   1      43.463  31.463  30.194  1.00  0.00     0.074 A 
ATOM     64  C   UNL A   1      44.892  31.259  30.030  1.00  0.00     0.031 C 
ATOM     65  C   UNL A   1      42.689  32.573  30.411  1.00  0.00     0.037 A 
BRANCH  52  66
ATOM     66  C   UNL A   1      36.594  33.266  31.327  1.00  0.00     0.064 A 
ATOM     67  C   UNL A   1      35.773  34.153  30.596  1.00  0.00     0.173 A 
ATOM     68  C   UNL A   1      36.087  32.952  32.614  1.00  0.00     0.173 A 
ATOM     69  F   UNL A   1      36.110  34.541  29.358  1.00  0.00    -0.203 F 
ATOM     70  C   UNL A   1      34.565  34.663  31.089  1.00  0.00     0.198 A 
ATOM     71  C   UNL A   1      34.860  33.438  33.095  1.00  0.00     0.198 A 
ATOM     72  F   UNL A   1      36.743  32.187  33.490  1.00  0.00    -0.203 F 
ATOM     73  F   UNL A   1      33.849  35.509  30.338  1.00  0.00    -0.200 F 
ATOM     74  C   UNL A   1      34.100  34.294  32.332  1.00  0.00     0.200 A 
ATOM     75  F   UNL A   1      34.428  33.067  34.310  1.00  0.00    -0.200 F 
ATOM     76  F   UNL A   1      32.931  34.760  32.792  1.00  0.00    -0.200 F 
ENDBRANCH  52  66
BRANCH  53  77
ATOM     77  C   UNL A   1      44.003  26.709  29.130  1.00  0.00     0.064 A 
ATOM     78  C   UNL A   1      44.290  27.115  27.796  1.00  0.00     0.173 A 
ATOM     79  C   UNL A   1      44.389  25.407  29.459  1.00  0.00     0.173 A 
ATOM     80  F   UNL A   1      43.889  28.325  27.373  1.00  0.00    -0.203 F 
ATOM     81  C   UNL A   1      45.083  26.356  26.929  1.00  0.00     0.198 A 
ATOM     82  C   UNL A   1      45.124  24.611  28.549  1.00  0.00     0.198 A 
ATOM     83  F   UNL A   1      44.229  24.947  30.709  1.00  0.00    -0.203 F 
ATOM     84  F   UNL A   1      45.470  26.862  25.748  1.00  0.00    -0.200 F 
ATOM     85  C   UNL A   1      45.527  25.112  27.321  1.00  0.00     0.200 A 
ATOM     86  F   UNL A   1      45.611  23.423  28.948  1.00  0.00    -0.200 F 
ATOM     87  F   UNL A   1      46.389  24.424  26.555  1.00  0.00    -0.200 F 
ENDBRANCH  53  77
BRANCH  65  88
ATOM     88  C   UNL A   1      43.086  33.981  29.986  1.00  0.00     0.064 A 
ATOM     89  C   UNL A   1      43.264  35.042  30.888  1.00  0.00     0.173 A 
ATOM     90  C   UNL A   1      43.429  34.296  28.642  1.00  0.00     0.173 A 
ATOM     91  F   UNL A   1      43.218  34.864  32.214  1.00  0.00    -0.203 F 
ATOM     92  C   UNL A   1      43.562  36.337  30.463  1.00  0.00     0.198 A 
ATOM     93  C   UNL A   1      43.855  35.557  28.243  1.00  0.00     0.198 A 
ATOM     94  F   UNL A   1      43.390  33.400  27.648  1.00  0.00    -0.203 F 
ATOM     95  F   UNL A   1      43.573  37.334  31.356  1.00  0.00    -0.200 F 
ATOM     96  C   UNL A   1      43.863  36.594  29.142  1.00  0.00     0.200 A 
ATOM     97  F   UNL A   1      44.256  35.750  26.979  1.00  0.00    -0.200 F 
ATOM     98  F   UNL A   1      44.176  37.831  28.741  1.00  0.00    -0.200 F 
ENDBRANCH  65  88
ENDBRANCH  39  40
ENDBRANCH  32  34
ENDBRANCH  31  32
ENDBRANCH  30  31
ENDBRANCH  29  30
ENDBRANCH   1  29
TORSDOF 16
ENDMDL
MODEL 2
REMARK VINA RESULT:     -16.9      1.587      3.543
REMARK SMILES Cc1ccccc1NC(=S)NN1C(=O)CS[C@H]1c1ccccc1C(=O)OCCOC(=O)c1ccc(-c2c3nc(c(-c4c(F)c(F)c(F)c(F)c4F)c4ccc([nH]4)c(-c4c(F)c(F)c(F)c(F)c4F)c4nc(c(-c5c(F)c(F)c(F)c(F)c5F)c5ccc2[nH]5)C=C4)C=C3)cc1
REMARK SMILES IDX 26 1 24 2 25 3 23 4 18 5 19 6 20 7 22 8 21 9 17 10 12 11
REMARK SMILES IDX 13 12 14 13 15 14 16 15 11 16 9 18 10 19 8 20 7 22 1 23 2 24
REMARK SMILES IDX 3 25 4 26 6 27 5 28 27 29 28 30 29 31 30 32 31 33 32 34
REMARK SMILES IDX 33 35 94 36 34 37 93 38 35 39 36 40 37 41 87 42 38 43 92 44
REMARK SMILES IDX 86 45 88 46 39 47 91 48 85 49 84 50 40 52 72 53 52 54 71 55
REMARK SMILES IDX 53 56 56 57 70 58 89 59 54 60 55 61 69 63 90 64 57 65 41 66
REMARK SMILES IDX 42 67 50 68 43 69 44 70 48 71 51 72 45 73 46 74 49 75 47 76
REMARK SMILES IDX 73 77 74 78 82 79 75 80 76 81 80 82 83 83 77 84 78 85 81 86
REMARK SMILES IDX 79 87 58 88 59 89 67 90 60 91 61 92 65 93 68 94 62 95 63 96
REMARK SMILES IDX 66 97 64 98
REMARK H PARENT 11 17 8 21 88 51 56 62
REMARK Flexibility Score: inf
ROOT
ATOM      1  O   UNL A   1      36.169  23.483  24.837  1.00  0.00    -0.458 OA
ENDROOT
BRANCH   1   2
ATOM      2  C   UNL A   1      34.866  24.489  24.199  1.00  0.00     0.338 C 
ATOM      3  O   UNL A   1      34.814  23.957  23.063  1.00  0.00    -0.246 OA
BRANCH   2   4
ATOM      4  C   UNL A   1      33.588  25.831  25.357  1.00  0.00     0.066 A 
ATOM      5  C   UNL A   1      31.969  25.446  25.728  1.00  0.00     0.001 A 
ATOM      6  C   UNL A   1      31.096  26.242  26.511  1.00  0.00     0.008 A 
ATOM      7  C   UNL A   1      31.474  27.513  26.882  1.00  0.00     0.000 A 
ATOM      8  C   UNL A   1      33.691  27.249  25.799  1.00  0.00     0.016 A 
ATOM      9  C   UNL A   1      32.696  28.022  26.472  1.00  0.00     0.001 A 
BRANCH   5  10
ATOM     10  C   UNL A   1      31.099  24.026  25.033  1.00  0.00     0.197 C 
ATOM     11  N   UNL A   1      31.703  23.108  23.749  1.00  0.00    -0.236 N 
ATOM     12  C   UNL A   1      32.443  21.859  24.538  1.00  0.00     0.252 C 
ATOM     13  O   UNL A   1      33.628  21.497  24.512  1.00  0.00    -0.272 OA
ATOM     14  C   UNL A   1      31.682  21.379  25.707  1.00  0.00     0.174 C 
ATOM     15  S   UNL A   1      30.960  22.781  26.497  1.00  0.00    -0.120 SA
BRANCH  11  16
ATOM     16  N   UNL A   1      32.208  23.862  21.971  1.00  0.00    -0.270 N 
ATOM     17  H   UNL A   1      32.312  23.158  21.291  1.00  0.00     0.191 HD
BRANCH  16  18
ATOM     18  C   UNL A   1      32.509  25.426  21.323  1.00  0.00     0.189 C 
ATOM     19  S   UNL A   1      32.556  25.574  19.641  1.00  0.00    -0.039 S 
BRANCH  18  20
ATOM     20  N   UNL A   1      32.251  26.791  22.164  1.00  0.00    -0.331 N 
ATOM     21  H   UNL A   1      33.088  27.304  22.240  1.00  0.00     0.169 HD
BRANCH  20  22
ATOM     22  C   UNL A   1      31.085  27.550  22.893  1.00  0.00     0.043 A 
ATOM     23  C   UNL A   1      32.347  29.687  23.587  1.00  0.00     0.046 C 
ATOM     24  C   UNL A   1      31.119  28.936  23.171  1.00  0.00    -0.028 A 
ATOM     25  C   UNL A   1      29.898  29.685  23.272  1.00  0.00     0.005 A 
ATOM     26  C   UNL A   1      28.652  29.090  23.140  1.00  0.00     0.000 A 
ATOM     27  C   UNL A   1      29.827  26.994  23.193  1.00  0.00     0.026 A 
ATOM     28  C   UNL A   1      28.618  27.718  23.160  1.00  0.00     0.002 A 
ENDBRANCH  20  22
ENDBRANCH  18  20
ENDBRANCH  16  18
ENDBRANCH  11  16
ENDBRANCH   5  10
ENDBRANCH   2   4
ENDBRANCH   1   2
BRANCH   1  29
ATOM     29  C   UNL A   1      37.960  23.561  25.401  1.00  0.00     0.275 C 
BRANCH  29  30
ATOM     30  C   UNL A   1      38.973  21.915  26.188  1.00  0.00     0.275 C 
BRANCH  30  31
ATOM     31  O   UNL A   1      40.467  22.220  27.255  1.00  0.00    -0.458 OA
BRANCH  31  32
ATOM     32  C   UNL A   1      41.228  23.462  27.666  1.00  0.00     0.338 C 
ATOM     33  O   UNL A   1      42.317  23.360  28.226  1.00  0.00    -0.246 OA
BRANCH  32  34
ATOM     34  C   UNL A   1      40.637  25.014  27.448  1.00  0.00     0.060 A 
ATOM     35  C   UNL A   1      41.382  26.197  26.298  1.00  0.00     0.016 A 
ATOM     36  C   UNL A   1      39.360  25.851  28.591  1.00  0.00     0.016 A 
ATOM     37  C   UNL A   1      40.924  27.974  26.492  1.00  0.00     0.010 A 
ATOM     38  C   UNL A   1      38.951  27.474  28.606  1.00  0.00     0.010 A 
ATOM     39  C   UNL A   1      39.726  28.564  27.677  1.00  0.00    -0.014 A 
BRANCH  39  40
ATOM     40  C   UNL A   1      39.823  29.574  28.845  1.00  0.00     0.031 A 
ATOM     41  C   UNL A   1      38.680  30.708  28.838  1.00  0.00     0.074 A 
ATOM     42  C   UNL A   1      40.522  29.133  29.945  1.00  0.00     0.049 A 
ATOM     43  N   UNL A   1      38.881  31.966  29.055  1.00  0.00    -0.248 NA
ATOM     44  C   UNL A   1      37.204  30.591  28.437  1.00  0.00     0.031 C 
ATOM     45  C   UNL A   1      40.624  29.544  31.352  1.00  0.00     0.029 A 
ATOM     46  N   UNL A   1      41.498  28.126  29.905  1.00  0.00    -0.354 N 
ATOM     47  C   UNL A   1      37.631  32.492  29.404  1.00  0.00     0.074 A 
ATOM     48  C   UNL A   1      36.682  31.795  28.631  1.00  0.00     0.031 C 
ATOM     49  C   UNL A   1      41.827  29.152  31.845  1.00  0.00     0.029 A 
ATOM     50  C   UNL A   1      42.523  28.400  30.812  1.00  0.00     0.049 A 
ATOM     51  H   UNL A   1      41.465  27.336  29.318  1.00  0.00     0.167 HD
ATOM     52  C   UNL A   1      37.473  33.115  30.608  1.00  0.00     0.037 A 
ATOM     53  C   UNL A   1      43.726  28.669  30.233  1.00  0.00     0.037 A 
ATOM     54  C   UNL A   1      38.772  33.125  31.287  1.00  0.00     0.049 A 
ATOM     55  C   UNL A   1      43.796  30.177  30.038  1.00  0.00     0.074 A 
ATOM     56  C   UNL A   1      39.288  32.564  32.437  1.00  0.00     0.029 A 
ATOM     57  N   UNL A   1      39.871  33.503  30.532  1.00  0.00    -0.354 N 
ATOM     58  N   UNL A   1      42.760  30.974  30.135  1.00  0.00    -0.248 NA
ATOM     59  C   UNL A   1      45.038  30.920  29.878  1.00  0.00     0.031 C 
ATOM     60  C   UNL A   1      40.720  32.544  32.296  1.00  0.00     0.029 A 
ATOM     61  C   UNL A   1      41.062  33.069  31.057  1.00  0.00     0.049 A 
ATOM     62  H   UNL A   1      39.805  34.030  29.702  1.00  0.00     0.167 HD
ATOM     63  C   UNL A   1      43.153  32.278  30.127  1.00  0.00     0.074 A 
ATOM     64  C   UNL A   1      44.592  32.188  29.951  1.00  0.00     0.031 C 
ATOM     65  C   UNL A   1      42.290  33.327  30.301  1.00  0.00     0.037 A 
BRANCH  52  66
ATOM     66  C   UNL A   1      36.168  33.546  31.275  1.00  0.00     0.064 A 
ATOM     67  C   UNL A   1      35.302  34.387  30.542  1.00  0.00     0.173 A 
ATOM     68  C   UNL A   1      35.672  33.196  32.556  1.00  0.00     0.173 A 
ATOM     69  F   UNL A   1      35.625  34.799  29.308  1.00  0.00    -0.203 F 
ATOM     70  C   UNL A   1      34.064  34.825  31.029  1.00  0.00     0.198 A 
ATOM     71  C   UNL A   1      34.416  33.609  33.031  1.00  0.00     0.198 A 
ATOM     72  F   UNL A   1      36.365  32.467  33.433  1.00  0.00    -0.203 F 
ATOM     73  F   UNL A   1      33.306  35.632  30.277  1.00  0.00    -0.200 F 
ATOM     74  C   UNL A   1      33.613  34.423  32.267  1.00  0.00     0.200 A 
ATOM     75  F   UNL A   1      33.998  33.208  34.242  1.00  0.00    -0.200 F 
ATOM     76  F   UNL A   1      32.417  34.819  32.722  1.00  0.00    -0.200 F 
ENDBRANCH  52  66
BRANCH  53  77
ATOM     77  C   UNL A   1      44.087  27.540  29.286  1.00  0.00     0.064 A 
ATOM     78  C   UNL A   1      44.296  27.898  27.925  1.00  0.00     0.173 A 
ATOM     79  C   UNL A   1      44.609  26.302  29.670  1.00  0.00     0.173 A 
ATOM     80  F   UNL A   1      43.766  29.038  27.452  1.00  0.00    -0.203 F 
ATOM     81  C   UNL A   1      45.138  27.174  27.073  1.00  0.00     0.198 A 
ATOM     82  C   UNL A   1      45.395  25.533  28.780  1.00  0.00     0.198 A 
ATOM     83  F   UNL A   1      44.528  25.897  30.946  1.00  0.00    -0.203 F 
ATOM     84  F   UNL A   1      45.441  27.650  25.856  1.00  0.00    -0.200 F 
ATOM     85  C   UNL A   1      45.713  26.003  27.515  1.00  0.00     0.200 A 
ATOM     86  F   UNL A   1      46.009  24.422  29.224  1.00  0.00    -0.200 F 
ATOM     87  F   UNL A   1      46.620  25.362  26.759  1.00  0.00    -0.200 F 
ENDBRANCH  53  77
BRANCH  65  88
ATOM     88  C   UNL A   1      42.560  34.742  29.802  1.00  0.00     0.064 A 
ATOM     89  C   UNL A   1      41.892  35.320  28.712  1.00  0.00     0.173 A 
ATOM     90  C   UNL A   1      43.431  35.631  30.491  1.00  0.00     0.173 A 
ATOM     91  F   UNL A   1      40.870  34.712  28.099  1.00  0.00    -0.203 F 
ATOM     92  C   UNL A   1      42.209  36.593  28.236  1.00  0.00     0.198 A 
ATOM     93  C   UNL A   1      43.643  36.945  30.092  1.00  0.00     0.198 A 
ATOM     94  F   UNL A   1      44.106  35.286  31.594  1.00  0.00    -0.203 F 
ATOM     95  F   UNL A   1      41.643  37.030  27.105  1.00  0.00    -0.200 F 
ATOM     96  C   UNL A   1      43.080  37.407  28.929  1.00  0.00     0.200 A 
ATOM     97  F   UNL A   1      44.401  37.751  30.848  1.00  0.00    -0.200 F 
ATOM     98  F   UNL A   1      43.361  38.639  28.486  1.00  0.00    -0.200 F 
ENDBRANCH  65  88
ENDBRANCH  39  40
ENDBRANCH  32  34
ENDBRANCH  31  32
ENDBRANCH  30  31
ENDBRANCH  29  30
ENDBRANCH   1  29
TORSDOF 16
ENDMDL
MODEL 3
REMARK VINA RESULT:     -16.6      1.741      4.223
REMARK SMILES Cc1ccccc1NC(=S)NN1C(=O)CS[C@H]1c1ccccc1C(=O)OCCOC(=O)c1ccc(-c2c3nc(c(-c4c(F)c(F)c(F)c(F)c4F)c4ccc([nH]4)c(-c4c(F)c(F)c(F)c(F)c4F)c4nc(c(-c5c(F)c(F)c(F)c(F)c5F)c5ccc2[nH]5)C=C4)C=C3)cc1
REMARK SMILES IDX 26 1 24 2 25 3 23 4 18 5 19 6 20 7 22 8 21 9 17 10 12 11
REMARK SMILES IDX 13 12 14 13 15 14 16 15 11 16 9 18 10 19 8 20 7 22 1 23 2 24
REMARK SMILES IDX 3 25 4 26 6 27 5 28 27 29 28 30 29 31 30 32 31 33 32 34
REMARK SMILES IDX 33 35 94 36 34 37 93 38 35 39 36 40 37 41 87 42 38 43 92 44
REMARK SMILES IDX 86 45 88 46 39 47 91 48 85 49 84 50 40 52 72 53 52 54 71 55
REMARK SMILES IDX 53 56 56 57 70 58 89 59 54 60 55 61 69 63 90 64 57 65 41 66
REMARK SMILES IDX 42 67 50 68 43 69 44 70 48 71 51 72 45 73 46 74 49 75 47 76
REMARK SMILES IDX 73 77 74 78 82 79 75 80 76 81 80 82 83 83 77 84 78 85 81 86
REMARK SMILES IDX 79 87 58 88 59 89 67 90 60 91 61 92 65 93 68 94 62 95 63 96
REMARK SMILES IDX 66 97 64 98
REMARK H PARENT 11 17 8 21 88 51 56 62
REMARK Flexibility Score: inf
ROOT
ATOM      1  O   UNL A   1      36.211  21.977  25.591  1.00  0.00    -0.458 OA
ENDROOT
BRANCH   1   2
ATOM      2  C   UNL A   1      35.044  21.663  24.303  1.00  0.00     0.338 C 
ATOM      3  O   UNL A   1      34.786  20.477  24.627  1.00  0.00    -0.246 OA
BRANCH   2   4
ATOM      4  C   UNL A   1      34.143  23.157  22.987  1.00  0.00     0.066 A 
ATOM      5  C   UNL A   1      33.506  24.622  23.581  1.00  0.00     0.001 A 
ATOM      6  C   UNL A   1      32.949  25.656  22.787  1.00  0.00     0.008 A 
ATOM      7  C   UNL A   1      32.723  25.444  21.446  1.00  0.00     0.000 A 
ATOM      8  C   UNL A   1      33.700  23.165  21.566  1.00  0.00     0.016 A 
ATOM      9  C   UNL A   1      33.017  24.214  20.877  1.00  0.00     0.001 A 
BRANCH   5  10
ATOM     10  C   UNL A   1      33.316  24.986  25.338  1.00  0.00     0.197 C 
ATOM     11  N   UNL A   1      32.417  26.293  25.922  1.00  0.00    -0.236 N 
ATOM     12  C   UNL A   1      30.957  25.589  26.240  1.00  0.00     0.252 C 
ATOM     13  O   UNL A   1      29.835  25.848  25.782  1.00  0.00    -0.272 OA
ATOM     14  C   UNL A   1      31.078  24.244  26.834  1.00  0.00     0.174 C 
ATOM     15  S   UNL A   1      32.439  23.431  26.061  1.00  0.00    -0.120 SA
BRANCH  11  16
ATOM     16  N   UNL A   1      32.737  28.195  25.406  1.00  0.00    -0.270 N 
ATOM     17  H   UNL A   1      33.443  28.275  24.726  1.00  0.00     0.191 HD
BRANCH  16  18
ATOM     18  C   UNL A   1      32.097  29.728  25.846  1.00  0.00     0.189 C 
ATOM     19  S   UNL A   1      32.876  30.569  27.088  1.00  0.00    -0.039 S 
BRANCH  18  20
ATOM     20  N   UNL A   1      31.158  30.607  24.854  1.00  0.00    -0.331 N 
ATOM     21  H   UNL A   1      31.463  31.543  24.842  1.00  0.00     0.169 HD
BRANCH  20  22
ATOM     22  C   UNL A   1      29.917  30.432  23.907  1.00  0.00     0.043 A 
ATOM     23  C   UNL A   1      30.520  28.165  22.842  1.00  0.00     0.046 C 
ATOM     24  C   UNL A   1      29.548  29.192  23.336  1.00  0.00    -0.028 A 
ATOM     25  C   UNL A   1      28.177  28.928  23.000  1.00  0.00     0.005 A 
ATOM     26  C   UNL A   1      27.176  29.871  23.182  1.00  0.00     0.000 A 
ATOM     27  C   UNL A   1      28.948  31.423  23.659  1.00  0.00     0.026 A 
ATOM     28  C   UNL A   1      27.579  31.153  23.460  1.00  0.00     0.002 A 
ENDBRANCH  20  22
ENDBRANCH  18  20
ENDBRANCH  16  18
ENDBRANCH  11  16
ENDBRANCH   5  10
ENDBRANCH   2   4
ENDBRANCH   1   2
BRANCH   1  29
ATOM     29  C   UNL A   1      37.882  22.774  25.914  1.00  0.00     0.275 C 
BRANCH  29  30
ATOM     30  C   UNL A   1      39.623  21.669  26.229  1.00  0.00     0.275 C 
BRANCH  30  31
ATOM     31  O   UNL A   1      40.886  22.323  27.429  1.00  0.00    -0.458 OA
BRANCH  31  32
ATOM     32  C   UNL A   1      41.637  23.632  27.552  1.00  0.00     0.338 C 
ATOM     33  O   UNL A   1      42.834  23.630  27.830  1.00  0.00    -0.246 OA
BRANCH  32  34
ATOM     34  C   UNL A   1      40.906  25.129  27.382  1.00  0.00     0.060 A 
ATOM     35  C   UNL A   1      41.464  26.366  26.184  1.00  0.00     0.016 A 
ATOM     36  C   UNL A   1      39.652  25.862  28.617  1.00  0.00     0.016 A 
ATOM     37  C   UNL A   1      40.878  28.099  26.416  1.00  0.00     0.010 A 
ATOM     38  C   UNL A   1      39.112  27.445  28.667  1.00  0.00     0.010 A 
ATOM     39  C   UNL A   1      39.726  28.593  27.686  1.00  0.00    -0.014 A 
BRANCH  39  40
ATOM     40  C   UNL A   1      39.825  29.611  28.847  1.00  0.00     0.031 A 
ATOM     41  C   UNL A   1      38.674  30.738  28.841  1.00  0.00     0.074 A 
ATOM     42  C   UNL A   1      40.534  29.182  29.945  1.00  0.00     0.049 A 
ATOM     43  N   UNL A   1      38.868  31.998  29.048  1.00  0.00    -0.248 NA
ATOM     44  C   UNL A   1      37.195  30.608  28.452  1.00  0.00     0.031 C 
ATOM     45  C   UNL A   1      40.644  29.603  31.349  1.00  0.00     0.029 A 
ATOM     46  N   UNL A   1      41.517  28.181  29.904  1.00  0.00    -0.354 N 
ATOM     47  C   UNL A   1      37.617  32.518  29.403  1.00  0.00     0.074 A 
ATOM     48  C   UNL A   1      36.667  31.810  28.642  1.00  0.00     0.031 C 
ATOM     49  C   UNL A   1      41.853  29.223  31.835  1.00  0.00     0.029 A 
ATOM     50  C   UNL A   1      42.546  28.468  30.802  1.00  0.00     0.049 A 
ATOM     51  H   UNL A   1      41.485  27.388  29.323  1.00  0.00     0.167 HD
ATOM     52  C   UNL A   1      37.463  33.149  30.604  1.00  0.00     0.037 A 
ATOM     53  C   UNL A   1      43.743  28.741  30.212  1.00  0.00     0.037 A 
ATOM     54  C   UNL A   1      38.767  33.172  31.273  1.00  0.00     0.049 A 
ATOM     55  C   UNL A   1      43.802  30.248  30.007  1.00  0.00     0.074 A 
ATOM     56  C   UNL A   1      39.296  32.622  32.423  1.00  0.00     0.029 A 
ATOM     57  N   UNL A   1      39.858  33.552  30.507  1.00  0.00    -0.354 N 
ATOM     58  N   UNL A   1      42.761  31.039  30.106  1.00  0.00    -0.248 NA
ATOM     59  C   UNL A   1      45.037  30.999  29.832  1.00  0.00     0.031 C 
ATOM     60  C   UNL A   1      40.727  32.610  32.271  1.00  0.00     0.029 A 
ATOM     61  C   UNL A   1      41.056  33.129  31.027  1.00  0.00     0.049 A 
ATOM     62  H   UNL A   1      39.782  34.073  29.675  1.00  0.00     0.167 HD
ATOM     63  C   UNL A   1      43.146  32.346  30.086  1.00  0.00     0.074 A 
ATOM     64  C   UNL A   1      44.584  32.264  29.901  1.00  0.00     0.031 C 
ATOM     65  C   UNL A   1      42.276  33.390  30.260  1.00  0.00     0.037 A 
BRANCH  52  66
ATOM     66  C   UNL A   1      36.161  33.575  31.278  1.00  0.00     0.064 A 
ATOM     67  C   UNL A   1      35.299  34.431  30.558  1.00  0.00     0.173 A 
ATOM     68  C   UNL A   1      35.663  33.209  32.554  1.00  0.00     0.173 A 
ATOM     69  F   UNL A   1      35.623  34.860  29.330  1.00  0.00    -0.203 F 
ATOM     70  C   UNL A   1      34.063  34.867  31.052  1.00  0.00     0.198 A 
ATOM     71  C   UNL A   1      34.410  33.620  33.035  1.00  0.00     0.198 A 
ATOM     72  F   UNL A   1      36.354  32.463  33.419  1.00  0.00    -0.203 F 
ATOM     73  F   UNL A   1      33.307  35.689  30.312  1.00  0.00    -0.200 F 
ATOM     74  C   UNL A   1      33.610  34.449  32.284  1.00  0.00     0.200 A 
ATOM     75  F   UNL A   1      33.990  33.203  34.240  1.00  0.00    -0.200 F 
ATOM     76  F   UNL A   1      32.416  34.843  32.745  1.00  0.00    -0.200 F 
ENDBRANCH  52  66
BRANCH  53  77
ATOM     77  C   UNL A   1      44.104  27.609  29.270  1.00  0.00     0.064 A 
ATOM     78  C   UNL A   1      44.263  27.952  27.898  1.00  0.00     0.173 A 
ATOM     79  C   UNL A   1      44.671  26.390  29.654  1.00  0.00     0.173 A 
ATOM     80  F   UNL A   1      43.688  29.071  27.426  1.00  0.00    -0.203 F 
ATOM     81  C   UNL A   1      45.097  27.238  27.031  1.00  0.00     0.198 A 
ATOM     82  C   UNL A   1      45.449  25.629  28.751  1.00  0.00     0.198 A 
ATOM     83  F   UNL A   1      44.640  26.002  30.938  1.00  0.00    -0.203 F 
ATOM     84  F   UNL A   1      45.349  27.704  25.798  1.00  0.00    -0.200 F 
ATOM     85  C   UNL A   1      45.716  26.089  27.470  1.00  0.00     0.200 A 
ATOM     86  F   UNL A   1      46.106  24.542  29.191  1.00  0.00    -0.200 F 
ATOM     87  F   UNL A   1      46.616  25.461  26.696  1.00  0.00    -0.200 F 
ENDBRANCH  53  77
BRANCH  65  88
ATOM     88  C   UNL A   1      42.534  34.803  29.750  1.00  0.00     0.064 A 
ATOM     89  C   UNL A   1      41.874  35.360  28.643  1.00  0.00     0.173 A 
ATOM     90  C   UNL A   1      43.381  35.713  30.441  1.00  0.00     0.173 A 
ATOM     91  F   UNL A   1      40.870  34.730  28.021  1.00  0.00    -0.203 F 
ATOM     92  C   UNL A   1      42.180  36.632  28.158  1.00  0.00     0.198 A 
ATOM     93  C   UNL A   1      43.580  37.025  30.031  1.00  0.00     0.198 A 
ATOM     94  F   UNL A   1      44.043  35.390  31.559  1.00  0.00    -0.203 F 
ATOM     95  F   UNL A   1      41.625  37.049  27.014  1.00  0.00    -0.200 F 
ATOM     96  C   UNL A   1      43.028  37.467  28.854  1.00  0.00     0.200 A 
ATOM     97  F   UNL A   1      44.314  37.851  30.790  1.00  0.00    -0.200 F 
ATOM     98  F   UNL A   1      43.297  38.697  28.403  1.00  0.00    -0.200 F 
ENDBRANCH  65  88
ENDBRANCH  39  40
ENDBRANCH  32  34
ENDBRANCH  31  32
ENDBRANCH  30  31
ENDBRANCH  29  30
ENDBRANCH   1  29
TORSDOF 16
ENDMDL
