MODEL 1
REMARK VINA RESULT:     -12.6      0.000      0.000
REMARK SMILES Cn1c(SCC(=O)Nc2cccc(C(=O)OCCOC(=O)c3ccc(-c4c5nc(c(-c6c(F)c(F)c(F)c(F)c6F)c6ccc([nH]6)c(-c6c(F)c(F)c(F)c(F)c6F)c6nc(c(-c7c(F)c(F)c(F)c(F)c7F)c7ccc4[nH]7)C=C6)C=C5)cc3)c2)nnc1[C@@H]1CCCN1C(=O)c1ccccc1Cl
REMARK SMILES IDX 14 1 15 2 13 3 9 4 10 5 85 6 11 7 12 8 8 9 6 10 7 11 5 13
REMARK SMILES IDX 4 14 3 15 1 16 2 17 88 18 86 19 87 20 89 21 90 22 93 23
REMARK SMILES IDX 91 24 92 25 94 26 95 27 96 28 97 29 101 30 98 31 100 32
REMARK SMILES IDX 102 33 99 34 16 35 17 36 18 37 19 38 20 39 21 40 22 41 23 42
REMARK SMILES IDX 84 43 24 44 83 45 25 46 26 47 27 48 77 49 28 50 82 51 76 52
REMARK SMILES IDX 78 53 29 54 81 55 75 56 74 57 30 59 62 60 42 61 61 62 43 63
REMARK SMILES IDX 46 64 60 65 79 66 44 67 45 68 59 70 80 71 47 72 31 73 32 74
REMARK SMILES IDX 40 75 33 76 34 77 38 78 41 79 35 80 36 81 39 82 37 83 63 84
REMARK SMILES IDX 64 85 72 86 65 87 66 88 70 89 73 90 67 91 68 92 71 93 69 94
REMARK SMILES IDX 48 95 49 96 57 97 50 98 51 99 55 100 58 101 52 102 53 103
REMARK SMILES IDX 56 104 54 105
REMARK H PARENT 8 12 78 58 46 69
REMARK Flexibility Score: inf
ROOT
ATOM      1  C   UNL A   1      41.168  21.427  26.663  1.00  0.00     0.338 C 
ATOM      2  O   UNL A   1      42.106  21.982  27.217  1.00  0.00    -0.246 OA
ENDROOT
BRANCH   1   3
ATOM      3  C   UNL A   1      39.899  22.137  26.350  1.00  0.00     0.062 A 
ATOM      4  C   UNL A   1      37.584  22.041  25.753  1.00  0.00     0.042 A 
ATOM      5  C   UNL A   1      37.419  23.395  26.026  1.00  0.00     0.026 A 
ATOM      6  C   UNL A   1      38.845  21.465  25.752  1.00  0.00     0.041 A 
ATOM      7  C   UNL A   1      38.500  24.118  26.519  1.00  0.00     0.003 A 
ATOM      8  C   UNL A   1      39.715  23.468  26.755  1.00  0.00     0.016 A 
BRANCH   4   9
ATOM      9  N   UNL A   1      36.448  21.240  25.656  1.00  0.00    -0.325 N 
ATOM     10  C   UNL A   1      35.462  21.381  24.712  1.00  0.00     0.234 C 
ATOM     11  O   UNL A   1      34.637  20.463  24.625  1.00  0.00    -0.274 OA
ATOM     12  H   UNL A   1      36.345  20.515  26.315  1.00  0.00     0.169 HD
BRANCH  10  13
ATOM     13  C   UNL A   1      35.477  22.482  23.664  1.00  0.00     0.178 C 
BRANCH  13  14
ATOM     14  S   UNL A   1      33.982  22.961  22.820  1.00  0.00    -0.076 SA
BRANCH  14  15
ATOM     15  C   UNL A   1      33.550  24.598  23.145  1.00  0.00     0.191 A 
ATOM     16  C   UNL A   1      31.817  24.404  24.967  1.00  0.00     0.154 C 
ATOM     17  N   UNL A   1      32.482  25.047  23.871  1.00  0.00    -0.307 N 
ATOM     18  C   UNL A   1      32.189  26.291  23.358  1.00  0.00     0.156 A 
ATOM     19  N   UNL A   1      34.025  25.591  22.424  1.00  0.00    -0.123 NA
ATOM     20  N   UNL A   1      33.180  26.660  22.568  1.00  0.00    -0.132 NA
BRANCH  18  21
ATOM     21  C   UNL A   1      30.953  27.085  23.588  1.00  0.00     0.154 C 
ATOM     22  C   UNL A   1      30.503  27.859  22.342  1.00  0.00     0.035 C 
ATOM     23  N   UNL A   1      31.043  28.105  24.644  1.00  0.00    -0.328 N 
ATOM     24  C   UNL A   1      29.694  29.017  22.905  1.00  0.00     0.024 C 
ATOM     25  C   UNL A   1      30.332  29.311  24.253  1.00  0.00     0.120 C 
BRANCH  23  26
ATOM     26  C   UNL A   1      31.429  27.986  25.974  1.00  0.00     0.255 C 
ATOM     27  O   UNL A   1      30.870  27.227  26.764  1.00  0.00    -0.269 OA
BRANCH  26  28
ATOM     28  C   UNL A   1      32.463  28.868  26.541  1.00  0.00     0.058 A 
ATOM     29  C   UNL A   1      32.152  30.190  26.875  1.00  0.00     0.015 A 
ATOM     30  C   UNL A   1      33.790  28.422  26.613  1.00  0.00     0.053 A 
ATOM     31  C   UNL A   1      33.157  31.037  27.355  1.00  0.00     0.001 A 
ATOM     32  C   UNL A   1      34.786  29.271  27.102  1.00  0.00     0.021 A 
ATOM     33  Cl  UNL A   1      34.269  26.834  26.125  1.00  0.00    -0.083 Cl
ATOM     34  C   UNL A   1      34.467  30.572  27.489  1.00  0.00     0.002 A 
ENDBRANCH  26  28
ENDBRANCH  23  26
ENDBRANCH  18  21
ENDBRANCH  14  15
ENDBRANCH  13  14
ENDBRANCH  10  13
ENDBRANCH   4   9
ENDBRANCH   1   3
BRANCH   1  35
ATOM     35  O   UNL A   1      41.139  20.159  26.196  1.00  0.00    -0.458 OA
BRANCH  35  36
ATOM     36  C   UNL A   1      41.973  19.193  26.864  1.00  0.00     0.275 C 
BRANCH  36  37
ATOM     37  C   UNL A   1      42.844  18.450  25.850  1.00  0.00     0.275 C 
BRANCH  37  38
ATOM     38  O   UNL A   1      43.170  19.324  24.752  1.00  0.00    -0.458 OA
BRANCH  38  39
ATOM     39  C   UNL A   1      44.491  19.459  24.500  1.00  0.00     0.338 C 
ATOM     40  O   UNL A   1      45.271  18.619  24.087  1.00  0.00    -0.246 OA
BRANCH  39  41
ATOM     41  C   UNL A   1      44.877  20.865  24.666  1.00  0.00     0.060 A 
ATOM     42  C   UNL A   1      45.522  21.216  25.846  1.00  0.00     0.016 A 
ATOM     43  C   UNL A   1      44.466  21.852  23.779  1.00  0.00     0.016 A 
ATOM     44  C   UNL A   1      45.686  22.541  26.208  1.00  0.00     0.010 A 
ATOM     45  C   UNL A   1      44.721  23.194  24.093  1.00  0.00     0.010 A 
ATOM     46  C   UNL A   1      45.301  23.552  25.327  1.00  0.00    -0.014 A 
BRANCH  46  47
ATOM     47  C   UNL A   1      45.452  24.970  25.739  1.00  0.00     0.031 A 
ATOM     48  C   UNL A   1      46.783  25.649  25.599  1.00  0.00     0.074 A 
ATOM     49  C   UNL A   1      44.391  25.660  26.200  1.00  0.00     0.049 A 
ATOM     50  N   UNL A   1      47.173  26.814  26.050  1.00  0.00    -0.248 NA
ATOM     51  C   UNL A   1      47.820  24.911  24.863  1.00  0.00     0.031 C 
ATOM     52  C   UNL A   1      43.028  25.139  26.320  1.00  0.00     0.029 A 
ATOM     53  N   UNL A   1      44.292  26.952  26.654  1.00  0.00    -0.354 N 
ATOM     54  C   UNL A   1      48.515  26.919  25.710  1.00  0.00     0.074 A 
ATOM     55  C   UNL A   1      48.874  25.696  25.024  1.00  0.00     0.031 C 
ATOM     56  C   UNL A   1      42.228  26.103  26.796  1.00  0.00     0.029 A 
ATOM     57  C   UNL A   1      43.038  27.276  27.105  1.00  0.00     0.049 A 
ATOM     58  H   UNL A   1      45.048  27.584  26.657  1.00  0.00     0.167 HD
ATOM     59  C   UNL A   1      49.367  27.945  25.951  1.00  0.00     0.037 A 
ATOM     60  C   UNL A   1      42.595  28.372  27.750  1.00  0.00     0.037 A 
ATOM     61  C   UNL A   1      48.983  29.172  26.601  1.00  0.00     0.049 A 
ATOM     62  C   UNL A   1      43.564  29.476  28.055  1.00  0.00     0.074 A 
ATOM     63  C   UNL A   1      49.759  30.284  26.878  1.00  0.00     0.029 A 
ATOM     64  N   UNL A   1      47.707  29.448  27.075  1.00  0.00    -0.354 N 
ATOM     65  N   UNL A   1      44.842  29.556  27.770  1.00  0.00    -0.248 NA
ATOM     66  C   UNL A   1      43.036  30.636  28.782  1.00  0.00     0.031 C 
ATOM     67  C   UNL A   1      48.967  31.208  27.569  1.00  0.00     0.029 A 
ATOM     68  C   UNL A   1      47.680  30.702  27.668  1.00  0.00     0.049 A 
ATOM     69  H   UNL A   1      46.934  28.842  27.002  1.00  0.00     0.167 HD
ATOM     70  C   UNL A   1      45.271  30.775  28.275  1.00  0.00     0.074 A 
ATOM     71  C   UNL A   1      44.108  31.413  28.860  1.00  0.00     0.031 C 
ATOM     72  C   UNL A   1      46.515  31.315  28.258  1.00  0.00     0.037 A 
BRANCH  59  73
ATOM     73  C   UNL A   1      50.807  27.750  25.563  1.00  0.00     0.064 A 
ATOM     74  C   UNL A   1      51.783  27.337  26.481  1.00  0.00     0.173 A 
ATOM     75  C   UNL A   1      51.218  28.004  24.245  1.00  0.00     0.173 A 
ATOM     76  F   UNL A   1      51.449  27.094  27.759  1.00  0.00    -0.203 F 
ATOM     77  C   UNL A   1      53.123  27.236  26.109  1.00  0.00     0.198 A 
ATOM     78  C   UNL A   1      52.551  27.865  23.866  1.00  0.00     0.198 A 
ATOM     79  F   UNL A   1      50.327  28.395  23.321  1.00  0.00    -0.203 F 
ATOM     80  F   UNL A   1      54.048  26.914  27.025  1.00  0.00    -0.200 F 
ATOM     81  C   UNL A   1      53.505  27.496  24.802  1.00  0.00     0.200 A 
ATOM     82  F   UNL A   1      52.915  28.103  22.599  1.00  0.00    -0.200 F 
ATOM     83  F   UNL A   1      54.794  27.404  24.448  1.00  0.00    -0.200 F 
ENDBRANCH  59  73
BRANCH  60  84
ATOM     84  C   UNL A   1      41.177  28.435  28.190  1.00  0.00     0.064 A 
ATOM     85  C   UNL A   1      40.793  28.010  29.468  1.00  0.00     0.173 A 
ATOM     86  C   UNL A   1      40.182  28.969  27.354  1.00  0.00     0.173 A 
ATOM     87  F   UNL A   1      41.702  27.472  30.294  1.00  0.00    -0.203 F 
ATOM     88  C   UNL A   1      39.471  28.117  29.894  1.00  0.00     0.198 A 
ATOM     89  C   UNL A   1      38.868  29.105  27.793  1.00  0.00     0.198 A 
ATOM     90  F   UNL A   1      40.497  29.392  26.121  1.00  0.00    -0.203 F 
ATOM     91  F   UNL A   1      39.125  27.677  31.112  1.00  0.00    -0.200 F 
ATOM     92  C   UNL A   1      38.512  28.675  29.062  1.00  0.00     0.200 A 
ATOM     93  F   UNL A   1      37.951  29.663  26.992  1.00  0.00    -0.200 F 
ATOM     94  F   UNL A   1      37.246  28.798  29.483  1.00  0.00    -0.200 F 
ENDBRANCH  60  84
BRANCH  72  95
ATOM     95  C   UNL A   1      46.674  32.674  28.878  1.00  0.00     0.064 A 
ATOM     96  C   UNL A   1      46.455  33.849  28.144  1.00  0.00     0.173 A 
ATOM     97  C   UNL A   1      47.029  32.800  30.229  1.00  0.00     0.173 A 
ATOM     98  F   UNL A   1      46.131  33.783  26.844  1.00  0.00    -0.203 F 
ATOM     99  C   UNL A   1      46.614  35.101  28.733  1.00  0.00     0.198 A 
ATOM    100  C   UNL A   1      47.154  34.053  30.824  1.00  0.00     0.198 A 
ATOM    101  F   UNL A   1      47.245  31.708  30.978  1.00  0.00    -0.203 F 
ATOM    102  F   UNL A   1      46.454  36.210  27.998  1.00  0.00    -0.200 F 
ATOM    103  C   UNL A   1      46.956  35.201  30.073  1.00  0.00     0.200 A 
ATOM    104  F   UNL A   1      47.470  34.148  32.123  1.00  0.00    -0.200 F 
ATOM    105  F   UNL A   1      47.104  36.407  30.640  1.00  0.00    -0.200 F 
ENDBRANCH  72  95
ENDBRANCH  46  47
ENDBRANCH  39  41
ENDBRANCH  38  39
ENDBRANCH  37  38
ENDBRANCH  36  37
ENDBRANCH  35  36
ENDBRANCH   1  35
TORSDOF 18
ENDMDL
MODEL 2
REMARK VINA RESULT:     -11.8      6.290     11.849
REMARK SMILES Cn1c(SCC(=O)Nc2cccc(C(=O)OCCOC(=O)c3ccc(-c4c5nc(c(-c6c(F)c(F)c(F)c(F)c6F)c6ccc([nH]6)c(-c6c(F)c(F)c(F)c(F)c6F)c6nc(c(-c7c(F)c(F)c(F)c(F)c7F)c7ccc4[nH]7)C=C6)C=C5)cc3)c2)nnc1[C@@H]1CCCN1C(=O)c1ccccc1Cl
REMARK SMILES IDX 14 1 15 2 13 3 9 4 10 5 85 6 11 7 12 8 8 9 6 10 7 11 5 13
REMARK SMILES IDX 4 14 3 15 1 16 2 17 88 18 86 19 87 20 89 21 90 22 93 23
REMARK SMILES IDX 91 24 92 25 94 26 95 27 96 28 97 29 101 30 98 31 100 32
REMARK SMILES IDX 102 33 99 34 16 35 17 36 18 37 19 38 20 39 21 40 22 41 23 42
REMARK SMILES IDX 84 43 24 44 83 45 25 46 26 47 27 48 77 49 28 50 82 51 76 52
REMARK SMILES IDX 78 53 29 54 81 55 75 56 74 57 30 59 62 60 42 61 61 62 43 63
REMARK SMILES IDX 46 64 60 65 79 66 44 67 45 68 59 70 80 71 47 72 31 73 32 74
REMARK SMILES IDX 40 75 33 76 34 77 38 78 41 79 35 80 36 81 39 82 37 83 63 84
REMARK SMILES IDX 64 85 72 86 65 87 66 88 70 89 73 90 67 91 68 92 71 93 69 94
REMARK SMILES IDX 48 95 49 96 57 97 50 98 51 99 55 100 58 101 52 102 53 103
REMARK SMILES IDX 56 104 54 105
REMARK H PARENT 8 12 78 58 46 69
REMARK Flexibility Score: inf
ROOT
ATOM      1  C   UNL A   1      32.719  29.853  26.768  1.00  0.00     0.338 C 
ATOM      2  O   UNL A   1      32.876  29.186  27.781  1.00  0.00    -0.246 OA
ENDROOT
BRANCH   1   3
ATOM      3  C   UNL A   1      32.752  29.249  25.409  1.00  0.00     0.062 A 
ATOM      4  C   UNL A   1      31.645  28.793  23.337  1.00  0.00     0.042 A 
ATOM      5  C   UNL A   1      32.837  28.385  22.747  1.00  0.00     0.026 A 
ATOM      6  C   UNL A   1      31.578  29.057  24.696  1.00  0.00     0.041 A 
ATOM      7  C   UNL A   1      34.013  28.460  23.487  1.00  0.00     0.003 A 
ATOM      8  C   UNL A   1      33.978  28.968  24.788  1.00  0.00     0.016 A 
BRANCH   4   9
ATOM      9  N   UNL A   1      30.567  29.103  22.510  1.00  0.00    -0.325 N 
ATOM     10  C   UNL A   1      29.309  28.566  22.620  1.00  0.00     0.234 C 
ATOM     11  O   UNL A   1      28.413  29.102  21.956  1.00  0.00    -0.274 OA
ATOM     12  H   UNL A   1      30.719  29.759  21.792  1.00  0.00     0.169 HD
BRANCH  10  13
ATOM     13  C   UNL A   1      28.951  27.515  23.659  1.00  0.00     0.178 C 
BRANCH  13  14
ATOM     14  S   UNL A   1      29.633  25.870  23.566  1.00  0.00    -0.076 SA
BRANCH  14  15
ATOM     15  C   UNL A   1      30.786  25.576  24.814  1.00  0.00     0.191 A 
ATOM     16  C   UNL A   1      32.833  24.804  23.560  1.00  0.00     0.154 C 
ATOM     17  N   UNL A   1      31.976  24.914  24.705  1.00  0.00    -0.307 N 
ATOM     18  C   UNL A   1      32.221  24.393  25.957  1.00  0.00     0.156 A 
ATOM     19  N   UNL A   1      30.462  25.666  26.086  1.00  0.00    -0.123 NA
ATOM     20  N   UNL A   1      31.370  24.936  26.807  1.00  0.00    -0.132 NA
BRANCH  18  21
ATOM     21  C   UNL A   1      33.225  23.357  26.315  1.00  0.00     0.154 C 
ATOM     22  C   UNL A   1      34.669  23.860  26.187  1.00  0.00     0.035 C 
ATOM     23  N   UNL A   1      33.187  22.131  25.505  1.00  0.00    -0.328 N 
ATOM     24  C   UNL A   1      35.478  22.590  25.969  1.00  0.00     0.024 C 
ATOM     25  C   UNL A   1      34.533  21.655  25.232  1.00  0.00     0.120 C 
BRANCH  23  26
ATOM     26  C   UNL A   1      32.131  21.268  25.233  1.00  0.00     0.255 C 
ATOM     27  O   UNL A   1      30.965  21.529  25.529  1.00  0.00    -0.269 OA
BRANCH  26  28
ATOM     28  C   UNL A   1      32.377  19.927  24.677  1.00  0.00     0.058 A 
ATOM     29  C   UNL A   1      32.818  18.893  25.510  1.00  0.00     0.015 A 
ATOM     30  C   UNL A   1      32.303  19.727  23.292  1.00  0.00     0.053 A 
ATOM     31  C   UNL A   1      33.107  17.639  24.960  1.00  0.00     0.001 A 
ATOM     32  C   UNL A   1      32.584  18.469  22.753  1.00  0.00     0.021 A 
ATOM     33  Cl  UNL A   1      31.861  20.983  22.189  1.00  0.00    -0.083 Cl
ATOM     34  C   UNL A   1      32.970  17.421  23.587  1.00  0.00     0.002 A 
ENDBRANCH  26  28
ENDBRANCH  23  26
ENDBRANCH  18  21
ENDBRANCH  14  15
ENDBRANCH  13  14
ENDBRANCH  10  13
ENDBRANCH   4   9
ENDBRANCH   1   3
BRANCH   1  35
ATOM     35  O   UNL A   1      32.433  31.172  26.703  1.00  0.00    -0.458 OA
BRANCH  35  36
ATOM     36  C   UNL A   1      33.108  32.038  27.636  1.00  0.00     0.275 C 
BRANCH  36  37
ATOM     37  C   UNL A   1      32.886  33.503  27.260  1.00  0.00     0.275 C 
BRANCH  37  38
ATOM     38  O   UNL A   1      32.333  34.217  28.382  1.00  0.00    -0.458 OA
BRANCH  38  39
ATOM     39  C   UNL A   1      33.091  35.236  28.843  1.00  0.00     0.338 C 
ATOM     40  O   UNL A   1      32.904  36.434  28.720  1.00  0.00    -0.246 OA
BRANCH  39  41
ATOM     41  C   UNL A   1      34.170  34.700  29.681  1.00  0.00     0.060 A 
ATOM     42  C   UNL A   1      35.444  34.652  29.129  1.00  0.00     0.016 A 
ATOM     43  C   UNL A   1      33.920  34.092  30.905  1.00  0.00     0.016 A 
ATOM     44  C   UNL A   1      36.461  33.931  29.730  1.00  0.00     0.010 A 
ATOM     45  C   UNL A   1      34.972  33.446  31.569  1.00  0.00     0.010 A 
ATOM     46  C   UNL A   1      36.243  33.329  30.969  1.00  0.00    -0.014 A 
BRANCH  46  47
ATOM     47  C   UNL A   1      37.330  32.530  31.589  1.00  0.00     0.031 A 
ATOM     48  C   UNL A   1      37.787  32.849  32.983  1.00  0.00     0.074 A 
ATOM     49  C   UNL A   1      37.879  31.497  30.922  1.00  0.00     0.049 A 
ATOM     50  N   UNL A   1      38.822  32.395  33.642  1.00  0.00    -0.248 NA
ATOM     51  C   UNL A   1      36.977  33.822  33.731  1.00  0.00     0.031 C 
ATOM     52  C   UNL A   1      37.478  31.039  29.590  1.00  0.00     0.029 A 
ATOM     53  N   UNL A   1      38.894  30.642  31.274  1.00  0.00    -0.354 N 
ATOM     54  C   UNL A   1      38.824  33.073  34.854  1.00  0.00     0.074 A 
ATOM     55  C   UNL A   1      37.694  33.976  34.833  1.00  0.00     0.031 C 
ATOM     56  C   UNL A   1      38.223  29.979  29.246  1.00  0.00     0.029 A 
ATOM     57  C   UNL A   1      39.217  29.745  30.287  1.00  0.00     0.049 A 
ATOM     58  H   UNL A   1      39.347  30.671  32.148  1.00  0.00     0.167 HD
ATOM     59  C   UNL A   1      39.694  32.951  35.885  1.00  0.00     0.037 A 
ATOM     60  C   UNL A   1      40.234  28.868  30.200  1.00  0.00     0.037 A 
ATOM     61  C   UNL A   1      40.792  32.018  35.904  1.00  0.00     0.049 A 
ATOM     62  C   UNL A   1      41.218  28.782  31.331  1.00  0.00     0.074 A 
ATOM     63  C   UNL A   1      41.722  31.796  36.905  1.00  0.00     0.029 A 
ATOM     64  N   UNL A   1      41.107  31.148  34.868  1.00  0.00    -0.354 N 
ATOM     65  N   UNL A   1      41.243  29.453  32.457  1.00  0.00    -0.248 NA
ATOM     66  C   UNL A   1      42.322  27.828  31.175  1.00  0.00     0.031 C 
ATOM     67  C   UNL A   1      42.630  30.833  36.452  1.00  0.00     0.029 A 
ATOM     68  C   UNL A   1      42.233  30.407  35.194  1.00  0.00     0.049 A 
ATOM     69  H   UNL A   1      40.604  31.069  34.025  1.00  0.00     0.167 HD
ATOM     70  C   UNL A   1      42.357  29.001  33.147  1.00  0.00     0.074 A 
ATOM     71  C   UNL A   1      42.967  27.976  32.323  1.00  0.00     0.031 C 
ATOM     72  C   UNL A   1      42.834  29.400  34.354  1.00  0.00     0.037 A 
BRANCH  59  73
ATOM     73  C   UNL A   1      39.522  33.891  37.046  1.00  0.00     0.064 A 
ATOM     74  C   UNL A   1      40.078  35.179  37.058  1.00  0.00     0.173 A 
ATOM     75  C   UNL A   1      38.801  33.483  38.179  1.00  0.00     0.173 A 
ATOM     76  F   UNL A   1      40.790  35.617  36.007  1.00  0.00    -0.203 F 
ATOM     77  C   UNL A   1      39.964  36.001  38.177  1.00  0.00     0.198 A 
ATOM     78  C   UNL A   1      38.655  34.321  39.281  1.00  0.00     0.198 A 
ATOM     79  F   UNL A   1      38.240  32.265  38.222  1.00  0.00    -0.203 F 
ATOM     80  F   UNL A   1      40.570  37.197  38.193  1.00  0.00    -0.200 F 
ATOM     81  C   UNL A   1      39.249  35.573  39.286  1.00  0.00     0.200 A 
ATOM     82  F   UNL A   1      37.952  33.910  40.345  1.00  0.00    -0.200 F 
ATOM     83  F   UNL A   1      39.146  36.363  40.364  1.00  0.00    -0.200 F 
ENDBRANCH  59  73
BRANCH  60  84
ATOM     84  C   UNL A   1      40.388  28.049  28.969  1.00  0.00     0.064 A 
ATOM     85  C   UNL A   1      39.730  26.822  28.827  1.00  0.00     0.173 A 
ATOM     86  C   UNL A   1      41.162  28.505  27.889  1.00  0.00     0.173 A 
ATOM     87  F   UNL A   1      38.998  26.334  29.839  1.00  0.00    -0.203 F 
ATOM     88  C   UNL A   1      39.836  26.082  27.651  1.00  0.00     0.198 A 
ATOM     89  C   UNL A   1      41.242  27.780  26.703  1.00  0.00     0.198 A 
ATOM     90  F   UNL A   1      41.812  29.675  27.974  1.00  0.00    -0.203 F 
ATOM     91  F   UNL A   1      39.219  24.897  27.550  1.00  0.00    -0.200 F 
ATOM     92  C   UNL A   1      40.582  26.566  26.586  1.00  0.00     0.200 A 
ATOM     93  F   UNL A   1      41.947  28.261  25.671  1.00  0.00    -0.200 F 
ATOM     94  F   UNL A   1      40.665  25.863  25.449  1.00  0.00    -0.200 F 
ENDBRANCH  60  84
BRANCH  72  95
ATOM     95  C   UNL A   1      44.069  28.710  34.858  1.00  0.00     0.064 A 
ATOM     96  C   UNL A   1      45.353  29.218  34.606  1.00  0.00     0.173 A 
ATOM     97  C   UNL A   1      43.965  27.538  35.622  1.00  0.00     0.173 A 
ATOM     98  F   UNL A   1      45.507  30.326  33.865  1.00  0.00    -0.203 F 
ATOM     99  C   UNL A   1      46.488  28.560  35.075  1.00  0.00     0.198 A 
ATOM    100  C   UNL A   1      45.100  26.903  36.118  1.00  0.00     0.198 A 
ATOM    101  F   UNL A   1      42.762  27.013  35.896  1.00  0.00    -0.203 F 
ATOM    102  F   UNL A   1      47.705  29.033  34.775  1.00  0.00    -0.200 F 
ATOM    103  C   UNL A   1      46.359  27.408  35.836  1.00  0.00     0.200 A 
ATOM    104  F   UNL A   1      44.974  25.797  36.865  1.00  0.00    -0.200 F 
ATOM    105  F   UNL A   1      47.452  26.779  36.290  1.00  0.00    -0.200 F 
ENDBRANCH  72  95
ENDBRANCH  46  47
ENDBRANCH  39  41
ENDBRANCH  38  39
ENDBRANCH  37  38
ENDBRANCH  36  37
ENDBRANCH  35  36
ENDBRANCH   1  35
TORSDOF 18
ENDMDL
MODEL 3
REMARK VINA RESULT:     -11.7      6.043     11.093
REMARK SMILES Cn1c(SCC(=O)Nc2cccc(C(=O)OCCOC(=O)c3ccc(-c4c5nc(c(-c6c(F)c(F)c(F)c(F)c6F)c6ccc([nH]6)c(-c6c(F)c(F)c(F)c(F)c6F)c6nc(c(-c7c(F)c(F)c(F)c(F)c7F)c7ccc4[nH]7)C=C6)C=C5)cc3)c2)nnc1[C@@H]1CCCN1C(=O)c1ccccc1Cl
REMARK SMILES IDX 14 1 15 2 13 3 9 4 10 5 85 6 11 7 12 8 8 9 6 10 7 11 5 13
REMARK SMILES IDX 4 14 3 15 1 16 2 17 88 18 86 19 87 20 89 21 90 22 93 23
REMARK SMILES IDX 91 24 92 25 94 26 95 27 96 28 97 29 101 30 98 31 100 32
REMARK SMILES IDX 102 33 99 34 16 35 17 36 18 37 19 38 20 39 21 40 22 41 23 42
REMARK SMILES IDX 84 43 24 44 83 45 25 46 26 47 27 48 77 49 28 50 82 51 76 52
REMARK SMILES IDX 78 53 29 54 81 55 75 56 74 57 30 59 62 60 42 61 61 62 43 63
REMARK SMILES IDX 46 64 60 65 79 66 44 67 45 68 59 70 80 71 47 72 31 73 32 74
REMARK SMILES IDX 40 75 33 76 34 77 38 78 41 79 35 80 36 81 39 82 37 83 63 84
REMARK SMILES IDX 64 85 72 86 65 87 66 88 70 89 73 90 67 91 68 92 71 93 69 94
REMARK SMILES IDX 48 95 49 96 57 97 50 98 51 99 55 100 58 101 52 102 53 103
REMARK SMILES IDX 56 104 54 105
REMARK H PARENT 8 12 78 58 46 69
REMARK Flexibility Score: inf
ROOT
ATOM      1  C   UNL A   1      33.670  29.555  26.720  1.00  0.00     0.338 C 
ATOM      2  O   UNL A   1      34.490  29.108  27.509  1.00  0.00    -0.246 OA
ENDROOT
BRANCH   1   3
ATOM      3  C   UNL A   1      33.295  28.835  25.473  1.00  0.00     0.062 A 
ATOM      4  C   UNL A   1      31.592  27.932  24.055  1.00  0.00     0.042 A 
ATOM      5  C   UNL A   1      32.505  27.737  23.022  1.00  0.00     0.026 A 
ATOM      6  C   UNL A   1      32.020  28.316  25.317  1.00  0.00     0.041 A 
ATOM      7  C   UNL A   1      33.822  28.145  23.203  1.00  0.00     0.003 A 
ATOM      8  C   UNL A   1      34.194  28.766  24.398  1.00  0.00     0.016 A 
BRANCH   4   9
ATOM      9  N   UNL A   1      30.233  27.910  23.753  1.00  0.00    -0.325 N 
ATOM     10  C   UNL A   1      29.406  26.828  23.921  1.00  0.00     0.234 C 
ATOM     11  O   UNL A   1      28.190  27.033  23.814  1.00  0.00    -0.274 OA
ATOM     12  H   UNL A   1      29.833  28.734  23.392  1.00  0.00     0.169 HD
BRANCH  10  13
ATOM     13  C   UNL A   1      29.901  25.484  24.431  1.00  0.00     0.178 C 
BRANCH  13  14
ATOM     14  S   UNL A   1      30.313  24.172  23.297  1.00  0.00    -0.076 SA
BRANCH  14  15
ATOM     15  C   UNL A   1      31.355  23.000  24.012  1.00  0.00     0.191 A 
ATOM     16  C   UNL A   1      33.235  22.781  22.345  1.00  0.00     0.154 C 
ATOM     17  N   UNL A   1      32.392  22.337  23.417  1.00  0.00    -0.307 N 
ATOM     18  C   UNL A   1      32.499  21.143  24.095  1.00  0.00     0.156 A 
ATOM     19  N   UNL A   1      31.027  22.372  25.121  1.00  0.00    -0.123 NA
ATOM     20  N   UNL A   1      31.754  21.213  25.183  1.00  0.00    -0.132 NA
BRANCH  18  21
ATOM     21  C   UNL A   1      33.267  19.941  23.676  1.00  0.00     0.154 C 
ATOM     22  C   UNL A   1      32.408  18.671  23.635  1.00  0.00     0.035 C 
ATOM     23  N   UNL A   1      34.409  19.588  24.531  1.00  0.00    -0.328 N 
ATOM     24  C   UNL A   1      33.414  17.545  23.817  1.00  0.00     0.024 C 
ATOM     25  C   UNL A   1      34.509  18.146  24.683  1.00  0.00     0.120 C 
BRANCH  23  26
ATOM     26  C   UNL A   1      35.493  20.356  24.943  1.00  0.00     0.255 C 
ATOM     27  O   UNL A   1      36.632  19.902  25.039  1.00  0.00    -0.269 OA
BRANCH  26  28
ATOM     28  C   UNL A   1      35.302  21.740  25.409  1.00  0.00     0.058 A 
ATOM     29  C   UNL A   1      34.534  21.997  26.549  1.00  0.00     0.015 A 
ATOM     30  C   UNL A   1      35.776  22.804  24.629  1.00  0.00     0.053 A 
ATOM     31  C   UNL A   1      34.309  23.320  26.947  1.00  0.00     0.001 A 
ATOM     32  C   UNL A   1      35.555  24.121  25.039  1.00  0.00     0.021 A 
ATOM     33  Cl  UNL A   1      36.648  22.567  23.155  1.00  0.00    -0.083 Cl
ATOM     34  C   UNL A   1      34.836  24.379  26.206  1.00  0.00     0.002 A 
ENDBRANCH  26  28
ENDBRANCH  23  26
ENDBRANCH  18  21
ENDBRANCH  14  15
ENDBRANCH  13  14
ENDBRANCH  10  13
ENDBRANCH   4   9
ENDBRANCH   1   3
BRANCH   1  35
ATOM     35  O   UNL A   1      32.942  30.685  26.861  1.00  0.00    -0.458 OA
BRANCH  35  36
ATOM     36  C   UNL A   1      33.517  31.742  27.653  1.00  0.00     0.275 C 
BRANCH  36  37
ATOM     37  C   UNL A   1      32.844  33.077  27.329  1.00  0.00     0.275 C 
BRANCH  37  38
ATOM     38  O   UNL A   1      32.483  33.751  28.550  1.00  0.00    -0.458 OA
BRANCH  38  39
ATOM     39  C   UNL A   1      33.215  34.851  28.834  1.00  0.00     0.338 C 
ATOM     40  O   UNL A   1      32.972  36.013  28.560  1.00  0.00    -0.246 OA
BRANCH  39  41
ATOM     41  C   UNL A   1      34.348  34.473  29.687  1.00  0.00     0.060 A 
ATOM     42  C   UNL A   1      35.622  34.589  29.144  1.00  0.00     0.016 A 
ATOM     43  C   UNL A   1      34.172  33.854  30.917  1.00  0.00     0.016 A 
ATOM     44  C   UNL A   1      36.721  34.017  29.761  1.00  0.00     0.010 A 
ATOM     45  C   UNL A   1      35.295  33.362  31.597  1.00  0.00     0.010 A 
ATOM     46  C   UNL A   1      36.575  33.407  31.007  1.00  0.00    -0.014 A 
BRANCH  46  47
ATOM     47  C   UNL A   1      37.754  32.769  31.645  1.00  0.00     0.031 A 
ATOM     48  C   UNL A   1      38.465  31.649  30.944  1.00  0.00     0.074 A 
ATOM     49  C   UNL A   1      38.211  33.217  32.830  1.00  0.00     0.049 A 
ATOM     50  N   UNL A   1      39.398  30.848  31.391  1.00  0.00    -0.248 NA
ATOM     51  C   UNL A   1      38.061  31.385  29.555  1.00  0.00     0.031 C 
ATOM     52  C   UNL A   1      37.653  34.343  33.583  1.00  0.00     0.029 A 
ATOM     53  N   UNL A   1      39.251  32.780  33.612  1.00  0.00    -0.354 N 
ATOM     54  C   UNL A   1      39.647  29.948  30.363  1.00  0.00     0.074 A 
ATOM     55  C   UNL A   1      38.758  30.295  29.275  1.00  0.00     0.031 C 
ATOM     56  C   UNL A   1      38.366  34.519  34.704  1.00  0.00     0.029 A 
ATOM     57  C   UNL A   1      39.366  33.462  34.797  1.00  0.00     0.049 A 
ATOM     58  H   UNL A   1      39.855  32.048  33.348  1.00  0.00     0.167 HD
ATOM     59  C   UNL A   1      40.535  28.925  30.337  1.00  0.00     0.037 A 
ATOM     60  C   UNL A   1      40.148  33.231  35.868  1.00  0.00     0.037 A 
ATOM     61  C   UNL A   1      41.439  28.618  31.415  1.00  0.00     0.049 A 
ATOM     62  C   UNL A   1      41.090  32.062  35.841  1.00  0.00     0.074 A 
ATOM     63  C   UNL A   1      42.393  27.618  31.487  1.00  0.00     0.029 A 
ATOM     64  N   UNL A   1      41.501  29.313  32.616  1.00  0.00    -0.354 N 
ATOM     65  N   UNL A   1      41.293  31.187  34.886  1.00  0.00    -0.248 NA
ATOM     66  C   UNL A   1      41.901  31.840  37.043  1.00  0.00     0.031 C 
ATOM     67  C   UNL A   1      42.992  27.674  32.750  1.00  0.00     0.029 A 
ATOM     68  C   UNL A   1      42.457  28.747  33.446  1.00  0.00     0.049 A 
ATOM     69  H   UNL A   1      40.945  30.093  32.846  1.00  0.00     0.167 HD
ATOM     70  C   UNL A   1      42.258  30.314  35.366  1.00  0.00     0.074 A 
ATOM     71  C   UNL A   1      42.619  30.784  36.689  1.00  0.00     0.031 C 
ATOM     72  C   UNL A   1      42.794  29.221  34.766  1.00  0.00     0.037 A 
BRANCH  59  73
ATOM     73  C   UNL A   1      40.522  28.034  29.125  1.00  0.00     0.064 A 
ATOM     74  C   UNL A   1      41.281  28.314  27.979  1.00  0.00     0.173 A 
ATOM     75  C   UNL A   1      39.712  26.888  29.106  1.00  0.00     0.173 A 
ATOM     76  F   UNL A   1      42.062  29.405  27.936  1.00  0.00    -0.203 F 
ATOM     77  C   UNL A   1      41.192  27.510  26.844  1.00  0.00     0.198 A 
ATOM     78  C   UNL A   1      39.654  26.064  27.985  1.00  0.00     0.198 A 
ATOM     79  F   UNL A   1      38.969  26.565  30.176  1.00  0.00    -0.203 F 
ATOM     80  F   UNL A   1      41.869  27.841  25.736  1.00  0.00    -0.200 F 
ATOM     81  C   UNL A   1      40.382  26.384  26.849  1.00  0.00     0.200 A 
ATOM     82  F   UNL A   1      38.882  24.969  27.998  1.00  0.00    -0.200 F 
ATOM     83  F   UNL A   1      40.293  25.616  25.755  1.00  0.00    -0.200 F 
ENDBRANCH  59  73
BRANCH  60  84
ATOM     84  C   UNL A   1      40.020  34.102  37.065  1.00  0.00     0.064 A 
ATOM     85  C   UNL A   1      40.737  35.300  37.171  1.00  0.00     0.173 A 
ATOM     86  C   UNL A   1      39.139  33.774  38.109  1.00  0.00     0.173 A 
ATOM     87  F   UNL A   1      41.608  35.645  36.211  1.00  0.00    -0.203 F 
ATOM     88  C   UNL A   1      40.577  36.138  38.272  1.00  0.00     0.198 A 
ATOM     89  C   UNL A   1      38.956  34.628  39.193  1.00  0.00     0.198 A 
ATOM     90  F   UNL A   1      38.428  32.638  38.055  1.00  0.00    -0.203 F 
ATOM     91  F   UNL A   1      41.295  37.266  38.362  1.00  0.00    -0.200 F 
ATOM     92  C   UNL A   1      39.678  35.808  39.276  1.00  0.00     0.200 A 
ATOM     93  F   UNL A   1      38.073  34.314  40.150  1.00  0.00    -0.200 F 
ATOM     94  F   UNL A   1      39.510  36.627  40.323  1.00  0.00    -0.200 F 
ENDBRANCH  60  84
BRANCH  72  95
ATOM     95  C   UNL A   1      43.843  28.470  35.536  1.00  0.00     0.064 A 
ATOM     96  C   UNL A   1      43.505  27.453  36.442  1.00  0.00     0.173 A 
ATOM     97  C   UNL A   1      45.202  28.756  35.347  1.00  0.00     0.173 A 
ATOM     98  F   UNL A   1      42.218  27.153  36.672  1.00  0.00    -0.203 F 
ATOM     99  C   UNL A   1      44.491  26.772  37.153  1.00  0.00     0.198 A 
ATOM    100  C   UNL A   1      46.186  28.051  36.034  1.00  0.00     0.198 A 
ATOM    101  F   UNL A   1      45.580  29.716  34.488  1.00  0.00    -0.203 F 
ATOM    102  F   UNL A   1      44.143  25.845  38.055  1.00  0.00    -0.200 F 
ATOM    103  C   UNL A   1      45.829  27.067  36.943  1.00  0.00     0.200 A 
ATOM    104  F   UNL A   1      47.480  28.327  35.819  1.00  0.00    -0.200 F 
ATOM    105  F   UNL A   1      46.776  26.408  37.624  1.00  0.00    -0.200 F 
ENDBRANCH  72  95
ENDBRANCH  46  47
ENDBRANCH  39  41
ENDBRANCH  38  39
ENDBRANCH  37  38
ENDBRANCH  36  37
ENDBRANCH  35  36
ENDBRANCH   1  35
TORSDOF 18
ENDMDL
