MODEL 1
REMARK VINA RESULT:     -12.1      0.000      0.000
REMARK SMILES C[C@@H](C(=O)OCCOC(=O)c1ccc(-c2c3nc(c(-c4c(F)c(F)c(F)c(F)c4F)c4ccc([nH]4)c(-c4c(F)c(F)c(F)c(F)c4F)c4nc(c(-c5c(F)c(F)c(F)c(F)c5F)c5ccc2[nH]5)C=C4)C=C3)cc1)c1ccc(-c2ccccc2)cc1
REMARK SMILES IDX 6 1 5 2 3 3 4 4 2 5 1 6 74 7 75 8 85 9 76 10 84 11 77 12
REMARK SMILES IDX 78 13 79 14 83 15 80 16 82 17 81 18 7 19 8 20 9 21 10 22
REMARK SMILES IDX 11 23 12 24 73 25 13 26 72 27 14 28 15 29 16 30 66 31 17 32
REMARK SMILES IDX 71 33 65 34 67 35 18 36 70 37 64 38 63 39 19 41 51 42 31 43
REMARK SMILES IDX 50 44 32 45 35 46 49 47 68 48 33 49 34 50 48 52 69 53 36 54
REMARK SMILES IDX 20 55 21 56 29 57 22 58 23 59 27 60 30 61 24 62 25 63 28 64
REMARK SMILES IDX 26 65 52 66 53 67 61 68 54 69 55 70 59 71 62 72 56 73 57 74
REMARK SMILES IDX 60 75 58 76 37 77 38 78 46 79 39 80 40 81 44 82 47 83 41 84
REMARK SMILES IDX 42 85 45 86 43 87
REMARK H PARENT 67 40 35 51
REMARK Flexibility Score: inf
ROOT
ATOM      1  C   UNL A   1      31.487  28.465  24.937  1.00  0.00     0.274 C 
ENDROOT
BRANCH   1   2
ATOM      2  O   UNL A   1      31.275  27.553  26.034  1.00  0.00    -0.462 OA
BRANCH   2   3
ATOM      3  C   UNL A   1      30.766  26.325  25.735  1.00  0.00     0.313 C 
ATOM      4  O   UNL A   1      29.944  25.740  26.433  1.00  0.00    -0.252 OA
BRANCH   3   5
ATOM      5  C   UNL A   1      31.381  25.727  24.458  1.00  0.00     0.126 C 
ATOM      6  C   UNL A   1      30.383  24.864  23.672  1.00  0.00     0.025 C 
BRANCH   5   7
ATOM      7  C   UNL A   1      32.716  25.026  24.732  1.00  0.00    -0.034 A 
ATOM      8  C   UNL A   1      33.060  24.504  25.985  1.00  0.00     0.005 A 
ATOM      9  C   UNL A   1      33.664  24.910  23.701  1.00  0.00     0.005 A 
ATOM     10  C   UNL A   1      34.308  23.900  26.200  1.00  0.00     0.009 A 
ATOM     11  C   UNL A   1      34.915  24.312  23.922  1.00  0.00     0.009 A 
ATOM     12  C   UNL A   1      35.267  23.799  25.180  1.00  0.00    -0.018 A 
BRANCH  12  13
ATOM     13  C   UNL A   1      36.604  23.225  25.449  1.00  0.00    -0.018 A 
ATOM     14  C   UNL A   1      36.935  21.921  25.037  1.00  0.00     0.009 A 
ATOM     15  C   UNL A   1      37.578  23.939  26.170  1.00  0.00     0.009 A 
ATOM     16  C   UNL A   1      38.170  21.346  25.356  1.00  0.00     0.001 A 
ATOM     17  C   UNL A   1      38.815  23.367  26.484  1.00  0.00     0.001 A 
ATOM     18  C   UNL A   1      39.107  22.066  26.088  1.00  0.00     0.000 A 
ENDBRANCH  12  13
ENDBRANCH   5   7
ENDBRANCH   3   5
ENDBRANCH   2   3
ENDBRANCH   1   2
BRANCH   1  19
ATOM     19  C   UNL A   1      31.609  29.894  25.458  1.00  0.00     0.275 C 
BRANCH  19  20
ATOM     20  O   UNL A   1      32.980  30.160  25.796  1.00  0.00    -0.458 OA
BRANCH  20  21
ATOM     21  C   UNL A   1      33.185  31.014  26.825  1.00  0.00     0.338 C 
ATOM     22  O   UNL A   1      32.443  31.889  27.233  1.00  0.00    -0.246 OA
BRANCH  21  23
ATOM     23  C   UNL A   1      34.491  30.718  27.430  1.00  0.00     0.060 A 
ATOM     24  C   UNL A   1      34.868  29.392  27.613  1.00  0.00     0.016 A 
ATOM     25  C   UNL A   1      35.289  31.753  27.919  1.00  0.00     0.016 A 
ATOM     26  C   UNL A   1      36.005  29.093  28.357  1.00  0.00     0.010 A 
ATOM     27  C   UNL A   1      36.474  31.448  28.603  1.00  0.00     0.010 A 
ATOM     28  C   UNL A   1      36.821  30.112  28.868  1.00  0.00    -0.014 A 
BRANCH  28  29
ATOM     29  C   UNL A   1      37.975  29.762  29.742  1.00  0.00     0.031 A 
ATOM     30  C   UNL A   1      39.166  29.042  29.167  1.00  0.00     0.074 A 
ATOM     31  C   UNL A   1      38.004  30.166  31.029  1.00  0.00     0.049 A 
ATOM     32  N   UNL A   1      40.228  28.572  29.777  1.00  0.00    -0.248 NA
ATOM     33  C   UNL A   1      39.159  28.802  27.716  1.00  0.00     0.031 C 
ATOM     34  C   UNL A   1      36.965  30.953  31.691  1.00  0.00     0.029 A 
ATOM     35  N   UNL A   1      38.977  30.028  31.990  1.00  0.00    -0.354 N 
ATOM     36  C   UNL A   1      40.965  27.915  28.800  1.00  0.00     0.074 A 
ATOM     37  C   UNL A   1      40.250  28.067  27.554  1.00  0.00     0.031 C 
ATOM     38  C   UNL A   1      37.406  31.330  32.901  1.00  0.00     0.029 A 
ATOM     39  C   UNL A   1      38.720  30.740  33.136  1.00  0.00     0.049 A 
ATOM     40  H   UNL A   1      39.780  29.470  31.869  1.00  0.00     0.167 HD
ATOM     41  C   UNL A   1      42.125  27.230  28.941  1.00  0.00     0.037 A 
ATOM     42  C   UNL A   1      39.473  30.914  34.239  1.00  0.00     0.037 A 
ATOM     43  C   UNL A   1      42.883  27.157  30.161  1.00  0.00     0.049 A 
ATOM     44  C   UNL A   1      40.781  30.181  34.359  1.00  0.00     0.074 A 
ATOM     45  C   UNL A   1      44.045  26.450  30.419  1.00  0.00     0.029 A 
ATOM     46  N   UNL A   1      42.570  27.850  31.320  1.00  0.00    -0.354 N 
ATOM     47  N   UNL A   1      41.419  29.470  33.463  1.00  0.00    -0.248 NA
ATOM     48  C   UNL A   1      41.456  30.249  35.664  1.00  0.00     0.031 C 
ATOM     49  C   UNL A   1      44.424  26.698  31.744  1.00  0.00     0.029 A 
ATOM     50  C   UNL A   1      43.515  27.585  32.298  1.00  0.00     0.049 A 
ATOM     51  H   UNL A   1      41.793  28.443  31.432  1.00  0.00     0.167 HD
ATOM     52  C   UNL A   1      42.559  28.995  34.097  1.00  0.00     0.074 A 
ATOM     53  C   UNL A   1      42.556  29.546  35.436  1.00  0.00     0.031 C 
ATOM     54  C   UNL A   1      43.506  28.150  33.621  1.00  0.00     0.037 A 
BRANCH  41  55
ATOM     55  C   UNL A   1      42.614  26.444  27.761  1.00  0.00     0.064 A 
ATOM     56  C   UNL A   1      42.186  25.135  27.502  1.00  0.00     0.173 A 
ATOM     57  C   UNL A   1      43.504  27.038  26.852  1.00  0.00     0.173 A 
ATOM     58  F   UNL A   1      41.348  24.519  28.348  1.00  0.00    -0.203 F 
ATOM     59  C   UNL A   1      42.648  24.442  26.385  1.00  0.00     0.198 A 
ATOM     60  C   UNL A   1      43.945  26.352  25.725  1.00  0.00     0.198 A 
ATOM     61  F   UNL A   1      43.939  28.292  27.053  1.00  0.00    -0.203 F 
ATOM     62  F   UNL A   1      42.257  23.178  26.173  1.00  0.00    -0.200 F 
ATOM     63  C   UNL A   1      43.521  25.054  25.495  1.00  0.00     0.200 A 
ATOM     64  F   UNL A   1      44.779  26.949  24.862  1.00  0.00    -0.200 F 
ATOM     65  F   UNL A   1      43.957  24.387  24.417  1.00  0.00    -0.200 F 
ENDBRANCH  41  55
BRANCH  42  66
ATOM     66  C   UNL A   1      39.038  31.852  35.308  1.00  0.00     0.064 A 
ATOM     67  C   UNL A   1      39.369  33.213  35.223  1.00  0.00     0.173 A 
ATOM     68  C   UNL A   1      38.307  31.429  36.424  1.00  0.00     0.173 A 
ATOM     69  F   UNL A   1      40.091  33.662  34.184  1.00  0.00    -0.203 F 
ATOM     70  C   UNL A   1      38.992  34.111  36.218  1.00  0.00     0.198 A 
ATOM     71  C   UNL A   1      37.903  32.333  37.405  1.00  0.00     0.198 A 
ATOM     72  F   UNL A   1      37.972  30.137  36.559  1.00  0.00    -0.203 F 
ATOM     73  F   UNL A   1      39.359  35.396  36.132  1.00  0.00    -0.200 F 
ATOM     74  C   UNL A   1      38.252  33.672  37.305  1.00  0.00     0.200 A 
ATOM     75  F   UNL A   1      37.178  31.908  38.448  1.00  0.00    -0.200 F 
ATOM     76  F   UNL A   1      37.884  34.536  38.260  1.00  0.00    -0.200 F 
ENDBRANCH  42  66
BRANCH  54  77
ATOM     77  C   UNL A   1      44.614  27.762  34.554  1.00  0.00     0.064 A 
ATOM     78  C   UNL A   1      45.775  28.543  34.665  1.00  0.00     0.173 A 
ATOM     79  C   UNL A   1      44.495  26.636  35.381  1.00  0.00     0.173 A 
ATOM     80  F   UNL A   1      45.939  29.623  33.886  1.00  0.00    -0.203 F 
ATOM     81  C   UNL A   1      46.785  28.197  35.557  1.00  0.00     0.198 A 
ATOM     82  C   UNL A   1      45.498  26.307  36.289  1.00  0.00     0.198 A 
ATOM     83  F   UNL A   1      43.401  25.863  35.317  1.00  0.00    -0.203 F 
ATOM     84  F   UNL A   1      47.902  28.936  35.620  1.00  0.00    -0.200 F 
ATOM     85  C   UNL A   1      46.644  27.085  36.372  1.00  0.00     0.200 A 
ATOM     86  F   UNL A   1      45.356  25.238  37.083  1.00  0.00    -0.200 F 
ATOM     87  F   UNL A   1      47.616  26.757  37.235  1.00  0.00    -0.200 F 
ENDBRANCH  54  77
ENDBRANCH  28  29
ENDBRANCH  21  23
ENDBRANCH  20  21
ENDBRANCH  19  20
ENDBRANCH   1  19
TORSDOF 13
ENDMDL
MODEL 2
REMARK VINA RESULT:     -11.9      1.622      2.335
REMARK SMILES C[C@@H](C(=O)OCCOC(=O)c1ccc(-c2c3nc(c(-c4c(F)c(F)c(F)c(F)c4F)c4ccc([nH]4)c(-c4c(F)c(F)c(F)c(F)c4F)c4nc(c(-c5c(F)c(F)c(F)c(F)c5F)c5ccc2[nH]5)C=C4)C=C3)cc1)c1ccc(-c2ccccc2)cc1
REMARK SMILES IDX 6 1 5 2 3 3 4 4 2 5 1 6 74 7 75 8 85 9 76 10 84 11 77 12
REMARK SMILES IDX 78 13 79 14 83 15 80 16 82 17 81 18 7 19 8 20 9 21 10 22
REMARK SMILES IDX 11 23 12 24 73 25 13 26 72 27 14 28 15 29 16 30 66 31 17 32
REMARK SMILES IDX 71 33 65 34 67 35 18 36 70 37 64 38 63 39 19 41 51 42 31 43
REMARK SMILES IDX 50 44 32 45 35 46 49 47 68 48 33 49 34 50 48 52 69 53 36 54
REMARK SMILES IDX 20 55 21 56 29 57 22 58 23 59 27 60 30 61 24 62 25 63 28 64
REMARK SMILES IDX 26 65 52 66 53 67 61 68 54 69 55 70 59 71 62 72 56 73 57 74
REMARK SMILES IDX 60 75 58 76 37 77 38 78 46 79 39 80 40 81 44 82 47 83 41 84
REMARK SMILES IDX 42 85 45 86 43 87
REMARK H PARENT 67 40 35 51
REMARK Flexibility Score: inf
ROOT
ATOM      1  C   UNL A   1      31.269  28.810  24.618  1.00  0.00     0.274 C 
ENDROOT
BRANCH   1   2
ATOM      2  O   UNL A   1      31.205  27.645  25.467  1.00  0.00    -0.462 OA
BRANCH   2   3
ATOM      3  C   UNL A   1      31.434  26.436  24.883  1.00  0.00     0.313 C 
ATOM      4  O   UNL A   1      30.784  26.002  23.938  1.00  0.00    -0.252 OA
BRANCH   3   5
ATOM      5  C   UNL A   1      32.558  25.649  25.580  1.00  0.00     0.126 C 
ATOM      6  C   UNL A   1      33.919  26.353  25.479  1.00  0.00     0.025 C 
BRANCH   5   7
ATOM      7  C   UNL A   1      32.593  24.181  25.144  1.00  0.00    -0.034 A 
ATOM      8  C   UNL A   1      31.870  23.173  25.796  1.00  0.00     0.005 A 
ATOM      9  C   UNL A   1      33.396  23.798  24.057  1.00  0.00     0.005 A 
ATOM     10  C   UNL A   1      31.958  21.836  25.384  1.00  0.00     0.009 A 
ATOM     11  C   UNL A   1      33.488  22.456  23.651  1.00  0.00     0.009 A 
ATOM     12  C   UNL A   1      32.775  21.444  24.311  1.00  0.00    -0.018 A 
BRANCH  12  13
ATOM     13  C   UNL A   1      32.910  20.017  23.940  1.00  0.00    -0.018 A 
ATOM     14  C   UNL A   1      33.786  19.163  24.633  1.00  0.00     0.009 A 
ATOM     15  C   UNL A   1      32.206  19.473  22.851  1.00  0.00     0.009 A 
ATOM     16  C   UNL A   1      33.975  17.834  24.238  1.00  0.00     0.001 A 
ATOM     17  C   UNL A   1      32.389  18.142  22.460  1.00  0.00     0.001 A 
ATOM     18  C   UNL A   1      33.282  17.326  23.146  1.00  0.00     0.000 A 
ENDBRANCH  12  13
ENDBRANCH   5   7
ENDBRANCH   3   5
ENDBRANCH   2   3
ENDBRANCH   1   2
BRANCH   1  19
ATOM     19  C   UNL A   1      31.455  30.066  25.464  1.00  0.00     0.275 C 
BRANCH  19  20
ATOM     20  O   UNL A   1      32.815  30.131  25.923  1.00  0.00    -0.458 OA
BRANCH  20  21
ATOM     21  C   UNL A   1      33.081  31.062  26.867  1.00  0.00     0.338 C 
ATOM     22  O   UNL A   1      32.392  32.006  27.206  1.00  0.00    -0.246 OA
BRANCH  21  23
ATOM     23  C   UNL A   1      34.383  30.754  27.478  1.00  0.00     0.060 A 
ATOM     24  C   UNL A   1      34.763  29.426  27.631  1.00  0.00     0.016 A 
ATOM     25  C   UNL A   1      35.173  31.780  28.002  1.00  0.00     0.016 A 
ATOM     26  C   UNL A   1      35.894  29.111  28.379  1.00  0.00     0.010 A 
ATOM     27  C   UNL A   1      36.351  31.461  28.690  1.00  0.00     0.010 A 
ATOM     28  C   UNL A   1      36.701  30.119  28.924  1.00  0.00    -0.014 A 
BRANCH  28  29
ATOM     29  C   UNL A   1      37.847  29.751  29.801  1.00  0.00     0.031 A 
ATOM     30  C   UNL A   1      39.032  29.021  29.226  1.00  0.00     0.074 A 
ATOM     31  C   UNL A   1      37.875  30.146  31.090  1.00  0.00     0.049 A 
ATOM     32  N   UNL A   1      40.086  28.536  29.837  1.00  0.00    -0.248 NA
ATOM     33  C   UNL A   1      39.028  28.792  27.772  1.00  0.00     0.031 C 
ATOM     34  C   UNL A   1      36.841  30.940  31.753  1.00  0.00     0.029 A 
ATOM     35  N   UNL A   1      38.842  29.991  32.054  1.00  0.00    -0.354 N 
ATOM     36  C   UNL A   1      40.820  27.877  28.859  1.00  0.00     0.074 A 
ATOM     37  C   UNL A   1      40.111  28.045  27.610  1.00  0.00     0.031 C 
ATOM     38  C   UNL A   1      37.281  31.304  32.968  1.00  0.00     0.029 A 
ATOM     39  C   UNL A   1      38.588  30.698  33.204  1.00  0.00     0.049 A 
ATOM     40  H   UNL A   1      39.639  29.425  31.933  1.00  0.00     0.167 HD
ATOM     41  C   UNL A   1      41.972  27.179  28.999  1.00  0.00     0.037 A 
ATOM     42  C   UNL A   1      39.338  30.856  34.312  1.00  0.00     0.037 A 
ATOM     43  C   UNL A   1      42.724  27.089  30.223  1.00  0.00     0.049 A 
ATOM     44  C   UNL A   1      40.637  30.108  34.432  1.00  0.00     0.074 A 
ATOM     45  C   UNL A   1      43.876  26.368  30.481  1.00  0.00     0.029 A 
ATOM     46  N   UNL A   1      42.413  27.778  31.385  1.00  0.00    -0.354 N 
ATOM     47  N   UNL A   1      41.271  29.396  33.534  1.00  0.00    -0.248 NA
ATOM     48  C   UNL A   1      41.308  30.161  35.740  1.00  0.00     0.031 C 
ATOM     49  C   UNL A   1      44.252  26.603  31.808  1.00  0.00     0.029 A 
ATOM     50  C   UNL A   1      43.351  27.496  32.365  1.00  0.00     0.049 A 
ATOM     51  H   UNL A   1      41.642  28.379  31.498  1.00  0.00     0.167 HD
ATOM     52  C   UNL A   1      42.403  28.904  34.169  1.00  0.00     0.074 A 
ATOM     53  C   UNL A   1      42.400  29.446  35.512  1.00  0.00     0.031 C 
ATOM     54  C   UNL A   1      43.343  28.052  33.691  1.00  0.00     0.037 A 
BRANCH  41  55
ATOM     55  C   UNL A   1      42.456  26.395  27.816  1.00  0.00     0.064 A 
ATOM     56  C   UNL A   1      41.979  25.112  27.519  1.00  0.00     0.173 A 
ATOM     57  C   UNL A   1      43.396  26.967  26.943  1.00  0.00     0.173 A 
ATOM     58  F   UNL A   1      41.093  24.517  28.331  1.00  0.00    -0.203 F 
ATOM     59  C   UNL A   1      42.440  24.421  26.401  1.00  0.00     0.198 A 
ATOM     60  C   UNL A   1      43.836  26.284  25.814  1.00  0.00     0.198 A 
ATOM     61  F   UNL A   1      43.880  28.196  27.182  1.00  0.00    -0.203 F 
ATOM     62  F   UNL A   1      42.000  23.180  26.153  1.00  0.00    -0.200 F 
ATOM     63  C   UNL A   1      43.362  25.011  25.546  1.00  0.00     0.200 A 
ATOM     64  F   UNL A   1      44.718  26.861  24.985  1.00  0.00    -0.200 F 
ATOM     65  F   UNL A   1      43.797  24.346  24.466  1.00  0.00    -0.200 F 
ENDBRANCH  41  55
BRANCH  42  66
ATOM     66  C   UNL A   1      38.909  31.792  35.384  1.00  0.00     0.064 A 
ATOM     67  C   UNL A   1      39.245  33.153  35.303  1.00  0.00     0.173 A 
ATOM     68  C   UNL A   1      38.179  31.367  36.501  1.00  0.00     0.173 A 
ATOM     69  F   UNL A   1      39.965  33.602  34.264  1.00  0.00    -0.203 F 
ATOM     70  C   UNL A   1      38.873  34.048  36.302  1.00  0.00     0.198 A 
ATOM     71  C   UNL A   1      37.781  32.270  37.486  1.00  0.00     0.198 A 
ATOM     72  F   UNL A   1      37.840  30.076  36.633  1.00  0.00    -0.203 F 
ATOM     73  F   UNL A   1      39.244  35.332  36.220  1.00  0.00    -0.200 F 
ATOM     74  C   UNL A   1      38.134  33.607  37.390  1.00  0.00     0.200 A 
ATOM     75  F   UNL A   1      37.058  31.843  38.530  1.00  0.00    -0.200 F 
ATOM     76  F   UNL A   1      37.771  34.469  38.349  1.00  0.00    -0.200 F 
ENDBRANCH  42  66
BRANCH  54  77
ATOM     77  C   UNL A   1      44.443  27.646  34.627  1.00  0.00     0.064 A 
ATOM     78  C   UNL A   1      44.372  26.445  35.349  1.00  0.00     0.173 A 
ATOM     79  C   UNL A   1      45.595  28.432  34.764  1.00  0.00     0.173 A 
ATOM     80  F   UNL A   1      43.284  25.666  35.259  1.00  0.00    -0.203 F 
ATOM     81  C   UNL A   1      45.410  26.056  36.190  1.00  0.00     0.198 A 
ATOM     82  C   UNL A   1      46.641  28.028  35.589  1.00  0.00     0.198 A 
ATOM     83  F   UNL A   1      45.712  29.585  34.089  1.00  0.00    -0.203 F 
ATOM     84  F   UNL A   1      45.307  24.923  36.900  1.00  0.00    -0.200 F 
ATOM     85  C   UNL A   1      46.546  26.843  36.305  1.00  0.00     0.200 A 
ATOM     86  F   UNL A   1      47.743  28.784  35.691  1.00  0.00    -0.200 F 
ATOM     87  F   UNL A   1      47.547  26.464  37.111  1.00  0.00    -0.200 F 
ENDBRANCH  54  77
ENDBRANCH  28  29
ENDBRANCH  21  23
ENDBRANCH  20  21
ENDBRANCH  19  20
ENDBRANCH   1  19
TORSDOF 13
ENDMDL
MODEL 3
REMARK VINA RESULT:     -11.9      0.642      1.814
REMARK SMILES C[C@@H](C(=O)OCCOC(=O)c1ccc(-c2c3nc(c(-c4c(F)c(F)c(F)c(F)c4F)c4ccc([nH]4)c(-c4c(F)c(F)c(F)c(F)c4F)c4nc(c(-c5c(F)c(F)c(F)c(F)c5F)c5ccc2[nH]5)C=C4)C=C3)cc1)c1ccc(-c2ccccc2)cc1
REMARK SMILES IDX 6 1 5 2 3 3 4 4 2 5 1 6 74 7 75 8 85 9 76 10 84 11 77 12
REMARK SMILES IDX 78 13 79 14 83 15 80 16 82 17 81 18 7 19 8 20 9 21 10 22
REMARK SMILES IDX 11 23 12 24 73 25 13 26 72 27 14 28 15 29 16 30 66 31 17 32
REMARK SMILES IDX 71 33 65 34 67 35 18 36 70 37 64 38 63 39 19 41 51 42 31 43
REMARK SMILES IDX 50 44 32 45 35 46 49 47 68 48 33 49 34 50 48 52 69 53 36 54
REMARK SMILES IDX 20 55 21 56 29 57 22 58 23 59 27 60 30 61 24 62 25 63 28 64
REMARK SMILES IDX 26 65 52 66 53 67 61 68 54 69 55 70 59 71 62 72 56 73 57 74
REMARK SMILES IDX 60 75 58 76 37 77 38 78 46 79 39 80 40 81 44 82 47 83 41 84
REMARK SMILES IDX 42 85 45 86 43 87
REMARK H PARENT 67 40 35 51
REMARK Flexibility Score: inf
ROOT
ATOM      1  C   UNL A   1      31.300  29.328  24.249  1.00  0.00     0.274 C 
ENDROOT
BRANCH   1   2
ATOM      2  O   UNL A   1      30.992  28.003  24.728  1.00  0.00    -0.462 OA
BRANCH   2   3
ATOM      3  C   UNL A   1      30.921  27.006  23.802  1.00  0.00     0.313 C 
ATOM      4  O   UNL A   1      30.871  27.203  22.592  1.00  0.00    -0.252 OA
BRANCH   3   5
ATOM      5  C   UNL A   1      30.849  25.610  24.443  1.00  0.00     0.126 C 
ATOM      6  C   UNL A   1      30.044  25.604  25.751  1.00  0.00     0.025 C 
BRANCH   5   7
ATOM      7  C   UNL A   1      32.231  24.960  24.570  1.00  0.00    -0.034 A 
ATOM      8  C   UNL A   1      32.543  23.714  24.010  1.00  0.00     0.005 A 
ATOM      9  C   UNL A   1      33.241  25.612  25.296  1.00  0.00     0.005 A 
ATOM     10  C   UNL A   1      33.811  23.141  24.180  1.00  0.00     0.009 A 
ATOM     11  C   UNL A   1      34.508  25.031  25.471  1.00  0.00     0.009 A 
ATOM     12  C   UNL A   1      34.818  23.779  24.922  1.00  0.00    -0.018 A 
BRANCH  12  13
ATOM     13  C   UNL A   1      36.125  23.121  25.150  1.00  0.00    -0.018 A 
ATOM     14  C   UNL A   1      36.364  21.804  24.720  1.00  0.00     0.009 A 
ATOM     15  C   UNL A   1      37.159  23.768  25.850  1.00  0.00     0.009 A 
ATOM     16  C   UNL A   1      37.569  21.151  25.001  1.00  0.00     0.001 A 
ATOM     17  C   UNL A   1      38.367  23.118  26.126  1.00  0.00     0.001 A 
ATOM     18  C   UNL A   1      38.567  21.806  25.712  1.00  0.00     0.000 A 
ENDBRANCH  12  13
ENDBRANCH   5   7
ENDBRANCH   3   5
ENDBRANCH   2   3
ENDBRANCH   1   2
BRANCH   1  19
ATOM     19  C   UNL A   1      31.403  30.300  25.420  1.00  0.00     0.275 C 
BRANCH  19  20
ATOM     20  O   UNL A   1      32.733  30.251  25.962  1.00  0.00    -0.458 OA
BRANCH  20  21
ATOM     21  C   UNL A   1      33.040  31.200  26.875  1.00  0.00     0.338 C 
ATOM     22  O   UNL A   1      32.384  32.176  27.194  1.00  0.00    -0.246 OA
BRANCH  21  23
ATOM     23  C   UNL A   1      34.338  30.870  27.480  1.00  0.00     0.060 A 
ATOM     24  C   UNL A   1      34.698  29.535  27.627  1.00  0.00     0.016 A 
ATOM     25  C   UNL A   1      35.146  31.881  28.004  1.00  0.00     0.016 A 
ATOM     26  C   UNL A   1      35.826  29.200  28.369  1.00  0.00     0.010 A 
ATOM     27  C   UNL A   1      36.322  31.541  28.686  1.00  0.00     0.010 A 
ATOM     28  C   UNL A   1      36.651  30.193  28.914  1.00  0.00    -0.014 A 
BRANCH  28  29
ATOM     29  C   UNL A   1      37.795  29.804  29.785  1.00  0.00     0.031 A 
ATOM     30  C   UNL A   1      38.970  29.064  29.202  1.00  0.00     0.074 A 
ATOM     31  C   UNL A   1      37.831  30.189  31.077  1.00  0.00     0.049 A 
ATOM     32  N   UNL A   1      40.019  28.561  29.806  1.00  0.00    -0.248 NA
ATOM     33  C   UNL A   1      38.959  28.845  27.746  1.00  0.00     0.031 C 
ATOM     34  C   UNL A   1      36.810  30.991  31.749  1.00  0.00     0.029 A 
ATOM     35  N   UNL A   1      38.799  30.014  32.038  1.00  0.00    -0.354 N 
ATOM     36  C   UNL A   1      40.742  27.900  28.821  1.00  0.00     0.074 A 
ATOM     37  C   UNL A   1      40.033  28.087  27.576  1.00  0.00     0.031 C 
ATOM     38  C   UNL A   1      37.257  31.340  32.965  1.00  0.00     0.029 A 
ATOM     39  C   UNL A   1      38.557  30.716  33.194  1.00  0.00     0.049 A 
ATOM     40  H   UNL A   1      39.589  29.440  31.910  1.00  0.00     0.167 HD
ATOM     41  C   UNL A   1      41.885  27.186  28.953  1.00  0.00     0.037 A 
ATOM     42  C   UNL A   1      39.312  30.856  34.300  1.00  0.00     0.037 A 
ATOM     43  C   UNL A   1      42.640  27.078  30.174  1.00  0.00     0.049 A 
ATOM     44  C   UNL A   1      40.601  30.091  34.411  1.00  0.00     0.074 A 
ATOM     45  C   UNL A   1      43.783  26.340  30.424  1.00  0.00     0.029 A 
ATOM     46  N   UNL A   1      42.341  27.762  31.342  1.00  0.00    -0.354 N 
ATOM     47  N   UNL A   1      41.224  29.378  33.506  1.00  0.00    -0.248 NA
ATOM     48  C   UNL A   1      41.276  30.124  35.718  1.00  0.00     0.031 C 
ATOM     49  C   UNL A   1      44.166  26.560  31.752  1.00  0.00     0.029 A 
ATOM     50  C   UNL A   1      43.277  27.460  32.318  1.00  0.00     0.049 A 
ATOM     51  H   UNL A   1      41.578  28.371  31.462  1.00  0.00     0.167 HD
ATOM     52  C   UNL A   1      42.352  28.867  34.135  1.00  0.00     0.074 A 
ATOM     53  C   UNL A   1      42.359  29.398  35.482  1.00  0.00     0.031 C 
ATOM     54  C   UNL A   1      43.279  28.007  33.648  1.00  0.00     0.037 A 
BRANCH  41  55
ATOM     55  C   UNL A   1      42.357  26.406  27.763  1.00  0.00     0.064 A 
ATOM     56  C   UNL A   1      43.361  26.876  26.907  1.00  0.00     0.173 A 
ATOM     57  C   UNL A   1      41.810  25.139  27.503  1.00  0.00     0.173 A 
ATOM     58  F   UNL A   1      43.904  28.086  27.104  1.00  0.00    -0.203 F 
ATOM     59  C   UNL A   1      43.787  26.114  25.821  1.00  0.00     0.198 A 
ATOM     60  C   UNL A   1      42.253  24.371  26.432  1.00  0.00     0.198 A 
ATOM     61  F   UNL A   1      40.848  24.642  28.298  1.00  0.00    -0.203 F 
ATOM     62  F   UNL A   1      44.722  26.596  24.991  1.00  0.00    -0.200 F 
ATOM     63  C   UNL A   1      43.237  24.860  25.589  1.00  0.00     0.200 A 
ATOM     64  F   UNL A   1      41.729  23.156  26.217  1.00  0.00    -0.200 F 
ATOM     65  F   UNL A   1      43.655  24.126  24.547  1.00  0.00    -0.200 F 
ENDBRANCH  41  55
BRANCH  42  66
ATOM     66  C   UNL A   1      38.898  31.789  35.381  1.00  0.00     0.064 A 
ATOM     67  C   UNL A   1      39.252  33.145  35.311  1.00  0.00     0.173 A 
ATOM     68  C   UNL A   1      38.162  31.365  36.495  1.00  0.00     0.173 A 
ATOM     69  F   UNL A   1      39.978  33.593  34.275  1.00  0.00    -0.203 F 
ATOM     70  C   UNL A   1      38.895  34.037  36.318  1.00  0.00     0.198 A 
ATOM     71  C   UNL A   1      37.778  32.265  37.488  1.00  0.00     0.198 A 
ATOM     72  F   UNL A   1      37.805  30.078  36.616  1.00  0.00    -0.203 F 
ATOM     73  F   UNL A   1      39.284  35.317  36.246  1.00  0.00    -0.200 F 
ATOM     74  C   UNL A   1      38.150  33.598  37.403  1.00  0.00     0.200 A 
ATOM     75  F   UNL A   1      37.050  31.840  38.529  1.00  0.00    -0.200 F 
ATOM     76  F   UNL A   1      37.801  34.457  38.370  1.00  0.00    -0.200 F 
ENDBRANCH  42  66
BRANCH  54  77
ATOM     77  C   UNL A   1      44.376  27.579  34.578  1.00  0.00     0.064 A 
ATOM     78  C   UNL A   1      44.243  26.435  35.378  1.00  0.00     0.173 A 
ATOM     79  C   UNL A   1      45.586  28.285  34.632  1.00  0.00     0.173 A 
ATOM     80  F   UNL A   1      43.099  25.734  35.369  1.00  0.00    -0.203 F 
ATOM     81  C   UNL A   1      45.276  26.023  36.214  1.00  0.00     0.198 A 
ATOM     82  C   UNL A   1      46.627  27.857  35.452  1.00  0.00     0.198 A 
ATOM     83  F   UNL A   1      45.765  29.381  33.880  1.00  0.00    -0.203 F 
ATOM     84  F   UNL A   1      45.113  24.948  36.998  1.00  0.00    -0.200 F 
ATOM     85  C   UNL A   1      46.469  26.730  36.246  1.00  0.00     0.200 A 
ATOM     86  F   UNL A   1      47.783  28.534  35.475  1.00  0.00    -0.200 F 
ATOM     87  F   UNL A   1      47.465  26.328  37.048  1.00  0.00    -0.200 F 
ENDBRANCH  54  77
ENDBRANCH  28  29
ENDBRANCH  21  23
ENDBRANCH  20  21
ENDBRANCH  19  20
ENDBRANCH   1  19
TORSDOF 13
ENDMDL
