MODEL 1
REMARK VINA RESULT:     -12.3      0.000      0.000
REMARK SMILES Cc1cc(C[N@H+]2CC[C@@H](C(=O)OCCOC(=O)c3ccc(-c4c5nc(c(-c6c(F)c(F)c(F)c(F)c6F)c6ccc([nH]6)c(-c6c(F)c(F)c(F)c(F)c6F)c6nc(c(-c7c(F)c(F)c(F)c(F)c7F)c7ccc4[nH]7)C=C6)C=C5)cc3)[C@@H]2C)ccc1Br
REMARK SMILES IDX 13 1 12 2 10 3 11 4 9 5 6 6 7 7 81 8 8 10 82 11 5 12 4 13
REMARK SMILES IDX 1 14 2 15 3 16 85 17 84 18 86 19 83 20 14 21 15 22 16 23
REMARK SMILES IDX 17 24 18 25 19 26 80 27 20 28 79 29 21 30 22 31 23 32 73 33
REMARK SMILES IDX 24 34 78 35 72 36 74 37 25 38 77 39 71 40 70 41 26 43 58 44
REMARK SMILES IDX 38 45 57 46 39 47 42 48 56 49 75 50 40 51 41 52 55 54 76 55
REMARK SMILES IDX 43 56 27 57 28 58 36 59 29 60 30 61 34 62 37 63 31 64 32 65
REMARK SMILES IDX 35 66 33 67 59 68 60 69 68 70 61 71 62 72 66 73 69 74 63 75
REMARK SMILES IDX 64 76 67 77 65 78 44 79 45 80 53 81 46 82 47 83 51 84 54 85
REMARK SMILES IDX 48 86 49 87 52 88 50 89
REMARK H PARENT 6 9 74 42 42 53
REMARK Flexibility Score: inf
ROOT
ATOM      1  C   UNL A   1      31.946  29.331  24.439  1.00  0.00     0.274 C 
ENDROOT
BRANCH   1   2
ATOM      2  O   UNL A   1      30.642  28.789  24.139  1.00  0.00    -0.462 OA
BRANCH   2   3
ATOM      3  C   UNL A   1      30.433  28.297  22.897  1.00  0.00     0.315 C 
ATOM      4  O   UNL A   1      30.090  28.975  21.933  1.00  0.00    -0.252 OA
BRANCH   3   5
ATOM      5  C   UNL A   1      30.627  26.795  22.787  1.00  0.00     0.162 C 
ATOM      6  N   UNL A   1      32.208  25.166  23.602  1.00  0.00    -0.328 N 
ATOM      7  C   UNL A   1      30.878  24.828  24.099  1.00  0.00     0.263 C 
ATOM      8  C   UNL A   1      32.066  26.270  22.634  1.00  0.00     0.195 C 
ATOM      9  H   UNL A   1      32.590  24.352  23.121  1.00  0.00     0.348 HD
ATOM     10  C   UNL A   1      30.069  26.104  24.018  1.00  0.00     0.083 C 
ATOM     11  C   UNL A   1      32.319  25.678  21.241  1.00  0.00     0.076 C 
BRANCH   6  12
ATOM     12  C   UNL A   1      33.241  25.355  24.629  1.00  0.00     0.299 C 
BRANCH  12  13
ATOM     13  C   UNL A   1      34.267  24.253  24.803  1.00  0.00     0.007 A 
ATOM     14  C   UNL A   1      37.799  23.836  26.175  1.00  0.00     0.045 C 
ATOM     15  C   UNL A   1      36.487  23.502  25.524  1.00  0.00    -0.036 A 
ATOM     16  C   UNL A   1      35.502  24.501  25.420  1.00  0.00     0.014 A 
ATOM     17  C   UNL A   1      36.219  22.239  24.973  1.00  0.00     0.020 A 
ATOM     18  C   UNL A   1      34.973  21.962  24.411  1.00  0.00     0.016 A 
ATOM     19  Br  UNL A   1      37.525  20.861  24.920  1.00  0.00    -0.051 Br
ATOM     20  C   UNL A   1      34.001  22.959  24.338  1.00  0.00     0.011 A 
ENDBRANCH  12  13
ENDBRANCH   6  12
ENDBRANCH   3   5
ENDBRANCH   2   3
ENDBRANCH   1   2
BRANCH   1  21
ATOM     21  C   UNL A   1      31.904  30.095  25.764  1.00  0.00     0.275 C 
BRANCH  21  22
ATOM     22  O   UNL A   1      33.224  30.162  26.327  1.00  0.00    -0.458 OA
BRANCH  22  23
ATOM     23  C   UNL A   1      33.478  31.257  27.077  1.00  0.00     0.338 C 
ATOM     24  O   UNL A   1      32.746  32.207  27.291  1.00  0.00    -0.246 OA
BRANCH  23  25
ATOM     25  C   UNL A   1      34.751  31.033  27.765  1.00  0.00     0.060 A 
ATOM     26  C   UNL A   1      35.063  29.740  28.199  1.00  0.00     0.016 A 
ATOM     27  C   UNL A   1      35.634  32.089  27.970  1.00  0.00     0.016 A 
ATOM     28  C   UNL A   1      36.267  29.484  28.837  1.00  0.00     0.010 A 
ATOM     29  C   UNL A   1      36.845  31.835  28.603  1.00  0.00     0.010 A 
ATOM     30  C   UNL A   1      37.161  30.535  29.041  1.00  0.00    -0.014 A 
BRANCH  30  31
ATOM     31  C   UNL A   1      38.418  30.317  29.779  1.00  0.00     0.031 A 
ATOM     32  C   UNL A   1      39.422  29.373  29.205  1.00  0.00     0.074 A 
ATOM     33  C   UNL A   1      38.601  30.904  30.972  1.00  0.00     0.049 A 
ATOM     34  N   UNL A   1      40.458  28.819  29.773  1.00  0.00    -0.248 NA
ATOM     35  C   UNL A   1      39.213  28.980  27.802  1.00  0.00     0.031 C 
ATOM     36  C   UNL A   1      37.702  31.886  31.580  1.00  0.00     0.029 A 
ATOM     37  N   UNL A   1      39.588  30.725  31.906  1.00  0.00    -0.354 N 
ATOM     38  C   UNL A   1      41.000  27.977  28.812  1.00  0.00     0.074 A 
ATOM     39  C   UNL A   1      40.173  28.085  27.630  1.00  0.00     0.031 C 
ATOM     40  C   UNL A   1      38.161  32.197  32.802  1.00  0.00     0.029 A 
ATOM     41  C   UNL A   1      39.344  31.389  33.082  1.00  0.00     0.049 A 
ATOM     42  H   UNL A   1      40.390  30.175  31.749  1.00  0.00     0.167 HD
ATOM     43  C   UNL A   1      42.088  27.182  28.926  1.00  0.00     0.037 A 
ATOM     44  C   UNL A   1      39.977  31.302  34.267  1.00  0.00     0.037 A 
ATOM     45  C   UNL A   1      42.889  27.105  30.118  1.00  0.00     0.049 A 
ATOM     46  C   UNL A   1      41.148  30.365  34.391  1.00  0.00     0.074 A 
ATOM     47  C   UNL A   1      44.027  26.355  30.349  1.00  0.00     0.029 A 
ATOM     48  N   UNL A   1      42.624  27.806  31.289  1.00  0.00    -0.354 N 
ATOM     49  N   UNL A   1      41.664  29.563  33.489  1.00  0.00    -0.248 NA
ATOM     50  C   UNL A   1      41.822  30.313  35.694  1.00  0.00     0.031 C 
ATOM     51  C   UNL A   1      44.414  26.553  31.677  1.00  0.00     0.029 A 
ATOM     52  C   UNL A   1      43.563  27.484  32.253  1.00  0.00     0.049 A 
ATOM     53  H   UNL A   1      41.880  28.437  31.413  1.00  0.00     0.167 HD
ATOM     54  C   UNL A   1      42.745  28.942  34.100  1.00  0.00     0.074 A 
ATOM     55  C   UNL A   1      42.808  29.458  35.452  1.00  0.00     0.031 C 
ATOM     56  C   UNL A   1      43.612  28.034  33.587  1.00  0.00     0.037 A 
BRANCH  43  57
ATOM     57  C   UNL A   1      42.431  26.303  27.758  1.00  0.00     0.064 A 
ATOM     58  C   UNL A   1      43.404  26.663  26.814  1.00  0.00     0.173 A 
ATOM     59  C   UNL A   1      41.773  25.077  27.584  1.00  0.00     0.173 A 
ATOM     60  F   UNL A   1      44.052  27.834  26.922  1.00  0.00    -0.203 F 
ATOM     61  C   UNL A   1      43.678  25.846  25.719  1.00  0.00     0.198 A 
ATOM     62  C   UNL A   1      42.075  24.245  26.509  1.00  0.00     0.198 A 
ATOM     63  F   UNL A   1      40.834  24.682  28.456  1.00  0.00    -0.203 F 
ATOM     64  F   UNL A   1      44.566  26.241  24.796  1.00  0.00    -0.200 F 
ATOM     65  C   UNL A   1      43.019  24.635  25.572  1.00  0.00     0.200 A 
ATOM     66  F   UNL A   1      41.445  23.070  26.375  1.00  0.00    -0.200 F 
ATOM     67  F   UNL A   1      43.285  23.849  24.520  1.00  0.00    -0.200 F 
ENDBRANCH  43  57
BRANCH  44  68
ATOM     68  C   UNL A   1      39.496  32.106  35.421  1.00  0.00     0.064 A 
ATOM     69  C   UNL A   1      38.595  31.567  36.348  1.00  0.00     0.173 A 
ATOM     70  C   UNL A   1      39.944  33.420  35.635  1.00  0.00     0.173 A 
ATOM     71  F   UNL A   1      38.123  30.323  36.177  1.00  0.00    -0.203 F 
ATOM     72  C   UNL A   1      38.150  32.312  37.437  1.00  0.00     0.198 A 
ATOM     73  C   UNL A   1      39.521  34.154  36.741  1.00  0.00     0.198 A 
ATOM     74  F   UNL A   1      40.809  33.982  34.780  1.00  0.00    -0.203 F 
ATOM     75  F   UNL A   1      37.257  31.785  38.287  1.00  0.00    -0.200 F 
ATOM     76  C   UNL A   1      38.619  33.601  37.638  1.00  0.00     0.200 A 
ATOM     77  F   UNL A   1      39.990  35.393  36.940  1.00  0.00    -0.200 F 
ATOM     78  F   UNL A   1      38.198  34.314  38.692  1.00  0.00    -0.200 F 
ENDBRANCH  44  68
BRANCH  56  79
ATOM     79  C   UNL A   1      44.745  27.588  34.462  1.00  0.00     0.064 A 
ATOM     80  C   UNL A   1      45.949  28.301  34.538  1.00  0.00     0.173 A 
ATOM     81  C   UNL A   1      44.582  26.474  35.302  1.00  0.00     0.173 A 
ATOM     82  F   UNL A   1      46.158  29.362  33.745  1.00  0.00    -0.203 F 
ATOM     83  C   UNL A   1      46.954  27.907  35.419  1.00  0.00     0.198 A 
ATOM     84  C   UNL A   1      45.574  26.106  36.203  1.00  0.00     0.198 A 
ATOM     85  F   UNL A   1      43.443  25.765  35.270  1.00  0.00    -0.203 F 
ATOM     86  F   UNL A   1      48.111  28.582  35.454  1.00  0.00    -0.200 F 
ATOM     87  C   UNL A   1      46.760  26.820  36.259  1.00  0.00     0.200 A 
ATOM     88  F   UNL A   1      45.378  25.067  37.027  1.00  0.00    -0.200 F 
ATOM     89  F   UNL A   1      47.720  26.460  37.123  1.00  0.00    -0.200 F 
ENDBRANCH  56  79
ENDBRANCH  30  31
ENDBRANCH  23  25
ENDBRANCH  22  23
ENDBRANCH  21  22
ENDBRANCH   1  21
TORSDOF 13
ENDMDL
MODEL 2
REMARK VINA RESULT:     -12.2      0.608      1.755
REMARK SMILES Cc1cc(C[N@H+]2CC[C@@H](C(=O)OCCOC(=O)c3ccc(-c4c5nc(c(-c6c(F)c(F)c(F)c(F)c6F)c6ccc([nH]6)c(-c6c(F)c(F)c(F)c(F)c6F)c6nc(c(-c7c(F)c(F)c(F)c(F)c7F)c7ccc4[nH]7)C=C6)C=C5)cc3)[C@@H]2C)ccc1Br
REMARK SMILES IDX 13 1 12 2 10 3 11 4 9 5 6 6 7 7 81 8 8 10 82 11 5 12 4 13
REMARK SMILES IDX 1 14 2 15 3 16 85 17 84 18 86 19 83 20 14 21 15 22 16 23
REMARK SMILES IDX 17 24 18 25 19 26 80 27 20 28 79 29 21 30 22 31 23 32 73 33
REMARK SMILES IDX 24 34 78 35 72 36 74 37 25 38 77 39 71 40 70 41 26 43 58 44
REMARK SMILES IDX 38 45 57 46 39 47 42 48 56 49 75 50 40 51 41 52 55 54 76 55
REMARK SMILES IDX 43 56 27 57 28 58 36 59 29 60 30 61 34 62 37 63 31 64 32 65
REMARK SMILES IDX 35 66 33 67 59 68 60 69 68 70 61 71 62 72 66 73 69 74 63 75
REMARK SMILES IDX 64 76 67 77 65 78 44 79 45 80 53 81 46 82 47 83 51 84 54 85
REMARK SMILES IDX 48 86 49 87 52 88 50 89
REMARK H PARENT 6 9 74 42 42 53
REMARK Flexibility Score: inf
ROOT
ATOM      1  C   UNL A   1      31.834  29.039  24.389  1.00  0.00     0.274 C 
ENDROOT
BRANCH   1   2
ATOM      2  O   UNL A   1      30.616  28.266  24.351  1.00  0.00    -0.462 OA
BRANCH   2   3
ATOM      3  C   UNL A   1      30.521  27.281  23.430  1.00  0.00     0.315 C 
ATOM      4  O   UNL A   1      30.524  27.464  22.217  1.00  0.00    -0.252 OA
BRANCH   3   5
ATOM      5  C   UNL A   1      30.374  25.892  24.026  1.00  0.00     0.162 C 
ATOM      6  N   UNL A   1      31.735  24.387  25.330  1.00  0.00    -0.328 N 
ATOM      7  C   UNL A   1      30.520  24.697  26.076  1.00  0.00     0.263 C 
ATOM      8  C   UNL A   1      31.597  24.959  23.977  1.00  0.00     0.195 C 
ATOM      9  H   UNL A   1      31.818  23.374  25.253  1.00  0.00     0.348 HD
ATOM     10  C   UNL A   1      29.992  25.989  25.492  1.00  0.00     0.083 C 
ATOM     11  C   UNL A   1      31.387  23.782  23.014  1.00  0.00     0.076 C 
BRANCH   6  12
ATOM     12  C   UNL A   1      32.998  24.689  26.017  1.00  0.00     0.299 C 
BRANCH  12  13
ATOM     13  C   UNL A   1      34.139  23.705  25.850  1.00  0.00     0.007 A 
ATOM     14  C   UNL A   1      37.948  23.708  25.980  1.00  0.00     0.045 C 
ATOM     15  C   UNL A   1      36.540  23.214  25.802  1.00  0.00    -0.036 A 
ATOM     16  C   UNL A   1      35.473  24.103  26.022  1.00  0.00     0.014 A 
ATOM     17  C   UNL A   1      36.248  21.909  25.381  1.00  0.00     0.020 A 
ATOM     18  C   UNL A   1      34.924  21.483  25.264  1.00  0.00     0.016 A 
ATOM     19  Br  UNL A   1      37.607  20.669  24.910  1.00  0.00    -0.051 Br
ATOM     20  C   UNL A   1      33.879  22.372  25.508  1.00  0.00     0.011 A 
ENDBRANCH  12  13
ENDBRANCH   6  12
ENDBRANCH   3   5
ENDBRANCH   2   3
ENDBRANCH   1   2
BRANCH   1  21
ATOM     21  C   UNL A   1      31.833  29.962  25.609  1.00  0.00     0.275 C 
BRANCH  21  22
ATOM     22  O   UNL A   1      33.181  30.181  26.055  1.00  0.00    -0.458 OA
BRANCH  22  23
ATOM     23  C   UNL A   1      33.342  31.198  26.929  1.00  0.00     0.338 C 
ATOM     24  O   UNL A   1      32.543  32.067  27.228  1.00  0.00    -0.246 OA
BRANCH  23  25
ATOM     25  C   UNL A   1      34.615  30.983  27.622  1.00  0.00     0.060 A 
ATOM     26  C   UNL A   1      34.906  29.706  28.114  1.00  0.00     0.016 A 
ATOM     27  C   UNL A   1      35.517  32.031  27.774  1.00  0.00     0.016 A 
ATOM     28  C   UNL A   1      36.107  29.459  28.759  1.00  0.00     0.010 A 
ATOM     29  C   UNL A   1      36.726  31.786  28.414  1.00  0.00     0.010 A 
ATOM     30  C   UNL A   1      37.022  30.501  28.911  1.00  0.00    -0.014 A 
BRANCH  30  31
ATOM     31  C   UNL A   1      38.277  30.295  29.653  1.00  0.00     0.031 A 
ATOM     32  C   UNL A   1      39.289  29.354  29.088  1.00  0.00     0.074 A 
ATOM     33  C   UNL A   1      38.454  30.889  30.844  1.00  0.00     0.049 A 
ATOM     34  N   UNL A   1      40.327  28.809  29.661  1.00  0.00    -0.248 NA
ATOM     35  C   UNL A   1      39.086  28.953  27.686  1.00  0.00     0.031 C 
ATOM     36  C   UNL A   1      37.547  31.869  31.444  1.00  0.00     0.029 A 
ATOM     37  N   UNL A   1      39.439  30.722  31.782  1.00  0.00    -0.354 N 
ATOM     38  C   UNL A   1      40.876  27.966  28.707  1.00  0.00     0.074 A 
ATOM     39  C   UNL A   1      40.052  28.062  27.521  1.00  0.00     0.031 C 
ATOM     40  C   UNL A   1      38.001  32.190  32.666  1.00  0.00     0.029 A 
ATOM     41  C   UNL A   1      39.188  31.391  32.953  1.00  0.00     0.049 A 
ATOM     42  H   UNL A   1      40.244  30.176  31.630  1.00  0.00     0.167 HD
ATOM     43  C   UNL A   1      41.969  27.178  28.828  1.00  0.00     0.037 A 
ATOM     44  C   UNL A   1      39.818  31.315  34.140  1.00  0.00     0.037 A 
ATOM     45  C   UNL A   1      42.767  27.112  30.023  1.00  0.00     0.049 A 
ATOM     46  C   UNL A   1      40.994  30.385  34.273  1.00  0.00     0.074 A 
ATOM     47  C   UNL A   1      43.908  26.370  30.260  1.00  0.00     0.029 A 
ATOM     48  N   UNL A   1      42.495  27.818  31.190  1.00  0.00    -0.354 N 
ATOM     49  N   UNL A   1      41.517  29.581  33.377  1.00  0.00    -0.248 NA
ATOM     50  C   UNL A   1      41.665  30.345  35.578  1.00  0.00     0.031 C 
ATOM     51  C   UNL A   1      44.291  26.578  31.589  1.00  0.00     0.029 A 
ATOM     52  C   UNL A   1      43.433  27.507  32.158  1.00  0.00     0.049 A 
ATOM     53  H   UNL A   1      41.746  28.445  31.308  1.00  0.00     0.167 HD
ATOM     54  C   UNL A   1      42.600  28.970  33.994  1.00  0.00     0.074 A 
ATOM     55  C   UNL A   1      42.656  29.494  35.344  1.00  0.00     0.031 C 
ATOM     56  C   UNL A   1      43.474  28.065  33.488  1.00  0.00     0.037 A 
BRANCH  43  57
ATOM     57  C   UNL A   1      42.320  26.295  27.666  1.00  0.00     0.064 A 
ATOM     58  C   UNL A   1      41.671  25.073  27.434  1.00  0.00     0.173 A 
ATOM     59  C   UNL A   1      43.325  26.683  26.767  1.00  0.00     0.173 A 
ATOM     60  F   UNL A   1      40.714  24.646  28.272  1.00  0.00    -0.203 F 
ATOM     61  C   UNL A   1      42.041  24.256  26.368  1.00  0.00     0.198 A 
ATOM     62  C   UNL A   1      43.667  25.881  25.681  1.00  0.00     0.198 A 
ATOM     63  F   UNL A   1      43.979  27.841  26.940  1.00  0.00    -0.203 F 
ATOM     64  F   UNL A   1      41.450  23.064  26.203  1.00  0.00    -0.200 F 
ATOM     65  C   UNL A   1      43.033  24.664  25.489  1.00  0.00     0.200 A 
ATOM     66  F   UNL A   1      44.619  26.282  24.827  1.00  0.00    -0.200 F 
ATOM     67  F   UNL A   1      43.386  23.878  24.463  1.00  0.00    -0.200 F 
ENDBRANCH  43  57
BRANCH  44  68
ATOM     68  C   UNL A   1      39.329  32.122  35.288  1.00  0.00     0.064 A 
ATOM     69  C   UNL A   1      38.474  31.564  36.248  1.00  0.00     0.173 A 
ATOM     70  C   UNL A   1      39.723  33.458  35.464  1.00  0.00     0.173 A 
ATOM     71  F   UNL A   1      38.054  30.297  36.115  1.00  0.00    -0.203 F 
ATOM     72  C   UNL A   1      38.022  32.313  37.332  1.00  0.00     0.198 A 
ATOM     73  C   UNL A   1      39.293  34.197  36.564  1.00  0.00     0.198 A 
ATOM     74  F   UNL A   1      40.542  34.039  34.576  1.00  0.00    -0.203 F 
ATOM     75  F   UNL A   1      37.174  31.766  38.214  1.00  0.00    -0.200 F 
ATOM     76  C   UNL A   1      38.439  33.626  37.494  1.00  0.00     0.200 A 
ATOM     77  F   UNL A   1      39.712  35.460  36.726  1.00  0.00    -0.200 F 
ATOM     78  F   UNL A   1      38.011  34.342  38.543  1.00  0.00    -0.200 F 
ENDBRANCH  44  68
BRANCH  56  79
ATOM     79  C   UNL A   1      44.608  27.631  34.369  1.00  0.00     0.064 A 
ATOM     80  C   UNL A   1      44.526  26.488  35.175  1.00  0.00     0.173 A 
ATOM     81  C   UNL A   1      45.826  28.328  34.334  1.00  0.00     0.173 A 
ATOM     82  F   UNL A   1      43.379  25.797  35.254  1.00  0.00    -0.203 F 
ATOM     83  C   UNL A   1      45.622  26.063  35.922  1.00  0.00     0.198 A 
ATOM     84  C   UNL A   1      46.928  27.882  35.055  1.00  0.00     0.198 A 
ATOM     85  F   UNL A   1      45.956  29.424  33.571  1.00  0.00    -0.203 F 
ATOM     86  F   UNL A   1      45.514  24.986  36.712  1.00  0.00    -0.200 F 
ATOM     87  C   UNL A   1      46.824  26.752  35.851  1.00  0.00     0.200 A 
ATOM     88  F   UNL A   1      48.093  28.538  34.970  1.00  0.00    -0.200 F 
ATOM     89  F   UNL A   1      47.884  26.327  36.552  1.00  0.00    -0.200 F 
ENDBRANCH  56  79
ENDBRANCH  30  31
ENDBRANCH  23  25
ENDBRANCH  22  23
ENDBRANCH  21  22
ENDBRANCH   1  21
TORSDOF 13
ENDMDL
MODEL 3
REMARK VINA RESULT:     -12.1      4.699      9.722
REMARK SMILES Cc1cc(C[N@H+]2CC[C@@H](C(=O)OCCOC(=O)c3ccc(-c4c5nc(c(-c6c(F)c(F)c(F)c(F)c6F)c6ccc([nH]6)c(-c6c(F)c(F)c(F)c(F)c6F)c6nc(c(-c7c(F)c(F)c(F)c(F)c7F)c7ccc4[nH]7)C=C6)C=C5)cc3)[C@@H]2C)ccc1Br
REMARK SMILES IDX 13 1 12 2 10 3 11 4 9 5 6 6 7 7 81 8 8 10 82 11 5 12 4 13
REMARK SMILES IDX 1 14 2 15 3 16 85 17 84 18 86 19 83 20 14 21 15 22 16 23
REMARK SMILES IDX 17 24 18 25 19 26 80 27 20 28 79 29 21 30 22 31 23 32 73 33
REMARK SMILES IDX 24 34 78 35 72 36 74 37 25 38 77 39 71 40 70 41 26 43 58 44
REMARK SMILES IDX 38 45 57 46 39 47 42 48 56 49 75 50 40 51 41 52 55 54 76 55
REMARK SMILES IDX 43 56 27 57 28 58 36 59 29 60 30 61 34 62 37 63 31 64 32 65
REMARK SMILES IDX 35 66 33 67 59 68 60 69 68 70 61 71 62 72 66 73 69 74 63 75
REMARK SMILES IDX 64 76 67 77 65 78 44 79 45 80 53 81 46 82 47 83 51 84 54 85
REMARK SMILES IDX 48 86 49 87 52 88 50 89
REMARK H PARENT 6 9 74 42 42 53
REMARK Flexibility Score: inf
ROOT
ATOM      1  C   UNL A   1      36.795  22.589  23.654  1.00  0.00     0.274 C 
ENDROOT
BRANCH   1   2
ATOM      2  O   UNL A   1      36.075  23.534  24.474  1.00  0.00    -0.462 OA
BRANCH   2   3
ATOM      3  C   UNL A   1      34.726  23.545  24.390  1.00  0.00     0.315 C 
ATOM      4  O   UNL A   1      34.073  24.443  23.869  1.00  0.00    -0.252 OA
BRANCH   3   5
ATOM      5  C   UNL A   1      34.058  22.344  25.036  1.00  0.00     0.162 C 
ATOM      6  N   UNL A   1      31.928  21.861  26.061  1.00  0.00    -0.328 N 
ATOM      7  C   UNL A   1      32.116  20.978  24.914  1.00  0.00     0.263 C 
ATOM      8  C   UNL A   1      33.190  22.593  26.282  1.00  0.00     0.195 C 
ATOM      9  H   UNL A   1      31.732  21.288  26.881  1.00  0.00     0.348 HD
ATOM     10  C   UNL A   1      33.149  21.651  24.037  1.00  0.00     0.083 C 
ATOM     11  C   UNL A   1      33.826  22.014  27.554  1.00  0.00     0.076 C 
BRANCH   6  12
ATOM     12  C   UNL A   1      30.715  22.687  26.037  1.00  0.00     0.299 C 
BRANCH  12  13
ATOM     13  C   UNL A   1      30.838  24.098  25.496  1.00  0.00     0.007 A 
ATOM     14  C   UNL A   1      31.460  27.615  26.825  1.00  0.00     0.045 C 
ATOM     15  C   UNL A   1      31.172  26.499  25.863  1.00  0.00    -0.036 A 
ATOM     16  C   UNL A   1      31.124  25.178  26.345  1.00  0.00     0.014 A 
ATOM     17  C   UNL A   1      30.905  26.726  24.504  1.00  0.00     0.020 A 
ATOM     18  C   UNL A   1      30.678  25.655  23.639  1.00  0.00     0.016 A 
ATOM     19  Br  UNL A   1      30.793  28.475  23.773  1.00  0.00    -0.051 Br
ATOM     20  C   UNL A   1      30.657  24.351  24.131  1.00  0.00     0.011 A 
ENDBRANCH  12  13
ENDBRANCH   6  12
ENDBRANCH   3   5
ENDBRANCH   2   3
ENDBRANCH   1   2
BRANCH   1  21
ATOM     21  C   UNL A   1      37.302  21.428  24.511  1.00  0.00     0.275 C 
BRANCH  21  22
ATOM     22  O   UNL A   1      37.741  21.922  25.787  1.00  0.00    -0.458 OA
BRANCH  22  23
ATOM     23  C   UNL A   1      38.975  21.524  26.167  1.00  0.00     0.338 C 
ATOM     24  O   UNL A   1      39.489  20.429  26.025  1.00  0.00    -0.246 OA
BRANCH  23  25
ATOM     25  C   UNL A   1      39.693  22.711  26.636  1.00  0.00     0.060 A 
ATOM     26  C   UNL A   1      39.344  23.960  26.112  1.00  0.00     0.016 A 
ATOM     27  C   UNL A   1      40.695  22.592  27.595  1.00  0.00     0.016 A 
ATOM     28  C   UNL A   1      39.988  25.109  26.545  1.00  0.00     0.010 A 
ATOM     29  C   UNL A   1      41.339  23.742  28.037  1.00  0.00     0.010 A 
ATOM     30  C   UNL A   1      40.989  25.001  27.510  1.00  0.00    -0.014 A 
BRANCH  30  31
ATOM     31  C   UNL A   1      41.745  26.189  27.942  1.00  0.00     0.031 A 
ATOM     32  C   UNL A   1      41.026  27.243  28.718  1.00  0.00     0.074 A 
ATOM     33  C   UNL A   1      43.027  26.336  27.571  1.00  0.00     0.049 A 
ATOM     34  N   UNL A   1      41.383  28.471  28.977  1.00  0.00    -0.248 NA
ATOM     35  C   UNL A   1      39.709  26.865  29.255  1.00  0.00     0.031 C 
ATOM     36  C   UNL A   1      43.824  25.332  26.867  1.00  0.00     0.029 A 
ATOM     37  N   UNL A   1      43.870  27.409  27.701  1.00  0.00    -0.354 N 
ATOM     38  C   UNL A   1      40.318  29.028  29.668  1.00  0.00     0.074 A 
ATOM     39  C   UNL A   1      39.297  28.009  29.780  1.00  0.00     0.031 C 
ATOM     40  C   UNL A   1      45.033  25.850  26.594  1.00  0.00     0.029 A 
ATOM     41  C   UNL A   1      45.065  27.237  27.047  1.00  0.00     0.049 A 
ATOM     42  H   UNL A   1      43.642  28.220  28.210  1.00  0.00     0.167 HD
ATOM     43  C   UNL A   1      40.212  30.287  30.153  1.00  0.00     0.037 A 
ATOM     44  C   UNL A   1      46.045  28.125  26.797  1.00  0.00     0.037 A 
ATOM     45  C   UNL A   1      41.251  31.273  30.026  1.00  0.00     0.049 A 
ATOM     46  C   UNL A   1      45.880  29.537  27.291  1.00  0.00     0.074 A 
ATOM     47  C   UNL A   1      41.271  32.573  30.494  1.00  0.00     0.029 A 
ATOM     48  N   UNL A   1      42.459  31.061  29.372  1.00  0.00    -0.354 N 
ATOM     49  N   UNL A   1      44.874  30.073  27.942  1.00  0.00    -0.248 NA
ATOM     50  C   UNL A   1      46.978  30.470  27.014  1.00  0.00     0.031 C 
ATOM     51  C   UNL A   1      42.463  33.167  30.070  1.00  0.00     0.029 A 
ATOM     52  C   UNL A   1      43.220  32.216  29.403  1.00  0.00     0.049 A 
ATOM     53  H   UNL A   1      42.732  30.214  28.951  1.00  0.00     0.167 HD
ATOM     54  C   UNL A   1      45.232  31.391  28.187  1.00  0.00     0.074 A 
ATOM     55  C   UNL A   1      46.549  31.575  27.610  1.00  0.00     0.031 C 
ATOM     56  C   UNL A   1      44.541  32.360  28.837  1.00  0.00     0.037 A 
BRANCH  43  57
ATOM     57  C   UNL A   1      38.915  30.672  30.806  1.00  0.00     0.064 A 
ATOM     58  C   UNL A   1      37.806  31.104  30.064  1.00  0.00     0.173 A 
ATOM     59  C   UNL A   1      38.783  30.604  32.201  1.00  0.00     0.173 A 
ATOM     60  F   UNL A   1      37.883  31.204  28.728  1.00  0.00    -0.203 F 
ATOM     61  C   UNL A   1      36.626  31.489  30.697  1.00  0.00     0.198 A 
ATOM     62  C   UNL A   1      37.591  30.955  32.828  1.00  0.00     0.198 A 
ATOM     63  F   UNL A   1      39.812  30.198  32.959  1.00  0.00    -0.203 F 
ATOM     64  F   UNL A   1      35.601  31.959  29.972  1.00  0.00    -0.200 F 
ATOM     65  C   UNL A   1      36.518  31.408  32.077  1.00  0.00     0.200 A 
ATOM     66  F   UNL A   1      37.485  30.865  34.161  1.00  0.00    -0.200 F 
ATOM     67  F   UNL A   1      35.382  31.776  32.685  1.00  0.00    -0.200 F 
ENDBRANCH  43  57
BRANCH  44  68
ATOM     68  C   UNL A   1      47.243  27.704  26.026  1.00  0.00     0.064 A 
ATOM     69  C   UNL A   1      48.394  27.245  26.679  1.00  0.00     0.173 A 
ATOM     70  C   UNL A   1      47.256  27.730  24.622  1.00  0.00     0.173 A 
ATOM     71  F   UNL A   1      48.438  27.220  28.019  1.00  0.00    -0.203 F 
ATOM     72  C   UNL A   1      49.516  26.839  25.960  1.00  0.00     0.198 A 
ATOM     73  C   UNL A   1      48.368  27.295  23.904  1.00  0.00     0.198 A 
ATOM     74  F   UNL A   1      46.179  28.157  23.947  1.00  0.00    -0.203 F 
ATOM     75  F   UNL A   1      50.618  26.441  26.612  1.00  0.00    -0.200 F 
ATOM     76  C   UNL A   1      49.500  26.856  24.574  1.00  0.00     0.200 A 
ATOM     77  F   UNL A   1      48.342  27.298  22.564  1.00  0.00    -0.200 F 
ATOM     78  F   UNL A   1      50.577  26.456  23.883  1.00  0.00    -0.200 F 
ENDBRANCH  44  68
BRANCH  56  79
ATOM     79  C   UNL A   1      45.215  33.686  29.024  1.00  0.00     0.064 A 
ATOM     80  C   UNL A   1      46.071  33.939  30.104  1.00  0.00     0.173 A 
ATOM     81  C   UNL A   1      45.065  34.688  28.051  1.00  0.00     0.173 A 
ATOM     82  F   UNL A   1      46.234  33.019  31.066  1.00  0.00    -0.203 F 
ATOM     83  C   UNL A   1      46.746  35.153  30.209  1.00  0.00     0.198 A 
ATOM     84  C   UNL A   1      45.767  35.885  28.142  1.00  0.00     0.198 A 
ATOM     85  F   UNL A   1      44.263  34.490  26.994  1.00  0.00    -0.203 F 
ATOM     86  F   UNL A   1      47.534  35.388  31.266  1.00  0.00    -0.200 F 
ATOM     87  C   UNL A   1      46.604  36.117  29.222  1.00  0.00     0.200 A 
ATOM     88  F   UNL A   1      45.643  36.808  27.179  1.00  0.00    -0.200 F 
ATOM     89  F   UNL A   1      47.274  37.275  29.314  1.00  0.00    -0.200 F 
ENDBRANCH  56  79
ENDBRANCH  30  31
ENDBRANCH  23  25
ENDBRANCH  22  23
ENDBRANCH  21  22
ENDBRANCH   1  21
TORSDOF 13
ENDMDL
