MODEL 1
REMARK VINA RESULT:     -10.8      0.000      0.000
REMARK SMILES CC[C@@H](COC)NC(=O)N1CC[C@H](C(=O)OCCOC(=O)c2ccc(-c3c4nc(c(-c5c(F)c(F)c(F)c(F)c5F)c5ccc([nH]5)c(-c5c(F)c(F)c(F)c(F)c5F)c5nc(c(-c6c(F)c(F)c(F)c(F)c6F)c6ccc3[nH]6)C=C5)C=C4)cc2)[C@@H]1C
REMARK SMILES IDX 17 1 16 2 14 3 15 4 13 5 10 6 11 7 85 8 12 9 86 10 8 11 7 12
REMARK SMILES IDX 9 14 3 15 2 16 1 17 4 18 5 19 6 20 18 21 19 22 20 23 21 24
REMARK SMILES IDX 22 25 23 26 84 27 24 28 83 29 25 30 26 31 27 32 77 33 28 34
REMARK SMILES IDX 82 35 76 36 78 37 29 38 81 39 75 40 74 41 30 43 62 44 42 45
REMARK SMILES IDX 61 46 43 47 46 48 60 49 79 50 44 51 45 52 59 54 80 55 47 56
REMARK SMILES IDX 31 57 32 58 40 59 33 60 34 61 38 62 41 63 35 64 36 65 39 66
REMARK SMILES IDX 37 67 63 68 64 69 72 70 65 71 66 72 70 73 73 74 67 75 68 76
REMARK SMILES IDX 71 77 69 78 48 79 49 80 57 81 50 82 51 83 55 84 58 85 52 86
REMARK SMILES IDX 53 87 56 88 54 89
REMARK H PARENT 7 13 78 42 46 53
REMARK Flexibility Score: inf
ROOT
ATOM      1  C   UNL A   1      31.060  29.630  24.611  1.00  0.00     0.274 C 
ENDROOT
BRANCH   1   2
ATOM      2  O   UNL A   1      31.854  28.984  23.599  1.00  0.00    -0.462 OA
BRANCH   2   3
ATOM      3  C   UNL A   1      31.271  27.935  22.962  1.00  0.00     0.311 C 
ATOM      4  O   UNL A   1      30.457  28.056  22.055  1.00  0.00    -0.252 OA
BRANCH   3   5
ATOM      5  C   UNL A   1      31.902  26.611  23.346  1.00  0.00     0.123 C 
ATOM      6  N   UNL A   1      31.874  25.054  25.142  1.00  0.00    -0.321 N 
ATOM      7  C   UNL A   1      32.930  25.995  25.445  1.00  0.00     0.122 C 
ATOM      8  C   UNL A   1      30.994  25.621  24.114  1.00  0.00     0.098 C 
ATOM      9  C   UNL A   1      33.225  26.662  24.121  1.00  0.00     0.039 C 
ATOM     10  C   UNL A   1      29.726  26.188  24.758  1.00  0.00     0.032 C 
BRANCH   6  11
ATOM     11  C   UNL A   1      31.613  24.052  26.030  1.00  0.00     0.317 C 
ATOM     12  N   UNL A   1      31.688  22.759  25.653  1.00  0.00    -0.333 N 
ATOM     13  H   UNL A   1      31.006  22.176  26.059  1.00  0.00     0.165 HD
ATOM     14  O   UNL A   1      31.278  24.288  27.192  1.00  0.00    -0.249 OA
BRANCH  12  15
ATOM     15  C   UNL A   1      32.608  22.073  24.744  1.00  0.00     0.109 C 
BRANCH  15  16
ATOM     16  C   UNL A   1      32.153  22.297  23.292  1.00  0.00     0.024 C 
ATOM     17  C   UNL A   1      33.213  22.970  22.429  1.00  0.00     0.006 C 
ENDBRANCH  15  16
BRANCH  15  18
ATOM     18  C   UNL A   1      34.056  22.498  25.062  1.00  0.00     0.184 C 
BRANCH  18  19
ATOM     19  O   UNL A   1      34.838  21.470  25.676  1.00  0.00    -0.383 OA
ATOM     20  C   UNL A   1      34.913  20.261  24.936  1.00  0.00     0.194 C 
ENDBRANCH  18  19
ENDBRANCH  15  18
ENDBRANCH  12  15
ENDBRANCH   6  11
ENDBRANCH   3   5
ENDBRANCH   2   3
ENDBRANCH   1   2
BRANCH   1  21
ATOM     21  C   UNL A   1      31.777  29.623  25.966  1.00  0.00     0.275 C 
BRANCH  21  22
ATOM     22  O   UNL A   1      33.066  30.267  25.911  1.00  0.00    -0.458 OA
BRANCH  22  23
ATOM     23  C   UNL A   1      33.296  31.193  26.871  1.00  0.00     0.338 C 
ATOM     24  O   UNL A   1      32.546  32.081  27.239  1.00  0.00    -0.246 OA
BRANCH  23  25
ATOM     25  C   UNL A   1      34.582  30.924  27.534  1.00  0.00     0.060 A 
ATOM     26  C   UNL A   1      34.849  29.625  27.973  1.00  0.00     0.016 A 
ATOM     27  C   UNL A   1      35.472  31.960  27.815  1.00  0.00     0.016 A 
ATOM     28  C   UNL A   1      35.996  29.354  28.711  1.00  0.00     0.010 A 
ATOM     29  C   UNL A   1      36.638  31.684  28.538  1.00  0.00     0.010 A 
ATOM     30  C   UNL A   1      36.903  30.381  28.997  1.00  0.00    -0.014 A 
BRANCH  30  31
ATOM     31  C   UNL A   1      38.127  30.082  29.777  1.00  0.00     0.031 A 
ATOM     32  C   UNL A   1      39.188  29.189  29.208  1.00  0.00     0.074 A 
ATOM     33  C   UNL A   1      38.289  30.636  30.992  1.00  0.00     0.049 A 
ATOM     34  N   UNL A   1      40.276  28.731  29.777  1.00  0.00    -0.248 NA
ATOM     35  C   UNL A   1      39.007  28.753  27.815  1.00  0.00     0.031 C 
ATOM     36  C   UNL A   1      37.350  31.561  31.629  1.00  0.00     0.029 A 
ATOM     37  N   UNL A   1      39.300  30.501  31.910  1.00  0.00    -0.354 N 
ATOM     38  C   UNL A   1      40.895  27.936  28.822  1.00  0.00     0.074 A 
ATOM     39  C   UNL A   1      40.061  27.967  27.640  1.00  0.00     0.031 C 
ATOM     40  C   UNL A   1      37.832  31.914  32.831  1.00  0.00     0.029 A 
ATOM     41  C   UNL A   1      39.080  31.198  33.072  1.00  0.00     0.049 A 
ATOM     42  H   UNL A   1      40.105  29.957  31.750  1.00  0.00     0.167 HD
ATOM     43  C   UNL A   1      42.054  27.243  28.930  1.00  0.00     0.037 A 
ATOM     44  C   UNL A   1      39.787  31.226  34.216  1.00  0.00     0.037 A 
ATOM     45  C   UNL A   1      42.890  27.231  30.101  1.00  0.00     0.049 A 
ATOM     46  C   UNL A   1      41.034  30.395  34.332  1.00  0.00     0.074 A 
ATOM     47  C   UNL A   1      44.093  26.575  30.298  1.00  0.00     0.029 A 
ATOM     48  N   UNL A   1      42.609  27.909  31.278  1.00  0.00    -0.354 N 
ATOM     49  N   UNL A   1      41.601  29.628  33.434  1.00  0.00    -0.248 NA
ATOM     50  C   UNL A   1      41.729  30.422  35.626  1.00  0.00     0.031 C 
ATOM     51  C   UNL A   1      44.522  26.826  31.607  1.00  0.00     0.029 A 
ATOM     52  C   UNL A   1      43.603  27.669  32.213  1.00  0.00     0.049 A 
ATOM     53  H   UNL A   1      41.819  28.478  31.428  1.00  0.00     0.167 HD
ATOM     54  C   UNL A   1      42.719  29.084  34.049  1.00  0.00     0.074 A 
ATOM     55  C   UNL A   1      42.764  29.627  35.391  1.00  0.00     0.031 C 
ATOM     56  C   UNL A   1      43.625  28.210  33.547  1.00  0.00     0.037 A 
BRANCH  43  57
ATOM     57  C   UNL A   1      42.475  26.414  27.755  1.00  0.00     0.064 A 
ATOM     58  C   UNL A   1      43.399  26.887  26.812  1.00  0.00     0.173 A 
ATOM     59  C   UNL A   1      41.979  25.111  27.595  1.00  0.00     0.173 A 
ATOM     60  F   UNL A   1      43.890  28.131  26.915  1.00  0.00    -0.203 F 
ATOM     61  C   UNL A   1      43.797  26.091  25.741  1.00  0.00     0.198 A 
ATOM     62  C   UNL A   1      42.395  24.312  26.535  1.00  0.00     0.198 A 
ATOM     63  F   UNL A   1      41.096  24.612  28.473  1.00  0.00    -0.203 F 
ATOM     64  F   UNL A   1      44.655  26.575  24.832  1.00  0.00    -0.200 F 
ATOM     65  C   UNL A   1      43.300  24.803  25.606  1.00  0.00     0.200 A 
ATOM     66  F   UNL A   1      41.920  23.064  26.411  1.00  0.00    -0.200 F 
ATOM     67  F   UNL A   1      43.689  24.037  24.578  1.00  0.00    -0.200 F 
ENDBRANCH  43  57
BRANCH  44  68
ATOM     68  C   UNL A   1      39.306  32.043  35.358  1.00  0.00     0.064 A 
ATOM     69  C   UNL A   1      39.646  33.398  35.469  1.00  0.00     0.173 A 
ATOM     70  C   UNL A   1      38.490  31.488  36.355  1.00  0.00     0.173 A 
ATOM     71  F   UNL A   1      40.444  33.964  34.553  1.00  0.00    -0.203 F 
ATOM     72  C   UNL A   1      39.192  34.165  36.539  1.00  0.00     0.198 A 
ATOM     73  C   UNL A   1      38.017  32.262  37.411  1.00  0.00     0.198 A 
ATOM     74  F   UNL A   1      38.142  30.195  36.293  1.00  0.00    -0.203 F 
ATOM     75  F   UNL A   1      39.559  35.450  36.642  1.00  0.00    -0.200 F 
ATOM     76  C   UNL A   1      38.373  33.600  37.505  1.00  0.00     0.200 A 
ATOM     77  F   UNL A   1      37.217  31.714  38.335  1.00  0.00    -0.200 F 
ATOM     78  F   UNL A   1      37.930  34.341  38.529  1.00  0.00    -0.200 F 
ENDBRANCH  44  68
BRANCH  56  79
ATOM     79  C   UNL A   1      44.744  27.796  34.454  1.00  0.00     0.064 A 
ATOM     80  C   UNL A   1      44.643  26.652  35.259  1.00  0.00     0.173 A 
ATOM     81  C   UNL A   1      45.939  28.530  34.495  1.00  0.00     0.173 A 
ATOM     82  F   UNL A   1      43.512  25.930  35.266  1.00  0.00    -0.203 F 
ATOM     83  C   UNL A   1      45.691  26.269  36.090  1.00  0.00     0.198 A 
ATOM     84  C   UNL A   1      46.994  28.130  35.310  1.00  0.00     0.198 A 
ATOM     85  F   UNL A   1      46.083  29.629  33.740  1.00  0.00    -0.203 F 
ATOM     86  F   UNL A   1      45.560  25.196  36.881  1.00  0.00    -0.200 F 
ATOM     87  C   UNL A   1      46.868  27.004  36.110  1.00  0.00     0.200 A 
ATOM     88  F   UNL A   1      48.132  28.838  35.324  1.00  0.00    -0.200 F 
ATOM     89  F   UNL A   1      47.878  26.633  36.908  1.00  0.00    -0.200 F 
ENDBRANCH  56  79
ENDBRANCH  30  31
ENDBRANCH  23  25
ENDBRANCH  22  23
ENDBRANCH  21  22
ENDBRANCH   1  21
TORSDOF 16
ENDMDL
MODEL 2
REMARK VINA RESULT:     -10.8      0.872      2.329
REMARK SMILES CC[C@@H](COC)NC(=O)N1CC[C@H](C(=O)OCCOC(=O)c2ccc(-c3c4nc(c(-c5c(F)c(F)c(F)c(F)c5F)c5ccc([nH]5)c(-c5c(F)c(F)c(F)c(F)c5F)c5nc(c(-c6c(F)c(F)c(F)c(F)c6F)c6ccc3[nH]6)C=C5)C=C4)cc2)[C@@H]1C
REMARK SMILES IDX 17 1 16 2 14 3 15 4 13 5 10 6 11 7 85 8 12 9 86 10 8 11 7 12
REMARK SMILES IDX 9 14 3 15 2 16 1 17 4 18 5 19 6 20 18 21 19 22 20 23 21 24
REMARK SMILES IDX 22 25 23 26 84 27 24 28 83 29 25 30 26 31 27 32 77 33 28 34
REMARK SMILES IDX 82 35 76 36 78 37 29 38 81 39 75 40 74 41 30 43 62 44 42 45
REMARK SMILES IDX 61 46 43 47 46 48 60 49 79 50 44 51 45 52 59 54 80 55 47 56
REMARK SMILES IDX 31 57 32 58 40 59 33 60 34 61 38 62 41 63 35 64 36 65 39 66
REMARK SMILES IDX 37 67 63 68 64 69 72 70 65 71 66 72 70 73 73 74 67 75 68 76
REMARK SMILES IDX 71 77 69 78 48 79 49 80 57 81 50 82 51 83 55 84 58 85 52 86
REMARK SMILES IDX 53 87 56 88 54 89
REMARK H PARENT 7 13 78 42 46 53
REMARK Flexibility Score: inf
ROOT
ATOM      1  C   UNL A   1      31.304  29.320  24.725  1.00  0.00     0.274 C 
ENDROOT
BRANCH   1   2
ATOM      2  O   UNL A   1      32.277  28.265  24.834  1.00  0.00    -0.462 OA
BRANCH   2   3
ATOM      3  C   UNL A   1      32.044  27.158  24.081  1.00  0.00     0.311 C 
ATOM      4  O   UNL A   1      32.727  26.831  23.119  1.00  0.00    -0.252 OA
BRANCH   3   5
ATOM      5  C   UNL A   1      30.985  26.262  24.696  1.00  0.00     0.123 C 
ATOM      6  N   UNL A   1      30.802  24.121  25.711  1.00  0.00    -0.321 N 
ATOM      7  C   UNL A   1      30.596  23.911  24.295  1.00  0.00     0.122 C 
ATOM      8  C   UNL A   1      31.425  25.432  25.925  1.00  0.00     0.098 C 
ATOM      9  C   UNL A   1      30.263  25.285  23.759  1.00  0.00     0.039 C 
ATOM     10  C   UNL A   1      32.929  25.271  26.161  1.00  0.00     0.032 C 
BRANCH   6  11
ATOM     11  C   UNL A   1      30.779  23.041  26.545  1.00  0.00     0.317 C 
ATOM     12  N   UNL A   1      31.447  21.913  26.233  1.00  0.00    -0.333 N 
ATOM     13  H   UNL A   1      30.986  21.081  26.491  1.00  0.00     0.165 HD
ATOM     14  O   UNL A   1      30.133  23.049  27.594  1.00  0.00    -0.249 OA
BRANCH  12  15
ATOM     15  C   UNL A   1      32.740  21.709  25.575  1.00  0.00     0.109 C 
BRANCH  15  16
ATOM     16  C   UNL A   1      33.839  21.567  26.642  1.00  0.00     0.024 C 
ATOM     17  C   UNL A   1      35.238  21.459  26.049  1.00  0.00     0.006 C 
ENDBRANCH  15  16
BRANCH  15  18
ATOM     18  C   UNL A   1      32.627  20.541  24.574  1.00  0.00     0.184 C 
BRANCH  18  19
ATOM     19  O   UNL A   1      32.003  19.374  25.117  1.00  0.00    -0.383 OA
ATOM     20  C   UNL A   1      32.860  18.251  25.248  1.00  0.00     0.194 C 
ENDBRANCH  18  19
ENDBRANCH  15  18
ENDBRANCH  12  15
ENDBRANCH   6  11
ENDBRANCH   3   5
ENDBRANCH   2   3
ENDBRANCH   1   2
BRANCH   1  21
ATOM     21  C   UNL A   1      31.617  30.465  25.695  1.00  0.00     0.275 C 
BRANCH  21  22
ATOM     22  O   UNL A   1      32.951  30.377  26.238  1.00  0.00    -0.458 OA
BRANCH  22  23
ATOM     23  C   UNL A   1      33.337  31.423  27.005  1.00  0.00     0.338 C 
ATOM     24  O   UNL A   1      32.717  32.450  27.224  1.00  0.00    -0.246 OA
BRANCH  23  25
ATOM     25  C   UNL A   1      34.614  31.118  27.669  1.00  0.00     0.060 A 
ATOM     26  C   UNL A   1      34.838  29.815  28.120  1.00  0.00     0.016 A 
ATOM     27  C   UNL A   1      35.539  32.126  27.939  1.00  0.00     0.016 A 
ATOM     28  C   UNL A   1      35.976  29.513  28.860  1.00  0.00     0.010 A 
ATOM     29  C   UNL A   1      36.696  31.818  28.663  1.00  0.00     0.010 A 
ATOM     30  C   UNL A   1      36.917  30.512  29.135  1.00  0.00    -0.014 A 
BRANCH  30  31
ATOM     31  C   UNL A   1      38.133  30.179  29.916  1.00  0.00     0.031 A 
ATOM     32  C   UNL A   1      39.179  29.273  29.341  1.00  0.00     0.074 A 
ATOM     33  C   UNL A   1      38.299  30.715  31.139  1.00  0.00     0.049 A 
ATOM     34  N   UNL A   1      40.255  28.788  29.909  1.00  0.00    -0.248 NA
ATOM     35  C   UNL A   1      38.996  28.859  27.942  1.00  0.00     0.031 C 
ATOM     36  C   UNL A   1      37.375  31.650  31.783  1.00  0.00     0.029 A 
ATOM     37  N   UNL A   1      39.303  30.550  32.059  1.00  0.00    -0.354 N 
ATOM     38  C   UNL A   1      40.862  27.993  28.947  1.00  0.00     0.074 A 
ATOM     39  C   UNL A   1      40.035  28.054  27.761  1.00  0.00     0.031 C 
ATOM     40  C   UNL A   1      37.858  31.979  32.992  1.00  0.00     0.029 A 
ATOM     41  C   UNL A   1      39.092  31.236  33.229  1.00  0.00     0.049 A 
ATOM     42  H   UNL A   1      40.098  29.992  31.896  1.00  0.00     0.167 HD
ATOM     43  C   UNL A   1      42.008  27.277  29.051  1.00  0.00     0.037 A 
ATOM     44  C   UNL A   1      39.794  31.237  34.377  1.00  0.00     0.037 A 
ATOM     45  C   UNL A   1      42.838  27.234  30.226  1.00  0.00     0.049 A 
ATOM     46  C   UNL A   1      41.024  30.380  34.488  1.00  0.00     0.074 A 
ATOM     47  C   UNL A   1      44.027  26.552  30.420  1.00  0.00     0.029 A 
ATOM     48  N   UNL A   1      42.565  27.902  31.410  1.00  0.00    -0.354 N 
ATOM     49  N   UNL A   1      41.580  29.613  33.582  1.00  0.00    -0.248 NA
ATOM     50  C   UNL A   1      41.713  30.378  35.785  1.00  0.00     0.031 C 
ATOM     51  C   UNL A   1      44.455  26.779  31.734  1.00  0.00     0.029 A 
ATOM     52  C   UNL A   1      43.550  27.632  32.345  1.00  0.00     0.049 A 
ATOM     53  H   UNL A   1      41.785  28.484  31.563  1.00  0.00     0.167 HD
ATOM     54  C   UNL A   1      42.684  29.041  34.195  1.00  0.00     0.074 A 
ATOM     55  C   UNL A   1      42.733  29.566  35.544  1.00  0.00     0.031 C 
ATOM     56  C   UNL A   1      43.576  28.156  33.686  1.00  0.00     0.037 A 
BRANCH  43  57
ATOM     57  C   UNL A   1      42.419  26.454  27.868  1.00  0.00     0.064 A 
ATOM     58  C   UNL A   1      41.913  25.163  27.656  1.00  0.00     0.173 A 
ATOM     59  C   UNL A   1      43.299  26.981  26.910  1.00  0.00     0.173 A 
ATOM     60  F   UNL A   1      41.079  24.610  28.551  1.00  0.00    -0.203 F 
ATOM     61  C   UNL A   1      42.287  24.424  26.537  1.00  0.00     0.198 A 
ATOM     62  C   UNL A   1      43.653  26.247  25.783  1.00  0.00     0.198 A 
ATOM     63  F   UNL A   1      43.807  28.213  27.067  1.00  0.00    -0.203 F 
ATOM     64  F   UNL A   1      41.817  23.179  26.370  1.00  0.00    -0.200 F 
ATOM     65  C   UNL A   1      43.151  24.969  25.599  1.00  0.00     0.200 A 
ATOM     66  F   UNL A   1      44.483  26.778  24.873  1.00  0.00    -0.200 F 
ATOM     67  F   UNL A   1      43.506  24.258  24.519  1.00  0.00    -0.200 F 
ENDBRANCH  43  57
BRANCH  44  68
ATOM     68  C   UNL A   1      39.322  32.049  35.526  1.00  0.00     0.064 A 
ATOM     69  C   UNL A   1      38.452  31.509  36.482  1.00  0.00     0.173 A 
ATOM     70  C   UNL A   1      39.739  33.377  35.695  1.00  0.00     0.173 A 
ATOM     71  F   UNL A   1      38.007  30.251  36.347  1.00  0.00    -0.203 F 
ATOM     72  C   UNL A   1      38.011  32.271  37.561  1.00  0.00     0.198 A 
ATOM     73  C   UNL A   1      39.318  34.130  36.788  1.00  0.00     0.198 A 
ATOM     74  F   UNL A   1      40.569  33.939  34.804  1.00  0.00    -0.203 F 
ATOM     75  F   UNL A   1      37.152  31.743  38.444  1.00  0.00    -0.200 F 
ATOM     76  C   UNL A   1      38.449  33.577  37.718  1.00  0.00     0.200 A 
ATOM     77  F   UNL A   1      39.752  35.388  36.940  1.00  0.00    -0.200 F 
ATOM     78  F   UNL A   1      38.031  34.306  38.761  1.00  0.00    -0.200 F 
ENDBRANCH  44  68
BRANCH  56  79
ATOM     79  C   UNL A   1      44.682  27.709  34.593  1.00  0.00     0.064 A 
ATOM     80  C   UNL A   1      45.883  28.429  34.687  1.00  0.00     0.173 A 
ATOM     81  C   UNL A   1      44.529  26.571  35.398  1.00  0.00     0.173 A 
ATOM     82  F   UNL A   1      46.080  29.513  33.922  1.00  0.00    -0.203 F 
ATOM     83  C   UNL A   1      46.900  28.012  35.540  1.00  0.00     0.198 A 
ATOM     84  C   UNL A   1      45.540  26.170  36.268  1.00  0.00     0.198 A 
ATOM     85  F   UNL A   1      43.398  25.852  35.345  1.00  0.00    -0.203 F 
ATOM     86  F   UNL A   1      48.054  28.691  35.586  1.00  0.00    -0.200 F 
ATOM     87  C   UNL A   1      46.725  26.887  36.334  1.00  0.00     0.200 A 
ATOM     88  F   UNL A   1      45.369  25.087  37.038  1.00  0.00    -0.200 F 
ATOM     89  F   UNL A   1      47.704  26.489  37.157  1.00  0.00    -0.200 F 
ENDBRANCH  56  79
ENDBRANCH  30  31
ENDBRANCH  23  25
ENDBRANCH  22  23
ENDBRANCH  21  22
ENDBRANCH   1  21
TORSDOF 16
ENDMDL
MODEL 3
REMARK VINA RESULT:     -10.6      4.200      9.752
REMARK SMILES CC[C@@H](COC)NC(=O)N1CC[C@H](C(=O)OCCOC(=O)c2ccc(-c3c4nc(c(-c5c(F)c(F)c(F)c(F)c5F)c5ccc([nH]5)c(-c5c(F)c(F)c(F)c(F)c5F)c5nc(c(-c6c(F)c(F)c(F)c(F)c6F)c6ccc3[nH]6)C=C5)C=C4)cc2)[C@@H]1C
REMARK SMILES IDX 17 1 16 2 14 3 15 4 13 5 10 6 11 7 85 8 12 9 86 10 8 11 7 12
REMARK SMILES IDX 9 14 3 15 2 16 1 17 4 18 5 19 6 20 18 21 19 22 20 23 21 24
REMARK SMILES IDX 22 25 23 26 84 27 24 28 83 29 25 30 26 31 27 32 77 33 28 34
REMARK SMILES IDX 82 35 76 36 78 37 29 38 81 39 75 40 74 41 30 43 62 44 42 45
REMARK SMILES IDX 61 46 43 47 46 48 60 49 79 50 44 51 45 52 59 54 80 55 47 56
REMARK SMILES IDX 31 57 32 58 40 59 33 60 34 61 38 62 41 63 35 64 36 65 39 66
REMARK SMILES IDX 37 67 63 68 64 69 72 70 65 71 66 72 70 73 73 74 67 75 68 76
REMARK SMILES IDX 71 77 69 78 48 79 49 80 57 81 50 82 51 83 55 84 58 85 52 86
REMARK SMILES IDX 53 87 56 88 54 89
REMARK H PARENT 7 13 78 42 46 53
REMARK Flexibility Score: inf
ROOT
ATOM      1  C   UNL A   1      35.639  20.654  25.000  1.00  0.00     0.274 C 
ENDROOT
BRANCH   1   2
ATOM      2  O   UNL A   1      34.892  21.712  25.631  1.00  0.00    -0.462 OA
BRANCH   2   3
ATOM      3  C   UNL A   1      33.576  21.789  25.305  1.00  0.00     0.311 C 
ATOM      4  O   UNL A   1      32.823  20.823  25.275  1.00  0.00    -0.252 OA
BRANCH   3   5
ATOM      5  C   UNL A   1      33.096  23.224  25.201  1.00  0.00     0.123 C 
ATOM      6  N   UNL A   1      33.098  25.016  23.639  1.00  0.00    -0.321 N 
ATOM      7  C   UNL A   1      34.314  25.155  24.409  1.00  0.00     0.122 C 
ATOM      8  C   UNL A   1      32.558  23.663  23.818  1.00  0.00     0.098 C 
ATOM      9  C   UNL A   1      34.068  24.323  25.647  1.00  0.00     0.039 C 
ATOM     10  C   UNL A   1      32.918  22.787  22.615  1.00  0.00     0.032 C 
BRANCH   6  11
ATOM     11  C   UNL A   1      32.848  25.907  22.637  1.00  0.00     0.317 C 
ATOM     12  N   UNL A   1      31.704  26.620  22.616  1.00  0.00    -0.333 N 
ATOM     13  H   UNL A   1      31.330  26.764  21.716  1.00  0.00     0.165 HD
ATOM     14  O   UNL A   1      33.642  26.076  21.709  1.00  0.00    -0.249 OA
BRANCH  12  15
ATOM     15  C   UNL A   1      30.920  27.217  23.701  1.00  0.00     0.109 C 
BRANCH  15  16
ATOM     16  C   UNL A   1      31.834  28.107  24.561  1.00  0.00     0.024 C 
ATOM     17  C   UNL A   1      31.925  27.647  26.010  1.00  0.00     0.006 C 
ENDBRANCH  15  16
BRANCH  15  18
ATOM     18  C   UNL A   1      29.676  27.911  23.112  1.00  0.00     0.184 C 
BRANCH  18  19
ATOM     19  O   UNL A   1      29.930  28.611  21.891  1.00  0.00    -0.383 OA
ATOM     20  C   UNL A   1      29.900  30.026  22.002  1.00  0.00     0.194 C 
ENDBRANCH  18  19
ENDBRANCH  15  18
ENDBRANCH  12  15
ENDBRANCH   6  11
ENDBRANCH   3   5
ENDBRANCH   2   3
ENDBRANCH   1   2
BRANCH   1  21
ATOM     21  C   UNL A   1      37.104  21.056  24.797  1.00  0.00     0.275 C 
BRANCH  21  22
ATOM     22  O   UNL A   1      37.642  21.771  25.929  1.00  0.00    -0.458 OA
BRANCH  22  23
ATOM     23  C   UNL A   1      38.944  21.530  26.205  1.00  0.00     0.338 C 
ATOM     24  O   UNL A   1      39.561  20.494  26.023  1.00  0.00    -0.246 OA
BRANCH  23  25
ATOM     25  C   UNL A   1      39.597  22.761  26.677  1.00  0.00     0.060 A 
ATOM     26  C   UNL A   1      39.212  23.980  26.111  1.00  0.00     0.016 A 
ATOM     27  C   UNL A   1      40.650  22.709  27.590  1.00  0.00     0.016 A 
ATOM     28  C   UNL A   1      39.888  25.151  26.439  1.00  0.00     0.010 A 
ATOM     29  C   UNL A   1      41.315  23.890  27.937  1.00  0.00     0.010 A 
ATOM     30  C   UNL A   1      40.943  25.117  27.357  1.00  0.00    -0.014 A 
BRANCH  30  31
ATOM     31  C   UNL A   1      41.651  26.371  27.707  1.00  0.00     0.031 A 
ATOM     32  C   UNL A   1      40.970  27.422  28.531  1.00  0.00     0.074 A 
ATOM     33  C   UNL A   1      42.920  26.550  27.296  1.00  0.00     0.049 A 
ATOM     34  N   UNL A   1      41.388  28.621  28.851  1.00  0.00    -0.248 NA
ATOM     35  C   UNL A   1      39.645  27.081  29.069  1.00  0.00     0.031 C 
ATOM     36  C   UNL A   1      43.706  25.578  26.534  1.00  0.00     0.029 A 
ATOM     37  N   UNL A   1      43.773  27.612  27.462  1.00  0.00    -0.354 N 
ATOM     38  C   UNL A   1      40.369  29.187  29.605  1.00  0.00     0.074 A 
ATOM     39  C   UNL A   1      39.311  28.204  29.692  1.00  0.00     0.031 C 
ATOM     40  C   UNL A   1      44.926  26.086  26.302  1.00  0.00     0.029 A 
ATOM     41  C   UNL A   1      44.989  27.438  26.848  1.00  0.00     0.049 A 
ATOM     42  H   UNL A   1      43.536  28.420  27.971  1.00  0.00     0.167 HD
ATOM     43  C   UNL A   1      40.328  30.417  30.171  1.00  0.00     0.037 A 
ATOM     44  C   UNL A   1      46.023  28.288  26.709  1.00  0.00     0.037 A 
ATOM     45  C   UNL A   1      41.391  31.384  30.098  1.00  0.00     0.049 A 
ATOM     46  C   UNL A   1      45.922  29.671  27.289  1.00  0.00     0.074 A 
ATOM     47  C   UNL A   1      41.448  32.650  30.656  1.00  0.00     0.029 A 
ATOM     48  N   UNL A   1      42.587  31.191  29.424  1.00  0.00    -0.354 N 
ATOM     49  N   UNL A   1      44.947  30.206  27.982  1.00  0.00    -0.248 NA
ATOM     50  C   UNL A   1      47.059  30.571  27.053  1.00  0.00     0.031 C 
ATOM     51  C   UNL A   1      42.665  33.237  30.289  1.00  0.00     0.029 A 
ATOM     52  C   UNL A   1      43.380  32.322  29.533  1.00  0.00     0.049 A 
ATOM     53  H   UNL A   1      42.838  30.371  28.940  1.00  0.00     0.167 HD
ATOM     54  C   UNL A   1      45.351  31.502  28.269  1.00  0.00     0.074 A 
ATOM     55  C   UNL A   1      46.670  31.665  27.694  1.00  0.00     0.031 C 
ATOM     56  C   UNL A   1      44.687  32.470  28.945  1.00  0.00     0.037 A 
BRANCH  43  57
ATOM     57  C   UNL A   1      39.075  30.801  30.898  1.00  0.00     0.064 A 
ATOM     58  C   UNL A   1      38.951  30.648  32.287  1.00  0.00     0.173 A 
ATOM     59  C   UNL A   1      37.998  31.368  30.200  1.00  0.00     0.173 A 
ATOM     60  F   UNL A   1      39.948  30.097  32.995  1.00  0.00    -0.203 F 
ATOM     61  C   UNL A   1      37.788  31.034  32.947  1.00  0.00     0.198 A 
ATOM     62  C   UNL A   1      36.845  31.772  30.867  1.00  0.00     0.198 A 
ATOM     63  F   UNL A   1      38.069  31.538  28.871  1.00  0.00    -0.203 F 
ATOM     64  F   UNL A   1      37.678  30.849  34.270  1.00  0.00    -0.200 F 
ATOM     65  C   UNL A   1      36.739  31.601  32.238  1.00  0.00     0.200 A 
ATOM     66  F   UNL A   1      35.836  32.327  30.181  1.00  0.00    -0.200 F 
ATOM     67  F   UNL A   1      35.622  31.978  32.877  1.00  0.00    -0.200 F 
ENDBRANCH  43  57
BRANCH  44  68
ATOM     68  C   UNL A   1      47.227  27.863  25.953  1.00  0.00     0.064 A 
ATOM     69  C   UNL A   1      47.231  27.848  24.552  1.00  0.00     0.173 A 
ATOM     70  C   UNL A   1      48.399  27.470  26.616  1.00  0.00     0.173 A 
ATOM     71  F   UNL A   1      46.125  28.190  23.877  1.00  0.00    -0.203 F 
ATOM     72  C   UNL A   1      48.362  27.450  23.843  1.00  0.00     0.198 A 
ATOM     73  C   UNL A   1      49.537  27.097  25.907  1.00  0.00     0.198 A 
ATOM     74  F   UNL A   1      48.441  27.465  27.957  1.00  0.00    -0.203 F 
ATOM     75  F   UNL A   1      48.330  27.411  22.504  1.00  0.00    -0.200 F 
ATOM     76  C   UNL A   1      49.515  27.082  24.519  1.00  0.00     0.200 A 
ATOM     77  F   UNL A   1      50.652  26.753  26.565  1.00  0.00    -0.200 F 
ATOM     78  F   UNL A   1      50.605  26.708  23.836  1.00  0.00    -0.200 F 
ENDBRANCH  44  68
BRANCH  56  79
ATOM     79  C   UNL A   1      45.383  33.788  29.104  1.00  0.00     0.064 A 
ATOM     80  C   UNL A   1      45.196  34.826  28.179  1.00  0.00     0.173 A 
ATOM     81  C   UNL A   1      46.218  34.025  30.205  1.00  0.00     0.173 A 
ATOM     82  F   UNL A   1      44.420  34.637  27.101  1.00  0.00    -0.203 F 
ATOM     83  C   UNL A   1      45.838  36.050  28.341  1.00  0.00     0.198 A 
ATOM     84  C   UNL A   1      46.840  35.259  30.376  1.00  0.00     0.198 A 
ATOM     85  F   UNL A   1      46.424  33.064  31.117  1.00  0.00    -0.203 F 
ATOM     86  F   UNL A   1      45.677  37.015  27.426  1.00  0.00    -0.200 F 
ATOM     87  C   UNL A   1      46.654  36.267  29.442  1.00  0.00     0.200 A 
ATOM     88  F   UNL A   1      47.624  35.470  31.443  1.00  0.00    -0.200 F 
ATOM     89  F   UNL A   1      47.269  37.447  29.599  1.00  0.00    -0.200 F 
ENDBRANCH  56  79
ENDBRANCH  30  31
ENDBRANCH  23  25
ENDBRANCH  22  23
ENDBRANCH  21  22
ENDBRANCH   1  21
TORSDOF 16
ENDMDL
