MODEL 1
REMARK VINA RESULT:     -10.8      0.000      0.000
REMARK SMILES CCCCCC[C@H](C)[C@@](C)(O)C(=O)OCCOC(=O)c1ccc(-c2c3nc(c(-c4c(F)c(F)c(F)c(F)c4F)c4ccc([nH]4)c(-c4c(F)c(F)c(F)c(F)c4F)c4nc(c(-c5c(F)c(F)c(F)c(F)c5F)c5ccc2[nH]5)C=C4)C=C3)cc1
REMARK SMILES IDX 12 1 13 2 9 3 10 4 7 5 8 6 6 7 5 8 4 9 3 10 2 11 1 12 11 13
REMARK SMILES IDX 14 15 15 16 16 17 17 18 18 19 19 20 20 21 21 22 82 23 22 24
REMARK SMILES IDX 81 25 23 26 24 27 25 28 75 29 26 30 80 31 74 32 76 33 27 34
REMARK SMILES IDX 79 35 73 36 72 37 28 39 60 40 40 41 59 42 41 43 44 44 58 45
REMARK SMILES IDX 77 46 42 47 43 48 57 50 78 51 45 52 29 53 30 54 38 55 31 56
REMARK SMILES IDX 32 57 36 58 39 59 33 60 34 61 37 62 35 63 61 64 62 65 70 66
REMARK SMILES IDX 63 67 64 68 68 69 71 70 65 71 66 72 69 73 67 74 46 75 47 76
REMARK SMILES IDX 55 77 48 78 49 79 53 80 56 81 50 82 51 83 54 84 52 85
REMARK H PARENT 11 14 76 38 44 49
REMARK Flexibility Score: inf
ROOT
ATOM      1  C   UNL A   1      43.985  18.865  25.382  1.00  0.00     0.338 C 
ATOM      2  O   UNL A   1      44.940  18.094  25.373  1.00  0.00    -0.249 OA
ENDROOT
BRANCH   1   3
ATOM      3  C   UNL A   1      42.679  18.621  26.209  1.00  0.00     0.161 C 
ATOM      4  C   UNL A   1      43.233  18.125  27.560  1.00  0.00     0.055 C 
BRANCH   3   5
ATOM      5  C   UNL A   1      41.692  19.869  26.403  1.00  0.00     0.029 C 
ATOM      6  C   UNL A   1      40.224  19.590  26.038  1.00  0.00     0.011 C 
BRANCH   5   7
ATOM      7  C   UNL A   1      42.014  20.922  27.577  1.00  0.00     0.007 C 
BRANCH   7   8
ATOM      8  C   UNL A   1      41.157  22.302  28.374  1.00  0.00     0.000 C 
BRANCH   8   9
ATOM      9  C   UNL A   1      40.069  24.068  27.658  1.00  0.00     0.000 C 
BRANCH   9  10
ATOM     10  C   UNL A   1      38.920  24.431  26.450  1.00  0.00    -0.000 C 
BRANCH  10  11
ATOM     11  C   UNL A   1      37.946  23.293  26.122  1.00  0.00    -0.003 C 
ATOM     12  C   UNL A   1      36.881  23.700  25.111  1.00  0.00     0.004 C 
ENDBRANCH  10  11
ENDBRANCH   9  10
ENDBRANCH   8   9
ENDBRANCH   7   8
ENDBRANCH   5   7
ENDBRANCH   3   5
BRANCH   3  13
ATOM     13  O   UNL A   1      41.900  17.506  25.750  1.00  0.00    -0.378 OA
ATOM     14  H   UNL A   1      41.481  17.070  26.508  1.00  0.00     0.212 HD
ENDBRANCH   3  13
ENDBRANCH   1   3
BRANCH   1  15
ATOM     15  O   UNL A   1      43.915  19.980  24.598  1.00  0.00    -0.460 OA
BRANCH  15  16
ATOM     16  C   UNL A   1      45.130  20.752  24.419  1.00  0.00     0.274 C 
BRANCH  16  17
ATOM     17  C   UNL A   1      45.226  21.820  25.504  1.00  0.00     0.275 C 
BRANCH  17  18
ATOM     18  O   UNL A   1      44.347  22.884  25.130  1.00  0.00    -0.458 OA
BRANCH  18  19
ATOM     19  C   UNL A   1      44.928  24.093  25.153  1.00  0.00     0.338 C 
ATOM     20  O   UNL A   1      45.924  24.468  24.558  1.00  0.00    -0.246 OA
BRANCH  19  21
ATOM     21  C   UNL A   1      44.199  24.972  26.054  1.00  0.00     0.060 A 
ATOM     22  C   UNL A   1      43.884  26.743  25.789  1.00  0.00     0.016 A 
ATOM     23  C   UNL A   1      43.877  24.236  27.635  1.00  0.00     0.016 A 
ATOM     24  C   UNL A   1      43.407  27.796  27.202  1.00  0.00     0.010 A 
ATOM     25  C   UNL A   1      43.342  25.244  28.992  1.00  0.00     0.010 A 
ATOM     26  C   UNL A   1      43.066  27.016  28.805  1.00  0.00    -0.014 A 
BRANCH  26  27
ATOM     27  C   UNL A   1      42.452  27.738  29.960  1.00  0.00     0.031 A 
ATOM     28  C   UNL A   1      41.087  28.385  29.829  1.00  0.00     0.074 A 
ATOM     29  C   UNL A   1      43.183  27.939  31.074  1.00  0.00     0.049 A 
ATOM     30  N   UNL A   1      40.505  29.265  30.608  1.00  0.00    -0.248 NA
ATOM     31  C   UNL A   1      40.302  28.075  28.624  1.00  0.00     0.031 C 
ATOM     32  C   UNL A   1      44.558  27.496  31.289  1.00  0.00     0.029 A 
ATOM     33  N   UNL A   1      42.876  28.585  32.247  1.00  0.00    -0.354 N 
ATOM     34  C   UNL A   1      39.348  29.661  29.941  1.00  0.00     0.074 A 
ATOM     35  C   UNL A   1      39.362  29.009  28.654  1.00  0.00     0.031 C 
ATOM     36  C   UNL A   1      44.937  27.772  32.541  1.00  0.00     0.029 A 
ATOM     37  C   UNL A   1      43.883  28.531  33.184  1.00  0.00     0.049 A 
ATOM     38  H   UNL A   1      42.018  29.043  32.402  1.00  0.00     0.167 HD
ATOM     39  C   UNL A   1      38.336  30.450  30.383  1.00  0.00     0.037 A 
ATOM     40  C   UNL A   1      43.969  29.060  34.416  1.00  0.00     0.037 A 
ATOM     41  C   UNL A   1      38.290  30.989  31.716  1.00  0.00     0.049 A 
ATOM     42  C   UNL A   1      42.812  29.868  34.914  1.00  0.00     0.074 A 
ATOM     43  C   UNL A   1      37.277  31.705  32.328  1.00  0.00     0.029 A 
ATOM     44  N   UNL A   1      39.305  30.846  32.655  1.00  0.00    -0.354 N 
ATOM     45  N   UNL A   1      41.702  30.190  34.291  1.00  0.00    -0.248 NA
ATOM     46  C   UNL A   1      42.911  30.387  36.281  1.00  0.00     0.031 C 
ATOM     47  C   UNL A   1      37.703  32.046  33.615  1.00  0.00     0.029 A 
ATOM     48  C   UNL A   1      38.949  31.477  33.833  1.00  0.00     0.049 A 
ATOM     49  H   UNL A   1      40.152  30.367  32.503  1.00  0.00     0.167 HD
ATOM     50  C   UNL A   1      40.958  30.925  35.197  1.00  0.00     0.074 A 
ATOM     51  C   UNL A   1      41.735  30.982  36.421  1.00  0.00     0.031 C 
ATOM     52  C   UNL A   1      39.744  31.505  35.036  1.00  0.00     0.037 A 
BRANCH  39  53
ATOM     53  C   UNL A   1      37.189  30.746  29.445  1.00  0.00     0.064 A 
ATOM     54  C   UNL A   1      36.185  29.803  29.167  1.00  0.00     0.173 A 
ATOM     55  C   UNL A   1      37.068  32.010  28.843  1.00  0.00     0.173 A 
ATOM     56  F   UNL A   1      36.238  28.578  29.712  1.00  0.00    -0.203 F 
ATOM     57  C   UNL A   1      35.142  30.093  28.288  1.00  0.00     0.198 A 
ATOM     58  C   UNL A   1      35.997  32.312  28.001  1.00  0.00     0.198 A 
ATOM     59  F   UNL A   1      37.982  32.963  29.078  1.00  0.00    -0.203 F 
ATOM     60  F   UNL A   1      34.241  29.147  27.987  1.00  0.00    -0.200 F 
ATOM     61  C   UNL A   1      35.044  31.350  27.713  1.00  0.00     0.200 A 
ATOM     62  F   UNL A   1      35.892  33.536  27.465  1.00  0.00    -0.200 F 
ATOM     63  F   UNL A   1      34.034  31.630  26.877  1.00  0.00    -0.200 F 
ENDBRANCH  39  53
BRANCH  40  64
ATOM     64  C   UNL A   1      45.176  28.807  35.250  1.00  0.00     0.064 A 
ATOM     65  C   UNL A   1      45.234  27.703  36.112  1.00  0.00     0.173 A 
ATOM     66  C   UNL A   1      46.314  29.625  35.170  1.00  0.00     0.173 A 
ATOM     67  F   UNL A   1      44.173  26.890  36.230  1.00  0.00    -0.203 F 
ATOM     68  C   UNL A   1      46.368  27.441  36.877  1.00  0.00     0.198 A 
ATOM     69  C   UNL A   1      47.464  29.338  35.903  1.00  0.00     0.198 A 
ATOM     70  F   UNL A   1      46.326  30.681  34.343  1.00  0.00    -0.203 F 
ATOM     71  F   UNL A   1      46.377  26.404  37.725  1.00  0.00    -0.200 F 
ATOM     72  C   UNL A   1      47.486  28.253  36.765  1.00  0.00     0.200 A 
ATOM     73  F   UNL A   1      48.553  30.106  35.765  1.00  0.00    -0.200 F 
ATOM     74  F   UNL A   1      48.585  27.990  37.486  1.00  0.00    -0.200 F 
ENDBRANCH  40  64
BRANCH  52  75
ATOM     75  C   UNL A   1      39.166  32.203  36.229  1.00  0.00     0.064 A 
ATOM     76  C   UNL A   1      39.509  33.523  36.552  1.00  0.00     0.173 A 
ATOM     77  C   UNL A   1      38.231  31.544  37.042  1.00  0.00     0.173 A 
ATOM     78  F   UNL A   1      40.411  34.187  35.813  1.00  0.00    -0.203 F 
ATOM     79  C   UNL A   1      38.965  34.147  37.669  1.00  0.00     0.198 A 
ATOM     80  C   UNL A   1      37.657  32.185  38.133  1.00  0.00     0.198 A 
ATOM     81  F   UNL A   1      37.865  30.282  36.768  1.00  0.00    -0.203 F 
ATOM     82  F   UNL A   1      39.357  35.385  38.000  1.00  0.00    -0.200 F 
ATOM     83  C   UNL A   1      38.033  33.481  38.453  1.00  0.00     0.200 A 
ATOM     84  F   UNL A   1      36.740  31.549  38.875  1.00  0.00    -0.200 F 
ATOM     85  F   UNL A   1      37.502  34.087  39.523  1.00  0.00    -0.200 F 
ENDBRANCH  52  75
ENDBRANCH  26  27
ENDBRANCH  19  21
ENDBRANCH  18  19
ENDBRANCH  17  18
ENDBRANCH  16  17
ENDBRANCH  15  16
ENDBRANCH   1  15
TORSDOF 18
ENDMDL
MODEL 2
REMARK VINA RESULT:     -10.8      4.825      9.541
REMARK SMILES CCCCCC[C@H](C)[C@@](C)(O)C(=O)OCCOC(=O)c1ccc(-c2c3nc(c(-c4c(F)c(F)c(F)c(F)c4F)c4ccc([nH]4)c(-c4c(F)c(F)c(F)c(F)c4F)c4nc(c(-c5c(F)c(F)c(F)c(F)c5F)c5ccc2[nH]5)C=C4)C=C3)cc1
REMARK SMILES IDX 12 1 13 2 9 3 10 4 7 5 8 6 6 7 5 8 4 9 3 10 2 11 1 12 11 13
REMARK SMILES IDX 14 15 15 16 16 17 17 18 18 19 19 20 20 21 21 22 82 23 22 24
REMARK SMILES IDX 81 25 23 26 24 27 25 28 75 29 26 30 80 31 74 32 76 33 27 34
REMARK SMILES IDX 79 35 73 36 72 37 28 39 60 40 40 41 59 42 41 43 44 44 58 45
REMARK SMILES IDX 77 46 42 47 43 48 57 50 78 51 45 52 29 53 30 54 38 55 31 56
REMARK SMILES IDX 32 57 36 58 39 59 33 60 34 61 37 62 35 63 61 64 62 65 70 66
REMARK SMILES IDX 63 67 64 68 68 69 71 70 65 71 66 72 69 73 67 74 46 75 47 76
REMARK SMILES IDX 55 77 48 78 49 79 53 80 56 81 50 82 51 83 54 84 52 85
REMARK H PARENT 11 14 76 38 44 49
REMARK Flexibility Score: inf
ROOT
ATOM      1  C   UNL A   1      31.051  26.286  25.919  1.00  0.00     0.338 C 
ATOM      2  O   UNL A   1      31.045  26.727  27.064  1.00  0.00    -0.249 OA
ENDROOT
BRANCH   1   3
ATOM      3  C   UNL A   1      31.197  24.767  25.573  1.00  0.00     0.161 C 
ATOM      4  C   UNL A   1      30.480  24.669  24.211  1.00  0.00     0.055 C 
BRANCH   3   5
ATOM      5  C   UNL A   1      32.685  24.174  25.496  1.00  0.00     0.029 C 
ATOM      6  C   UNL A   1      33.797  25.181  25.837  1.00  0.00     0.011 C 
BRANCH   5   7
ATOM      7  C   UNL A   1      32.906  22.621  25.856  1.00  0.00     0.007 C 
BRANCH   7   8
ATOM      8  C   UNL A   1      32.249  21.034  25.286  1.00  0.00     0.000 C 
BRANCH   8   9
ATOM      9  C   UNL A   1      33.086  19.305  24.224  1.00  0.00     0.000 C 
BRANCH   9  10
ATOM     10  C   UNL A   1      32.612  17.709  23.854  1.00  0.00    -0.000 C 
BRANCH  10  11
ATOM     11  C   UNL A   1      33.644  16.631  24.206  1.00  0.00    -0.003 C 
ATOM     12  C   UNL A   1      33.044  15.474  24.998  1.00  0.00     0.004 C 
ENDBRANCH  10  11
ENDBRANCH   9  10
ENDBRANCH   8   9
ENDBRANCH   7   8
ENDBRANCH   5   7
ENDBRANCH   3   5
BRANCH   3  13
ATOM     13  O   UNL A   1      30.418  23.903  26.412  1.00  0.00    -0.378 OA
ATOM     14  H   UNL A   1      30.973  23.564  27.132  1.00  0.00     0.212 HD
ENDBRANCH   3  13
ENDBRANCH   1   3
BRANCH   1  15
ATOM     15  O   UNL A   1      31.023  27.082  24.810  1.00  0.00    -0.460 OA
BRANCH  15  16
ATOM     16  C   UNL A   1      32.105  28.033  24.639  1.00  0.00     0.274 C 
BRANCH  16  17
ATOM     17  C   UNL A   1      31.602  29.443  24.933  1.00  0.00     0.275 C 
BRANCH  17  18
ATOM     18  O   UNL A   1      32.724  30.206  25.388  1.00  0.00    -0.458 OA
BRANCH  18  19
ATOM     19  C   UNL A   1      32.470  30.931  26.487  1.00  0.00     0.338 C 
ATOM     20  O   UNL A   1      31.454  31.540  26.777  1.00  0.00    -0.246 OA
BRANCH  19  21
ATOM     21  C   UNL A   1      33.637  30.935  27.355  1.00  0.00     0.060 A 
ATOM     22  C   UNL A   1      34.663  32.382  27.753  1.00  0.00     0.016 A 
ATOM     23  C   UNL A   1      34.190  29.306  27.785  1.00  0.00     0.016 A 
ATOM     24  C   UNL A   1      36.340  32.142  28.432  1.00  0.00     0.010 A 
ATOM     25  C   UNL A   1      35.789  29.073  28.513  1.00  0.00     0.010 A 
ATOM     26  C   UNL A   1      36.875  30.466  28.880  1.00  0.00    -0.014 A 
BRANCH  26  27
ATOM     27  C   UNL A   1      38.123  30.177  29.649  1.00  0.00     0.031 A 
ATOM     28  C   UNL A   1      39.185  29.256  29.082  1.00  0.00     0.074 A 
ATOM     29  C   UNL A   1      38.232  30.621  30.916  1.00  0.00     0.049 A 
ATOM     30  N   UNL A   1      40.195  28.677  29.686  1.00  0.00    -0.248 NA
ATOM     31  C   UNL A   1      39.054  28.857  27.671  1.00  0.00     0.031 C 
ATOM     32  C   UNL A   1      37.231  31.401  31.642  1.00  0.00     0.029 A 
ATOM     33  N   UNL A   1      39.240  30.474  31.838  1.00  0.00    -0.354 N 
ATOM     34  C   UNL A   1      40.746  27.799  28.756  1.00  0.00     0.074 A 
ATOM     35  C   UNL A   1      39.901  27.842  27.587  1.00  0.00     0.031 C 
ATOM     36  C   UNL A   1      37.709  31.760  32.837  1.00  0.00     0.029 A 
ATOM     37  C   UNL A   1      39.001  31.130  33.024  1.00  0.00     0.049 A 
ATOM     38  H   UNL A   1      40.055  29.948  31.667  1.00  0.00     0.167 HD
ATOM     39  C   UNL A   1      41.885  27.067  28.844  1.00  0.00     0.037 A 
ATOM     40  C   UNL A   1      39.723  31.195  34.156  1.00  0.00     0.037 A 
ATOM     41  C   UNL A   1      42.773  27.137  29.974  1.00  0.00     0.049 A 
ATOM     42  C   UNL A   1      41.013  30.438  34.208  1.00  0.00     0.074 A 
ATOM     43  C   UNL A   1      44.009  26.540  30.144  1.00  0.00     0.029 A 
ATOM     44  N   UNL A   1      42.521  27.874  31.125  1.00  0.00    -0.354 N 
ATOM     45  N   UNL A   1      41.546  29.654  33.301  1.00  0.00    -0.248 NA
ATOM     46  C   UNL A   1      41.804  30.571  35.435  1.00  0.00     0.031 C 
ATOM     47  C   UNL A   1      44.478  26.867  31.420  1.00  0.00     0.029 A 
ATOM     48  C   UNL A   1      43.570  27.730  32.016  1.00  0.00     0.049 A 
ATOM     49  H   UNL A   1      41.715  28.417  31.283  1.00  0.00     0.167 HD
ATOM     50  C   UNL A   1      42.749  29.221  33.833  1.00  0.00     0.074 A 
ATOM     51  C   UNL A   1      42.875  29.849  35.135  1.00  0.00     0.031 C 
ATOM     52  C   UNL A   1      43.666  28.379  33.300  1.00  0.00     0.037 A 
BRANCH  39  53
ATOM     53  C   UNL A   1      42.257  26.167  27.689  1.00  0.00     0.064 A 
ATOM     54  C   UNL A   1      43.196  26.545  26.715  1.00  0.00     0.173 A 
ATOM     55  C   UNL A   1      41.693  24.884  27.574  1.00  0.00     0.173 A 
ATOM     56  F   UNL A   1      43.776  27.755  26.767  1.00  0.00    -0.203 F 
ATOM     57  C   UNL A   1      43.515  25.704  25.651  1.00  0.00     0.198 A 
ATOM     58  C   UNL A   1      42.050  24.027  26.533  1.00  0.00     0.198 A 
ATOM     59  F   UNL A   1      40.802  24.452  28.479  1.00  0.00    -0.203 F 
ATOM     60  F   UNL A   1      44.360  26.124  24.698  1.00  0.00    -0.200 F 
ATOM     61  C   UNL A   1      42.948  24.442  25.565  1.00  0.00     0.200 A 
ATOM     62  F   UNL A   1      41.517  22.799  26.466  1.00  0.00    -0.200 F 
ATOM     63  F   UNL A   1      43.265  23.631  24.546  1.00  0.00    -0.200 F 
ENDBRANCH  39  53
BRANCH  40  64
ATOM     64  C   UNL A   1      39.245  32.026  35.295  1.00  0.00     0.064 A 
ATOM     65  C   UNL A   1      39.486  33.408  35.325  1.00  0.00     0.173 A 
ATOM     66  C   UNL A   1      38.496  31.478  36.348  1.00  0.00     0.173 A 
ATOM     67  F   UNL A   1      40.200  33.984  34.345  1.00  0.00    -0.203 F 
ATOM     68  C   UNL A   1      39.021  34.201  36.371  1.00  0.00     0.198 A 
ATOM     69  C   UNL A   1      37.994  32.279  37.371  1.00  0.00     0.198 A 
ATOM     70  F   UNL A   1      38.212  30.167  36.359  1.00  0.00    -0.203 F 
ATOM     71  F   UNL A   1      39.305  35.509  36.395  1.00  0.00    -0.200 F 
ATOM     72  C   UNL A   1      38.266  33.638  37.389  1.00  0.00     0.200 A 
ATOM     73  F   UNL A   1      37.237  31.735  38.335  1.00  0.00    -0.200 F 
ATOM     74  F   UNL A   1      37.802  34.404  38.386  1.00  0.00    -0.200 F 
ENDBRANCH  40  64
BRANCH  52  75
ATOM     75  C   UNL A   1      44.906  28.135  34.105  1.00  0.00     0.064 A 
ATOM     76  C   UNL A   1      46.030  28.968  34.003  1.00  0.00     0.173 A 
ATOM     77  C   UNL A   1      44.954  27.066  35.013  1.00  0.00     0.173 A 
ATOM     78  F   UNL A   1      46.035  29.991  33.136  1.00  0.00    -0.203 F 
ATOM     79  C   UNL A   1      47.172  28.716  34.755  1.00  0.00     0.198 A 
ATOM     80  C   UNL A   1      46.081  26.844  35.794  1.00  0.00     0.198 A 
ATOM     81  F   UNL A   1      43.900  26.247  35.152  1.00  0.00    -0.203 F 
ATOM     82  F   UNL A   1      48.259  29.483  34.593  1.00  0.00    -0.200 F 
ATOM     83  C   UNL A   1      47.193  27.661  35.656  1.00  0.00     0.200 A 
ATOM     84  F   UNL A   1      46.092  25.839  36.680  1.00  0.00    -0.200 F 
ATOM     85  F   UNL A   1      48.292  27.427  36.387  1.00  0.00    -0.200 F 
ENDBRANCH  52  75
ENDBRANCH  26  27
ENDBRANCH  19  21
ENDBRANCH  18  19
ENDBRANCH  17  18
ENDBRANCH  16  17
ENDBRANCH  15  16
ENDBRANCH   1  15
TORSDOF 18
ENDMDL
MODEL 3
REMARK VINA RESULT:     -10.6      0.660      7.686
REMARK SMILES CCCCCC[C@H](C)[C@@](C)(O)C(=O)OCCOC(=O)c1ccc(-c2c3nc(c(-c4c(F)c(F)c(F)c(F)c4F)c4ccc([nH]4)c(-c4c(F)c(F)c(F)c(F)c4F)c4nc(c(-c5c(F)c(F)c(F)c(F)c5F)c5ccc2[nH]5)C=C4)C=C3)cc1
REMARK SMILES IDX 12 1 13 2 9 3 10 4 7 5 8 6 6 7 5 8 4 9 3 10 2 11 1 12 11 13
REMARK SMILES IDX 14 15 15 16 16 17 17 18 18 19 19 20 20 21 21 22 82 23 22 24
REMARK SMILES IDX 81 25 23 26 24 27 25 28 75 29 26 30 80 31 74 32 76 33 27 34
REMARK SMILES IDX 79 35 73 36 72 37 28 39 60 40 40 41 59 42 41 43 44 44 58 45
REMARK SMILES IDX 77 46 42 47 43 48 57 50 78 51 45 52 29 53 30 54 38 55 31 56
REMARK SMILES IDX 32 57 36 58 39 59 33 60 34 61 37 62 35 63 61 64 62 65 70 66
REMARK SMILES IDX 63 67 64 68 68 69 71 70 65 71 66 72 69 73 67 74 46 75 47 76
REMARK SMILES IDX 55 77 48 78 49 79 53 80 56 81 50 82 51 83 54 84 52 85
REMARK H PARENT 11 14 76 38 44 49
REMARK Flexibility Score: inf
ROOT
ATOM      1  C   UNL A   1      43.866  19.031  25.366  1.00  0.00     0.338 C 
ATOM      2  O   UNL A   1      44.767  18.199  25.310  1.00  0.00    -0.249 OA
ENDROOT
BRANCH   1   3
ATOM      3  C   UNL A   1      42.523  18.806  26.135  1.00  0.00     0.161 C 
ATOM      4  C   UNL A   1      43.010  18.474  27.560  1.00  0.00     0.055 C 
BRANCH   3   5
ATOM      5  C   UNL A   1      41.472  20.016  26.142  1.00  0.00     0.029 C 
ATOM      6  C   UNL A   1      40.018  19.607  25.846  1.00  0.00     0.011 C 
BRANCH   5   7
ATOM      7  C   UNL A   1      41.743  21.258  27.130  1.00  0.00     0.007 C 
BRANCH   7   8
ATOM      8  C   UNL A   1      40.909  22.807  27.552  1.00  0.00     0.000 C 
BRANCH   8   9
ATOM      9  C   UNL A   1      39.045  23.781  26.925  1.00  0.00     0.000 C 
BRANCH   9  10
ATOM     10  C   UNL A   1      37.961  23.689  25.611  1.00  0.00    -0.000 C 
BRANCH  10  11
ATOM     11  C   UNL A   1      36.868  22.622  25.751  1.00  0.00    -0.003 C 
ATOM     12  C   UNL A   1      37.200  21.335  25.005  1.00  0.00     0.004 C 
ENDBRANCH  10  11
ENDBRANCH   9  10
ENDBRANCH   8   9
ENDBRANCH   7   8
ENDBRANCH   5   7
ENDBRANCH   3   5
BRANCH   3  13
ATOM     13  O   UNL A   1      41.823  17.614  25.747  1.00  0.00    -0.378 OA
ATOM     14  H   UNL A   1      42.190  17.281  24.912  1.00  0.00     0.212 HD
ENDBRANCH   3  13
ENDBRANCH   1   3
BRANCH   1  15
ATOM     15  O   UNL A   1      43.895  20.213  24.684  1.00  0.00    -0.460 OA
BRANCH  15  16
ATOM     16  C   UNL A   1      45.190  20.714  24.264  1.00  0.00     0.274 C 
BRANCH  16  17
ATOM     17  C   UNL A   1      45.651  21.811  25.219  1.00  0.00     0.275 C 
BRANCH  17  18
ATOM     18  O   UNL A   1      44.738  22.903  25.082  1.00  0.00    -0.458 OA
BRANCH  18  19
ATOM     19  C   UNL A   1      45.340  24.094  24.947  1.00  0.00     0.338 C 
ATOM     20  O   UNL A   1      46.306  24.383  24.262  1.00  0.00    -0.246 OA
BRANCH  19  21
ATOM     21  C   UNL A   1      44.682  25.078  25.793  1.00  0.00     0.060 A 
ATOM     22  C   UNL A   1      44.701  26.878  25.545  1.00  0.00     0.016 A 
ATOM     23  C   UNL A   1      44.076  24.394  27.313  1.00  0.00     0.016 A 
ATOM     24  C   UNL A   1      44.266  27.986  26.928  1.00  0.00     0.010 A 
ATOM     25  C   UNL A   1      43.581  25.467  28.635  1.00  0.00     0.010 A 
ATOM     26  C   UNL A   1      43.632  27.262  28.468  1.00  0.00    -0.014 A 
BRANCH  26  27
ATOM     27  C   UNL A   1      43.032  28.069  29.573  1.00  0.00     0.031 A 
ATOM     28  C   UNL A   1      43.719  28.166  30.920  1.00  0.00     0.074 A 
ATOM     29  C   UNL A   1      41.800  28.591  29.413  1.00  0.00     0.049 A 
ATOM     30  N   UNL A   1      43.246  28.586  32.069  1.00  0.00    -0.248 NA
ATOM     31  C   UNL A   1      45.092  27.643  31.021  1.00  0.00     0.031 C 
ATOM     32  C   UNL A   1      40.962  28.462  28.223  1.00  0.00     0.029 A 
ATOM     33  N   UNL A   1      41.020  29.334  30.265  1.00  0.00    -0.354 N 
ATOM     34  C   UNL A   1      44.225  28.296  33.017  1.00  0.00     0.074 A 
ATOM     35  C   UNL A   1      45.270  27.574  32.332  1.00  0.00     0.031 C 
ATOM     36  C   UNL A   1      39.849  29.188  28.366  1.00  0.00     0.029 A 
ATOM     37  C   UNL A   1      39.825  29.733  29.709  1.00  0.00     0.049 A 
ATOM     38  H   UNL A   1      41.289  29.559  31.185  1.00  0.00     0.167 HD
ATOM     39  C   UNL A   1      44.277  28.650  34.325  1.00  0.00     0.037 A 
ATOM     40  C   UNL A   1      38.802  30.433  30.228  1.00  0.00     0.037 A 
ATOM     41  C   UNL A   1      43.278  29.475  34.952  1.00  0.00     0.049 A 
ATOM     42  C   UNL A   1      38.910  30.877  31.654  1.00  0.00     0.074 A 
ATOM     43  C   UNL A   1      43.264  30.000  36.231  1.00  0.00     0.029 A 
ATOM     44  N   UNL A   1      42.118  29.914  34.325  1.00  0.00    -0.354 N 
ATOM     45  N   UNL A   1      39.865  30.640  32.521  1.00  0.00    -0.248 NA
ATOM     46  C   UNL A   1      37.804  31.684  32.177  1.00  0.00     0.031 C 
ATOM     47  C   UNL A   1      42.070  30.706  36.398  1.00  0.00     0.029 A 
ATOM     48  C   UNL A   1      41.374  30.687  35.199  1.00  0.00     0.049 A 
ATOM     49  H   UNL A   1      41.864  29.706  33.397  1.00  0.00     0.167 HD
ATOM     50  C   UNL A   1      39.491  31.291  33.685  1.00  0.00     0.074 A 
ATOM     51  C   UNL A   1      38.231  31.951  33.403  1.00  0.00     0.031 C 
ATOM     52  C   UNL A   1      40.127  31.338  34.880  1.00  0.00     0.037 A 
BRANCH  39  53
ATOM     53  C   UNL A   1      45.453  28.189  35.152  1.00  0.00     0.064 A 
ATOM     54  C   UNL A   1      46.636  28.940  35.260  1.00  0.00     0.173 A 
ATOM     55  C   UNL A   1      45.385  26.990  35.884  1.00  0.00     0.173 A 
ATOM     56  F   UNL A   1      46.766  30.096  34.590  1.00  0.00    -0.203 F 
ATOM     57  C   UNL A   1      47.714  28.489  36.019  1.00  0.00     0.198 A 
ATOM     58  C   UNL A   1      46.450  26.565  36.680  1.00  0.00     0.198 A 
ATOM     59  F   UNL A   1      44.279  26.232  35.841  1.00  0.00    -0.203 F 
ATOM     60  F   UNL A   1      48.855  29.194  36.042  1.00  0.00    -0.200 F 
ATOM     61  C   UNL A   1      47.618  27.307  36.735  1.00  0.00     0.200 A 
ATOM     62  F   UNL A   1      46.343  25.433  37.390  1.00  0.00    -0.200 F 
ATOM     63  F   UNL A   1      48.652  26.880  37.473  1.00  0.00    -0.200 F 
ENDBRANCH  39  53
BRANCH  40  64
ATOM     64  C   UNL A   1      37.626  30.769  29.380  1.00  0.00     0.064 A 
ATOM     65  C   UNL A   1      36.634  29.814  29.117  1.00  0.00     0.173 A 
ATOM     66  C   UNL A   1      37.436  32.059  28.858  1.00  0.00     0.173 A 
ATOM     67  F   UNL A   1      36.766  28.565  29.589  1.00  0.00    -0.203 F 
ATOM     68  C   UNL A   1      35.515  30.125  28.348  1.00  0.00     0.198 A 
ATOM     69  C   UNL A   1      36.296  32.381  28.125  1.00  0.00     0.198 A 
ATOM     70  F   UNL A   1      38.339  33.021  29.099  1.00  0.00    -0.203 F 
ATOM     71  F   UNL A   1      34.607  29.179  28.076  1.00  0.00    -0.200 F 
ATOM     72  C   UNL A   1      35.342  31.412  27.860  1.00  0.00     0.200 A 
ATOM     73  F   UNL A   1      36.117  33.635  27.684  1.00  0.00    -0.200 F 
ATOM     74  F   UNL A   1      34.256  31.717  27.136  1.00  0.00    -0.200 F 
ENDBRANCH  40  64
BRANCH  52  75
ATOM     75  C   UNL A   1      39.492  32.174  35.949  1.00  0.00     0.064 A 
ATOM     76  C   UNL A   1      39.843  33.517  36.143  1.00  0.00     0.173 A 
ATOM     77  C   UNL A   1      38.496  31.624  36.770  1.00  0.00     0.173 A 
ATOM     78  F   UNL A   1      40.802  34.080  35.393  1.00  0.00    -0.203 F 
ATOM     79  C   UNL A   1      39.245  34.271  37.148  1.00  0.00     0.198 A 
ATOM     80  C   UNL A   1      37.869  32.393  37.744  1.00  0.00     0.198 A 
ATOM     81  F   UNL A   1      38.120  30.345  36.616  1.00  0.00    -0.203 F 
ATOM     82  F   UNL A   1      39.643  35.532  37.361  1.00  0.00    -0.200 F 
ATOM     83  C   UNL A   1      38.253  33.711  37.940  1.00  0.00     0.200 A 
ATOM     84  F   UNL A   1      36.896  31.858  38.493  1.00  0.00    -0.200 F 
ATOM     85  F   UNL A   1      37.671  34.442  38.900  1.00  0.00    -0.200 F 
ENDBRANCH  52  75
ENDBRANCH  26  27
ENDBRANCH  19  21
ENDBRANCH  18  19
ENDBRANCH  17  18
ENDBRANCH  16  17
ENDBRANCH  15  16
ENDBRANCH   1  15
TORSDOF 18
ENDMDL
