MODEL 1
REMARK VINA RESULT:     -13.7      0.000      0.000
REMARK SMILES O=C(OCCOC(=O)c1ccc(-c2c3nc(c(-c4c(F)c(F)c(F)c(F)c4F)c4ccc([nH]4)c(-c4c(F)c(F)c(F)c(F)c4F)c4nc(c(-c5c(F)c(F)c(F)c(F)c5F)c5ccc2[nH]5)C=C4)C=C3)cc1)c1ccc(/[NH+]=C2\S[C@@H](Cc3ccc(F)cc3)C(=O)N2Cc2ccccc2)cc1
REMARK SMILES IDX 4 1 3 2 2 3 1 4 72 5 73 6 99 7 74 8 98 9 75 10 76 11 77 12
REMARK SMILES IDX 78 14 90 15 79 16 88 17 89 18 91 19 92 20 93 21 97 22 94 23
REMARK SMILES IDX 96 24 95 25 80 26 81 27 82 28 87 29 83 30 86 31 84 32 85 33
REMARK SMILES IDX 5 34 6 35 7 36 8 37 9 38 10 39 71 40 11 41 70 42 12 43 13 44
REMARK SMILES IDX 14 45 64 46 15 47 69 48 63 49 65 50 16 51 68 52 62 53 61 54
REMARK SMILES IDX 17 56 49 57 29 58 48 59 30 60 33 61 47 62 66 63 31 64 32 65
REMARK SMILES IDX 46 67 67 68 34 69 18 70 19 71 27 72 20 73 21 74 25 75 28 76
REMARK SMILES IDX 22 77 23 78 26 79 24 80 50 81 51 82 59 83 52 84 53 85 57 86
REMARK SMILES IDX 60 87 54 88 55 89 58 90 56 91 35 92 36 93 44 94 37 95 38 96
REMARK SMILES IDX 42 97 45 98 39 99 40 100 43 101 41 102
REMARK H PARENT 76 13 65 55 33 66
REMARK Flexibility Score: inf
ROOT
ATOM      1  C   UNL A   1      43.102  20.929  25.923  1.00  0.00     0.275 C 
ENDROOT
BRANCH   1   2
ATOM      2  O   UNL A   1      41.871  21.391  26.508  1.00  0.00    -0.458 OA
BRANCH   2   3
ATOM      3  C   UNL A   1      40.606  20.944  26.333  1.00  0.00     0.338 C 
ATOM      4  O   UNL A   1      40.423  19.734  26.193  1.00  0.00    -0.246 OA
BRANCH   3   5
ATOM      5  C   UNL A   1      39.418  21.842  26.156  1.00  0.00     0.060 A 
ATOM      6  C   UNL A   1      39.241  23.098  26.735  1.00  0.00     0.020 A 
ATOM      7  C   UNL A   1      38.392  21.365  25.313  1.00  0.00     0.020 A 
ATOM      8  C   UNL A   1      38.136  23.886  26.418  1.00  0.00     0.052 A 
ATOM      9  C   UNL A   1      37.258  22.136  25.039  1.00  0.00     0.052 A 
ATOM     10  C   UNL A   1      37.138  23.411  25.575  1.00  0.00     0.125 A 
BRANCH  10  11
ATOM     11  N   UNL A   1      36.034  24.240  25.363  1.00  0.00    -0.235 N 
ATOM     12  C   UNL A   1      34.881  23.682  25.208  1.00  0.00     0.320 C 
ATOM     13  H   UNL A   1      36.132  25.219  25.332  1.00  0.00     0.313 HD
ATOM     14  S   UNL A   1      34.605  21.990  24.890  1.00  0.00    -0.022 SA
ATOM     15  N   UNL A   1      33.701  24.359  25.332  1.00  0.00    -0.186 N 
ATOM     16  C   UNL A   1      32.850  22.251  24.570  1.00  0.00     0.178 C 
ATOM     17  C   UNL A   1      32.547  23.615  25.176  1.00  0.00     0.324 C 
ATOM     18  O   UNL A   1      31.418  24.016  25.437  1.00  0.00    -0.245 OA
BRANCH  15  19
ATOM     19  C   UNL A   1      33.647  25.758  25.740  1.00  0.00     0.283 C 
BRANCH  19  20
ATOM     20  C   UNL A   1      33.588  26.735  24.578  1.00  0.00    -0.006 A 
ATOM     21  C   UNL A   1      33.567  26.277  23.253  1.00  0.00     0.008 A 
ATOM     22  C   UNL A   1      33.569  28.119  24.807  1.00  0.00     0.008 A 
ATOM     23  C   UNL A   1      33.534  27.184  22.189  1.00  0.00     0.000 A 
ATOM     24  C   UNL A   1      33.514  29.025  23.745  1.00  0.00     0.000 A 
ATOM     25  C   UNL A   1      33.502  28.557  22.435  1.00  0.00     0.000 A 
ENDBRANCH  19  20
ENDBRANCH  15  19
BRANCH  16  26
ATOM     26  C   UNL A   1      32.077  21.079  25.162  1.00  0.00     0.063 C 
BRANCH  26  27
ATOM     27  C   UNL A   1      32.493  19.738  24.612  1.00  0.00    -0.046 A 
ATOM     28  C   UNL A   1      33.092  18.796  25.459  1.00  0.00     0.007 A 
ATOM     29  C   UNL A   1      32.317  19.429  23.253  1.00  0.00     0.007 A 
ATOM     30  C   UNL A   1      33.485  17.555  24.962  1.00  0.00     0.039 A 
ATOM     31  C   UNL A   1      32.701  18.182  22.762  1.00  0.00     0.039 A 
ATOM     32  C   UNL A   1      33.279  17.257  23.622  1.00  0.00     0.123 A 
ATOM     33  F   UNL A   1      33.648  16.060  23.148  1.00  0.00    -0.207 F 
ENDBRANCH  26  27
ENDBRANCH  16  26
ENDBRANCH  10  11
ENDBRANCH   3   5
ENDBRANCH   2   3
ENDBRANCH   1   2
BRANCH   1  34
ATOM     34  C   UNL A   1      43.772  21.966  25.015  1.00  0.00     0.275 C 
BRANCH  34  35
ATOM     35  O   UNL A   1      43.056  23.216  24.960  1.00  0.00    -0.458 OA
BRANCH  35  36
ATOM     36  C   UNL A   1      43.812  24.321  25.189  1.00  0.00     0.338 C 
ATOM     37  O   UNL A   1      44.808  24.650  24.562  1.00  0.00    -0.246 OA
BRANCH  36  38
ATOM     38  C   UNL A   1      43.221  25.177  26.250  1.00  0.00     0.060 A 
ATOM     39  C   UNL A   1      43.667  26.502  26.329  1.00  0.00     0.016 A 
ATOM     40  C   UNL A   1      42.273  24.715  27.171  1.00  0.00     0.016 A 
ATOM     41  C   UNL A   1      43.199  27.350  27.337  1.00  0.00     0.010 A 
ATOM     42  C   UNL A   1      41.794  25.573  28.176  1.00  0.00     0.010 A 
ATOM     43  C   UNL A   1      42.274  26.891  28.285  1.00  0.00    -0.014 A 
BRANCH  43  44
ATOM     44  C   UNL A   1      41.883  27.781  29.416  1.00  0.00     0.031 A 
ATOM     45  C   UNL A   1      40.668  28.655  29.299  1.00  0.00     0.074 A 
ATOM     46  C   UNL A   1      42.567  27.772  30.576  1.00  0.00     0.049 A 
ATOM     47  N   UNL A   1      40.096  29.400  30.213  1.00  0.00    -0.248 NA
ATOM     48  C   UNL A   1      40.002  28.691  27.989  1.00  0.00     0.031 C 
ATOM     49  C   UNL A   1      43.752  26.969  30.837  1.00  0.00     0.029 A 
ATOM     50  N   UNL A   1      42.364  28.454  31.752  1.00  0.00    -0.354 N 
ATOM     51  C   UNL A   1      38.983  29.959  29.603  1.00  0.00     0.074 A 
ATOM     52  C   UNL A   1      38.997  29.525  28.221  1.00  0.00     0.031 C 
ATOM     53  C   UNL A   1      44.194  27.214  32.081  1.00  0.00     0.029 A 
ATOM     54  C   UNL A   1      43.308  28.186  32.715  1.00  0.00     0.049 A 
ATOM     55  H   UNL A   1      41.614  29.076  31.892  1.00  0.00     0.167 HD
ATOM     56  C   UNL A   1      38.017  30.734  30.151  1.00  0.00     0.037 A 
ATOM     57  C   UNL A   1      43.439  28.656  33.970  1.00  0.00     0.037 A 
ATOM     58  C   UNL A   1      38.000  31.188  31.517  1.00  0.00     0.049 A 
ATOM     59  C   UNL A   1      42.388  29.575  34.534  1.00  0.00     0.074 A 
ATOM     60  C   UNL A   1      37.045  31.963  32.156  1.00  0.00     0.029 A 
ATOM     61  N   UNL A   1      38.984  30.921  32.454  1.00  0.00    -0.354 N 
ATOM     62  N   UNL A   1      41.296  30.027  33.970  1.00  0.00    -0.248 NA
ATOM     63  C   UNL A   1      42.574  30.024  35.922  1.00  0.00     0.031 C 
ATOM     64  C   UNL A   1      37.474  32.201  33.466  1.00  0.00     0.029 A 
ATOM     65  C   UNL A   1      38.674  31.537  33.658  1.00  0.00     0.049 A 
ATOM     66  H   UNL A   1      39.787  30.375  32.290  1.00  0.00     0.167 HD
ATOM     67  C   UNL A   1      40.650  30.781  34.940  1.00  0.00     0.074 A 
ATOM     68  C   UNL A   1      41.462  30.714  36.135  1.00  0.00     0.031 C 
ATOM     69  C   UNL A   1      39.484  31.467  34.846  1.00  0.00     0.037 A 
BRANCH  56  70
ATOM     70  C   UNL A   1      36.876  31.133  29.265  1.00  0.00     0.064 A 
ATOM     71  C   UNL A   1      35.865  30.219  28.934  1.00  0.00     0.173 A 
ATOM     72  C   UNL A   1      36.762  32.447  28.789  1.00  0.00     0.173 A 
ATOM     73  F   UNL A   1      35.937  28.948  29.357  1.00  0.00    -0.203 F 
ATOM     74  C   UNL A   1      34.786  30.604  28.143  1.00  0.00     0.198 A 
ATOM     75  C   UNL A   1      35.669  32.833  28.018  1.00  0.00     0.198 A 
ATOM     76  F   UNL A   1      37.702  33.356  29.084  1.00  0.00    -0.203 F 
ATOM     77  F   UNL A   1      33.847  29.707  27.811  1.00  0.00    -0.200 F 
ATOM     78  C   UNL A   1      34.685  31.911  27.693  1.00  0.00     0.200 A 
ATOM     79  F   UNL A   1      35.568  34.100  27.591  1.00  0.00    -0.200 F 
ATOM     80  F   UNL A   1      33.642  32.283  26.940  1.00  0.00    -0.200 F 
ENDBRANCH  56  70
BRANCH  57  81
ATOM     81  C   UNL A   1      44.601  28.252  34.803  1.00  0.00     0.064 A 
ATOM     82  C   UNL A   1      45.800  28.980  34.782  1.00  0.00     0.173 A 
ATOM     83  C   UNL A   1      44.551  27.099  35.600  1.00  0.00     0.173 A 
ATOM     84  F   UNL A   1      45.903  30.076  34.017  1.00  0.00    -0.203 F 
ATOM     85  C   UNL A   1      46.915  28.549  35.497  1.00  0.00     0.198 A 
ATOM     86  C   UNL A   1      45.659  26.684  36.336  1.00  0.00     0.198 A 
ATOM     87  F   UNL A   1      43.428  26.369  35.657  1.00  0.00    -0.203 F 
ATOM     88  F   UNL A   1      48.067  29.229  35.413  1.00  0.00    -0.200 F 
ATOM     89  C   UNL A   1      46.843  27.403  36.274  1.00  0.00     0.200 A 
ATOM     90  F   UNL A   1      45.581  25.583  37.096  1.00  0.00    -0.200 F 
ATOM     91  F   UNL A   1      47.919  26.983  36.956  1.00  0.00    -0.200 F 
ENDBRANCH  57  81
BRANCH  69  92
ATOM     92  C   UNL A   1      39.004  32.179  36.079  1.00  0.00     0.064 A 
ATOM     93  C   UNL A   1      39.367  33.507  36.349  1.00  0.00     0.173 A 
ATOM     94  C   UNL A   1      38.159  31.532  36.994  1.00  0.00     0.173 A 
ATOM     95  F   UNL A   1      40.184  34.166  35.514  1.00  0.00    -0.203 F 
ATOM     96  C   UNL A   1      38.929  34.149  37.505  1.00  0.00     0.198 A 
ATOM     97  C   UNL A   1      37.700  32.187  38.134  1.00  0.00     0.198 A 
ATOM     98  F   UNL A   1      37.777  30.264  36.781  1.00  0.00    -0.203 F 
ATOM     99  F   UNL A   1      39.334  35.399  37.769  1.00  0.00    -0.200 F 
ATOM    100  C   UNL A   1      38.092  33.491  38.393  1.00  0.00     0.200 A 
ATOM    101  F   UNL A   1      36.882  31.552  38.985  1.00  0.00    -0.200 F 
ATOM    102  F   UNL A   1      37.673  34.110  39.505  1.00  0.00    -0.200 F 
ENDBRANCH  69  92
ENDBRANCH  43  44
ENDBRANCH  36  38
ENDBRANCH  35  36
ENDBRANCH  34  35
ENDBRANCH   1  34
TORSDOF 16
ENDMDL
MODEL 2
REMARK VINA RESULT:     -13.3      4.858      9.088
REMARK SMILES O=C(OCCOC(=O)c1ccc(-c2c3nc(c(-c4c(F)c(F)c(F)c(F)c4F)c4ccc([nH]4)c(-c4c(F)c(F)c(F)c(F)c4F)c4nc(c(-c5c(F)c(F)c(F)c(F)c5F)c5ccc2[nH]5)C=C4)C=C3)cc1)c1ccc(/[NH+]=C2\S[C@@H](Cc3ccc(F)cc3)C(=O)N2Cc2ccccc2)cc1
REMARK SMILES IDX 4 1 3 2 2 3 1 4 72 5 73 6 99 7 74 8 98 9 75 10 76 11 77 12
REMARK SMILES IDX 78 14 90 15 79 16 88 17 89 18 91 19 92 20 93 21 97 22 94 23
REMARK SMILES IDX 96 24 95 25 80 26 81 27 82 28 87 29 83 30 86 31 84 32 85 33
REMARK SMILES IDX 5 34 6 35 7 36 8 37 9 38 10 39 71 40 11 41 70 42 12 43 13 44
REMARK SMILES IDX 14 45 64 46 15 47 69 48 63 49 65 50 16 51 68 52 62 53 61 54
REMARK SMILES IDX 17 56 49 57 29 58 48 59 30 60 33 61 47 62 66 63 31 64 32 65
REMARK SMILES IDX 46 67 67 68 34 69 18 70 19 71 27 72 20 73 21 74 25 75 28 76
REMARK SMILES IDX 22 77 23 78 26 79 24 80 50 81 51 82 59 83 52 84 53 85 57 86
REMARK SMILES IDX 60 87 54 88 55 89 58 90 56 91 35 92 36 93 44 94 37 95 38 96
REMARK SMILES IDX 42 97 45 98 39 99 40 100 43 101 41 102
REMARK H PARENT 76 13 65 55 33 66
REMARK Flexibility Score: inf
ROOT
ATOM      1  C   UNL A   1      42.202  19.095  26.983  1.00  0.00     0.275 C 
ENDROOT
BRANCH   1   2
ATOM      2  O   UNL A   1      41.241  20.032  26.465  1.00  0.00    -0.458 OA
BRANCH   2   3
ATOM      3  C   UNL A   1      41.113  21.360  26.693  1.00  0.00     0.338 C 
ATOM      4  O   UNL A   1      42.041  21.954  27.242  1.00  0.00    -0.246 OA
BRANCH   3   5
ATOM      5  C   UNL A   1      39.851  22.133  26.449  1.00  0.00     0.060 A 
ATOM      6  C   UNL A   1      39.580  23.429  26.889  1.00  0.00     0.020 A 
ATOM      7  C   UNL A   1      38.854  21.482  25.694  1.00  0.00     0.020 A 
ATOM      8  C   UNL A   1      38.408  24.083  26.517  1.00  0.00     0.052 A 
ATOM      9  C   UNL A   1      37.654  22.122  25.366  1.00  0.00     0.052 A 
ATOM     10  C   UNL A   1      37.438  23.437  25.760  1.00  0.00     0.125 A 
BRANCH  10  11
ATOM     11  N   UNL A   1      36.265  24.144  25.488  1.00  0.00    -0.235 N 
ATOM     12  C   UNL A   1      35.190  23.466  25.261  1.00  0.00     0.320 C 
ATOM     13  H   UNL A   1      36.257  25.128  25.468  1.00  0.00     0.313 HD
ATOM     14  S   UNL A   1      35.119  21.758  24.917  1.00  0.00    -0.022 SA
ATOM     15  N   UNL A   1      33.938  24.010  25.318  1.00  0.00    -0.186 N 
ATOM     16  C   UNL A   1      33.367  21.832  24.494  1.00  0.00     0.178 C 
ATOM     17  C   UNL A   1      32.883  23.148  25.089  1.00  0.00     0.324 C 
ATOM     18  O   UNL A   1      31.704  23.421  25.285  1.00  0.00    -0.245 OA
BRANCH  15  19
ATOM     19  C   UNL A   1      33.709  25.390  25.731  1.00  0.00     0.283 C 
BRANCH  19  20
ATOM     20  C   UNL A   1      33.629  26.371  24.574  1.00  0.00    -0.006 A 
ATOM     21  C   UNL A   1      33.706  27.753  24.793  1.00  0.00     0.008 A 
ATOM     22  C   UNL A   1      33.460  25.913  23.258  1.00  0.00     0.008 A 
ATOM     23  C   UNL A   1      33.610  28.650  23.724  1.00  0.00     0.000 A 
ATOM     24  C   UNL A   1      33.386  26.806  22.187  1.00  0.00     0.000 A 
ATOM     25  C   UNL A   1      33.456  28.176  22.421  1.00  0.00     0.000 A 
ENDBRANCH  19  20
ENDBRANCH  15  19
BRANCH  16  26
ATOM     26  C   UNL A   1      32.693  20.576  25.033  1.00  0.00     0.063 C 
BRANCH  26  27
ATOM     27  C   UNL A   1      33.161  19.305  24.371  1.00  0.00    -0.046 A 
ATOM     28  C   UNL A   1      32.495  18.828  23.234  1.00  0.00     0.007 A 
ATOM     29  C   UNL A   1      34.237  18.571  24.897  1.00  0.00     0.007 A 
ATOM     30  C   UNL A   1      32.915  17.651  22.616  1.00  0.00     0.039 A 
ATOM     31  C   UNL A   1      34.662  17.400  24.270  1.00  0.00     0.039 A 
ATOM     32  C   UNL A   1      33.997  16.954  23.135  1.00  0.00     0.123 A 
ATOM     33  F   UNL A   1      34.406  15.828  22.534  1.00  0.00    -0.207 F 
ENDBRANCH  26  27
ENDBRANCH  16  26
ENDBRANCH  10  11
ENDBRANCH   3   5
ENDBRANCH   2   3
ENDBRANCH   1   2
BRANCH   1  34
ATOM     34  C   UNL A   1      43.002  18.376  25.890  1.00  0.00     0.275 C 
BRANCH  34  35
ATOM     35  O   UNL A   1      43.129  19.148  24.680  1.00  0.00    -0.458 OA
BRANCH  35  36
ATOM     36  C   UNL A   1      44.396  19.521  24.367  1.00  0.00     0.338 C 
ATOM     37  O   UNL A   1      45.218  18.839  23.772  1.00  0.00    -0.246 OA
BRANCH  36  38
ATOM     38  C   UNL A   1      44.659  20.935  24.741  1.00  0.00     0.060 A 
ATOM     39  C   UNL A   1      45.312  21.167  25.958  1.00  0.00     0.016 A 
ATOM     40  C   UNL A   1      44.267  22.024  23.952  1.00  0.00     0.016 A 
ATOM     41  C   UNL A   1      45.541  22.472  26.403  1.00  0.00     0.010 A 
ATOM     42  C   UNL A   1      44.510  23.335  24.396  1.00  0.00     0.010 A 
ATOM     43  C   UNL A   1      45.125  23.572  25.638  1.00  0.00    -0.014 A 
BRANCH  43  44
ATOM     44  C   UNL A   1      45.278  24.948  26.193  1.00  0.00     0.031 A 
ATOM     45  C   UNL A   1      46.622  25.618  26.179  1.00  0.00     0.074 A 
ATOM     46  C   UNL A   1      44.216  25.634  26.655  1.00  0.00     0.049 A 
ATOM     47  N   UNL A   1      46.932  26.852  26.496  1.00  0.00    -0.248 NA
ATOM     48  C   UNL A   1      47.763  24.803  25.741  1.00  0.00     0.031 C 
ATOM     49  C   UNL A   1      42.856  25.119  26.718  1.00  0.00     0.029 A 
ATOM     50  N   UNL A   1      44.108  26.910  27.154  1.00  0.00    -0.354 N 
ATOM     51  C   UNL A   1      48.293  26.972  26.259  1.00  0.00     0.074 A 
ATOM     52  C   UNL A   1      48.764  25.669  25.837  1.00  0.00     0.031 C 
ATOM     53  C   UNL A   1      42.048  26.050  27.247  1.00  0.00     0.029 A 
ATOM     54  C   UNL A   1      42.834  27.243  27.548  1.00  0.00     0.049 A 
ATOM     55  H   UNL A   1      44.872  27.527  27.224  1.00  0.00     0.167 HD
ATOM     56  C   UNL A   1      49.074  28.075  26.349  1.00  0.00     0.037 A 
ATOM     57  C   UNL A   1      42.349  28.383  28.077  1.00  0.00     0.037 A 
ATOM     58  C   UNL A   1      48.623  29.371  26.784  1.00  0.00     0.049 A 
ATOM     59  C   UNL A   1      43.255  29.575  28.234  1.00  0.00     0.074 A 
ATOM     60  C   UNL A   1      49.350  30.547  26.886  1.00  0.00     0.029 A 
ATOM     61  N   UNL A   1      47.335  29.664  27.201  1.00  0.00    -0.354 N 
ATOM     62  N   UNL A   1      44.522  29.698  27.925  1.00  0.00    -0.248 NA
ATOM     63  C   UNL A   1      42.654  30.798  28.786  1.00  0.00     0.031 C 
ATOM     64  C   UNL A   1      48.512  31.539  27.406  1.00  0.00     0.029 A 
ATOM     65  C   UNL A   1      47.252  30.995  27.586  1.00  0.00     0.049 A 
ATOM     66  H   UNL A   1      46.588  29.023  27.223  1.00  0.00     0.167 HD
ATOM     67  C   UNL A   1      44.859  31.014  28.211  1.00  0.00     0.074 A 
ATOM     68  C   UNL A   1      43.660  31.657  28.702  1.00  0.00     0.031 C 
ATOM     69  C   UNL A   1      46.057  31.633  28.074  1.00  0.00     0.037 A 
BRANCH  56  70
ATOM     70  C   UNL A   1      50.510  27.929  25.950  1.00  0.00     0.064 A 
ATOM     71  C   UNL A   1      50.901  28.026  24.606  1.00  0.00     0.173 A 
ATOM     72  C   UNL A   1      51.509  27.748  26.917  1.00  0.00     0.173 A 
ATOM     73  F   UNL A   1      49.979  28.189  23.645  1.00  0.00    -0.203 F 
ATOM     74  C   UNL A   1      52.241  27.930  24.242  1.00  0.00     0.198 A 
ATOM     75  C   UNL A   1      52.851  27.676  26.551  1.00  0.00     0.198 A 
ATOM     76  F   UNL A   1      51.185  27.654  28.214  1.00  0.00    -0.203 F 
ATOM     77  F   UNL A   1      52.589  27.992  22.950  1.00  0.00    -0.200 F 
ATOM     78  C   UNL A   1      53.215  27.763  25.215  1.00  0.00     0.200 A 
ATOM     79  F   UNL A   1      53.792  27.524  27.493  1.00  0.00    -0.200 F 
ATOM     80  F   UNL A   1      54.505  27.680  24.865  1.00  0.00    -0.200 F 
ENDBRANCH  56  70
BRANCH  57  81
ATOM     81  C   UNL A   1      40.922  28.472  28.482  1.00  0.00     0.064 A 
ATOM     82  C   UNL A   1      39.945  28.962  27.603  1.00  0.00     0.173 A 
ATOM     83  C   UNL A   1      40.516  28.114  29.775  1.00  0.00     0.173 A 
ATOM     84  F   UNL A   1      40.290  29.338  26.363  1.00  0.00    -0.203 F 
ATOM     85  C   UNL A   1      38.624  29.125  28.015  1.00  0.00     0.198 A 
ATOM     86  C   UNL A   1      39.189  28.253  30.177  1.00  0.00     0.198 A 
ATOM     87  F   UNL A   1      41.411  27.637  30.653  1.00  0.00    -0.203 F 
ATOM     88  F   UNL A   1      37.723  29.652  27.175  1.00  0.00    -0.200 F 
ATOM     89  C   UNL A   1      38.247  28.769  29.301  1.00  0.00     0.200 A 
ATOM     90  F   UNL A   1      38.827  27.895  31.417  1.00  0.00    -0.200 F 
ATOM     91  F   UNL A   1      36.978  28.935  29.700  1.00  0.00    -0.200 F 
ENDBRANCH  57  81
BRANCH  69  92
ATOM     92  C   UNL A   1      46.125  33.089  28.438  1.00  0.00     0.064 A 
ATOM     93  C   UNL A   1      46.458  33.507  29.735  1.00  0.00     0.173 A 
ATOM     94  C   UNL A   1      45.866  34.077  27.476  1.00  0.00     0.173 A 
ATOM     95  F   UNL A   1      46.699  32.602  30.695  1.00  0.00    -0.203 F 
ATOM     96  C   UNL A   1      46.499  34.860  30.063  1.00  0.00     0.198 A 
ATOM     97  C   UNL A   1      45.937  35.430  27.801  1.00  0.00     0.198 A 
ATOM     98  F   UNL A   1      45.548  33.732  26.220  1.00  0.00    -0.203 F 
ATOM     99  F   UNL A   1      46.766  35.234  31.322  1.00  0.00    -0.200 F 
ATOM    100  C   UNL A   1      46.244  35.820  29.096  1.00  0.00     0.200 A 
ATOM    101  F   UNL A   1      45.701  36.356  26.862  1.00  0.00    -0.200 F 
ATOM    102  F   UNL A   1      46.283  37.121  29.414  1.00  0.00    -0.200 F 
ENDBRANCH  69  92
ENDBRANCH  43  44
ENDBRANCH  36  38
ENDBRANCH  35  36
ENDBRANCH  34  35
ENDBRANCH   1  34
TORSDOF 16
ENDMDL
MODEL 3
REMARK VINA RESULT:     -13.3      0.685      6.964
REMARK SMILES O=C(OCCOC(=O)c1ccc(-c2c3nc(c(-c4c(F)c(F)c(F)c(F)c4F)c4ccc([nH]4)c(-c4c(F)c(F)c(F)c(F)c4F)c4nc(c(-c5c(F)c(F)c(F)c(F)c5F)c5ccc2[nH]5)C=C4)C=C3)cc1)c1ccc(/[NH+]=C2\S[C@@H](Cc3ccc(F)cc3)C(=O)N2Cc2ccccc2)cc1
REMARK SMILES IDX 4 1 3 2 2 3 1 4 72 5 73 6 99 7 74 8 98 9 75 10 76 11 77 12
REMARK SMILES IDX 78 14 90 15 79 16 88 17 89 18 91 19 92 20 93 21 97 22 94 23
REMARK SMILES IDX 96 24 95 25 80 26 81 27 82 28 87 29 83 30 86 31 84 32 85 33
REMARK SMILES IDX 5 34 6 35 7 36 8 37 9 38 10 39 71 40 11 41 70 42 12 43 13 44
REMARK SMILES IDX 14 45 64 46 15 47 69 48 63 49 65 50 16 51 68 52 62 53 61 54
REMARK SMILES IDX 17 56 49 57 29 58 48 59 30 60 33 61 47 62 66 63 31 64 32 65
REMARK SMILES IDX 46 67 67 68 34 69 18 70 19 71 27 72 20 73 21 74 25 75 28 76
REMARK SMILES IDX 22 77 23 78 26 79 24 80 50 81 51 82 59 83 52 84 53 85 57 86
REMARK SMILES IDX 60 87 54 88 55 89 58 90 56 91 35 92 36 93 44 94 37 95 38 96
REMARK SMILES IDX 42 97 45 98 39 99 40 100 43 101 41 102
REMARK H PARENT 76 13 65 55 33 66
REMARK Flexibility Score: inf
ROOT
ATOM      1  C   UNL A   1      42.984  20.685  25.932  1.00  0.00     0.275 C 
ENDROOT
BRANCH   1   2
ATOM      2  O   UNL A   1      41.581  20.841  25.655  1.00  0.00    -0.458 OA
BRANCH   2   3
ATOM      3  C   UNL A   1      40.546  21.044  26.502  1.00  0.00     0.338 C 
ATOM      4  O   UNL A   1      40.533  20.433  27.571  1.00  0.00    -0.246 OA
BRANCH   3   5
ATOM      5  C   UNL A   1      39.335  21.861  26.164  1.00  0.00     0.060 A 
ATOM      6  C   UNL A   1      38.260  21.453  25.373  1.00  0.00     0.020 A 
ATOM      7  C   UNL A   1      39.282  23.160  26.710  1.00  0.00     0.020 A 
ATOM      8  C   UNL A   1      37.141  22.266  25.208  1.00  0.00     0.052 A 
ATOM      9  C   UNL A   1      38.180  23.995  26.498  1.00  0.00     0.052 A 
ATOM     10  C   UNL A   1      37.094  23.539  25.763  1.00  0.00     0.125 A 
BRANCH  10  11
ATOM     11  N   UNL A   1      35.962  24.312  25.493  1.00  0.00    -0.235 N 
ATOM     12  C   UNL A   1      34.840  23.698  25.318  1.00  0.00     0.320 C 
ATOM     13  H   UNL A   1      36.018  25.293  25.437  1.00  0.00     0.313 HD
ATOM     14  S   UNL A   1      34.649  21.988  25.041  1.00  0.00    -0.022 SA
ATOM     15  N   UNL A   1      33.628  24.325  25.385  1.00  0.00    -0.186 N 
ATOM     16  C   UNL A   1      32.895  22.162  24.658  1.00  0.00     0.178 C 
ATOM     17  C   UNL A   1      32.514  23.526  25.214  1.00  0.00     0.324 C 
ATOM     18  O   UNL A   1      31.360  23.883  25.428  1.00  0.00    -0.245 OA
BRANCH  15  19
ATOM     19  C   UNL A   1      33.500  25.731  25.751  1.00  0.00     0.283 C 
BRANCH  19  20
ATOM     20  C   UNL A   1      33.540  26.680  24.565  1.00  0.00    -0.006 A 
ATOM     21  C   UNL A   1      33.568  26.191  23.252  1.00  0.00     0.008 A 
ATOM     22  C   UNL A   1      33.565  28.070  24.761  1.00  0.00     0.008 A 
ATOM     23  C   UNL A   1      33.627  27.072  22.167  1.00  0.00     0.000 A 
ATOM     24  C   UNL A   1      33.601  28.950  23.677  1.00  0.00     0.000 A 
ATOM     25  C   UNL A   1      33.637  28.450  22.379  1.00  0.00     0.000 A 
ENDBRANCH  19  20
ENDBRANCH  15  19
BRANCH  16  26
ATOM     26  C   UNL A   1      32.156  20.973  25.259  1.00  0.00     0.063 C 
BRANCH  26  27
ATOM     27  C   UNL A   1      32.570  19.643  24.680  1.00  0.00    -0.046 A 
ATOM     28  C   UNL A   1      33.064  18.641  25.527  1.00  0.00     0.007 A 
ATOM     29  C   UNL A   1      32.500  19.404  23.298  1.00  0.00     0.007 A 
ATOM     30  C   UNL A   1      33.455  17.410  25.004  1.00  0.00     0.039 A 
ATOM     31  C   UNL A   1      32.882  18.168  22.779  1.00  0.00     0.039 A 
ATOM     32  C   UNL A   1      33.353  17.183  23.638  1.00  0.00     0.123 A 
ATOM     33  F   UNL A   1      33.720  15.996  23.138  1.00  0.00    -0.207 F 
ENDBRANCH  26  27
ENDBRANCH  16  26
ENDBRANCH  10  11
ENDBRANCH   3   5
ENDBRANCH   2   3
ENDBRANCH   1   2
BRANCH   1  34
ATOM     34  C   UNL A   1      43.877  21.616  25.104  1.00  0.00     0.275 C 
BRANCH  34  35
ATOM     35  O   UNL A   1      43.275  22.901  24.853  1.00  0.00    -0.458 OA
BRANCH  35  36
ATOM     36  C   UNL A   1      44.103  23.965  25.016  1.00  0.00     0.338 C 
ATOM     37  O   UNL A   1      45.005  24.293  24.260  1.00  0.00    -0.246 OA
BRANCH  36  38
ATOM     38  C   UNL A   1      43.718  24.782  26.196  1.00  0.00     0.060 A 
ATOM     39  C   UNL A   1      42.805  24.220  27.097  1.00  0.00     0.016 A 
ATOM     40  C   UNL A   1      44.203  26.075  26.427  1.00  0.00     0.016 A 
ATOM     41  C   UNL A   1      42.352  24.951  28.199  1.00  0.00     0.010 A 
ATOM     42  C   UNL A   1      43.756  26.804  27.543  1.00  0.00     0.010 A 
ATOM     43  C   UNL A   1      42.805  26.258  28.424  1.00  0.00    -0.014 A 
BRANCH  43  44
ATOM     44  C   UNL A   1      42.216  27.054  29.540  1.00  0.00     0.031 A 
ATOM     45  C   UNL A   1      42.863  27.041  30.895  1.00  0.00     0.074 A 
ATOM     46  C   UNL A   1      41.141  27.841  29.341  1.00  0.00     0.049 A 
ATOM     47  N   UNL A   1      42.578  27.761  31.952  1.00  0.00    -0.248 NA
ATOM     48  C   UNL A   1      43.982  26.108  31.085  1.00  0.00     0.031 C 
ATOM     49  C   UNL A   1      40.421  27.963  28.083  1.00  0.00     0.029 A 
ATOM     50  N   UNL A   1      40.470  28.688  30.190  1.00  0.00    -0.354 N 
ATOM     51  C   UNL A   1      43.504  27.399  32.917  1.00  0.00     0.074 A 
ATOM     52  C   UNL A   1      44.318  26.345  32.346  1.00  0.00     0.031 C 
ATOM     53  C   UNL A   1      39.392  28.812  28.236  1.00  0.00     0.029 A 
ATOM     54  C   UNL A   1      39.391  29.310  29.608  1.00  0.00     0.049 A 
ATOM     55  H   UNL A   1      40.736  28.836  31.126  1.00  0.00     0.167 HD
ATOM     56  C   UNL A   1      43.686  27.919  34.155  1.00  0.00     0.037 A 
ATOM     57  C   UNL A   1      38.507  30.191  30.115  1.00  0.00     0.037 A 
ATOM     58  C   UNL A   1      42.874  28.952  34.743  1.00  0.00     0.049 A 
ATOM     59  C   UNL A   1      38.689  30.703  31.520  1.00  0.00     0.074 A 
ATOM     60  C   UNL A   1      43.004  29.548  35.987  1.00  0.00     0.029 A 
ATOM     61  N   UNL A   1      41.774  29.537  34.136  1.00  0.00    -0.354 N 
ATOM     62  N   UNL A   1      39.623  30.412  32.391  1.00  0.00    -0.248 NA
ATOM     63  C   UNL A   1      37.709  31.688  32.000  1.00  0.00     0.031 C 
ATOM     64  C   UNL A   1      41.957  30.461  36.150  1.00  0.00     0.029 A 
ATOM     65  C   UNL A   1      41.201  30.468  34.991  1.00  0.00     0.049 A 
ATOM     66  H   UNL A   1      41.447  29.323  33.233  1.00  0.00     0.167 HD
ATOM     67  C   UNL A   1      39.365  31.200  33.504  1.00  0.00     0.074 A 
ATOM     68  C   UNL A   1      38.197  31.996  33.193  1.00  0.00     0.031 C 
ATOM     69  C   UNL A   1      40.040  31.260  34.679  1.00  0.00     0.037 A 
BRANCH  56  70
ATOM     70  C   UNL A   1      44.830  27.382  34.960  1.00  0.00     0.064 A 
ATOM     71  C   UNL A   1      46.097  27.983  34.906  1.00  0.00     0.173 A 
ATOM     72  C   UNL A   1      44.648  26.300  35.833  1.00  0.00     0.173 A 
ATOM     73  F   UNL A   1      46.321  29.014  34.078  1.00  0.00    -0.203 F 
ATOM     74  C   UNL A   1      47.147  27.506  35.685  1.00  0.00     0.198 A 
ATOM     75  C   UNL A   1      45.695  25.842  36.628  1.00  0.00     0.198 A 
ATOM     76  F   UNL A   1      43.454  25.697  35.922  1.00  0.00    -0.203 F 
ATOM     77  F   UNL A   1      48.358  28.073  35.593  1.00  0.00    -0.200 F 
ATOM     78  C   UNL A   1      46.943  26.442  36.550  1.00  0.00     0.200 A 
ATOM     79  F   UNL A   1      45.495  24.819  37.471  1.00  0.00    -0.200 F 
ATOM     80  F   UNL A   1      47.952  25.991  37.307  1.00  0.00    -0.200 F 
ENDBRANCH  56  70
BRANCH  57  81
ATOM     81  C   UNL A   1      37.374  30.676  29.286  1.00  0.00     0.064 A 
ATOM     82  C   UNL A   1      37.332  31.994  28.808  1.00  0.00     0.173 A 
ATOM     83  C   UNL A   1      36.284  29.843  28.997  1.00  0.00     0.173 A 
ATOM     84  F   UNL A   1      38.341  32.835  29.079  1.00  0.00    -0.203 F 
ATOM     85  C   UNL A   1      36.227  32.470  28.105  1.00  0.00     0.198 A 
ATOM     86  C   UNL A   1      35.191  30.312  28.271  1.00  0.00     0.198 A 
ATOM     87  F   UNL A   1      36.275  28.573  29.429  1.00  0.00    -0.203 F 
ATOM     88  F   UNL A   1      36.186  33.750  27.712  1.00  0.00    -0.200 F 
ATOM     89  C   UNL A   1      35.159  31.628  27.836  1.00  0.00     0.200 A 
ATOM     90  F   UNL A   1      34.166  29.491  28.002  1.00  0.00    -0.200 F 
ATOM     91  F   UNL A   1      34.092  32.088  27.167  1.00  0.00    -0.200 F 
ENDBRANCH  57  81
BRANCH  69  92
ATOM     92  C   UNL A   1      39.546  32.238  35.707  1.00  0.00     0.064 A 
ATOM     93  C   UNL A   1      40.041  33.549  35.772  1.00  0.00     0.173 A 
ATOM     94  C   UNL A   1      38.556  31.864  36.629  1.00  0.00     0.173 A 
ATOM     95  F   UNL A   1      40.999  33.951  34.923  1.00  0.00    -0.203 F 
ATOM     96  C   UNL A   1      39.587  34.439  36.742  1.00  0.00     0.198 A 
ATOM     97  C   UNL A   1      38.084  32.766  37.580  1.00  0.00     0.198 A 
ATOM     98  F   UNL A   1      38.045  30.624  36.608  1.00  0.00    -0.203 F 
ATOM     99  F   UNL A   1      40.115  35.668  36.820  1.00  0.00    -0.200 F 
ATOM    100  C   UNL A   1      38.606  34.049  37.641  1.00  0.00     0.200 A 
ATOM    101  F   UNL A   1      37.128  32.391  38.440  1.00  0.00    -0.200 F 
ATOM    102  F   UNL A   1      38.171  34.907  38.574  1.00  0.00    -0.200 F 
ENDBRANCH  69  92
ENDBRANCH  43  44
ENDBRANCH  36  38
ENDBRANCH  35  36
ENDBRANCH  34  35
ENDBRANCH   1  34
TORSDOF 16
ENDMDL
