MODEL 1
REMARK VINA RESULT:     -13.4      0.000      0.000
REMARK SMILES O=C1[NH+]=C(Nc2ccc(C(=O)OCCOC(=O)c3ccc(-c4c5nc(c(-c6c(F)c(F)c(F)c(F)c6F)c6ccc([nH]6)c(-c6c(F)c(F)c(F)c(F)c6F)c6nc(c(-c7c(F)c(F)c(F)c(F)c7F)c7ccc4[nH]7)C=C6)C=C5)cc3)c(O)c2)S/C1=C\c1ccc[nH]1
REMARK SMILES IDX 13 1 12 2 10 3 11 4 9 5 6 6 7 7 83 8 8 9 81 10 5 11 1 12
REMARK SMILES IDX 2 13 3 14 85 15 4 16 84 18 86 19 87 21 88 22 91 23 89 24
REMARK SMILES IDX 90 25 82 27 14 29 15 30 16 31 17 32 18 33 19 34 80 35 20 36
REMARK SMILES IDX 79 37 21 38 22 39 23 40 73 41 24 42 78 43 72 44 74 45 25 46
REMARK SMILES IDX 77 47 71 48 70 49 26 51 58 52 38 53 57 54 39 55 42 56 56 57
REMARK SMILES IDX 75 58 40 59 41 60 55 62 76 63 43 64 27 65 28 66 36 67 29 68
REMARK SMILES IDX 30 69 34 70 37 71 31 72 32 73 35 74 33 75 59 76 60 77 68 78
REMARK SMILES IDX 61 79 62 80 66 81 69 82 63 83 64 84 67 85 65 86 44 87 45 88
REMARK SMILES IDX 53 89 46 90 47 91 51 92 54 93 48 94 49 95 52 96 50 97
REMARK H PARENT 3 17 5 20 91 26 82 28 74 50 42 61
REMARK Flexibility Score: inf
ROOT
ATOM      1  C   UNL A   1      31.400  29.947  25.052  1.00  0.00     0.275 C 
ENDROOT
BRANCH   1   2
ATOM      2  O   UNL A   1      32.499  29.015  25.197  1.00  0.00    -0.458 OA
BRANCH   2   3
ATOM      3  C   UNL A   1      33.096  28.612  24.044  1.00  0.00     0.342 C 
ATOM      4  O   UNL A   1      33.382  29.326  23.096  1.00  0.00    -0.246 OA
BRANCH   3   5
ATOM      5  C   UNL A   1      33.476  27.176  24.114  1.00  0.00     0.102 A 
ATOM      6  C   UNL A   1      34.057  24.432  24.439  1.00  0.00     0.129 A 
ATOM      7  C   UNL A   1      33.838  25.244  25.551  1.00  0.00     0.053 A 
ATOM      8  C   UNL A   1      34.031  25.014  23.166  1.00  0.00     0.098 A 
ATOM      9  C   UNL A   1      33.614  26.611  25.391  1.00  0.00     0.024 A 
ATOM     10  C   UNL A   1      33.701  26.364  23.002  1.00  0.00     0.134 A 
BRANCH   6  11
ATOM     11  N   UNL A   1      34.318  23.067  24.591  1.00  0.00    -0.234 N 
ATOM     12  O   UNL A   1      31.549  20.705  21.682  1.00  0.00    -0.240 OA
ATOM     13  C   UNL A   1      32.300  20.896  22.624  1.00  0.00     0.346 C 
ATOM     14  N   UNL A   1      32.767  22.129  23.029  1.00  0.00    -0.199 N 
ATOM     15  C   UNL A   1      32.846  19.795  23.473  1.00  0.00     0.111 C 
ATOM     16  C   UNL A   1      33.607  22.061  24.005  1.00  0.00     0.322 C 
ATOM     17  H   UNL A   1      32.486  22.976  22.615  1.00  0.00     0.316 HD
ATOM     18  S   UNL A   1      33.913  20.461  24.645  1.00  0.00     0.006 SA
ATOM     19  C   UNL A   1      32.529  18.510  23.264  1.00  0.00     0.050 C 
ATOM     20  H   UNL A   1      35.074  22.812  25.167  1.00  0.00     0.313 HD
BRANCH  19  21
ATOM     21  C   UNL A   1      32.979  17.466  24.105  1.00  0.00     0.039 A 
ATOM     22  C   UNL A   1      34.169  16.773  24.207  1.00  0.00     0.027 A 
ATOM     23  N   UNL A   1      32.131  16.974  25.068  1.00  0.00    -0.362 N 
ATOM     24  C   UNL A   1      34.023  15.816  25.237  1.00  0.00     0.020 A 
ATOM     25  C   UNL A   1      32.751  15.953  25.745  1.00  0.00     0.083 A 
ATOM     26  H   UNL A   1      31.221  17.303  25.246  1.00  0.00     0.166 HD
ENDBRANCH  19  21
ENDBRANCH   6  11
BRANCH  10  27
ATOM     27  O   UNL A   1      33.632  26.813  21.711  1.00  0.00    -0.507 OA
ATOM     28  H   UNL A   1      34.420  26.976  21.230  1.00  0.00     0.293 HD
ENDBRANCH  10  27
ENDBRANCH   3   5
ENDBRANCH   2   3
ENDBRANCH   1   2
BRANCH   1  29
ATOM     29  C   UNL A   1      31.402  31.025  26.141  1.00  0.00     0.275 C 
BRANCH  29  30
ATOM     30  O   UNL A   1      32.453  30.802  27.102  1.00  0.00    -0.458 OA
BRANCH  30  31
ATOM     31  C   UNL A   1      33.188  31.897  27.392  1.00  0.00     0.338 C 
ATOM     32  O   UNL A   1      32.788  33.043  27.515  1.00  0.00    -0.246 OA
BRANCH  31  33
ATOM     33  C   UNL A   1      34.575  31.530  27.716  1.00  0.00     0.060 A 
ATOM     34  C   UNL A   1      34.805  30.188  27.983  1.00  0.00     0.016 A 
ATOM     35  C   UNL A   1      35.553  32.474  28.012  1.00  0.00     0.016 A 
ATOM     36  C   UNL A   1      35.940  29.783  28.673  1.00  0.00     0.010 A 
ATOM     37  C   UNL A   1      36.752  32.051  28.614  1.00  0.00     0.010 A 
ATOM     38  C   UNL A   1      36.933  30.710  29.013  1.00  0.00    -0.014 A 
BRANCH  38  39
ATOM     39  C   UNL A   1      38.082  30.277  29.867  1.00  0.00     0.031 A 
ATOM     40  C   UNL A   1      39.153  29.373  29.300  1.00  0.00     0.074 A 
ATOM     41  C   UNL A   1      38.219  30.742  31.126  1.00  0.00     0.049 A 
ATOM     42  N   UNL A   1      40.162  28.796  29.906  1.00  0.00    -0.248 NA
ATOM     43  C   UNL A   1      39.068  29.063  27.864  1.00  0.00     0.031 C 
ATOM     44  C   UNL A   1      37.299  31.661  31.798  1.00  0.00     0.029 A 
ATOM     45  N   UNL A   1      39.197  30.516  32.067  1.00  0.00    -0.354 N 
ATOM     46  C   UNL A   1      40.792  28.015  28.941  1.00  0.00     0.074 A 
ATOM     47  C   UNL A   1      40.039  28.173  27.717  1.00  0.00     0.031 C 
ATOM     48  C   UNL A   1      37.773  31.952  33.017  1.00  0.00     0.029 A 
ATOM     49  C   UNL A   1      38.982  31.173  33.255  1.00  0.00     0.049 A 
ATOM     50  H   UNL A   1      39.978  29.940  31.904  1.00  0.00     0.167 HD
ATOM     51  C   UNL A   1      41.899  27.242  29.063  1.00  0.00     0.037 A 
ATOM     52  C   UNL A   1      39.653  31.124  34.423  1.00  0.00     0.037 A 
ATOM     53  C   UNL A   1      42.691  27.138  30.263  1.00  0.00     0.049 A 
ATOM     54  C   UNL A   1      40.865  30.239  34.536  1.00  0.00     0.074 A 
ATOM     55  C   UNL A   1      43.844  26.400  30.474  1.00  0.00     0.029 A 
ATOM     56  N   UNL A   1      42.423  27.804  31.449  1.00  0.00    -0.354 N 
ATOM     57  N   UNL A   1      41.425  29.476  33.629  1.00  0.00    -0.248 NA
ATOM     58  C   UNL A   1      41.537  30.207  35.843  1.00  0.00     0.031 C 
ATOM     59  C   UNL A   1      44.241  26.577  31.804  1.00  0.00     0.029 A 
ATOM     60  C   UNL A   1      43.378  27.480  32.401  1.00  0.00     0.049 A 
ATOM     61  H   UNL A   1      41.666  28.417  31.594  1.00  0.00     0.167 HD
ATOM     62  C   UNL A   1      42.528  28.900  34.245  1.00  0.00     0.074 A 
ATOM     63  C   UNL A   1      42.573  29.421  35.594  1.00  0.00     0.031 C 
ATOM     64  C   UNL A   1      43.422  28.015  33.738  1.00  0.00     0.037 A 
BRANCH  51  65
ATOM     65  C   UNL A   1      42.313  26.415  27.876  1.00  0.00     0.064 A 
ATOM     66  C   UNL A   1      43.292  26.840  26.968  1.00  0.00     0.173 A 
ATOM     67  C   UNL A   1      41.744  25.146  27.675  1.00  0.00     0.173 A 
ATOM     68  F   UNL A   1      43.864  28.046  27.107  1.00  0.00    -0.203 F 
ATOM     69  C   UNL A   1      43.668  26.042  25.890  1.00  0.00     0.198 A 
ATOM     70  C   UNL A   1      42.147  24.335  26.618  1.00  0.00     0.198 A 
ATOM     71  F   UNL A   1      40.809  24.682  28.518  1.00  0.00    -0.203 F 
ATOM     72  F   UNL A   1      44.573  26.489  25.007  1.00  0.00    -0.200 F 
ATOM     73  C   UNL A   1      43.103  24.787  25.722  1.00  0.00     0.200 A 
ATOM     74  F   UNL A   1      41.614  23.114  26.469  1.00  0.00    -0.200 F 
ATOM     75  F   UNL A   1      43.476  24.013  24.692  1.00  0.00    -0.200 F 
ENDBRANCH  51  65
BRANCH  52  76
ATOM     76  C   UNL A   1      39.174  31.904  35.597  1.00  0.00     0.064 A 
ATOM     77  C   UNL A   1      39.602  33.220  35.823  1.00  0.00     0.173 A 
ATOM     78  C   UNL A   1      38.306  31.334  36.542  1.00  0.00     0.173 A 
ATOM     79  F   UNL A   1      40.452  33.804  34.965  1.00  0.00    -0.203 F 
ATOM     80  C   UNL A   1      39.208  33.922  36.961  1.00  0.00     0.198 A 
ATOM     81  C   UNL A   1      37.879  32.051  37.657  1.00  0.00     0.198 A 
ATOM     82  F   UNL A   1      37.863  30.079  36.378  1.00  0.00    -0.203 F 
ATOM     83  F   UNL A   1      39.688  35.152  37.186  1.00  0.00    -0.200 F 
ATOM     84  C   UNL A   1      38.342  33.340  37.873  1.00  0.00     0.200 A 
ATOM     85  F   UNL A   1      37.028  31.490  38.527  1.00  0.00    -0.200 F 
ATOM     86  F   UNL A   1      37.964  34.015  38.967  1.00  0.00    -0.200 F 
ENDBRANCH  52  76
BRANCH  64  87
ATOM     87  C   UNL A   1      44.562  27.607  34.630  1.00  0.00     0.064 A 
ATOM     88  C   UNL A   1      45.752  28.348  34.705  1.00  0.00     0.173 A 
ATOM     89  C   UNL A   1      44.462  26.450  35.419  1.00  0.00     0.173 A 
ATOM     90  F   UNL A   1      45.906  29.455  33.963  1.00  0.00    -0.203 F 
ATOM     91  C   UNL A   1      46.816  27.917  35.495  1.00  0.00     0.198 A 
ATOM     92  C   UNL A   1      45.512  26.045  36.238  1.00  0.00     0.198 A 
ATOM     93  F   UNL A   1      43.343  25.709  35.396  1.00  0.00    -0.203 F 
ATOM     94  F   UNL A   1      47.970  28.598  35.487  1.00  0.00    -0.200 F 
ATOM     95  C   UNL A   1      46.693  26.769  36.263  1.00  0.00     0.200 A 
ATOM     96  F   UNL A   1      45.385  24.946  36.994  1.00  0.00    -0.200 F 
ATOM     97  F   UNL A   1      47.720  26.354  37.017  1.00  0.00    -0.200 F 
ENDBRANCH  64  87
ENDBRANCH  38  39
ENDBRANCH  31  33
ENDBRANCH  30  31
ENDBRANCH  29  30
ENDBRANCH   1  29
TORSDOF 14
ENDMDL
MODEL 2
REMARK VINA RESULT:     -13.3      4.782      8.095
REMARK SMILES O=C1[NH+]=C(Nc2ccc(C(=O)OCCOC(=O)c3ccc(-c4c5nc(c(-c6c(F)c(F)c(F)c(F)c6F)c6ccc([nH]6)c(-c6c(F)c(F)c(F)c(F)c6F)c6nc(c(-c7c(F)c(F)c(F)c(F)c7F)c7ccc4[nH]7)C=C6)C=C5)cc3)c(O)c2)S/C1=C\c1ccc[nH]1
REMARK SMILES IDX 13 1 12 2 10 3 11 4 9 5 6 6 7 7 83 8 8 9 81 10 5 11 1 12
REMARK SMILES IDX 2 13 3 14 85 15 4 16 84 18 86 19 87 21 88 22 91 23 89 24
REMARK SMILES IDX 90 25 82 27 14 29 15 30 16 31 17 32 18 33 19 34 80 35 20 36
REMARK SMILES IDX 79 37 21 38 22 39 23 40 73 41 24 42 78 43 72 44 74 45 25 46
REMARK SMILES IDX 77 47 71 48 70 49 26 51 58 52 38 53 57 54 39 55 42 56 56 57
REMARK SMILES IDX 75 58 40 59 41 60 55 62 76 63 43 64 27 65 28 66 36 67 29 68
REMARK SMILES IDX 30 69 34 70 37 71 31 72 32 73 35 74 33 75 59 76 60 77 68 78
REMARK SMILES IDX 61 79 62 80 66 81 69 82 63 83 64 84 67 85 65 86 44 87 45 88
REMARK SMILES IDX 53 89 46 90 47 91 51 92 54 93 48 94 49 95 52 96 50 97
REMARK H PARENT 3 17 5 20 91 26 82 28 74 50 42 61
REMARK Flexibility Score: inf
ROOT
ATOM      1  C   UNL A   1      35.940  20.595  24.999  1.00  0.00     0.275 C 
ENDROOT
BRANCH   1   2
ATOM      2  O   UNL A   1      35.650  21.991  25.248  1.00  0.00    -0.458 OA
BRANCH   2   3
ATOM      3  C   UNL A   1      34.726  22.246  26.212  1.00  0.00     0.342 C 
ATOM      4  O   UNL A   1      34.521  21.569  27.208  1.00  0.00    -0.246 OA
BRANCH   3   5
ATOM      5  C   UNL A   1      34.044  23.545  25.968  1.00  0.00     0.102 A 
ATOM      6  C   UNL A   1      32.825  25.997  25.278  1.00  0.00     0.129 A 
ATOM      7  C   UNL A   1      34.025  25.613  24.682  1.00  0.00     0.053 A 
ATOM      8  C   UNL A   1      32.264  25.167  26.256  1.00  0.00     0.098 A 
ATOM      9  C   UNL A   1      34.658  24.433  25.070  1.00  0.00     0.024 A 
ATOM     10  C   UNL A   1      32.845  23.932  26.568  1.00  0.00     0.134 A 
BRANCH   6  11
ATOM     11  N   UNL A   1      32.201  27.196  24.920  1.00  0.00    -0.234 N 
ATOM     12  O   UNL A   1      27.770  26.279  23.812  1.00  0.00    -0.240 OA
ATOM     13  C   UNL A   1      28.815  26.905  23.871  1.00  0.00     0.346 C 
ATOM     14  N   UNL A   1      29.999  26.425  24.389  1.00  0.00    -0.199 N 
ATOM     15  C   UNL A   1      28.952  28.316  23.401  1.00  0.00     0.111 C 
ATOM     16  C   UNL A   1      30.942  27.304  24.407  1.00  0.00     0.322 C 
ATOM     17  H   UNL A   1      30.113  25.502  24.712  1.00  0.00     0.316 HD
ATOM     18  S   UNL A   1      30.551  28.865  23.716  1.00  0.00     0.006 SA
ATOM     19  C   UNL A   1      27.928  28.990  22.860  1.00  0.00     0.050 C 
ATOM     20  H   UNL A   1      32.711  28.027  25.049  1.00  0.00     0.313 HD
BRANCH  19  21
ATOM     21  C   UNL A   1      28.063  30.299  22.343  1.00  0.00     0.039 A 
ATOM     22  C   UNL A   1      28.338  31.525  22.917  1.00  0.00     0.027 A 
ATOM     23  N   UNL A   1      27.921  30.500  20.990  1.00  0.00    -0.362 N 
ATOM     24  C   UNL A   1      28.330  32.494  21.888  1.00  0.00     0.020 A 
ATOM     25  C   UNL A   1      28.058  31.836  20.710  1.00  0.00     0.083 A 
ATOM     26  H   UNL A   1      27.749  29.794  20.326  1.00  0.00     0.166 HD
ENDBRANCH  19  21
ENDBRANCH   6  11
BRANCH  10  27
ATOM     27  O   UNL A   1      32.177  23.168  27.485  1.00  0.00    -0.507 OA
ATOM     28  H   UNL A   1      31.366  22.761  27.252  1.00  0.00     0.293 HD
ENDBRANCH  10  27
ENDBRANCH   3   5
ENDBRANCH   2   3
ENDBRANCH   1   2
BRANCH   1  29
ATOM     29  C   UNL A   1      37.446  20.314  24.943  1.00  0.00     0.275 C 
BRANCH  29  30
ATOM     30  O   UNL A   1      38.213  21.483  25.289  1.00  0.00    -0.458 OA
BRANCH  30  31
ATOM     31  C   UNL A   1      39.296  21.235  26.057  1.00  0.00     0.338 C 
ATOM     32  O   UNL A   1      39.985  20.229  26.057  1.00  0.00    -0.246 OA
BRANCH  31  33
ATOM     33  C   UNL A   1      39.677  22.426  26.831  1.00  0.00     0.060 A 
ATOM     34  C   UNL A   1      39.026  23.605  26.499  1.00  0.00     0.016 A 
ATOM     35  C   UNL A   1      40.800  22.462  27.652  1.00  0.00     0.016 A 
ATOM     36  C   UNL A   1      39.556  24.837  26.854  1.00  0.00     0.010 A 
ATOM     37  C   UNL A   1      41.278  23.705  28.103  1.00  0.00     0.010 A 
ATOM     38  C   UNL A   1      40.701  24.913  27.656  1.00  0.00    -0.014 A 
BRANCH  38  39
ATOM     39  C   UNL A   1      41.329  26.245  27.920  1.00  0.00     0.031 A 
ATOM     40  C   UNL A   1      42.705  26.558  27.378  1.00  0.00     0.074 A 
ATOM     41  C   UNL A   1      40.652  27.208  28.579  1.00  0.00     0.049 A 
ATOM     42  N   UNL A   1      43.467  27.603  27.592  1.00  0.00    -0.248 NA
ATOM     43  C   UNL A   1      43.314  25.552  26.493  1.00  0.00     0.031 C 
ATOM     44  C   UNL A   1      39.297  27.078  29.117  1.00  0.00     0.029 A 
ATOM     45  N   UNL A   1      41.006  28.498  28.898  1.00  0.00    -0.354 N 
ATOM     46  C   UNL A   1      44.658  27.354  26.917  1.00  0.00     0.074 A 
ATOM     47  C   UNL A   1      44.528  26.050  26.306  1.00  0.00     0.031 C 
ATOM     48  C   UNL A   1      38.921  28.245  29.659  1.00  0.00     0.029 A 
ATOM     49  C   UNL A   1      40.036  29.182  29.592  1.00  0.00     0.049 A 
ATOM     50  H   UNL A   1      41.873  28.895  28.652  1.00  0.00     0.167 HD
ATOM     51  C   UNL A   1      45.756  28.142  26.809  1.00  0.00     0.037 A 
ATOM     52  C   UNL A   1      40.051  30.407  30.151  1.00  0.00     0.037 A 
ATOM     53  C   UNL A   1      45.860  29.471  27.359  1.00  0.00     0.049 A 
ATOM     54  C   UNL A   1      41.292  31.251  30.037  1.00  0.00     0.074 A 
ATOM     55  C   UNL A   1      46.923  30.356  27.280  1.00  0.00     0.029 A 
ATOM     56  N   UNL A   1      44.860  30.114  28.073  1.00  0.00    -0.354 N 
ATOM     57  N   UNL A   1      42.424  30.987  29.431  1.00  0.00    -0.248 NA
ATOM     58  C   UNL A   1      41.256  32.567  30.692  1.00  0.00     0.031 C 
ATOM     59  C   UNL A   1      46.586  31.511  27.994  1.00  0.00     0.029 A 
ATOM     60  C   UNL A   1      45.288  31.376  28.455  1.00  0.00     0.049 A 
ATOM     61  H   UNL A   1      43.976  29.731  28.276  1.00  0.00     0.167 HD
ATOM     62  C   UNL A   1      43.220  32.111  29.605  1.00  0.00     0.074 A 
ATOM     63  C   UNL A   1      42.433  33.069  30.351  1.00  0.00     0.031 C 
ATOM     64  C   UNL A   1      44.492  32.328  29.187  1.00  0.00     0.037 A 
BRANCH  51  65
ATOM     65  C   UNL A   1      46.956  27.582  26.096  1.00  0.00     0.064 A 
ATOM     66  C   UNL A   1      47.117  27.678  24.707  1.00  0.00     0.173 A 
ATOM     67  C   UNL A   1      47.989  26.978  26.833  1.00  0.00     0.173 A 
ATOM     68  F   UNL A   1      46.160  28.238  23.954  1.00  0.00    -0.203 F 
ATOM     69  C   UNL A   1      48.251  27.167  24.079  1.00  0.00     0.198 A 
ATOM     70  C   UNL A   1      49.137  26.500  26.207  1.00  0.00     0.198 A 
ATOM     71  F   UNL A   1      47.894  26.867  28.167  1.00  0.00    -0.203 F 
ATOM     72  F   UNL A   1      48.362  27.227  22.744  1.00  0.00    -0.200 F 
ATOM     73  C   UNL A   1      49.264  26.588  24.829  1.00  0.00     0.200 A 
ATOM     74  F   UNL A   1      50.123  25.960  26.937  1.00  0.00    -0.200 F 
ATOM     75  F   UNL A   1      50.361  26.109  24.225  1.00  0.00    -0.200 F 
ENDBRANCH  51  65
BRANCH  52  76
ATOM     76  C   UNL A   1      38.868  30.901  30.909  1.00  0.00     0.064 A 
ATOM     77  C   UNL A   1      38.758  30.712  32.294  1.00  0.00     0.173 A 
ATOM     78  C   UNL A   1      37.802  31.540  30.256  1.00  0.00     0.173 A 
ATOM     79  F   UNL A   1      39.736  30.084  32.964  1.00  0.00    -0.203 F 
ATOM     80  C   UNL A   1      37.618  31.112  32.989  1.00  0.00     0.198 A 
ATOM     81  C   UNL A   1      36.681  31.977  30.957  1.00  0.00     0.198 A 
ATOM     82  F   UNL A   1      37.851  31.748  28.932  1.00  0.00    -0.203 F 
ATOM     83  F   UNL A   1      37.511  30.856  34.300  1.00  0.00    -0.200 F 
ATOM     84  C   UNL A   1      36.584  31.749  32.322  1.00  0.00     0.200 A 
ATOM     85  F   UNL A   1      35.692  32.608  30.311  1.00  0.00    -0.200 F 
ATOM     86  F   UNL A   1      35.487  32.133  32.990  1.00  0.00    -0.200 F 
ENDBRANCH  52  76
BRANCH  64  87
ATOM     87  C   UNL A   1      45.084  33.681  29.472  1.00  0.00     0.064 A 
ATOM     88  C   UNL A   1      44.952  34.756  28.579  1.00  0.00     0.173 A 
ATOM     89  C   UNL A   1      45.801  33.901  30.658  1.00  0.00     0.173 A 
ATOM     90  F   UNL A   1      44.288  34.598  27.425  1.00  0.00    -0.203 F 
ATOM     91  C   UNL A   1      45.560  35.982  28.840  1.00  0.00     0.198 A 
ATOM     92  C   UNL A   1      46.373  35.140  30.934  1.00  0.00     0.198 A 
ATOM     93  F   UNL A   1      45.950  32.913  31.555  1.00  0.00    -0.203 F 
ATOM     94  F   UNL A   1      45.487  36.968  27.934  1.00  0.00    -0.200 F 
ATOM     95  C   UNL A   1      46.266  36.174  30.018  1.00  0.00     0.200 A 
ATOM     96  F   UNL A   1      47.039  35.329  32.082  1.00  0.00    -0.200 F 
ATOM     97  F   UNL A   1      46.855  37.353  30.263  1.00  0.00    -0.200 F 
ENDBRANCH  64  87
ENDBRANCH  38  39
ENDBRANCH  31  33
ENDBRANCH  30  31
ENDBRANCH  29  30
ENDBRANCH   1  29
TORSDOF 14
ENDMDL
MODEL 3
REMARK VINA RESULT:     -13.3      0.455      7.238
REMARK SMILES O=C1[NH+]=C(Nc2ccc(C(=O)OCCOC(=O)c3ccc(-c4c5nc(c(-c6c(F)c(F)c(F)c(F)c6F)c6ccc([nH]6)c(-c6c(F)c(F)c(F)c(F)c6F)c6nc(c(-c7c(F)c(F)c(F)c(F)c7F)c7ccc4[nH]7)C=C6)C=C5)cc3)c(O)c2)S/C1=C\c1ccc[nH]1
REMARK SMILES IDX 13 1 12 2 10 3 11 4 9 5 6 6 7 7 83 8 8 9 81 10 5 11 1 12
REMARK SMILES IDX 2 13 3 14 85 15 4 16 84 18 86 19 87 21 88 22 91 23 89 24
REMARK SMILES IDX 90 25 82 27 14 29 15 30 16 31 17 32 18 33 19 34 80 35 20 36
REMARK SMILES IDX 79 37 21 38 22 39 23 40 73 41 24 42 78 43 72 44 74 45 25 46
REMARK SMILES IDX 77 47 71 48 70 49 26 51 58 52 38 53 57 54 39 55 42 56 56 57
REMARK SMILES IDX 75 58 40 59 41 60 55 62 76 63 43 64 27 65 28 66 36 67 29 68
REMARK SMILES IDX 30 69 34 70 37 71 31 72 32 73 35 74 33 75 59 76 60 77 68 78
REMARK SMILES IDX 61 79 62 80 66 81 69 82 63 83 64 84 67 85 65 86 44 87 45 88
REMARK SMILES IDX 53 89 46 90 47 91 51 92 54 93 48 94 49 95 52 96 50 97
REMARK H PARENT 3 17 5 20 91 26 82 28 74 50 42 61
REMARK Flexibility Score: inf
ROOT
ATOM      1  C   UNL A   1      31.402  30.059  25.315  1.00  0.00     0.275 C 
ENDROOT
BRANCH   1   2
ATOM      2  O   UNL A   1      32.334  28.958  25.428  1.00  0.00    -0.458 OA
BRANCH   2   3
ATOM      3  C   UNL A   1      32.965  28.589  24.281  1.00  0.00     0.342 C 
ATOM      4  O   UNL A   1      33.261  29.328  23.355  1.00  0.00    -0.246 OA
BRANCH   3   5
ATOM      5  C   UNL A   1      33.367  27.159  24.329  1.00  0.00     0.102 A 
ATOM      6  C   UNL A   1      33.981  24.416  24.605  1.00  0.00     0.129 A 
ATOM      7  C   UNL A   1      33.689  25.190  25.727  1.00  0.00     0.053 A 
ATOM      8  C   UNL A   1      34.010  25.034  23.349  1.00  0.00     0.098 A 
ATOM      9  C   UNL A   1      33.449  26.558  25.595  1.00  0.00     0.024 A 
ATOM     10  C   UNL A   1      33.664  26.384  23.207  1.00  0.00     0.134 A 
BRANCH   6  11
ATOM     11  N   UNL A   1      34.258  23.051  24.731  1.00  0.00    -0.234 N 
ATOM     12  O   UNL A   1      31.525  20.713  21.769  1.00  0.00    -0.240 OA
ATOM     13  C   UNL A   1      32.272  20.895  22.717  1.00  0.00     0.346 C 
ATOM     14  N   UNL A   1      32.722  22.125  23.148  1.00  0.00    -0.199 N 
ATOM     15  C   UNL A   1      32.830  19.784  23.546  1.00  0.00     0.111 C 
ATOM     16  C   UNL A   1      33.561  22.048  24.124  1.00  0.00     0.322 C 
ATOM     17  H   UNL A   1      32.432  22.976  22.749  1.00  0.00     0.316 HD
ATOM     18  S   UNL A   1      33.886  20.440  24.734  1.00  0.00     0.006 SA
ATOM     19  C   UNL A   1      32.529  18.499  23.311  1.00  0.00     0.050 C 
ATOM     20  H   UNL A   1      35.016  22.795  25.304  1.00  0.00     0.313 HD
BRANCH  19  21
ATOM     21  C   UNL A   1      32.990  17.445  24.133  1.00  0.00     0.039 A 
ATOM     22  C   UNL A   1      34.185  16.757  24.217  1.00  0.00     0.027 A 
ATOM     23  N   UNL A   1      32.151  16.933  25.093  1.00  0.00    -0.362 N 
ATOM     24  C   UNL A   1      34.051  15.783  25.233  1.00  0.00     0.020 A 
ATOM     25  C   UNL A   1      32.781  15.905  25.750  1.00  0.00     0.083 A 
ATOM     26  H   UNL A   1      31.240  17.253  25.281  1.00  0.00     0.166 HD
ENDBRANCH  19  21
ENDBRANCH   6  11
BRANCH  10  27
ATOM     27  O   UNL A   1      33.654  26.870  21.929  1.00  0.00    -0.507 OA
ATOM     28  H   UNL A   1      34.422  26.801  21.396  1.00  0.00     0.293 HD
ENDBRANCH  10  27
ENDBRANCH   3   5
ENDBRANCH   2   3
ENDBRANCH   1   2
BRANCH   1  29
ATOM     29  C   UNL A   1      31.585  31.094  26.430  1.00  0.00     0.275 C 
BRANCH  29  30
ATOM     30  O   UNL A   1      32.730  30.788  27.250  1.00  0.00    -0.458 OA
BRANCH  30  31
ATOM     31  C   UNL A   1      33.537  31.842  27.501  1.00  0.00     0.338 C 
ATOM     32  O   UNL A   1      33.208  33.009  27.628  1.00  0.00    -0.246 OA
BRANCH  31  33
ATOM     33  C   UNL A   1      34.913  31.399  27.771  1.00  0.00     0.060 A 
ATOM     34  C   UNL A   1      35.080  30.045  28.027  1.00  0.00     0.016 A 
ATOM     35  C   UNL A   1      35.951  32.287  28.032  1.00  0.00     0.016 A 
ATOM     36  C   UNL A   1      36.216  29.577  28.673  1.00  0.00     0.010 A 
ATOM     37  C   UNL A   1      37.147  31.797  28.588  1.00  0.00     0.010 A 
ATOM     38  C   UNL A   1      37.269  30.446  28.977  1.00  0.00    -0.014 A 
BRANCH  38  39
ATOM     39  C   UNL A   1      38.425  29.948  29.786  1.00  0.00     0.031 A 
ATOM     40  C   UNL A   1      38.587  30.378  31.226  1.00  0.00     0.074 A 
ATOM     41  C   UNL A   1      39.295  29.056  29.269  1.00  0.00     0.049 A 
ATOM     42  N   UNL A   1      39.576  30.153  32.057  1.00  0.00    -0.248 NA
ATOM     43  C   UNL A   1      37.501  31.186  31.803  1.00  0.00     0.031 C 
ATOM     44  C   UNL A   1      39.243  28.505  27.913  1.00  0.00     0.029 A 
ATOM     45  N   UNL A   1      40.391  28.441  29.828  1.00  0.00    -0.354 N 
ATOM     46  C   UNL A   1      39.256  30.834  33.227  1.00  0.00     0.074 A 
ATOM     47  C   UNL A   1      37.994  31.500  32.993  1.00  0.00     0.031 C 
ATOM     48  C   UNL A   1      40.229  27.609  27.761  1.00  0.00     0.029 A 
ATOM     49  C   UNL A   1      41.041  27.585  28.971  1.00  0.00     0.049 A 
ATOM     50  H   UNL A   1      40.682  28.598  30.755  1.00  0.00     0.167 HD
ATOM     51  C   UNL A   1      39.946  30.893  34.392  1.00  0.00     0.037 A 
ATOM     52  C   UNL A   1      42.185  26.889  29.120  1.00  0.00     0.037 A 
ATOM     53  C   UNL A   1      41.168  30.174  34.651  1.00  0.00     0.049 A 
ATOM     54  C   UNL A   1      42.943  26.993  30.416  1.00  0.00     0.074 A 
ATOM     55  C   UNL A   1      41.927  30.152  35.810  1.00  0.00     0.029 A 
ATOM     56  N   UNL A   1      41.801  29.336  33.746  1.00  0.00    -0.354 N 
ATOM     57  N   UNL A   1      42.651  27.672  31.499  1.00  0.00    -0.248 NA
ATOM     58  C   UNL A   1      44.199  26.233  30.507  1.00  0.00     0.031 C 
ATOM     59  C   UNL A   1      43.048  29.345  35.586  1.00  0.00     0.029 A 
ATOM     60  C   UNL A   1      42.951  28.807  34.314  1.00  0.00     0.049 A 
ATOM     61  H   UNL A   1      41.482  29.144  32.835  1.00  0.00     0.167 HD
ATOM     62  C   UNL A   1      43.665  27.397  32.406  1.00  0.00     0.074 A 
ATOM     63  C   UNL A   1      44.566  26.470  31.757  1.00  0.00     0.031 C 
ATOM     64  C   UNL A   1      43.835  27.874  33.664  1.00  0.00     0.037 A 
BRANCH  51  65
ATOM     65  C   UNL A   1      39.419  31.793  35.476  1.00  0.00     0.064 A 
ATOM     66  C   UNL A   1      38.532  31.341  36.463  1.00  0.00     0.173 A 
ATOM     67  C   UNL A   1      39.853  33.127  35.552  1.00  0.00     0.173 A 
ATOM     68  F   UNL A   1      38.079  30.079  36.436  1.00  0.00    -0.203 F 
ATOM     69  C   UNL A   1      38.077  32.195  37.466  1.00  0.00     0.198 A 
ATOM     70  C   UNL A   1      39.426  33.968  36.576  1.00  0.00     0.198 A 
ATOM     71  F   UNL A   1      40.711  33.613  34.640  1.00  0.00    -0.203 F 
ATOM     72  F   UNL A   1      37.192  31.753  38.372  1.00  0.00    -0.200 F 
ATOM     73  C   UNL A   1      38.532  33.503  37.528  1.00  0.00     0.200 A 
ATOM     74  F   UNL A   1      39.883  35.226  36.645  1.00  0.00    -0.200 F 
ATOM     75  F   UNL A   1      38.105  34.320  38.502  1.00  0.00    -0.200 F 
ENDBRANCH  51  65
BRANCH  52  76
ATOM     76  C   UNL A   1      42.713  26.063  27.999  1.00  0.00     0.064 A 
ATOM     77  C   UNL A   1      43.566  26.608  27.029  1.00  0.00     0.173 A 
ATOM     78  C   UNL A   1      42.343  24.716  27.853  1.00  0.00     0.173 A 
ATOM     79  F   UNL A   1      43.931  27.897  27.107  1.00  0.00    -0.203 F 
ATOM     80  C   UNL A   1      44.001  25.852  25.942  1.00  0.00     0.198 A 
ATOM     81  C   UNL A   1      42.811  23.949  26.789  1.00  0.00     0.198 A 
ATOM     82  F   UNL A   1      41.529  24.141  28.750  1.00  0.00    -0.203 F 
ATOM     83  F   UNL A   1      44.759  26.419  24.995  1.00  0.00    -0.200 F 
ATOM     84  C   UNL A   1      43.629  24.522  25.827  1.00  0.00     0.200 A 
ATOM     85  F   UNL A   1      42.464  22.659  26.692  1.00  0.00    -0.200 F 
ATOM     86  F   UNL A   1      44.047  23.795  24.782  1.00  0.00    -0.200 F 
ENDBRANCH  52  76
BRANCH  64  87
ATOM     87  C   UNL A   1      45.009  27.347  34.442  1.00  0.00     0.064 A 
ATOM     88  C   UNL A   1      46.260  27.984  34.427  1.00  0.00     0.173 A 
ATOM     89  C   UNL A   1      44.880  26.180  35.212  1.00  0.00     0.173 A 
ATOM     90  F   UNL A   1      46.443  29.095  33.698  1.00  0.00    -0.203 F 
ATOM     91  C   UNL A   1      47.348  27.444  35.109  1.00  0.00     0.198 A 
ATOM     92  C   UNL A   1      45.959  25.665  35.925  1.00  0.00     0.198 A 
ATOM     93  F   UNL A   1      43.705  25.535  35.273  1.00  0.00    -0.203 F 
ATOM     94  F   UNL A   1      48.551  28.026  35.013  1.00  0.00    -0.200 F 
ATOM     95  C   UNL A   1      47.195  26.288  35.860  1.00  0.00     0.200 A 
ATOM     96  F   UNL A   1      45.805  24.559  36.665  1.00  0.00    -0.200 F 
ATOM     97  F   UNL A   1      48.245  25.767  36.511  1.00  0.00    -0.200 F 
ENDBRANCH  64  87
ENDBRANCH  38  39
ENDBRANCH  31  33
ENDBRANCH  30  31
ENDBRANCH  29  30
ENDBRANCH   1  29
TORSDOF 14
ENDMDL
