MODEL 1
REMARK VINA RESULT:     -11.1      0.000      0.000
REMARK SMILES CCNC(=O)[C@@H](C)Oc1ccc(OC)cc1/C=C/C(=O)OCCOC(=O)c1ccc(-c2c3nc(c(-c4c(F)c(F)c(F)c(F)c4F)c4ccc([nH]4)c(-c4c(F)c(F)c(F)c(F)c4F)c4nc(c(-c5c(F)c(F)c(F)c(F)c5F)c5ccc2[nH]5)C=C4)C=C3)cc1
REMARK SMILES IDX 21 1 19 2 20 3 18 4 17 5 16 6 9 7 10 8 11 9 15 10 12 11 8 12
REMARK SMILES IDX 6 13 7 14 4 15 3 16 5 18 2 19 1 20 13 21 14 22 22 23 23 24
REMARK SMILES IDX 24 25 25 26 26 27 27 28 28 29 89 30 29 31 88 32 30 33 31 34
REMARK SMILES IDX 32 35 82 36 33 37 87 38 81 39 83 40 34 41 86 42 80 43 79 44
REMARK SMILES IDX 35 46 67 47 47 48 66 49 48 50 51 51 65 52 84 53 49 54 50 55
REMARK SMILES IDX 64 57 85 58 52 59 36 60 37 61 45 62 38 63 39 64 43 65 46 66
REMARK SMILES IDX 40 67 41 68 44 69 42 70 68 71 69 72 77 73 70 74 71 75 75 76
REMARK SMILES IDX 78 77 72 78 73 79 76 80 74 81 53 82 54 83 62 84 55 85 56 86
REMARK SMILES IDX 60 87 63 88 57 89 58 90 61 91 59 92
REMARK H PARENT 3 17 83 45 51 56
REMARK Flexibility Score: inf
ROOT
ATOM      1  O   UNL A   1      32.955  27.933  25.730  1.00  0.00    -0.459 OA
ENDROOT
BRANCH   1   2
ATOM      2  C   UNL A   1      32.487  26.793  26.274  1.00  0.00     0.330 C 
ATOM      3  O   UNL A   1      31.551  26.681  27.056  1.00  0.00    -0.247 OA
BRANCH   2   4
ATOM      4  C   UNL A   1      33.228  25.598  25.852  1.00  0.00     0.094 C 
ATOM      5  C   UNL A   1      34.080  25.484  24.823  1.00  0.00     0.019 C 
BRANCH   5   6
ATOM      6  C   UNL A   1      34.969  24.315  24.829  1.00  0.00     0.020 A 
ATOM      7  C   UNL A   1      34.762  23.267  23.915  1.00  0.00     0.127 A 
ATOM      8  C   UNL A   1      35.674  22.211  23.849  1.00  0.00     0.051 A 
ATOM      9  C   UNL A   1      36.833  22.237  24.628  1.00  0.00     0.050 A 
ATOM     10  C   UNL A   1      36.117  24.304  25.641  1.00  0.00     0.058 A 
ATOM     11  C   UNL A   1      37.071  23.294  25.506  1.00  0.00     0.119 A 
BRANCH   7  12
ATOM     12  O   UNL A   1      33.610  23.181  23.191  1.00  0.00    -0.480 OA
BRANCH  12  13
ATOM     13  C   UNL A   1      32.611  22.258  23.623  1.00  0.00     0.258 C 
ATOM     14  C   UNL A   1      32.123  21.328  22.516  1.00  0.00     0.064 C 
BRANCH  13  15
ATOM     15  C   UNL A   1      31.502  22.642  24.640  1.00  0.00     0.260 C 
ATOM     16  N   UNL A   1      30.630  23.670  24.448  1.00  0.00    -0.353 N 
ATOM     17  H   UNL A   1      29.920  23.734  25.127  1.00  0.00     0.163 HD
ATOM     18  O   UNL A   1      31.366  21.997  25.687  1.00  0.00    -0.271 OA
BRANCH  16  19
ATOM     19  C   UNL A   1      30.567  24.684  23.417  1.00  0.00     0.112 C 
ATOM     20  C   UNL A   1      29.796  25.901  23.898  1.00  0.00     0.027 C 
ENDBRANCH  16  19
ENDBRANCH  13  15
ENDBRANCH  12  13
ENDBRANCH   7  12
BRANCH  11  21
ATOM     21  O   UNL A   1      38.252  23.242  26.194  1.00  0.00    -0.497 OA
ATOM     22  C   UNL A   1      38.970  22.015  26.075  1.00  0.00     0.278 C 
ENDBRANCH  11  21
ENDBRANCH   5   6
ENDBRANCH   2   4
ENDBRANCH   1   2
BRANCH   1  23
ATOM     23  C   UNL A   1      31.953  28.752  25.109  1.00  0.00     0.275 C 
BRANCH  23  24
ATOM     24  C   UNL A   1      31.937  30.159  25.709  1.00  0.00     0.275 C 
BRANCH  24  25
ATOM     25  O   UNL A   1      32.599  30.206  26.988  1.00  0.00    -0.458 OA
BRANCH  25  26
ATOM     26  C   UNL A   1      33.267  31.352  27.242  1.00  0.00     0.338 C 
ATOM     27  O   UNL A   1      32.850  32.501  27.159  1.00  0.00    -0.246 OA
BRANCH  26  28
ATOM     28  C   UNL A   1      34.608  31.047  27.750  1.00  0.00     0.060 A 
ATOM     29  C   UNL A   1      34.888  29.739  28.155  1.00  0.00     0.016 A 
ATOM     30  C   UNL A   1      35.534  32.068  27.957  1.00  0.00     0.016 A 
ATOM     31  C   UNL A   1      36.090  29.440  28.783  1.00  0.00     0.010 A 
ATOM     32  C   UNL A   1      36.744  31.770  28.589  1.00  0.00     0.010 A 
ATOM     33  C   UNL A   1      37.016  30.460  29.023  1.00  0.00    -0.014 A 
BRANCH  33  34
ATOM     34  C   UNL A   1      38.221  30.174  29.832  1.00  0.00     0.031 A 
ATOM     35  C   UNL A   1      39.291  29.293  29.258  1.00  0.00     0.074 A 
ATOM     36  C   UNL A   1      38.365  30.724  31.049  1.00  0.00     0.049 A 
ATOM     37  N   UNL A   1      40.358  28.802  29.833  1.00  0.00    -0.248 NA
ATOM     38  C   UNL A   1      39.137  28.914  27.844  1.00  0.00     0.031 C 
ATOM     39  C   UNL A   1      37.424  31.656  31.670  1.00  0.00     0.029 A 
ATOM     40  N   UNL A   1      39.356  30.572  31.983  1.00  0.00    -0.354 N 
ATOM     41  C   UNL A   1      40.984  28.030  28.863  1.00  0.00     0.074 A 
ATOM     42  C   UNL A   1      40.179  28.115  27.664  1.00  0.00     0.031 C 
ATOM     43  C   UNL A   1      37.880  31.987  32.889  1.00  0.00     0.029 A 
ATOM     44  C   UNL A   1      39.113  31.249  33.152  1.00  0.00     0.049 A 
ATOM     45  H   UNL A   1      40.165  30.031  31.831  1.00  0.00     0.167 HD
ATOM     46  C   UNL A   1      42.127  27.312  28.973  1.00  0.00     0.037 A 
ATOM     47  C   UNL A   1      39.791  31.239  34.314  1.00  0.00     0.037 A 
ATOM     48  C   UNL A   1      42.926  27.250  30.168  1.00  0.00     0.049 A 
ATOM     49  C   UNL A   1      41.027  30.388  34.430  1.00  0.00     0.074 A 
ATOM     50  C   UNL A   1      44.093  26.544  30.393  1.00  0.00     0.029 A 
ATOM     51  N   UNL A   1      42.635  27.931  31.342  1.00  0.00    -0.354 N 
ATOM     52  N   UNL A   1      41.592  29.625  33.525  1.00  0.00    -0.248 NA
ATOM     53  C   UNL A   1      41.711  30.387  35.730  1.00  0.00     0.031 C 
ATOM     54  C   UNL A   1      44.493  26.772  31.715  1.00  0.00     0.029 A 
ATOM     55  C   UNL A   1      43.597  27.653  32.299  1.00  0.00     0.049 A 
ATOM     56  H   UNL A   1      41.861  28.524  31.474  1.00  0.00     0.167 HD
ATOM     57  C   UNL A   1      42.707  29.069  34.138  1.00  0.00     0.074 A 
ATOM     58  C   UNL A   1      42.745  29.593  35.488  1.00  0.00     0.031 C 
ATOM     59  C   UNL A   1      43.615  28.198  33.632  1.00  0.00     0.037 A 
BRANCH  46  60
ATOM     60  C   UNL A   1      42.552  26.506  27.783  1.00  0.00     0.064 A 
ATOM     61  C   UNL A   1      42.072  25.206  27.559  1.00  0.00     0.173 A 
ATOM     62  C   UNL A   1      43.443  27.047  26.845  1.00  0.00     0.173 A 
ATOM     63  F   UNL A   1      41.233  24.637  28.438  1.00  0.00    -0.203 F 
ATOM     64  C   UNL A   1      42.488  24.471  26.452  1.00  0.00     0.198 A 
ATOM     65  C   UNL A   1      43.837  26.319  25.725  1.00  0.00     0.198 A 
ATOM     66  F   UNL A   1      43.930  28.286  27.012  1.00  0.00    -0.203 F 
ATOM     67  F   UNL A   1      42.052  23.216  26.281  1.00  0.00    -0.200 F 
ATOM     68  C   UNL A   1      43.365  25.030  25.533  1.00  0.00     0.200 A 
ATOM     69  F   UNL A   1      44.678  26.863  24.835  1.00  0.00    -0.200 F 
ATOM     70  F   UNL A   1      43.761  24.321  24.468  1.00  0.00    -0.200 F 
ENDBRANCH  46  60
BRANCH  47  71
ATOM     71  C   UNL A   1      39.298  32.036  35.467  1.00  0.00     0.064 A 
ATOM     72  C   UNL A   1      39.645  33.385  35.613  1.00  0.00     0.173 A 
ATOM     73  C   UNL A   1      38.466  31.465  36.443  1.00  0.00     0.173 A 
ATOM     74  F   UNL A   1      40.456  33.968  34.719  1.00  0.00    -0.203 F 
ATOM     75  C   UNL A   1      39.190  34.130  36.699  1.00  0.00     0.198 A 
ATOM     76  C   UNL A   1      37.990  32.218  37.512  1.00  0.00     0.198 A 
ATOM     77  F   UNL A   1      38.107  30.177  36.347  1.00  0.00    -0.203 F 
ATOM     78  F   UNL A   1      39.568  35.408  36.837  1.00  0.00    -0.200 F 
ATOM     79  C   UNL A   1      38.357  33.548  37.643  1.00  0.00     0.200 A 
ATOM     80  F   UNL A   1      37.176  31.655  38.416  1.00  0.00    -0.200 F 
ATOM     81  F   UNL A   1      37.914  34.269  38.683  1.00  0.00    -0.200 F 
ENDBRANCH  47  71
BRANCH  59  82
ATOM     82  C   UNL A   1      44.744  27.792  34.531  1.00  0.00     0.064 A 
ATOM     83  C   UNL A   1      44.677  26.630  35.314  1.00  0.00     0.173 A 
ATOM     84  C   UNL A   1      45.921  28.554  34.578  1.00  0.00     0.173 A 
ATOM     85  F   UNL A   1      43.565  25.880  35.313  1.00  0.00    -0.203 F 
ATOM     86  C   UNL A   1      45.742  26.257  36.127  1.00  0.00     0.198 A 
ATOM     87  C   UNL A   1      46.993  28.163  35.374  1.00  0.00     0.198 A 
ATOM     88  F   UNL A   1      46.033  29.671  33.843  1.00  0.00    -0.203 F 
ATOM     89  F   UNL A   1      45.644  25.165  36.898  1.00  0.00    -0.200 F 
ATOM     90  C   UNL A   1      46.902  27.019  36.152  1.00  0.00     0.200 A 
ATOM     91  F   UNL A   1      48.115  28.895  35.389  1.00  0.00    -0.200 F 
ATOM     92  F   UNL A   1      47.928  26.654  36.932  1.00  0.00    -0.200 F 
ENDBRANCH  59  82
ENDBRANCH  33  34
ENDBRANCH  26  28
ENDBRANCH  25  26
ENDBRANCH  24  25
ENDBRANCH  23  24
ENDBRANCH   1  23
TORSDOF 17
ENDMDL
MODEL 2
REMARK VINA RESULT:     -10.9      3.964      9.512
REMARK SMILES CCNC(=O)[C@@H](C)Oc1ccc(OC)cc1/C=C/C(=O)OCCOC(=O)c1ccc(-c2c3nc(c(-c4c(F)c(F)c(F)c(F)c4F)c4ccc([nH]4)c(-c4c(F)c(F)c(F)c(F)c4F)c4nc(c(-c5c(F)c(F)c(F)c(F)c5F)c5ccc2[nH]5)C=C4)C=C3)cc1
REMARK SMILES IDX 21 1 19 2 20 3 18 4 17 5 16 6 9 7 10 8 11 9 15 10 12 11 8 12
REMARK SMILES IDX 6 13 7 14 4 15 3 16 5 18 2 19 1 20 13 21 14 22 22 23 23 24
REMARK SMILES IDX 24 25 25 26 26 27 27 28 28 29 89 30 29 31 88 32 30 33 31 34
REMARK SMILES IDX 32 35 82 36 33 37 87 38 81 39 83 40 34 41 86 42 80 43 79 44
REMARK SMILES IDX 35 46 67 47 47 48 66 49 48 50 51 51 65 52 84 53 49 54 50 55
REMARK SMILES IDX 64 57 85 58 52 59 36 60 37 61 45 62 38 63 39 64 43 65 46 66
REMARK SMILES IDX 40 67 41 68 44 69 42 70 68 71 69 72 77 73 70 74 71 75 75 76
REMARK SMILES IDX 78 77 72 78 73 79 76 80 74 81 53 82 54 83 62 84 55 85 56 86
REMARK SMILES IDX 60 87 63 88 57 89 58 90 61 91 59 92
REMARK H PARENT 3 17 83 45 51 56
REMARK Flexibility Score: inf
ROOT
ATOM      1  O   UNL A   1      35.676  23.550  24.343  1.00  0.00    -0.459 OA
ENDROOT
BRANCH   1   2
ATOM      2  C   UNL A   1      34.720  24.069  23.548  1.00  0.00     0.330 C 
ATOM      3  O   UNL A   1      34.440  23.718  22.409  1.00  0.00    -0.247 OA
BRANCH   2   4
ATOM      4  C   UNL A   1      33.980  25.174  24.171  1.00  0.00     0.094 C 
ATOM      5  C   UNL A   1      33.546  25.257  25.436  1.00  0.00     0.019 C 
BRANCH   5   6
ATOM      6  C   UNL A   1      33.170  26.593  25.918  1.00  0.00     0.020 A 
ATOM      7  C   UNL A   1      31.818  26.970  25.968  1.00  0.00     0.127 A 
ATOM      8  C   UNL A   1      31.458  28.198  26.529  1.00  0.00     0.051 A 
ATOM      9  C   UNL A   1      32.430  29.011  27.118  1.00  0.00     0.050 A 
ATOM     10  C   UNL A   1      34.144  27.445  26.472  1.00  0.00     0.058 A 
ATOM     11  C   UNL A   1      33.769  28.626  27.113  1.00  0.00     0.119 A 
BRANCH   7  12
ATOM     12  O   UNL A   1      30.856  26.230  25.345  1.00  0.00    -0.480 OA
BRANCH  12  13
ATOM     13  C   UNL A   1      30.343  26.704  24.101  1.00  0.00     0.258 C 
ATOM     14  C   UNL A   1      28.839  26.492  23.944  1.00  0.00     0.064 C 
BRANCH  13  15
ATOM     15  C   UNL A   1      31.127  26.570  22.768  1.00  0.00     0.260 C 
ATOM     16  N   UNL A   1      31.951  27.539  22.281  1.00  0.00    -0.353 N 
ATOM     17  H   UNL A   1      32.458  27.277  21.478  1.00  0.00     0.163 HD
ATOM     18  O   UNL A   1      31.033  25.539  22.089  1.00  0.00    -0.271 OA
BRANCH  16  19
ATOM     19  C   UNL A   1      32.210  28.887  22.739  1.00  0.00     0.112 C 
ATOM     20  C   UNL A   1      33.663  29.053  23.149  1.00  0.00     0.027 C 
ENDBRANCH  16  19
ENDBRANCH  13  15
ENDBRANCH  12  13
ENDBRANCH   7  12
BRANCH  11  21
ATOM     21  O   UNL A   1      34.634  29.475  27.748  1.00  0.00    -0.497 OA
ATOM     22  C   UNL A   1      34.473  30.855  27.428  1.00  0.00     0.278 C 
ENDBRANCH  11  21
ENDBRANCH   5   6
ENDBRANCH   2   4
ENDBRANCH   1   2
BRANCH   1  23
ATOM     23  C   UNL A   1      35.653  22.118  24.446  1.00  0.00     0.275 C 
BRANCH  23  24
ATOM     24  C   UNL A   1      37.066  21.550  24.593  1.00  0.00     0.275 C 
BRANCH  24  25
ATOM     25  O   UNL A   1      37.555  21.669  25.943  1.00  0.00    -0.458 OA
BRANCH  25  26
ATOM     26  C   UNL A   1      38.892  21.527  26.078  1.00  0.00     0.338 C 
ATOM     27  O   UNL A   1      39.591  20.592  25.709  1.00  0.00    -0.246 OA
BRANCH  26  28
ATOM     28  C   UNL A   1      39.465  22.739  26.673  1.00  0.00     0.060 A 
ATOM     29  C   UNL A   1      39.046  23.982  26.192  1.00  0.00     0.016 A 
ATOM     30  C   UNL A   1      40.506  22.649  27.596  1.00  0.00     0.016 A 
ATOM     31  C   UNL A   1      39.671  25.147  26.619  1.00  0.00     0.010 A 
ATOM     32  C   UNL A   1      41.137  23.819  28.026  1.00  0.00     0.010 A 
ATOM     33  C   UNL A   1      40.736  25.069  27.521  1.00  0.00    -0.014 A 
BRANCH  33  34
ATOM     34  C   UNL A   1      41.503  26.291  27.850  1.00  0.00     0.031 A 
ATOM     35  C   UNL A   1      40.847  27.366  28.664  1.00  0.00     0.074 A 
ATOM     36  C   UNL A   1      42.779  26.415  27.449  1.00  0.00     0.049 A 
ATOM     37  N   UNL A   1      41.277  28.566  28.954  1.00  0.00    -0.248 NA
ATOM     38  C   UNL A   1      39.527  27.044  29.231  1.00  0.00     0.031 C 
ATOM     39  C   UNL A   1      43.538  25.399  26.720  1.00  0.00     0.029 A 
ATOM     40  N   UNL A   1      43.660  27.456  27.594  1.00  0.00    -0.354 N 
ATOM     41  C   UNL A   1      40.269  29.155  29.706  1.00  0.00     0.074 A 
ATOM     42  C   UNL A   1      39.204  28.182  29.827  1.00  0.00     0.031 C 
ATOM     43  C   UNL A   1      44.771  25.870  26.474  1.00  0.00     0.029 A 
ATOM     44  C   UNL A   1      44.867  27.237  26.979  1.00  0.00     0.049 A 
ATOM     45  H   UNL A   1      43.448  28.278  28.092  1.00  0.00     0.167 HD
ATOM     46  C   UNL A   1      40.238  30.399  30.238  1.00  0.00     0.037 A 
ATOM     47  C   UNL A   1      45.914  28.067  26.810  1.00  0.00     0.037 A 
ATOM     48  C   UNL A   1      41.312  31.350  30.122  1.00  0.00     0.049 A 
ATOM     49  C   UNL A   1      45.833  29.464  27.362  1.00  0.00     0.074 A 
ATOM     50  C   UNL A   1      41.381  32.641  30.611  1.00  0.00     0.029 A 
ATOM     51  N   UNL A   1      42.512  31.103  29.470  1.00  0.00    -0.354 N 
ATOM     52  N   UNL A   1      44.861  30.032  28.034  1.00  0.00    -0.248 NA
ATOM     53  C   UNL A   1      46.989  30.339  27.122  1.00  0.00     0.031 C 
ATOM     54  C   UNL A   1      42.611  33.188  30.228  1.00  0.00     0.029 A 
ATOM     55  C   UNL A   1      43.324  32.222  29.536  1.00  0.00     0.049 A 
ATOM     56  H   UNL A   1      42.750  30.256  29.028  1.00  0.00     0.167 HD
ATOM     57  C   UNL A   1      45.293  31.321  28.314  1.00  0.00     0.074 A 
ATOM     58  C   UNL A   1      46.622  31.447  27.750  1.00  0.00     0.031 C 
ATOM     59  C   UNL A   1      44.647  32.314  28.974  1.00  0.00     0.037 A 
BRANCH  46  60
ATOM     60  C   UNL A   1      38.988  30.812  30.955  1.00  0.00     0.064 A 
ATOM     61  C   UNL A   1      38.839  30.642  32.340  1.00  0.00     0.173 A 
ATOM     62  C   UNL A   1      37.929  31.397  30.247  1.00  0.00     0.173 A 
ATOM     63  F   UNL A   1      39.816  30.068  33.058  1.00  0.00    -0.203 F 
ATOM     64  C   UNL A   1      37.665  31.023  32.984  1.00  0.00     0.198 A 
ATOM     65  C   UNL A   1      36.766  31.801  30.898  1.00  0.00     0.198 A 
ATOM     66  F   UNL A   1      38.022  31.582  28.921  1.00  0.00    -0.203 F 
ATOM     67  F   UNL A   1      37.526  30.812  34.301  1.00  0.00    -0.200 F 
ATOM     68  C   UNL A   1      36.632  31.608  32.265  1.00  0.00     0.200 A 
ATOM     69  F   UNL A   1      35.773  32.372  30.203  1.00  0.00    -0.200 F 
ATOM     70  F   UNL A   1      35.505  31.976  32.888  1.00  0.00    -0.200 F 
ENDBRANCH  46  60
BRANCH  47  71
ATOM     71  C   UNL A   1      47.111  27.606  26.060  1.00  0.00     0.064 A 
ATOM     72  C   UNL A   1      48.218  27.066  26.728  1.00  0.00     0.173 A 
ATOM     73  C   UNL A   1      47.170  27.692  24.661  1.00  0.00     0.173 A 
ATOM     74  F   UNL A   1      48.217  26.985  28.067  1.00  0.00    -0.203 F 
ATOM     75  C   UNL A   1      49.344  26.643  26.027  1.00  0.00     0.198 A 
ATOM     76  C   UNL A   1      48.285  27.243  23.959  1.00  0.00     0.198 A 
ATOM     77  F   UNL A   1      46.136  28.202  23.976  1.00  0.00    -0.203 F 
ATOM     78  F   UNL A   1      50.405  26.166  26.692  1.00  0.00    -0.200 F 
ATOM     79  C   UNL A   1      49.374  26.724  24.643  1.00  0.00     0.200 A 
ATOM     80  F   UNL A   1      48.305  27.312  22.620  1.00  0.00    -0.200 F 
ATOM     81  F   UNL A   1      50.455  26.309  23.968  1.00  0.00    -0.200 F 
ENDBRANCH  47  71
BRANCH  59  82
ATOM     82  C   UNL A   1      45.387  33.607  29.152  1.00  0.00     0.064 A 
ATOM     83  C   UNL A   1      46.237  33.821  30.246  1.00  0.00     0.173 A 
ATOM     84  C   UNL A   1      45.273  34.624  28.194  1.00  0.00     0.173 A 
ATOM     85  F   UNL A   1      46.364  32.882  31.195  1.00  0.00    -0.203 F 
ATOM     86  C   UNL A   1      46.932  35.018  30.385  1.00  0.00     0.198 A 
ATOM     87  C   UNL A   1      45.988  35.811  28.323  1.00  0.00     0.198 A 
ATOM     88  F   UNL A   1      44.475  34.463  27.127  1.00  0.00    -0.203 F 
ATOM     89  F   UNL A   1      47.708  35.221  31.459  1.00  0.00    -0.200 F 
ATOM     90  C   UNL A   1      46.813  36.010  29.420  1.00  0.00     0.200 A 
ATOM     91  F   UNL A   1      45.880  36.763  27.387  1.00  0.00    -0.200 F 
ATOM     92  F   UNL A   1      47.486  37.160  29.554  1.00  0.00    -0.200 F 
ENDBRANCH  59  82
ENDBRANCH  33  34
ENDBRANCH  26  28
ENDBRANCH  25  26
ENDBRANCH  24  25
ENDBRANCH  23  24
ENDBRANCH   1  23
TORSDOF 17
ENDMDL
MODEL 3
REMARK VINA RESULT:     -10.7      4.510      9.630
REMARK SMILES CCNC(=O)[C@@H](C)Oc1ccc(OC)cc1/C=C/C(=O)OCCOC(=O)c1ccc(-c2c3nc(c(-c4c(F)c(F)c(F)c(F)c4F)c4ccc([nH]4)c(-c4c(F)c(F)c(F)c(F)c4F)c4nc(c(-c5c(F)c(F)c(F)c(F)c5F)c5ccc2[nH]5)C=C4)C=C3)cc1
REMARK SMILES IDX 21 1 19 2 20 3 18 4 17 5 16 6 9 7 10 8 11 9 15 10 12 11 8 12
REMARK SMILES IDX 6 13 7 14 4 15 3 16 5 18 2 19 1 20 13 21 14 22 22 23 23 24
REMARK SMILES IDX 24 25 25 26 26 27 27 28 28 29 89 30 29 31 88 32 30 33 31 34
REMARK SMILES IDX 32 35 82 36 33 37 87 38 81 39 83 40 34 41 86 42 80 43 79 44
REMARK SMILES IDX 35 46 67 47 47 48 66 49 48 50 51 51 65 52 84 53 49 54 50 55
REMARK SMILES IDX 64 57 85 58 52 59 36 60 37 61 45 62 38 63 39 64 43 65 46 66
REMARK SMILES IDX 40 67 41 68 44 69 42 70 68 71 69 72 77 73 70 74 71 75 75 76
REMARK SMILES IDX 78 77 72 78 73 79 76 80 74 81 53 82 54 83 62 84 55 85 56 86
REMARK SMILES IDX 60 87 63 88 57 89 58 90 61 91 59 92
REMARK H PARENT 3 17 83 45 51 56
REMARK Flexibility Score: inf
ROOT
ATOM      1  O   UNL A   1      37.567  21.937  24.647  1.00  0.00    -0.459 OA
ENDROOT
BRANCH   1   2
ATOM      2  C   UNL A   1      37.564  22.923  25.566  1.00  0.00     0.330 C 
ATOM      3  O   UNL A   1      38.490  23.250  26.297  1.00  0.00    -0.247 OA
BRANCH   2   4
ATOM      4  C   UNL A   1      36.281  23.632  25.655  1.00  0.00     0.094 C 
ATOM      5  C   UNL A   1      35.182  23.432  24.915  1.00  0.00     0.019 C 
BRANCH   5   6
ATOM      6  C   UNL A   1      33.927  23.994  25.432  1.00  0.00     0.020 A 
ATOM      7  C   UNL A   1      33.377  25.147  24.848  1.00  0.00     0.127 A 
ATOM      8  C   UNL A   1      32.129  25.613  25.269  1.00  0.00     0.051 A 
ATOM      9  C   UNL A   1      31.391  24.887  26.206  1.00  0.00     0.050 A 
ATOM     10  C   UNL A   1      33.192  23.299  26.410  1.00  0.00     0.058 A 
ATOM     11  C   UNL A   1      31.907  23.717  26.760  1.00  0.00     0.119 A 
BRANCH   7  12
ATOM     12  O   UNL A   1      34.101  25.912  23.981  1.00  0.00    -0.480 OA
BRANCH  12  13
ATOM     13  C   UNL A   1      33.391  26.744  23.064  1.00  0.00     0.258 C 
ATOM     14  C   UNL A   1      32.848  25.990  21.854  1.00  0.00     0.064 C 
BRANCH  13  15
ATOM     15  C   UNL A   1      33.836  28.195  22.738  1.00  0.00     0.260 C 
ATOM     16  N   UNL A   1      33.611  29.254  23.564  1.00  0.00    -0.353 N 
ATOM     17  H   UNL A   1      34.034  30.094  23.275  1.00  0.00     0.163 HD
ATOM     18  O   UNL A   1      34.438  28.442  21.685  1.00  0.00    -0.271 OA
BRANCH  16  19
ATOM     19  C   UNL A   1      32.855  29.355  24.795  1.00  0.00     0.112 C 
ATOM     20  C   UNL A   1      33.700  28.939  25.987  1.00  0.00     0.027 C 
ENDBRANCH  16  19
ENDBRANCH  13  15
ENDBRANCH  12  13
ENDBRANCH   7  12
BRANCH  11  21
ATOM     21  O   UNL A   1      31.089  23.063  27.639  1.00  0.00    -0.497 OA
ATOM     22  C   UNL A   1      29.721  22.977  27.245  1.00  0.00     0.278 C 
ENDBRANCH  11  21
ENDBRANCH   5   6
ENDBRANCH   2   4
ENDBRANCH   1   2
BRANCH   1  23
ATOM     23  C   UNL A   1      37.517  20.611  25.197  1.00  0.00     0.275 C 
BRANCH  23  24
ATOM     24  C   UNL A   1      38.864  19.901  25.053  1.00  0.00     0.275 C 
BRANCH  24  25
ATOM     25  O   UNL A   1      39.654  19.998  26.254  1.00  0.00    -0.458 OA
BRANCH  25  26
ATOM     26  C   UNL A   1      40.974  19.764  26.088  1.00  0.00     0.338 C 
ATOM     27  O   UNL A   1      41.509  18.765  25.625  1.00  0.00    -0.246 OA
BRANCH  26  28
ATOM     28  C   UNL A   1      41.744  20.955  26.462  1.00  0.00     0.060 A 
ATOM     29  C   UNL A   1      41.980  21.201  27.817  1.00  0.00     0.016 A 
ATOM     30  C   UNL A   1      42.108  21.892  25.497  1.00  0.00     0.016 A 
ATOM     31  C   UNL A   1      42.569  22.391  28.223  1.00  0.00     0.010 A 
ATOM     32  C   UNL A   1      42.701  23.090  25.902  1.00  0.00     0.010 A 
ATOM     33  C   UNL A   1      42.913  23.352  27.267  1.00  0.00    -0.014 A 
BRANCH  33  34
ATOM     34  C   UNL A   1      43.391  24.680  27.710  1.00  0.00     0.031 A 
ATOM     35  C   UNL A   1      42.387  25.724  28.100  1.00  0.00     0.074 A 
ATOM     36  C   UNL A   1      44.709  24.931  27.791  1.00  0.00     0.049 A 
ATOM     37  N   UNL A   1      42.572  26.986  28.387  1.00  0.00    -0.248 NA
ATOM     38  C   UNL A   1      40.985  25.285  28.179  1.00  0.00     0.031 C 
ATOM     39  C   UNL A   1      45.770  23.965  27.511  1.00  0.00     0.029 A 
ATOM     40  N   UNL A   1      45.377  26.080  28.127  1.00  0.00    -0.354 N 
ATOM     41  C   UNL A   1      41.308  27.500  28.646  1.00  0.00     0.074 A 
ATOM     42  C   UNL A   1      40.364  26.415  28.482  1.00  0.00     0.031 C 
ATOM     43  C   UNL A   1      46.960  24.565  27.679  1.00  0.00     0.029 A 
ATOM     44  C   UNL A   1      46.741  25.967  28.024  1.00  0.00     0.049 A 
ATOM     45  H   UNL A   1      44.924  26.905  28.415  1.00  0.00     0.167 HD
ATOM     46  C   UNL A   1      40.972  28.767  28.984  1.00  0.00     0.037 A 
ATOM     47  C   UNL A   1      47.699  26.904  28.155  1.00  0.00     0.037 A 
ATOM     48  C   UNL A   1      41.924  29.832  29.159  1.00  0.00     0.049 A 
ATOM     49  C   UNL A   1      47.295  28.318  28.475  1.00  0.00     0.074 A 
ATOM     50  C   UNL A   1      41.692  31.155  29.489  1.00  0.00     0.029 A 
ATOM     51  N   UNL A   1      43.297  29.687  29.023  1.00  0.00    -0.354 N 
ATOM     52  N   UNL A   1      46.097  28.810  28.676  1.00  0.00    -0.248 NA
ATOM     53  C   UNL A   1      48.376  29.308  28.574  1.00  0.00     0.031 C 
ATOM     54  C   UNL A   1      42.924  31.819  29.520  1.00  0.00     0.029 A 
ATOM     55  C   UNL A   1      43.925  30.899  29.252  1.00  0.00     0.049 A 
ATOM     56  H   UNL A   1      43.757  28.846  28.799  1.00  0.00     0.167 HD
ATOM     57  C   UNL A   1      46.279  30.160  28.945  1.00  0.00     0.074 A 
ATOM     58  C   UNL A   1      47.706  30.406  28.894  1.00  0.00     0.031 C 
ATOM     59  C   UNL A   1      45.349  31.112  29.205  1.00  0.00     0.037 A 
BRANCH  46  60
ATOM     60  C   UNL A   1      39.513  29.075  29.144  1.00  0.00     0.064 A 
ATOM     61  C   UNL A   1      38.713  29.452  28.055  1.00  0.00     0.173 A 
ATOM     62  C   UNL A   1      38.905  28.978  30.404  1.00  0.00     0.173 A 
ATOM     63  F   UNL A   1      39.253  29.578  26.833  1.00  0.00    -0.203 F 
ATOM     64  C   UNL A   1      37.363  29.743  28.227  1.00  0.00     0.198 A 
ATOM     65  C   UNL A   1      37.548  29.245  30.568  1.00  0.00     0.198 A 
ATOM     66  F   UNL A   1      39.626  28.621  31.477  1.00  0.00    -0.203 F 
ATOM     67  F   UNL A   1      36.626  30.144  27.181  1.00  0.00    -0.200 F 
ATOM     68  C   UNL A   1      36.780  29.634  29.482  1.00  0.00     0.200 A 
ATOM     69  F   UNL A   1      36.986  29.131  31.779  1.00  0.00    -0.200 F 
ATOM     70  F   UNL A   1      35.479  29.912  29.644  1.00  0.00    -0.200 F 
ENDBRANCH  46  60
BRANCH  47  71
ATOM     71  C   UNL A   1      49.124  26.540  27.952  1.00  0.00     0.064 A 
ATOM     72  C   UNL A   1      49.653  26.380  26.664  1.00  0.00     0.173 A 
ATOM     73  C   UNL A   1      49.988  26.347  29.041  1.00  0.00     0.173 A 
ATOM     74  F   UNL A   1      48.860  26.531  25.592  1.00  0.00    -0.203 F 
ATOM     75  C   UNL A   1      50.987  26.029  26.473  1.00  0.00     0.198 A 
ATOM     76  C   UNL A   1      51.328  26.023  28.849  1.00  0.00     0.198 A 
ATOM     77  F   UNL A   1      49.529  26.487  30.293  1.00  0.00    -0.203 F 
ATOM     78  F   UNL A   1      51.458  25.845  25.232  1.00  0.00    -0.200 F 
ATOM     79  C   UNL A   1      51.825  25.858  27.565  1.00  0.00     0.200 A 
ATOM     80  F   UNL A   1      52.137  25.870  29.906  1.00  0.00    -0.200 F 
ATOM     81  F   UNL A   1      53.111  25.528  27.380  1.00  0.00    -0.200 F 
ENDBRANCH  47  71
BRANCH  59  82
ATOM     82  C   UNL A   1      45.852  32.495  29.491  1.00  0.00     0.064 A 
ATOM     83  C   UNL A   1      46.210  32.893  30.787  1.00  0.00     0.173 A 
ATOM     84  C   UNL A   1      46.017  33.418  28.447  1.00  0.00     0.173 A 
ATOM     85  F   UNL A   1      46.054  32.049  31.818  1.00  0.00    -0.203 F 
ATOM     86  C   UNL A   1      46.695  34.174  31.032  1.00  0.00     0.198 A 
ATOM     87  C   UNL A   1      46.526  34.690  28.692  1.00  0.00     0.198 A 
ATOM     88  F   UNL A   1      45.694  33.082  27.189  1.00  0.00    -0.203 F 
ATOM     89  F   UNL A   1      46.993  34.549  32.283  1.00  0.00    -0.200 F 
ATOM     90  C   UNL A   1      46.859  35.069  29.983  1.00  0.00     0.200 A 
ATOM     91  F   UNL A   1      46.693  35.550  27.678  1.00  0.00    -0.200 F 
ATOM     92  F   UNL A   1      47.331  36.300  30.220  1.00  0.00    -0.200 F 
ENDBRANCH  59  82
ENDBRANCH  33  34
ENDBRANCH  26  28
ENDBRANCH  25  26
ENDBRANCH  24  25
ENDBRANCH  23  24
ENDBRANCH   1  23
TORSDOF 17
ENDMDL
