MODEL 1
REMARK VINA RESULT:     -12.2      0.000      0.000
REMARK SMILES CCOc1cc2nccc(Nc3ccc(C(=O)OCCOC(=O)c4ccc(-c5c6nc(c(-c7c(F)c(F)c(F)c(F)c7F)c7ccc([nH]7)c(-c7c(F)c(F)c(F)c(F)c7F)c7nc(c(-c8c(F)c(F)c(F)c(F)c8F)c8ccc5[nH]8)C=C7)C=C6)cc4)cc3)c2cc1OCC
REMARK SMILES IDX 19 1 18 2 16 3 17 4 15 5 12 6 13 7 88 8 14 9 87 10 11 11
REMARK SMILES IDX 10 13 4 14 5 15 91 16 6 17 90 18 7 19 89 20 8 21 9 22 3 23
REMARK SMILES IDX 2 24 1 25 92 26 93 27 94 28 20 29 21 30 22 31 23 32 24 33
REMARK SMILES IDX 25 34 86 35 26 36 85 37 27 38 28 39 29 40 79 41 30 42 84 43
REMARK SMILES IDX 78 44 80 45 31 46 83 47 77 48 76 49 32 51 64 52 44 53 63 54
REMARK SMILES IDX 45 55 48 56 62 57 81 58 46 59 47 60 61 62 82 63 49 64 33 65
REMARK SMILES IDX 34 66 42 67 35 68 36 69 40 70 43 71 37 72 38 73 41 74 39 75
REMARK SMILES IDX 65 76 66 77 74 78 67 79 68 80 72 81 75 82 69 83 70 84 73 85
REMARK SMILES IDX 71 86 50 87 51 88 59 89 52 90 53 91 57 92 60 93 54 94 55 95
REMARK SMILES IDX 58 96 56 97
REMARK H PARENT 11 12 80 50 48 61
REMARK Flexibility Score: inf
ROOT
ATOM      1  C   UNL A   1      42.074  20.160  26.154  1.00  0.00     0.275 C 
ENDROOT
BRANCH   1   2
ATOM      2  O   UNL A   1      40.819  20.828  26.396  1.00  0.00    -0.458 OA
BRANCH   2   3
ATOM      3  C   UNL A   1      39.750  20.263  25.792  1.00  0.00     0.338 C 
ATOM      4  O   UNL A   1      39.607  19.078  25.523  1.00  0.00    -0.246 OA
BRANCH   3   5
ATOM      5  C   UNL A   1      38.684  21.251  25.531  1.00  0.00     0.060 A 
ATOM      6  C   UNL A   1      36.579  23.095  25.454  1.00  0.00     0.038 A 
ATOM      7  C   UNL A   1      37.803  23.452  26.016  1.00  0.00     0.027 A 
ATOM      8  C   UNL A   1      36.438  21.832  24.869  1.00  0.00     0.027 A 
ATOM      9  C   UNL A   1      38.829  22.527  26.081  1.00  0.00     0.018 A 
ATOM     10  C   UNL A   1      37.496  20.913  24.884  1.00  0.00     0.018 A 
BRANCH   6  11
ATOM     11  N   UNL A   1      35.522  23.994  25.623  1.00  0.00    -0.355 N 
ATOM     12  H   UNL A   1      35.700  24.900  25.279  1.00  0.00     0.167 HD
BRANCH  11  13
ATOM     13  C   UNL A   1      34.241  23.829  26.202  1.00  0.00     0.050 A 
ATOM     14  C   UNL A   1      31.063  26.378  25.051  1.00  0.00     0.163 A 
ATOM     15  C   UNL A   1      30.863  25.347  25.981  1.00  0.00     0.079 A 
ATOM     16  C   UNL A   1      32.319  26.543  24.478  1.00  0.00     0.161 A 
ATOM     17  C   UNL A   1      31.899  24.490  26.367  1.00  0.00     0.076 A 
ATOM     18  C   UNL A   1      33.349  25.688  24.839  1.00  0.00     0.063 A 
ATOM     19  N   UNL A   1      31.673  23.544  27.297  1.00  0.00    -0.256 NA
ATOM     20  C   UNL A   1      33.173  24.665  25.787  1.00  0.00     0.028 A 
ATOM     21  C   UNL A   1      32.709  22.764  27.683  1.00  0.00     0.114 A 
ATOM     22  C   UNL A   1      33.987  22.862  27.169  1.00  0.00     0.047 A 
BRANCH  14  23
ATOM     23  O   UNL A   1      30.098  27.316  24.808  1.00  0.00    -0.490 OA
BRANCH  23  24
ATOM     24  C   UNL A   1      29.308  27.072  23.638  1.00  0.00     0.226 C 
ATOM     25  C   UNL A   1      29.040  28.421  22.980  1.00  0.00     0.049 C 
ENDBRANCH  23  24
ENDBRANCH  14  23
BRANCH  16  26
ATOM     26  O   UNL A   1      32.714  27.501  23.588  1.00  0.00    -0.490 OA
BRANCH  26  27
ATOM     27  C   UNL A   1      33.533  28.549  24.094  1.00  0.00     0.226 C 
ATOM     28  C   UNL A   1      32.790  29.571  24.949  1.00  0.00     0.049 C 
ENDBRANCH  26  27
ENDBRANCH  16  26
ENDBRANCH  11  13
ENDBRANCH   6  11
ENDBRANCH   3   5
ENDBRANCH   2   3
ENDBRANCH   1   2
BRANCH   1  29
ATOM     29  C   UNL A   1      43.167  21.142  25.724  1.00  0.00     0.275 C 
BRANCH  29  30
ATOM     30  O   UNL A   1      42.611  22.275  25.026  1.00  0.00    -0.458 OA
BRANCH  30  31
ATOM     31  C   UNL A   1      43.335  23.412  25.120  1.00  0.00     0.338 C 
ATOM     32  O   UNL A   1      44.364  23.689  24.527  1.00  0.00    -0.246 OA
BRANCH  31  33
ATOM     33  C   UNL A   1      42.676  24.381  26.007  1.00  0.00     0.060 A 
ATOM     34  C   UNL A   1      42.999  25.720  25.852  1.00  0.00     0.016 A 
ATOM     35  C   UNL A   1      41.955  23.969  27.123  1.00  0.00     0.016 A 
ATOM     36  C   UNL A   1      42.779  26.622  26.886  1.00  0.00     0.010 A 
ATOM     37  C   UNL A   1      41.577  24.917  28.085  1.00  0.00     0.010 A 
ATOM     38  C   UNL A   1      42.031  26.249  28.008  1.00  0.00    -0.014 A 
BRANCH  38  39
ATOM     39  C   UNL A   1      41.734  27.246  29.082  1.00  0.00     0.031 A 
ATOM     40  C   UNL A   1      42.601  27.336  30.313  1.00  0.00     0.074 A 
ATOM     41  C   UNL A   1      40.683  28.086  28.956  1.00  0.00     0.049 A 
ATOM     42  N   UNL A   1      42.398  27.997  31.427  1.00  0.00    -0.248 NA
ATOM     43  C   UNL A   1      43.856  26.569  30.300  1.00  0.00     0.031 C 
ATOM     44  C   UNL A   1      39.780  28.149  27.804  1.00  0.00     0.029 A 
ATOM     45  N   UNL A   1      40.197  29.055  29.802  1.00  0.00    -0.354 N 
ATOM     46  C   UNL A   1      43.463  27.678  32.263  1.00  0.00     0.074 A 
ATOM     47  C   UNL A   1      44.305  26.755  31.533  1.00  0.00     0.031 C 
ATOM     48  C   UNL A   1      38.888  29.130  27.990  1.00  0.00     0.029 A 
ATOM     49  C   UNL A   1      39.072  29.685  29.323  1.00  0.00     0.049 A 
ATOM     50  H   UNL A   1      40.612  29.275  30.666  1.00  0.00     0.167 HD
ATOM     51  C   UNL A   1      43.711  28.115  33.522  1.00  0.00     0.037 A 
ATOM     52  C   UNL A   1      38.237  30.566  29.907  1.00  0.00     0.037 A 
ATOM     53  C   UNL A   1      42.893  29.073  34.223  1.00  0.00     0.049 A 
ATOM     54  C   UNL A   1      38.502  30.989  31.322  1.00  0.00     0.074 A 
ATOM     55  C   UNL A   1      43.073  29.599  35.491  1.00  0.00     0.029 A 
ATOM     56  N   UNL A   1      41.741  29.655  33.712  1.00  0.00    -0.354 N 
ATOM     57  N   UNL A   1      39.488  30.651  32.116  1.00  0.00    -0.248 NA
ATOM     58  C   UNL A   1      37.527  31.903  31.930  1.00  0.00     0.031 C 
ATOM     59  C   UNL A   1      42.001  30.454  35.769  1.00  0.00     0.029 A 
ATOM     60  C   UNL A   1      41.186  30.514  34.650  1.00  0.00     0.049 A 
ATOM     61  H   UNL A   1      41.372  29.484  32.815  1.00  0.00     0.167 HD
ATOM     62  C   UNL A   1      39.265  31.325  33.308  1.00  0.00     0.074 A 
ATOM     63  C   UNL A   1      38.061  32.110  33.125  1.00  0.00     0.031 C 
ATOM     64  C   UNL A   1      39.991  31.293  34.452  1.00  0.00     0.037 A 
BRANCH  51  65
ATOM     65  C   UNL A   1      44.896  27.536  34.247  1.00  0.00     0.064 A 
ATOM     66  C   UNL A   1      46.163  28.136  34.213  1.00  0.00     0.173 A 
ATOM     67  C   UNL A   1      44.746  26.377  35.026  1.00  0.00     0.173 A 
ATOM     68  F   UNL A   1      46.368  29.241  33.478  1.00  0.00    -0.203 F 
ATOM     69  C   UNL A   1      47.241  27.581  34.901  1.00  0.00     0.198 A 
ATOM     70  C   UNL A   1      45.816  25.844  35.741  1.00  0.00     0.198 A 
ATOM     71  F   UNL A   1      43.555  25.764  35.106  1.00  0.00    -0.203 F 
ATOM     72  F   UNL A   1      48.454  28.143  34.809  1.00  0.00    -0.200 F 
ATOM     73  C   UNL A   1      47.065  26.441  35.670  1.00  0.00     0.200 A 
ATOM     74  F   UNL A   1      45.638  24.752  36.498  1.00  0.00    -0.200 F 
ATOM     75  F   UNL A   1      48.101  25.914  36.338  1.00  0.00    -0.200 F 
ENDBRANCH  51  65
BRANCH  52  76
ATOM     76  C   UNL A   1      37.043  31.059  29.168  1.00  0.00     0.064 A 
ATOM     77  C   UNL A   1      35.933  30.231  28.954  1.00  0.00     0.173 A 
ATOM     78  C   UNL A   1      36.985  32.368  28.663  1.00  0.00     0.173 A 
ATOM     79  F   UNL A   1      35.948  28.964  29.395  1.00  0.00    -0.203 F 
ATOM     80  C   UNL A   1      34.819  30.687  28.251  1.00  0.00     0.198 A 
ATOM     81  C   UNL A   1      35.855  32.835  27.994  1.00  0.00     0.198 A 
ATOM     82  F   UNL A   1      38.019  33.204  28.839  1.00  0.00    -0.203 F 
ATOM     83  F   UNL A   1      33.792  29.858  28.018  1.00  0.00    -0.200 F 
ATOM     84  C   UNL A   1      34.778  31.991  27.781  1.00  0.00     0.200 A 
ATOM     85  F   UNL A   1      35.813  34.101  27.560  1.00  0.00    -0.200 F 
ATOM     86  F   UNL A   1      33.702  32.432  27.114  1.00  0.00    -0.200 F 
ENDBRANCH  52  76
BRANCH  64  87
ATOM     87  C   UNL A   1      39.524  32.165  35.582  1.00  0.00     0.064 A 
ATOM     88  C   UNL A   1      38.591  31.716  36.527  1.00  0.00     0.173 A 
ATOM     89  C   UNL A   1      40.036  33.463  35.731  1.00  0.00     0.173 A 
ATOM     90  F   UNL A   1      38.056  30.490  36.418  1.00  0.00    -0.203 F 
ATOM     91  C   UNL A   1      38.165  32.544  37.562  1.00  0.00     0.198 A 
ATOM     92  C   UNL A   1      39.635  34.276  36.787  1.00  0.00     0.198 A 
ATOM     93  F   UNL A   1      40.935  33.941  34.856  1.00  0.00    -0.203 F 
ATOM     94  F   UNL A   1      37.229  32.113  38.419  1.00  0.00    -0.200 F 
ATOM     95  C   UNL A   1      38.692  33.819  37.696  1.00  0.00     0.200 A 
ATOM     96  F   UNL A   1      40.158  35.503  36.923  1.00  0.00    -0.200 F 
ATOM     97  F   UNL A   1      38.286  34.613  38.697  1.00  0.00    -0.200 F 
ENDBRANCH  64  87
ENDBRANCH  38  39
ENDBRANCH  31  33
ENDBRANCH  30  31
ENDBRANCH  29  30
ENDBRANCH   1  29
TORSDOF 17
ENDMDL
MODEL 2
REMARK VINA RESULT:     -12.1      3.626      9.231
REMARK SMILES CCOc1cc2nccc(Nc3ccc(C(=O)OCCOC(=O)c4ccc(-c5c6nc(c(-c7c(F)c(F)c(F)c(F)c7F)c7ccc([nH]7)c(-c7c(F)c(F)c(F)c(F)c7F)c7nc(c(-c8c(F)c(F)c(F)c(F)c8F)c8ccc5[nH]8)C=C7)C=C6)cc4)cc3)c2cc1OCC
REMARK SMILES IDX 19 1 18 2 16 3 17 4 15 5 12 6 13 7 88 8 14 9 87 10 11 11
REMARK SMILES IDX 10 13 4 14 5 15 91 16 6 17 90 18 7 19 89 20 8 21 9 22 3 23
REMARK SMILES IDX 2 24 1 25 92 26 93 27 94 28 20 29 21 30 22 31 23 32 24 33
REMARK SMILES IDX 25 34 86 35 26 36 85 37 27 38 28 39 29 40 79 41 30 42 84 43
REMARK SMILES IDX 78 44 80 45 31 46 83 47 77 48 76 49 32 51 64 52 44 53 63 54
REMARK SMILES IDX 45 55 48 56 62 57 81 58 46 59 47 60 61 62 82 63 49 64 33 65
REMARK SMILES IDX 34 66 42 67 35 68 36 69 40 70 43 71 37 72 38 73 41 74 39 75
REMARK SMILES IDX 65 76 66 77 74 78 67 79 68 80 72 81 75 82 69 83 70 84 73 85
REMARK SMILES IDX 71 86 50 87 51 88 59 89 52 90 53 91 57 92 60 93 54 94 55 95
REMARK SMILES IDX 58 96 56 97
REMARK H PARENT 11 12 80 50 48 61
REMARK Flexibility Score: inf
ROOT
ATOM      1  C   UNL A   1      34.247  35.132  28.522  1.00  0.00     0.275 C 
ENDROOT
BRANCH   1   2
ATOM      2  O   UNL A   1      34.319  33.777  29.010  1.00  0.00    -0.458 OA
BRANCH   2   3
ATOM      3  C   UNL A   1      35.206  32.988  28.364  1.00  0.00     0.338 C 
ATOM      4  O   UNL A   1      36.383  33.243  28.145  1.00  0.00    -0.246 OA
BRANCH   3   5
ATOM      5  C   UNL A   1      34.610  31.692  27.983  1.00  0.00     0.060 A 
ATOM      6  C   UNL A   1      33.690  29.285  26.890  1.00  0.00     0.038 A 
ATOM      7  C   UNL A   1      35.008  29.397  27.327  1.00  0.00     0.027 A 
ATOM      8  C   UNL A   1      32.817  30.364  27.066  1.00  0.00     0.027 A 
ATOM      9  C   UNL A   1      35.467  30.598  27.836  1.00  0.00     0.018 A 
ATOM     10  C   UNL A   1      33.266  31.564  27.634  1.00  0.00     0.018 A 
BRANCH   6  11
ATOM     11  N   UNL A   1      33.357  28.125  26.183  1.00  0.00    -0.355 N 
ATOM     12  H   UNL A   1      32.970  27.409  26.737  1.00  0.00     0.167 HD
BRANCH  11  13
ATOM     13  C   UNL A   1      33.480  27.802  24.811  1.00  0.00     0.050 A 
ATOM     14  C   UNL A   1      33.477  23.747  23.592  1.00  0.00     0.163 A 
ATOM     15  C   UNL A   1      33.569  24.785  22.654  1.00  0.00     0.079 A 
ATOM     16  C   UNL A   1      33.356  24.060  24.942  1.00  0.00     0.161 A 
ATOM     17  C   UNL A   1      33.563  26.131  23.036  1.00  0.00     0.076 A 
ATOM     18  C   UNL A   1      33.329  25.390  25.333  1.00  0.00     0.063 A 
ATOM     19  N   UNL A   1      33.699  27.092  22.105  1.00  0.00    -0.256 NA
ATOM     20  C   UNL A   1      33.444  26.443  24.407  1.00  0.00     0.028 A 
ATOM     21  C   UNL A   1      33.738  28.380  22.515  1.00  0.00     0.114 A 
ATOM     22  C   UNL A   1      33.628  28.779  23.832  1.00  0.00     0.047 A 
BRANCH  14  23
ATOM     23  O   UNL A   1      33.657  22.441  23.231  1.00  0.00    -0.490 OA
BRANCH  23  24
ATOM     24  C   UNL A   1      32.446  21.699  23.050  1.00  0.00     0.226 C 
ATOM     25  C   UNL A   1      32.560  20.428  23.885  1.00  0.00     0.049 C 
ENDBRANCH  23  24
ENDBRANCH  14  23
BRANCH  16  26
ATOM     26  O   UNL A   1      33.289  23.197  25.999  1.00  0.00    -0.490 OA
BRANCH  26  27
ATOM     27  C   UNL A   1      32.174  23.335  26.872  1.00  0.00     0.226 C 
ATOM     28  C   UNL A   1      30.880  22.727  26.341  1.00  0.00     0.049 C 
ENDBRANCH  26  27
ENDBRANCH  16  26
ENDBRANCH  11  13
ENDBRANCH   6  11
ENDBRANCH   3   5
ENDBRANCH   2   3
ENDBRANCH   1   2
BRANCH   1  29
ATOM     29  C   UNL A   1      33.108  35.914  29.182  1.00  0.00     0.275 C 
BRANCH  29  30
ATOM     30  O   UNL A   1      32.547  35.187  30.294  1.00  0.00    -0.458 OA
BRANCH  30  31
ATOM     31  C   UNL A   1      32.716  35.771  31.500  1.00  0.00     0.338 C 
ATOM     32  O   UNL A   1      32.078  36.696  31.974  1.00  0.00    -0.246 OA
BRANCH  31  33
ATOM     33  C   UNL A   1      33.763  35.087  32.271  1.00  0.00     0.060 A 
ATOM     34  C   UNL A   1      35.031  35.649  32.278  1.00  0.00     0.016 A 
ATOM     35  C   UNL A   1      33.576  33.800  32.765  1.00  0.00     0.016 A 
ATOM     36  C   UNL A   1      36.142  34.877  32.594  1.00  0.00     0.010 A 
ATOM     37  C   UNL A   1      34.679  33.084  33.253  1.00  0.00     0.010 A 
ATOM     38  C   UNL A   1      35.987  33.590  33.123  1.00  0.00    -0.014 A 
BRANCH  38  39
ATOM     39  C   UNL A   1      37.185  32.795  33.531  1.00  0.00     0.031 A 
ATOM     40  C   UNL A   1      37.837  33.015  34.874  1.00  0.00     0.074 A 
ATOM     41  C   UNL A   1      37.694  31.858  32.700  1.00  0.00     0.049 A 
ATOM     42  N   UNL A   1      38.982  32.564  35.327  1.00  0.00    -0.248 NA
ATOM     43  C   UNL A   1      37.118  33.871  35.830  1.00  0.00     0.031 C 
ATOM     44  C   UNL A   1      37.147  31.500  31.389  1.00  0.00     0.029 A 
ATOM     45  N   UNL A   1      38.784  31.031  32.833  1.00  0.00    -0.354 N 
ATOM     46  C   UNL A   1      39.145  33.127  36.588  1.00  0.00     0.074 A 
ATOM     47  C   UNL A   1      37.988  33.962  36.826  1.00  0.00     0.031 C 
ATOM     48  C   UNL A   1      37.866  30.500  30.864  1.00  0.00     0.029 A 
ATOM     49  C   UNL A   1      38.998  30.227  31.739  1.00  0.00     0.049 A 
ATOM     50  H   UNL A   1      39.355  31.016  33.634  1.00  0.00     0.167 HD
ATOM     51  C   UNL A   1      40.167  32.961  37.463  1.00  0.00     0.037 A 
ATOM     52  C   UNL A   1      40.020  29.405  31.432  1.00  0.00     0.037 A 
ATOM     53  C   UNL A   1      41.292  32.088  37.239  1.00  0.00     0.049 A 
ATOM     54  C   UNL A   1      41.167  29.284  32.392  1.00  0.00     0.074 A 
ATOM     55  C   UNL A   1      42.366  31.830  38.074  1.00  0.00     0.029 A 
ATOM     56  N   UNL A   1      41.485  31.322  36.097  1.00  0.00    -0.354 N 
ATOM     57  N   UNL A   1      41.330  29.850  33.562  1.00  0.00    -0.248 NA
ATOM     58  C   UNL A   1      42.282  28.422  31.980  1.00  0.00     0.031 C 
ATOM     59  C   UNL A   1      43.236  30.956  37.415  1.00  0.00     0.029 A 
ATOM     60  C   UNL A   1      42.674  30.614  36.195  1.00  0.00     0.049 A 
ATOM     61  H   UNL A   1      40.868  31.286  35.330  1.00  0.00     0.167 HD
ATOM     62  C   UNL A   1      42.553  29.399  34.037  1.00  0.00     0.074 A 
ATOM     63  C   UNL A   1      43.080  28.494  33.036  1.00  0.00     0.031 C 
ATOM     64  C   UNL A   1      43.184  29.711  35.195  1.00  0.00     0.037 A 
BRANCH  51  65
ATOM     65  C   UNL A   1      40.143  33.767  38.734  1.00  0.00     0.064 A 
ATOM     66  C   UNL A   1      39.455  33.342  39.880  1.00  0.00     0.173 A 
ATOM     67  C   UNL A   1      40.860  34.972  38.816  1.00  0.00     0.173 A 
ATOM     68  F   UNL A   1      38.746  32.202  39.857  1.00  0.00    -0.203 F 
ATOM     69  C   UNL A   1      39.457  34.105  41.045  1.00  0.00     0.198 A 
ATOM     70  C   UNL A   1      40.889  35.716  39.993  1.00  0.00     0.198 A 
ATOM     71  F   UNL A   1      41.547  35.425  37.755  1.00  0.00    -0.203 F 
ATOM     72  F   UNL A   1      38.748  33.704  42.110  1.00  0.00    -0.200 F 
ATOM     73  C   UNL A   1      40.180  35.287  41.104  1.00  0.00     0.200 A 
ATOM     74  F   UNL A   1      41.604  36.849  40.051  1.00  0.00    -0.200 F 
ATOM     75  F   UNL A   1      40.188  36.016  42.229  1.00  0.00    -0.200 F 
ENDBRANCH  51  65
BRANCH  52  76
ATOM     76  C   UNL A   1      40.025  28.680  30.132  1.00  0.00     0.064 A 
ATOM     77  C   UNL A   1      39.429  27.418  30.006  1.00  0.00     0.173 A 
ATOM     78  C   UNL A   1      40.623  29.233  28.989  1.00  0.00     0.173 A 
ATOM     79  F   UNL A   1      38.866  26.834  31.075  1.00  0.00    -0.203 F 
ATOM     80  C   UNL A   1      39.444  26.732  28.794  1.00  0.00     0.198 A 
ATOM     81  C   UNL A   1      40.603  28.563  27.767  1.00  0.00     0.198 A 
ATOM     82  F   UNL A   1      41.208  30.439  29.051  1.00  0.00    -0.203 F 
ATOM     83  F   UNL A   1      38.910  25.505  28.715  1.00  0.00    -0.200 F 
ATOM     84  C   UNL A   1      40.022  27.309  27.674  1.00  0.00     0.200 A 
ATOM     85  F   UNL A   1      41.145  29.135  26.684  1.00  0.00    -0.200 F 
ATOM     86  F   UNL A   1      40.027  26.653  26.505  1.00  0.00    -0.200 F 
ENDBRANCH  52  76
BRANCH  64  87
ATOM     87  C   UNL A   1      44.497  29.033  35.461  1.00  0.00     0.064 A 
ATOM     88  C   UNL A   1      45.717  29.605  35.071  1.00  0.00     0.173 A 
ATOM     89  C   UNL A   1      44.534  27.804  36.136  1.00  0.00     0.173 A 
ATOM     90  F   UNL A   1      45.735  30.770  34.406  1.00  0.00    -0.203 F 
ATOM     91  C   UNL A   1      46.923  28.956  35.320  1.00  0.00     0.198 A 
ATOM     92  C   UNL A   1      45.743  27.175  36.415  1.00  0.00     0.198 A 
ATOM     93  F   UNL A   1      43.395  27.216  36.535  1.00  0.00    -0.203 F 
ATOM     94  F   UNL A   1      48.072  29.492  34.887  1.00  0.00    -0.200 F 
ATOM     95  C   UNL A   1      46.936  27.746  35.998  1.00  0.00     0.200 A 
ATOM     96  F   UNL A   1      45.755  26.013  37.084  1.00  0.00    -0.200 F 
ATOM     97  F   UNL A   1      48.099  27.126  36.243  1.00  0.00    -0.200 F 
ENDBRANCH  64  87
ENDBRANCH  38  39
ENDBRANCH  31  33
ENDBRANCH  30  31
ENDBRANCH  29  30
ENDBRANCH   1  29
TORSDOF 17
ENDMDL
MODEL 3
REMARK VINA RESULT:     -11.9      2.966      8.184
REMARK SMILES CCOc1cc2nccc(Nc3ccc(C(=O)OCCOC(=O)c4ccc(-c5c6nc(c(-c7c(F)c(F)c(F)c(F)c7F)c7ccc([nH]7)c(-c7c(F)c(F)c(F)c(F)c7F)c7nc(c(-c8c(F)c(F)c(F)c(F)c8F)c8ccc5[nH]8)C=C7)C=C6)cc4)cc3)c2cc1OCC
REMARK SMILES IDX 19 1 18 2 16 3 17 4 15 5 12 6 13 7 88 8 14 9 87 10 11 11
REMARK SMILES IDX 10 13 4 14 5 15 91 16 6 17 90 18 7 19 89 20 8 21 9 22 3 23
REMARK SMILES IDX 2 24 1 25 92 26 93 27 94 28 20 29 21 30 22 31 23 32 24 33
REMARK SMILES IDX 25 34 86 35 26 36 85 37 27 38 28 39 29 40 79 41 30 42 84 43
REMARK SMILES IDX 78 44 80 45 31 46 83 47 77 48 76 49 32 51 64 52 44 53 63 54
REMARK SMILES IDX 45 55 48 56 62 57 81 58 46 59 47 60 61 62 82 63 49 64 33 65
REMARK SMILES IDX 34 66 42 67 35 68 36 69 40 70 43 71 37 72 38 73 41 74 39 75
REMARK SMILES IDX 65 76 66 77 74 78 67 79 68 80 72 81 75 82 69 83 70 84 73 85
REMARK SMILES IDX 71 86 50 87 51 88 59 89 52 90 53 91 57 92 60 93 54 94 55 95
REMARK SMILES IDX 58 96 56 97
REMARK H PARENT 11 12 80 50 48 61
REMARK Flexibility Score: inf
ROOT
ATOM      1  C   UNL A   1      31.209  29.687  24.285  1.00  0.00     0.275 C 
ENDROOT
BRANCH   1   2
ATOM      2  O   UNL A   1      30.559  28.399  24.258  1.00  0.00    -0.458 OA
BRANCH   2   3
ATOM      3  C   UNL A   1      31.007  27.556  23.302  1.00  0.00     0.338 C 
ATOM      4  O   UNL A   1      30.704  27.574  22.117  1.00  0.00    -0.246 OA
BRANCH   3   5
ATOM      5  C   UNL A   1      31.996  26.599  23.836  1.00  0.00     0.060 A 
ATOM      6  C   UNL A   1      34.053  25.126  25.034  1.00  0.00     0.038 A 
ATOM      7  C   UNL A   1      33.005  25.621  25.806  1.00  0.00     0.027 A 
ATOM      8  C   UNL A   1      34.029  25.315  23.647  1.00  0.00     0.027 A 
ATOM      9  C   UNL A   1      32.008  26.376  25.216  1.00  0.00     0.018 A 
ATOM     10  C   UNL A   1      32.989  26.031  23.039  1.00  0.00     0.018 A 
BRANCH   6  11
ATOM     11  N   UNL A   1      35.136  24.570  25.722  1.00  0.00    -0.355 N 
ATOM     12  H   UNL A   1      35.464  25.117  26.472  1.00  0.00     0.167 HD
BRANCH  11  13
ATOM     13  C   UNL A   1      35.842  23.359  25.528  1.00  0.00     0.050 A 
ATOM     14  C   UNL A   1      33.714  19.732  25.037  1.00  0.00     0.163 A 
ATOM     15  C   UNL A   1      35.115  19.762  24.983  1.00  0.00     0.079 A 
ATOM     16  C   UNL A   1      33.016  20.920  25.226  1.00  0.00     0.161 A 
ATOM     17  C   UNL A   1      35.836  20.952  25.134  1.00  0.00     0.076 A 
ATOM     18  C   UNL A   1      33.717  22.108  25.359  1.00  0.00     0.063 A 
ATOM     19  N   UNL A   1      37.181  20.927  25.121  1.00  0.00    -0.256 NA
ATOM     20  C   UNL A   1      35.122  22.154  25.331  1.00  0.00     0.028 A 
ATOM     21  C   UNL A   1      37.845  22.089  25.319  1.00  0.00     0.114 A 
ATOM     22  C   UNL A   1      37.232  23.309  25.517  1.00  0.00     0.047 A 
BRANCH  14  23
ATOM     23  O   UNL A   1      33.027  18.550  25.061  1.00  0.00    -0.490 OA
BRANCH  23  24
ATOM     24  C   UNL A   1      32.759  17.988  23.772  1.00  0.00     0.226 C 
ATOM     25  C   UNL A   1      33.662  16.771  23.608  1.00  0.00     0.049 C 
ENDBRANCH  23  24
ENDBRANCH  14  23
BRANCH  16  26
ATOM     26  O   UNL A   1      31.665  21.087  25.341  1.00  0.00    -0.490 OA
BRANCH  26  27
ATOM     27  C   UNL A   1      31.183  22.425  25.369  1.00  0.00     0.226 C 
ATOM     28  C   UNL A   1      30.393  22.783  26.624  1.00  0.00     0.049 C 
ENDBRANCH  26  27
ENDBRANCH  16  26
ENDBRANCH  11  13
ENDBRANCH   6  11
ENDBRANCH   3   5
ENDBRANCH   2   3
ENDBRANCH   1   2
BRANCH   1  29
ATOM     29  C   UNL A   1      31.393  30.200  25.715  1.00  0.00     0.275 C 
BRANCH  29  30
ATOM     30  O   UNL A   1      32.768  30.099  26.138  1.00  0.00    -0.458 OA
BRANCH  30  31
ATOM     31  C   UNL A   1      33.208  31.129  26.894  1.00  0.00     0.338 C 
ATOM     32  O   UNL A   1      32.579  32.109  27.253  1.00  0.00    -0.246 OA
BRANCH  31  33
ATOM     33  C   UNL A   1      34.590  30.899  27.339  1.00  0.00     0.060 A 
ATOM     34  C   UNL A   1      34.975  29.592  27.597  1.00  0.00     0.016 A 
ATOM     35  C   UNL A   1      35.408  31.951  27.735  1.00  0.00     0.016 A 
ATOM     36  C   UNL A   1      36.071  29.329  28.410  1.00  0.00     0.010 A 
ATOM     37  C   UNL A   1      36.610  31.673  28.404  1.00  0.00     0.010 A 
ATOM     38  C   UNL A   1      36.932  30.360  28.801  1.00  0.00    -0.014 A 
BRANCH  38  39
ATOM     39  C   UNL A   1      38.150  30.059  29.613  1.00  0.00     0.031 A 
ATOM     40  C   UNL A   1      39.238  29.166  29.070  1.00  0.00     0.074 A 
ATOM     41  C   UNL A   1      38.293  30.593  30.846  1.00  0.00     0.049 A 
ATOM     42  N   UNL A   1      40.268  28.639  29.687  1.00  0.00    -0.248 NA
ATOM     43  C   UNL A   1      39.150  28.799  27.648  1.00  0.00     0.031 C 
ATOM     44  C   UNL A   1      37.349  31.509  31.489  1.00  0.00     0.029 A 
ATOM     45  N   UNL A   1      39.290  30.447  31.781  1.00  0.00    -0.354 N 
ATOM     46  C   UNL A   1      40.910  27.838  28.750  1.00  0.00     0.074 A 
ATOM     47  C   UNL A   1      40.149  27.936  27.524  1.00  0.00     0.031 C 
ATOM     48  C   UNL A   1      37.830  31.882  32.682  1.00  0.00     0.029 A 
ATOM     49  C   UNL A   1      39.054  31.139  32.946  1.00  0.00     0.049 A 
ATOM     50  H   UNL A   1      40.095  29.901  31.632  1.00  0.00     0.167 HD
ATOM     51  C   UNL A   1      42.030  27.089  28.901  1.00  0.00     0.037 A 
ATOM     52  C   UNL A   1      39.706  31.134  34.125  1.00  0.00     0.037 A 
ATOM     53  C   UNL A   1      42.812  27.036  30.112  1.00  0.00     0.049 A 
ATOM     54  C   UNL A   1      40.909  30.252  34.284  1.00  0.00     0.074 A 
ATOM     55  C   UNL A   1      43.976  26.329  30.359  1.00  0.00     0.029 A 
ATOM     56  N   UNL A   1      42.511  27.724  31.280  1.00  0.00    -0.354 N 
ATOM     57  N   UNL A   1      41.484  29.469  33.405  1.00  0.00    -0.248 NA
ATOM     58  C   UNL A   1      41.546  30.240  35.608  1.00  0.00     0.031 C 
ATOM     59  C   UNL A   1      44.347  26.543  31.691  1.00  0.00     0.029 A 
ATOM     60  C   UNL A   1      43.452  27.436  32.257  1.00  0.00     0.049 A 
ATOM     61  H   UNL A   1      41.742  28.329  31.397  1.00  0.00     0.167 HD
ATOM     62  C   UNL A   1      42.560  28.886  34.060  1.00  0.00     0.074 A 
ATOM     63  C   UNL A   1      42.571  29.425  35.405  1.00  0.00     0.031 C 
ATOM     64  C   UNL A   1      43.455  27.984  33.590  1.00  0.00     0.037 A 
BRANCH  51  65
ATOM     65  C   UNL A   1      42.466  26.232  27.744  1.00  0.00     0.064 A 
ATOM     66  C   UNL A   1      43.473  26.630  26.852  1.00  0.00     0.173 A 
ATOM     67  C   UNL A   1      41.888  24.966  27.550  1.00  0.00     0.173 A 
ATOM     68  F   UNL A   1      44.055  27.832  26.984  1.00  0.00    -0.203 F 
ATOM     69  C   UNL A   1      43.861  25.811  25.793  1.00  0.00     0.198 A 
ATOM     70  C   UNL A   1      42.302  24.135  26.512  1.00  0.00     0.198 A 
ATOM     71  F   UNL A   1      40.927  24.527  28.377  1.00  0.00    -0.203 F 
ATOM     72  F   UNL A   1      44.788  26.236  24.924  1.00  0.00    -0.200 F 
ATOM     73  C   UNL A   1      43.282  24.562  25.628  1.00  0.00     0.200 A 
ATOM     74  F   UNL A   1      41.752  22.921  26.366  1.00  0.00    -0.200 F 
ATOM     75  F   UNL A   1      43.662  23.772  24.614  1.00  0.00    -0.200 F 
ENDBRANCH  51  65
BRANCH  52  76
ATOM     76  C   UNL A   1      39.196  31.952  35.259  1.00  0.00     0.064 A 
ATOM     77  C   UNL A   1      38.412  31.378  36.268  1.00  0.00     0.173 A 
ATOM     78  C   UNL A   1      39.483  33.323  35.358  1.00  0.00     0.173 A 
ATOM     79  F   UNL A   1      38.088  30.078  36.207  1.00  0.00    -0.203 F 
ATOM     80  C   UNL A   1      37.923  32.146  37.324  1.00  0.00     0.198 A 
ATOM     81  C   UNL A   1      39.027  34.080  36.435  1.00  0.00     0.198 A 
ATOM     82  F   UNL A   1      40.230  33.924  34.420  1.00  0.00    -0.203 F 
ATOM     83  F   UNL A   1      37.134  31.582  38.249  1.00  0.00    -0.200 F 
ATOM     84  C   UNL A   1      38.239  33.493  37.411  1.00  0.00     0.200 A 
ATOM     85  F   UNL A   1      39.353  35.377  36.524  1.00  0.00    -0.200 F 
ATOM     86  F   UNL A   1      37.777  34.228  38.432  1.00  0.00    -0.200 F 
ENDBRANCH  52  76
BRANCH  64  87
ATOM     87  C   UNL A   1      44.547  27.554  34.526  1.00  0.00     0.064 A 
ATOM     88  C   UNL A   1      44.418  26.423  35.344  1.00  0.00     0.173 A 
ATOM     89  C   UNL A   1      45.750  28.274  34.587  1.00  0.00     0.173 A 
ATOM     90  F   UNL A   1      43.281  25.711  35.338  1.00  0.00    -0.203 F 
ATOM     91  C   UNL A   1      45.440  26.046  36.211  1.00  0.00     0.198 A 
ATOM     92  C   UNL A   1      46.783  27.875  35.428  1.00  0.00     0.198 A 
ATOM     93  F   UNL A   1      45.927  29.363  33.821  1.00  0.00    -0.203 F 
ATOM     94  F   UNL A   1      45.271  24.996  37.026  1.00  0.00    -0.200 F 
ATOM     95  C   UNL A   1      46.624  26.767  36.248  1.00  0.00     0.200 A 
ATOM     96  F   UNL A   1      47.933  28.564  35.451  1.00  0.00    -0.200 F 
ATOM     97  F   UNL A   1      47.610  26.399  37.078  1.00  0.00    -0.200 F 
ENDBRANCH  64  87
ENDBRANCH  38  39
ENDBRANCH  31  33
ENDBRANCH  30  31
ENDBRANCH  29  30
ENDBRANCH   1  29
TORSDOF 17
ENDMDL
