MODEL 1
REMARK VINA RESULT:     -14.3      0.000      0.000
REMARK SMILES Cc1ccc([C@H](C)NC(=O)[C@H]2[C@@H]3CC[C@@H](C3)[C@@H]2C(=O)OCCOC(=O)c2ccc(-c3c4nc(c(-c5c(F)c(F)c(F)c(F)c5F)c5ccc([nH]5)c(-c5c(F)c(F)c(F)c(F)c5F)c5nc(c(-c6c(F)c(F)c(F)c(F)c6F)c6ccc3[nH]6)C=C5)C=C4)cc2)cc1
REMARK SMILES IDX 21 1 20 2 18 3 19 4 17 5 11 6 12 7 13 8 16 9 15 10 14 11
REMARK SMILES IDX 9 12 8 13 10 15 6 16 7 17 5 18 1 19 2 20 3 21 90 22 4 23
REMARK SMILES IDX 89 24 22 25 23 26 24 27 25 28 26 29 27 30 88 31 28 32 87 33
REMARK SMILES IDX 29 34 30 35 31 36 81 37 32 38 86 39 80 40 82 41 33 42 85 43
REMARK SMILES IDX 79 44 78 45 34 47 66 48 46 49 65 50 47 51 50 52 64 53 83 54
REMARK SMILES IDX 48 55 49 56 63 58 84 59 51 60 35 61 36 62 44 63 37 64 38 65
REMARK SMILES IDX 42 66 45 67 39 68 40 69 43 70 41 71 67 72 68 73 76 74 69 75
REMARK SMILES IDX 70 76 74 77 77 78 71 79 72 80 75 81 73 82 52 83 53 84 61 85
REMARK SMILES IDX 54 86 55 87 59 88 62 89 56 90 57 91 60 92 58 93
REMARK H PARENT 8 14 82 46 50 57
REMARK Flexibility Score: inf
ROOT
ATOM      1  C   UNL A   1      31.654  33.003  27.114  1.00  0.00     0.274 C 
ENDROOT
BRANCH   1   2
ATOM      2  O   UNL A   1      31.623  31.280  26.069  1.00  0.00    -0.462 OA
BRANCH   2   3
ATOM      3  C   UNL A   1      31.531  30.176  25.227  1.00  0.00     0.310 C 
ATOM      4  O   UNL A   1      30.463  30.029  24.615  1.00  0.00    -0.252 OA
BRANCH   3   5
ATOM      5  C   UNL A   1      32.568  29.024  25.060  1.00  0.00     0.115 C 
ATOM      6  C   UNL A   1      32.674  27.747  24.192  1.00  0.00     0.096 C 
ATOM      7  C   UNL A   1      33.144  26.653  25.193  1.00  0.00     0.002 C 
ATOM      8  C   UNL A   1      31.926  26.262  26.054  1.00  0.00     0.005 C 
ATOM      9  C   UNL A   1      33.968  27.412  26.223  1.00  0.00     0.009 C 
ATOM     10  C   UNL A   1      32.873  28.443  26.481  1.00  0.00     0.004 C 
ATOM     11  C   UNL A   1      31.742  27.503  26.944  1.00  0.00     0.005 C 
BRANCH   6  12
ATOM     12  C   UNL A   1      33.495  27.722  22.892  1.00  0.00     0.224 C 
ATOM     13  N   UNL A   1      33.233  27.017  21.774  1.00  0.00    -0.349 N 
ATOM     14  H   UNL A   1      33.810  27.266  21.015  1.00  0.00     0.164 HD
ATOM     15  O   UNL A   1      34.482  28.471  22.817  1.00  0.00    -0.275 OA
BRANCH  13  16
ATOM     16  C   UNL A   1      32.286  25.972  21.448  1.00  0.00     0.109 C 
ATOM     17  C   UNL A   1      32.400  25.537  19.988  1.00  0.00     0.036 C 
BRANCH  16  18
ATOM     18  C   UNL A   1      32.427  24.790  22.375  1.00  0.00    -0.026 A 
ATOM     19  C   UNL A   1      32.436  21.030  24.377  1.00  0.00     0.044 C 
ATOM     20  C   UNL A   1      32.505  22.369  23.744  1.00  0.00    -0.051 A 
ATOM     21  C   UNL A   1      31.338  23.126  23.731  1.00  0.00     0.004 A 
ATOM     22  C   UNL A   1      33.676  22.882  23.194  1.00  0.00     0.004 A 
ATOM     23  C   UNL A   1      31.286  24.313  23.032  1.00  0.00     0.006 A 
ATOM     24  C   UNL A   1      33.640  24.099  22.519  1.00  0.00     0.006 A 
ENDBRANCH  16  18
ENDBRANCH  13  16
ENDBRANCH   6  12
ENDBRANCH   3   5
ENDBRANCH   2   3
ENDBRANCH   1   2
BRANCH   1  25
ATOM     25  C   UNL A   1      32.933  33.674  27.951  1.00  0.00     0.275 C 
BRANCH  25  26
ATOM     26  O   UNL A   1      32.821  34.634  29.027  1.00  0.00    -0.458 OA
BRANCH  26  27
ATOM     27  C   UNL A   1      33.649  34.554  30.093  1.00  0.00     0.338 C 
ATOM     28  O   UNL A   1      33.627  35.162  31.117  1.00  0.00    -0.246 OA
BRANCH  27  29
ATOM     29  C   UNL A   1      34.713  33.727  29.603  1.00  0.00     0.060 A 
ATOM     30  C   UNL A   1      36.127  34.446  28.741  1.00  0.00     0.016 A 
ATOM     31  C   UNL A   1      34.918  32.308  30.668  1.00  0.00     0.016 A 
ATOM     32  C   UNL A   1      37.755  33.612  28.841  1.00  0.00     0.010 A 
ATOM     33  C   UNL A   1      36.503  31.561  30.823  1.00  0.00     0.010 A 
ATOM     34  C   UNL A   1      37.941  32.141  29.880  1.00  0.00    -0.014 A 
BRANCH  34  35
ATOM     35  C   UNL A   1      39.140  31.263  30.038  1.00  0.00     0.031 A 
ATOM     36  C   UNL A   1      39.382  29.891  29.487  1.00  0.00     0.074 A 
ATOM     37  C   UNL A   1      40.109  31.686  30.890  1.00  0.00     0.049 A 
ATOM     38  N   UNL A   1      40.422  29.165  29.778  1.00  0.00    -0.248 NA
ATOM     39  C   UNL A   1      38.450  29.164  28.640  1.00  0.00     0.031 C 
ATOM     40  C   UNL A   1      41.546  31.462  30.798  1.00  0.00     0.029 A 
ATOM     41  N   UNL A   1      39.960  32.371  32.094  1.00  0.00    -0.354 N 
ATOM     42  C   UNL A   1      40.429  28.041  28.982  1.00  0.00     0.074 A 
ATOM     43  C   UNL A   1      39.126  28.040  28.375  1.00  0.00     0.031 C 
ATOM     44  C   UNL A   1      42.137  31.893  31.923  1.00  0.00     0.029 A 
ATOM     45  C   UNL A   1      41.096  32.237  32.873  1.00  0.00     0.049 A 
ATOM     46  H   UNL A   1      39.159  32.880  32.355  1.00  0.00     0.167 HD
ATOM     47  C   UNL A   1      41.586  27.327  28.831  1.00  0.00     0.037 A 
ATOM     48  C   UNL A   1      41.106  32.029  34.214  1.00  0.00     0.037 A 
ATOM     49  C   UNL A   1      42.606  27.770  29.787  1.00  0.00     0.049 A 
ATOM     50  C   UNL A   1      41.930  30.800  34.523  1.00  0.00     0.074 A 
ATOM     51  C   UNL A   1      43.599  28.732  29.746  1.00  0.00     0.029 A 
ATOM     52  N   UNL A   1      42.514  27.377  31.112  1.00  0.00    -0.354 N 
ATOM     53  N   UNL A   1      42.294  29.935  33.611  1.00  0.00    -0.248 NA
ATOM     54  C   UNL A   1      42.433  30.452  35.839  1.00  0.00     0.031 C 
ATOM     55  C   UNL A   1      44.058  28.952  31.077  1.00  0.00     0.029 A 
ATOM     56  C   UNL A   1      43.387  28.089  31.932  1.00  0.00     0.049 A 
ATOM     57  H   UNL A   1      41.905  26.676  31.437  1.00  0.00     0.167 HD
ATOM     58  C   UNL A   1      43.055  28.938  34.161  1.00  0.00     0.074 A 
ATOM     59  C   UNL A   1      43.142  29.343  35.556  1.00  0.00     0.031 C 
ATOM     60  C   UNL A   1      43.454  27.861  33.398  1.00  0.00     0.037 A 
BRANCH  47  61
ATOM     61  C   UNL A   1      41.907  26.420  27.642  1.00  0.00     0.064 A 
ATOM     62  C   UNL A   1      41.258  25.167  27.514  1.00  0.00     0.173 A 
ATOM     63  C   UNL A   1      42.889  26.652  26.656  1.00  0.00     0.173 A 
ATOM     64  F   UNL A   1      40.240  24.825  28.314  1.00  0.00    -0.203 F 
ATOM     65  C   UNL A   1      41.635  24.205  26.565  1.00  0.00     0.198 A 
ATOM     66  C   UNL A   1      43.290  25.679  25.730  1.00  0.00     0.198 A 
ATOM     67  F   UNL A   1      43.469  27.844  26.502  1.00  0.00    -0.203 F 
ATOM     68  F   UNL A   1      40.992  23.030  26.515  1.00  0.00    -0.200 F 
ATOM     69  C   UNL A   1      42.673  24.450  25.692  1.00  0.00     0.200 A 
ATOM     70  F   UNL A   1      44.283  25.952  24.871  1.00  0.00    -0.200 F 
ATOM     71  F   UNL A   1      43.060  23.519  24.809  1.00  0.00    -0.200 F 
ENDBRANCH  47  61
BRANCH  48  72
ATOM     72  C   UNL A   1      39.914  32.587  34.922  1.00  0.00     0.064 A 
ATOM     73  C   UNL A   1      39.027  31.664  35.522  1.00  0.00     0.173 A 
ATOM     74  C   UNL A   1      39.840  33.907  35.374  1.00  0.00     0.173 A 
ATOM     75  F   UNL A   1      38.999  30.392  35.093  1.00  0.00    -0.203 F 
ATOM     76  C   UNL A   1      38.254  32.000  36.636  1.00  0.00     0.198 A 
ATOM     77  C   UNL A   1      39.060  34.248  36.488  1.00  0.00     0.198 A 
ATOM     78  F   UNL A   1      40.573  34.859  34.785  1.00  0.00    -0.203 F 
ATOM     79  F   UNL A   1      37.539  31.055  37.264  1.00  0.00    -0.200 F 
ATOM     80  C   UNL A   1      38.298  33.286  37.141  1.00  0.00     0.200 A 
ATOM     81  F   UNL A   1      39.119  35.494  36.985  1.00  0.00    -0.200 F 
ATOM     82  F   UNL A   1      37.646  33.586  38.274  1.00  0.00    -0.200 F 
ENDBRANCH  48  72
BRANCH  60  83
ATOM     83  C   UNL A   1      43.877  26.484  33.927  1.00  0.00     0.064 A 
ATOM     84  C   UNL A   1      43.045  25.566  34.595  1.00  0.00     0.173 A 
ATOM     85  C   UNL A   1      45.171  25.967  33.639  1.00  0.00     0.173 A 
ATOM     86  F   UNL A   1      41.776  25.833  34.896  1.00  0.00    -0.203 F 
ATOM     87  C   UNL A   1      43.459  24.275  34.951  1.00  0.00     0.198 A 
ATOM     88  C   UNL A   1      45.560  24.658  33.937  1.00  0.00     0.198 A 
ATOM     89  F   UNL A   1      46.111  26.694  33.023  1.00  0.00    -0.203 F 
ATOM     90  F   UNL A   1      42.610  23.471  35.606  1.00  0.00    -0.200 F 
ATOM     91  C   UNL A   1      44.707  23.812  34.603  1.00  0.00     0.200 A 
ATOM     92  F   UNL A   1      46.764  24.218  33.541  1.00  0.00    -0.200 F 
ATOM     93  F   UNL A   1      45.075  22.558  34.891  1.00  0.00    -0.200 F 
ENDBRANCH  60  83
ENDBRANCH  34  35
ENDBRANCH  27  29
ENDBRANCH  26  27
ENDBRANCH  25  26
ENDBRANCH   1  25
TORSDOF 14
ENDMDL
MODEL 2
REMARK VINA RESULT:     -14.2      4.500     10.291
REMARK SMILES Cc1ccc([C@H](C)NC(=O)[C@H]2[C@@H]3CC[C@@H](C3)[C@@H]2C(=O)OCCOC(=O)c2ccc(-c3c4nc(c(-c5c(F)c(F)c(F)c(F)c5F)c5ccc([nH]5)c(-c5c(F)c(F)c(F)c(F)c5F)c5nc(c(-c6c(F)c(F)c(F)c(F)c6F)c6ccc3[nH]6)C=C5)C=C4)cc2)cc1
REMARK SMILES IDX 21 1 20 2 18 3 19 4 17 5 11 6 12 7 13 8 16 9 15 10 14 11
REMARK SMILES IDX 9 12 8 13 10 15 6 16 7 17 5 18 1 19 2 20 3 21 90 22 4 23
REMARK SMILES IDX 89 24 22 25 23 26 24 27 25 28 26 29 27 30 88 31 28 32 87 33
REMARK SMILES IDX 29 34 30 35 31 36 81 37 32 38 86 39 80 40 82 41 33 42 85 43
REMARK SMILES IDX 79 44 78 45 34 47 66 48 46 49 65 50 47 51 50 52 64 53 83 54
REMARK SMILES IDX 48 55 49 56 63 58 84 59 51 60 35 61 36 62 44 63 37 64 38 65
REMARK SMILES IDX 42 66 45 67 39 68 40 69 43 70 41 71 67 72 68 73 76 74 69 75
REMARK SMILES IDX 70 76 74 77 77 78 71 79 72 80 75 81 73 82 52 83 53 84 61 85
REMARK SMILES IDX 54 86 55 87 59 88 62 89 56 90 57 91 60 92 58 93
REMARK H PARENT 8 14 82 46 50 57
REMARK Flexibility Score: inf
ROOT
ATOM      1  C   UNL A   1      39.183  21.411  25.815  1.00  0.00     0.274 C 
ENDROOT
BRANCH   1   2
ATOM      2  O   UNL A   1      37.589  21.904  24.685  1.00  0.00    -0.462 OA
BRANCH   2   3
ATOM      3  C   UNL A   1      36.541  22.398  23.915  1.00  0.00     0.310 C 
ATOM      4  O   UNL A   1      36.846  23.153  22.979  1.00  0.00    -0.252 OA
BRANCH   3   5
ATOM      5  C   UNL A   1      35.014  22.223  24.169  1.00  0.00     0.115 C 
ATOM      6  C   UNL A   1      33.753  23.103  23.990  1.00  0.00     0.096 C 
ATOM      7  C   UNL A   1      32.962  22.894  25.313  1.00  0.00     0.002 C 
ATOM      8  C   UNL A   1      33.676  23.711  26.410  1.00  0.00     0.005 C 
ATOM      9  C   UNL A   1      33.323  21.483  25.752  1.00  0.00     0.009 C 
ATOM     10  C   UNL A   1      34.825  21.730  25.642  1.00  0.00     0.004 C 
ATOM     11  C   UNL A   1      34.964  22.901  26.635  1.00  0.00     0.005 C 
BRANCH   6  12
ATOM     12  C   UNL A   1      32.846  22.970  22.756  1.00  0.00     0.224 C 
ATOM     13  N   UNL A   1      32.598  23.907  21.820  1.00  0.00    -0.349 N 
ATOM     14  H   UNL A   1      32.105  23.557  21.042  1.00  0.00     0.164 HD
ATOM     15  O   UNL A   1      32.316  21.868  22.544  1.00  0.00    -0.275 OA
BRANCH  13  16
ATOM     16  C   UNL A   1      32.903  25.318  21.709  1.00  0.00     0.109 C 
ATOM     17  C   UNL A   1      32.237  25.950  20.488  1.00  0.00     0.036 C 
BRANCH  16  18
ATOM     18  C   UNL A   1      32.535  26.062  22.969  1.00  0.00    -0.026 A 
ATOM     19  C   UNL A   1      31.444  27.394  26.866  1.00  0.00     0.044 C 
ATOM     20  C   UNL A   1      31.857  27.024  25.490  1.00  0.00    -0.051 A 
ATOM     21  C   UNL A   1      30.869  26.533  24.642  1.00  0.00     0.004 A 
ATOM     22  C   UNL A   1      33.163  27.167  25.032  1.00  0.00     0.004 A 
ATOM     23  C   UNL A   1      31.204  26.031  23.402  1.00  0.00     0.006 A 
ATOM     24  C   UNL A   1      33.500  26.697  23.766  1.00  0.00     0.006 A 
ENDBRANCH  16  18
ENDBRANCH  13  16
ENDBRANCH   6  12
ENDBRANCH   3   5
ENDBRANCH   2   3
ENDBRANCH   1   2
BRANCH   1  25
ATOM     25  C   UNL A   1      40.009  19.961  25.851  1.00  0.00     0.275 C 
BRANCH  25  26
ATOM     26  O   UNL A   1      41.250  19.718  26.552  1.00  0.00    -0.458 OA
BRANCH  26  27
ATOM     27  C   UNL A   1      42.423  19.749  25.882  1.00  0.00     0.338 C 
ATOM     28  O   UNL A   1      42.990  18.874  25.306  1.00  0.00    -0.246 OA
BRANCH  27  29
ATOM     29  C   UNL A   1      42.950  21.037  26.229  1.00  0.00     0.060 A 
ATOM     30  C   UNL A   1      43.103  22.342  24.992  1.00  0.00     0.016 A 
ATOM     31  C   UNL A   1      42.533  21.426  27.921  1.00  0.00     0.016 A 
ATOM     32  C   UNL A   1      42.983  24.092  25.518  1.00  0.00     0.010 A 
ATOM     33  C   UNL A   1      42.338  23.108  28.402  1.00  0.00     0.010 A 
ATOM     34  C   UNL A   1      42.614  24.480  27.247  1.00  0.00    -0.014 A 
BRANCH  34  35
ATOM     35  C   UNL A   1      42.557  25.821  27.905  1.00  0.00     0.031 A 
ATOM     36  C   UNL A   1      41.399  26.763  28.026  1.00  0.00     0.074 A 
ATOM     37  C   UNL A   1      43.729  26.337  28.360  1.00  0.00     0.049 A 
ATOM     38  N   UNL A   1      41.487  27.961  28.527  1.00  0.00    -0.248 NA
ATOM     39  C   UNL A   1      40.063  26.499  27.519  1.00  0.00     0.031 C 
ATOM     40  C   UNL A   1      43.941  27.200  29.515  1.00  0.00     0.029 A 
ATOM     41  N   UNL A   1      44.997  26.229  27.793  1.00  0.00    -0.354 N 
ATOM     42  C   UNL A   1      40.224  28.497  28.650  1.00  0.00     0.074 A 
ATOM     43  C   UNL A   1      39.392  27.590  27.908  1.00  0.00     0.031 C 
ATOM     44  C   UNL A   1      45.212  27.628  29.523  1.00  0.00     0.029 A 
ATOM     45  C   UNL A   1      45.830  27.223  28.274  1.00  0.00     0.049 A 
ATOM     46  H   UNL A   1      45.264  25.541  27.142  1.00  0.00     0.167 HD
ATOM     47  C   UNL A   1      40.021  29.566  29.479  1.00  0.00     0.037 A 
ATOM     48  C   UNL A   1      46.717  27.930  27.528  1.00  0.00     0.037 A 
ATOM     49  C   UNL A   1      41.297  30.135  29.926  1.00  0.00     0.049 A 
ATOM     50  C   UNL A   1      46.457  29.407  27.712  1.00  0.00     0.074 A 
ATOM     51  C   UNL A   1      42.123  29.890  31.007  1.00  0.00     0.029 A 
ATOM     52  N   UNL A   1      42.032  30.924  29.058  1.00  0.00    -0.354 N 
ATOM     53  N   UNL A   1      45.364  29.880  28.253  1.00  0.00    -0.248 NA
ATOM     54  C   UNL A   1      47.385  30.461  27.343  1.00  0.00     0.031 C 
ATOM     55  C   UNL A   1      43.387  30.495  30.745  1.00  0.00     0.029 A 
ATOM     56  C   UNL A   1      43.323  31.157  29.527  1.00  0.00     0.049 A 
ATOM     57  H   UNL A   1      41.685  31.279  28.208  1.00  0.00     0.167 HD
ATOM     58  C   UNL A   1      45.405  31.248  28.321  1.00  0.00     0.074 A 
ATOM     59  C   UNL A   1      46.719  31.549  27.773  1.00  0.00     0.031 C 
ATOM     60  C   UNL A   1      44.308  31.959  28.758  1.00  0.00     0.037 A 
BRANCH  47  61
ATOM     61  C   UNL A   1      38.682  29.936  30.119  1.00  0.00     0.064 A 
ATOM     62  C   UNL A   1      37.656  30.510  29.328  1.00  0.00     0.173 A 
ATOM     63  C   UNL A   1      38.362  29.855  31.490  1.00  0.00     0.173 A 
ATOM     64  F   UNL A   1      37.761  30.581  27.995  1.00  0.00    -0.203 F 
ATOM     65  C   UNL A   1      36.481  31.047  29.874  1.00  0.00     0.198 A 
ATOM     66  C   UNL A   1      37.205  30.423  32.042  1.00  0.00     0.198 A 
ATOM     67  F   UNL A   1      39.120  29.178  32.355  1.00  0.00    -0.203 F 
ATOM     68  F   UNL A   1      35.562  31.597  29.069  1.00  0.00    -0.200 F 
ATOM     69  C   UNL A   1      36.269  31.032  31.236  1.00  0.00     0.200 A 
ATOM     70  F   UNL A   1      37.007  30.369  33.367  1.00  0.00    -0.200 F 
ATOM     71  F   UNL A   1      35.165  31.578  31.765  1.00  0.00    -0.200 F 
ENDBRANCH  47  61
BRANCH  48  72
ATOM     72  C   UNL A   1      47.236  27.188  26.340  1.00  0.00     0.064 A 
ATOM     73  C   UNL A   1      46.782  27.605  25.067  1.00  0.00     0.173 A 
ATOM     74  C   UNL A   1      48.405  26.422  26.365  1.00  0.00     0.173 A 
ATOM     75  F   UNL A   1      45.631  28.290  24.963  1.00  0.00    -0.203 F 
ATOM     76  C   UNL A   1      47.553  27.433  23.916  1.00  0.00     0.198 A 
ATOM     77  C   UNL A   1      49.177  26.242  25.208  1.00  0.00     0.198 A 
ATOM     78  F   UNL A   1      48.841  25.904  27.518  1.00  0.00    -0.203 F 
ATOM     79  F   UNL A   1      47.153  27.974  22.755  1.00  0.00    -0.200 F 
ATOM     80  C   UNL A   1      48.770  26.781  23.994  1.00  0.00     0.200 A 
ATOM     81  F   UNL A   1      50.366  25.624  25.292  1.00  0.00    -0.200 F 
ATOM     82  F   UNL A   1      49.565  26.710  22.916  1.00  0.00    -0.200 F 
ENDBRANCH  48  72
BRANCH  60  83
ATOM     83  C   UNL A   1      44.010  33.436  28.462  1.00  0.00     0.064 A 
ATOM     84  C   UNL A   1      43.744  33.985  27.193  1.00  0.00     0.173 A 
ATOM     85  C   UNL A   1      43.842  34.365  29.526  1.00  0.00     0.173 A 
ATOM     86  F   UNL A   1      43.782  33.263  26.075  1.00  0.00    -0.203 F 
ATOM     87  C   UNL A   1      43.364  35.320  27.001  1.00  0.00     0.198 A 
ATOM     88  C   UNL A   1      43.400  35.678  29.338  1.00  0.00     0.198 A 
ATOM     89  F   UNL A   1      44.063  34.037  30.805  1.00  0.00    -0.203 F 
ATOM     90  F   UNL A   1      43.152  35.769  25.756  1.00  0.00    -0.200 F 
ATOM     91  C   UNL A   1      43.169  36.161  28.072  1.00  0.00     0.200 A 
ATOM     92  F   UNL A   1      43.170  36.459  30.404  1.00  0.00    -0.200 F 
ATOM     93  F   UNL A   1      42.746  37.417  27.887  1.00  0.00    -0.200 F 
ENDBRANCH  60  83
ENDBRANCH  34  35
ENDBRANCH  27  29
ENDBRANCH  26  27
ENDBRANCH  25  26
ENDBRANCH   1  25
TORSDOF 14
ENDMDL
MODEL 3
REMARK VINA RESULT:     -14.0      1.319      2.112
REMARK SMILES Cc1ccc([C@H](C)NC(=O)[C@H]2[C@@H]3CC[C@@H](C3)[C@@H]2C(=O)OCCOC(=O)c2ccc(-c3c4nc(c(-c5c(F)c(F)c(F)c(F)c5F)c5ccc([nH]5)c(-c5c(F)c(F)c(F)c(F)c5F)c5nc(c(-c6c(F)c(F)c(F)c(F)c6F)c6ccc3[nH]6)C=C5)C=C4)cc2)cc1
REMARK SMILES IDX 21 1 20 2 18 3 19 4 17 5 11 6 12 7 13 8 16 9 15 10 14 11
REMARK SMILES IDX 9 12 8 13 10 15 6 16 7 17 5 18 1 19 2 20 3 21 90 22 4 23
REMARK SMILES IDX 89 24 22 25 23 26 24 27 25 28 26 29 27 30 88 31 28 32 87 33
REMARK SMILES IDX 29 34 30 35 31 36 81 37 32 38 86 39 80 40 82 41 33 42 85 43
REMARK SMILES IDX 79 44 78 45 34 47 66 48 46 49 65 50 47 51 50 52 64 53 83 54
REMARK SMILES IDX 48 55 49 56 63 58 84 59 51 60 35 61 36 62 44 63 37 64 38 65
REMARK SMILES IDX 42 66 45 67 39 68 40 69 43 70 41 71 67 72 68 73 76 74 69 75
REMARK SMILES IDX 70 76 74 77 77 78 71 79 72 80 75 81 73 82 52 83 53 84 61 85
REMARK SMILES IDX 54 86 55 87 59 88 62 89 56 90 57 91 60 92 58 93
REMARK H PARENT 8 14 82 46 50 57
REMARK Flexibility Score: inf
ROOT
ATOM      1  C   UNL A   1      31.397  32.090  26.532  1.00  0.00     0.274 C 
ENDROOT
BRANCH   1   2
ATOM      2  O   UNL A   1      31.839  30.141  26.793  1.00  0.00    -0.462 OA
BRANCH   2   3
ATOM      3  C   UNL A   1      32.089  28.773  26.821  1.00  0.00     0.310 C 
ATOM      4  O   UNL A   1      32.942  28.379  27.631  1.00  0.00    -0.252 OA
BRANCH   3   5
ATOM      5  C   UNL A   1      31.519  27.686  25.861  1.00  0.00     0.115 C 
ATOM      6  C   UNL A   1      32.058  26.387  25.214  1.00  0.00     0.096 C 
ATOM      7  C   UNL A   1      31.590  26.485  23.734  1.00  0.00     0.002 C 
ATOM      8  C   UNL A   1      32.505  27.507  23.028  1.00  0.00     0.005 C 
ATOM      9  C   UNL A   1      30.296  27.284  23.798  1.00  0.00     0.009 C 
ATOM     10  C   UNL A   1      30.922  28.414  24.611  1.00  0.00     0.004 C 
ATOM     11  C   UNL A   1      32.038  28.840  23.638  1.00  0.00     0.005 C 
BRANCH   6  12
ATOM     12  C   UNL A   1      31.761  25.004  25.815  1.00  0.00     0.224 C 
ATOM     13  N   UNL A   1      32.499  23.883  25.689  1.00  0.00    -0.349 N 
ATOM     14  H   UNL A   1      32.197  23.153  26.278  1.00  0.00     0.164 HD
ATOM     15  O   UNL A   1      30.767  24.894  26.551  1.00  0.00    -0.275 OA
BRANCH  13  16
ATOM     16  C   UNL A   1      33.640  23.520  24.876  1.00  0.00     0.109 C 
ATOM     17  C   UNL A   1      34.954  23.987  25.499  1.00  0.00     0.036 C 
BRANCH  16  18
ATOM     18  C   UNL A   1      33.671  22.038  24.598  1.00  0.00    -0.026 A 
ATOM     19  C   UNL A   1      33.695  17.778  24.650  1.00  0.00     0.044 C 
ATOM     20  C   UNL A   1      33.663  19.257  24.534  1.00  0.00    -0.051 A 
ATOM     21  C   UNL A   1      34.831  19.943  24.850  1.00  0.00     0.004 A 
ATOM     22  C   UNL A   1      32.534  19.953  24.113  1.00  0.00     0.004 A 
ATOM     23  C   UNL A   1      34.832  21.321  24.909  1.00  0.00     0.006 A 
ATOM     24  C   UNL A   1      32.542  21.345  24.133  1.00  0.00     0.006 A 
ENDBRANCH  16  18
ENDBRANCH  13  16
ENDBRANCH   6  12
ENDBRANCH   3   5
ENDBRANCH   2   3
ENDBRANCH   1   2
BRANCH   1  25
ATOM     25  C   UNL A   1      32.068  33.408  27.304  1.00  0.00     0.275 C 
BRANCH  25  26
ATOM     26  O   UNL A   1      33.242  33.379  28.148  1.00  0.00    -0.458 OA
BRANCH  26  27
ATOM     27  C   UNL A   1      33.429  34.340  29.080  1.00  0.00     0.338 C 
ATOM     28  O   UNL A   1      32.866  35.380  29.220  1.00  0.00    -0.246 OA
BRANCH  27  29
ATOM     29  C   UNL A   1      34.638  33.919  29.727  1.00  0.00     0.060 A 
ATOM     30  C   UNL A   1      34.599  32.734  31.088  1.00  0.00     0.016 A 
ATOM     31  C   UNL A   1      35.985  33.919  28.555  1.00  0.00     0.016 A 
ATOM     32  C   UNL A   1      36.035  31.629  31.355  1.00  0.00     0.010 A 
ATOM     33  C   UNL A   1      37.324  32.797  28.771  1.00  0.00     0.010 A 
ATOM     34  C   UNL A   1      37.422  31.673  30.193  1.00  0.00    -0.014 A 
BRANCH  34  35
ATOM     35  C   UNL A   1      38.718  30.931  30.265  1.00  0.00     0.031 A 
ATOM     36  C   UNL A   1      39.076  29.601  29.678  1.00  0.00     0.074 A 
ATOM     37  C   UNL A   1      39.684  31.450  31.067  1.00  0.00     0.049 A 
ATOM     38  N   UNL A   1      40.205  28.992  29.895  1.00  0.00    -0.248 NA
ATOM     39  C   UNL A   1      38.181  28.784  28.874  1.00  0.00     0.031 C 
ATOM     40  C   UNL A   1      41.129  31.388  30.887  1.00  0.00     0.029 A 
ATOM     41  N   UNL A   1      39.533  32.102  32.289  1.00  0.00    -0.354 N 
ATOM     42  C   UNL A   1      40.288  27.884  29.081  1.00  0.00     0.074 A 
ATOM     43  C   UNL A   1      38.959  27.745  28.552  1.00  0.00     0.031 C 
ATOM     44  C   UNL A   1      41.734  31.870  31.982  1.00  0.00     0.029 A 
ATOM     45  C   UNL A   1      40.721  32.087  32.997  1.00  0.00     0.049 A 
ATOM     46  H   UNL A   1      38.697  32.517  32.605  1.00  0.00     0.167 HD
ATOM     47  C   UNL A   1      41.505  27.304  28.850  1.00  0.00     0.037 A 
ATOM     48  C   UNL A   1      40.834  31.867  34.332  1.00  0.00     0.037 A 
ATOM     49  C   UNL A   1      42.526  27.848  29.753  1.00  0.00     0.049 A 
ATOM     50  C   UNL A   1      41.805  30.734  34.571  1.00  0.00     0.074 A 
ATOM     51  C   UNL A   1      43.402  28.915  29.670  1.00  0.00     0.029 A 
ATOM     52  N   UNL A   1      42.558  27.433  31.074  1.00  0.00    -0.354 N 
ATOM     53  N   UNL A   1      42.207  29.924  33.625  1.00  0.00    -0.248 NA
ATOM     54  C   UNL A   1      42.422  30.430  35.849  1.00  0.00     0.031 C 
ATOM     55  C   UNL A   1      43.913  29.170  30.976  1.00  0.00     0.029 A 
ATOM     56  C   UNL A   1      43.394  28.229  31.853  1.00  0.00     0.049 A 
ATOM     57  H   UNL A   1      42.050  26.666  31.422  1.00  0.00     0.167 HD
ATOM     58  C   UNL A   1      43.105  29.012  34.112  1.00  0.00     0.074 A 
ATOM     59  C   UNL A   1      43.231  29.410  35.506  1.00  0.00     0.031 C 
ATOM     60  C   UNL A   1      43.574  27.995  33.309  1.00  0.00     0.037 A 
BRANCH  47  61
ATOM     61  C   UNL A   1      41.853  26.451  27.629  1.00  0.00     0.064 A 
ATOM     62  C   UNL A   1      41.314  25.147  27.503  1.00  0.00     0.173 A 
ATOM     63  C   UNL A   1      42.764  26.789  26.607  1.00  0.00     0.173 A 
ATOM     64  F   UNL A   1      40.368  24.700  28.339  1.00  0.00    -0.203 F 
ATOM     65  C   UNL A   1      41.732  24.240  26.518  1.00  0.00     0.198 A 
ATOM     66  C   UNL A   1      43.209  25.873  25.644  1.00  0.00     0.198 A 
ATOM     67  F   UNL A   1      43.226  28.031  26.453  1.00  0.00    -0.203 F 
ATOM     68  F   UNL A   1      41.196  23.013  26.471  1.00  0.00    -0.200 F 
ATOM     69  C   UNL A   1      42.703  24.593  25.606  1.00  0.00     0.200 A 
ATOM     70  F   UNL A   1      44.133  26.250  24.748  1.00  0.00    -0.200 F 
ATOM     71  F   UNL A   1      43.133  23.717  24.687  1.00  0.00    -0.200 F 
ENDBRANCH  47  61
BRANCH  48  72
ATOM     72  C   UNL A   1      39.633  32.282  35.118  1.00  0.00     0.064 A 
ATOM     73  C   UNL A   1      38.811  31.253  35.635  1.00  0.00     0.173 A 
ATOM     74  C   UNL A   1      39.500  33.542  35.708  1.00  0.00     0.173 A 
ATOM     75  F   UNL A   1      38.839  30.034  35.074  1.00  0.00    -0.203 F 
ATOM     76  C   UNL A   1      38.050  31.428  36.792  1.00  0.00     0.198 A 
ATOM     77  C   UNL A   1      38.731  33.721  36.867  1.00  0.00     0.198 A 
ATOM     78  F   UNL A   1      40.167  34.588  35.209  1.00  0.00    -0.203 F 
ATOM     79  F   UNL A   1      37.401  30.386  37.331  1.00  0.00    -0.200 F 
ATOM     80  C   UNL A   1      38.038  32.656  37.429  1.00  0.00     0.200 A 
ATOM     81  F   UNL A   1      38.737  34.909  37.491  1.00  0.00    -0.200 F 
ATOM     82  F   UNL A   1      37.400  32.800  38.600  1.00  0.00    -0.200 F 
ENDBRANCH  48  72
BRANCH  60  83
ATOM     83  C   UNL A   1      44.177  26.667  33.788  1.00  0.00     0.064 A 
ATOM     84  C   UNL A   1      43.480  25.631  34.438  1.00  0.00     0.173 A 
ATOM     85  C   UNL A   1      45.521  26.328  33.468  1.00  0.00     0.173 A 
ATOM     86  F   UNL A   1      42.192  25.725  34.764  1.00  0.00    -0.203 F 
ATOM     87  C   UNL A   1      44.060  24.393  34.747  1.00  0.00     0.198 A 
ATOM     88  C   UNL A   1      46.078  25.071  33.719  1.00  0.00     0.198 A 
ATOM     89  F   UNL A   1      46.351  27.187  32.863  1.00  0.00    -0.203 F 
ATOM     90  F   UNL A   1      43.331  23.469  35.389  1.00  0.00    -0.200 F 
ATOM     91  C   UNL A   1      45.350  24.104  34.369  1.00  0.00     0.200 A 
ATOM     92  F   UNL A   1      47.321  24.800  33.294  1.00  0.00    -0.200 F 
ATOM     93  F   UNL A   1      45.879  22.899  34.612  1.00  0.00    -0.200 F 
ENDBRANCH  60  83
ENDBRANCH  34  35
ENDBRANCH  27  29
ENDBRANCH  26  27
ENDBRANCH  25  26
ENDBRANCH   1  25
TORSDOF 14
ENDMDL
