MODEL 1
REMARK VINA RESULT:     -13.7      0.000      0.000
REMARK SMILES Cc1ccc(C(=O)OCCOC(=O)c2ccc(-c3c4nc(c(-c5c(F)c(F)c(F)c(F)c5F)c5ccc([nH]5)c(-c5c(F)c(F)c(F)c(F)c5F)c5nc(c(-c6c(F)c(F)c(F)c(F)c6F)c6ccc3[nH]6)C=C5)C=C4)cc2)cc1CNC(=O)C[N@@H+]1CCC[C@]2(CCOC2)C1
REMARK SMILES IDX 9 1 8 2 6 3 7 4 5 5 1 6 2 7 3 8 78 9 4 10 77 11 79 12 80 13
REMARK SMILES IDX 81 14 82 16 83 17 84 18 85 19 93 20 86 22 88 23 87 24 89 25
REMARK SMILES IDX 92 26 90 27 91 28 10 29 11 30 12 31 13 32 14 33 15 34 76 35
REMARK SMILES IDX 16 36 75 37 17 38 18 39 19 40 69 41 20 42 74 43 68 44 70 45
REMARK SMILES IDX 21 46 73 47 67 48 66 49 22 51 54 52 34 53 53 54 35 55 38 56
REMARK SMILES IDX 52 57 71 58 36 59 37 60 51 62 72 63 39 64 23 65 24 66 32 67
REMARK SMILES IDX 25 68 26 69 30 70 33 71 27 72 28 73 31 74 29 75 55 76 56 77
REMARK SMILES IDX 64 78 57 79 58 80 62 81 65 82 59 83 60 84 63 85 61 86 40 87
REMARK SMILES IDX 41 88 49 89 42 90 43 91 47 92 50 93 44 94 45 95 48 96 46 97
REMARK H PARENT 80 15 84 21 70 50 38 61
REMARK Flexibility Score: inf
ROOT
ATOM      1  C   UNL A   1      32.867  30.549  27.246  1.00  0.00     0.275 C 
ENDROOT
BRANCH   1   2
ATOM      2  O   UNL A   1      31.843  29.650  26.782  1.00  0.00    -0.458 OA
BRANCH   2   3
ATOM      3  C   UNL A   1      31.488  29.916  25.500  1.00  0.00     0.338 C 
ATOM      4  O   UNL A   1      30.779  30.851  25.143  1.00  0.00    -0.246 OA
BRANCH   3   5
ATOM      5  C   UNL A   1      31.880  28.896  24.514  1.00  0.00     0.060 A 
ATOM      6  C   UNL A   1      32.154  25.912  21.397  1.00  0.00     0.044 C 
ATOM      7  C   UNL A   1      32.049  26.874  22.546  1.00  0.00    -0.046 A 
ATOM      8  C   UNL A   1      32.984  27.938  22.609  1.00  0.00     0.004 A 
ATOM      9  C   UNL A   1      31.056  26.800  23.529  1.00  0.00    -0.025 A 
ATOM     10  C   UNL A   1      32.931  28.921  23.616  1.00  0.00     0.016 A 
ATOM     11  C   UNL A   1      30.967  27.859  24.437  1.00  0.00     0.021 A 
BRANCH   9  12
ATOM     12  C   UNL A   1      30.069  25.678  23.762  1.00  0.00     0.152 C 
BRANCH  12  13
ATOM     13  N   UNL A   1      29.889  25.520  25.203  1.00  0.00    -0.347 N 
ATOM     14  C   UNL A   1      30.407  24.555  26.022  1.00  0.00     0.275 C 
ATOM     15  H   UNL A   1      29.321  26.194  25.642  1.00  0.00     0.164 HD
ATOM     16  O   UNL A   1      29.816  24.295  27.074  1.00  0.00    -0.268 OA
BRANCH  14  17
ATOM     17  C   UNL A   1      31.720  23.861  25.661  1.00  0.00     0.363 C 
BRANCH  17  18
ATOM     18  N   UNL A   1      32.880  24.266  26.478  1.00  0.00    -0.327 N 
ATOM     19  C   UNL A   1      33.529  25.509  26.031  1.00  0.00     0.262 C 
ATOM     20  C   UNL A   1      33.899  23.208  26.595  1.00  0.00     0.272 C 
ATOM     21  H   UNL A   1      32.471  24.440  27.396  1.00  0.00     0.348 HD
ATOM     22  C   UNL A   1      34.255  25.375  24.698  1.00  0.00     0.062 C 
ATOM     23  C   UNL A   1      34.730  22.921  25.320  1.00  0.00     0.045 C 
ATOM     24  C   UNL A   1      35.265  24.233  24.720  1.00  0.00     0.021 C 
ATOM     25  C   UNL A   1      33.991  22.000  24.343  1.00  0.00     0.043 C 
ATOM     26  C   UNL A   1      35.917  22.022  25.662  1.00  0.00     0.173 C 
ATOM     27  C   UNL A   1      34.379  20.588  24.761  1.00  0.00     0.161 C 
ATOM     28  O   UNL A   1      35.381  20.706  25.772  1.00  0.00    -0.381 OA
ENDBRANCH  17  18
ENDBRANCH  14  17
ENDBRANCH  12  13
ENDBRANCH   9  12
ENDBRANCH   3   5
ENDBRANCH   2   3
ENDBRANCH   1   2
BRANCH   1  29
ATOM     29  C   UNL A   1      34.219  29.887  27.543  1.00  0.00     0.275 C 
BRANCH  29  30
ATOM     30  O   UNL A   1      35.480  30.541  27.227  1.00  0.00    -0.458 OA
BRANCH  30  31
ATOM     31  C   UNL A   1      36.403  30.962  28.117  1.00  0.00     0.338 C 
ATOM     32  O   UNL A   1      36.386  32.081  28.618  1.00  0.00    -0.246 OA
BRANCH  31  33
ATOM     33  C   UNL A   1      37.491  30.018  28.404  1.00  0.00     0.060 A 
ATOM     34  C   UNL A   1      37.376  29.176  29.527  1.00  0.00     0.016 A 
ATOM     35  C   UNL A   1      38.539  29.880  27.499  1.00  0.00     0.016 A 
ATOM     36  C   UNL A   1      38.265  28.128  29.705  1.00  0.00     0.010 A 
ATOM     37  C   UNL A   1      39.337  28.771  27.591  1.00  0.00     0.010 A 
ATOM     38  C   UNL A   1      39.243  27.951  28.734  1.00  0.00    -0.014 A 
BRANCH  38  39
ATOM     39  C   UNL A   1      40.504  27.300  29.023  1.00  0.00     0.031 A 
ATOM     40  C   UNL A   1      40.792  25.922  28.615  1.00  0.00     0.074 A 
ATOM     41  C   UNL A   1      41.390  28.260  29.383  1.00  0.00     0.049 A 
ATOM     42  N   UNL A   1      41.875  25.310  28.936  1.00  0.00    -0.248 NA
ATOM     43  C   UNL A   1      39.888  25.074  27.838  1.00  0.00     0.031 C 
ATOM     44  C   UNL A   1      42.832  28.344  29.292  1.00  0.00     0.029 A 
ATOM     45  N   UNL A   1      41.033  29.472  30.017  1.00  0.00    -0.354 N 
ATOM     46  C   UNL A   1      41.988  24.207  28.117  1.00  0.00     0.074 A 
ATOM     47  C   UNL A   1      40.670  24.016  27.574  1.00  0.00     0.031 C 
ATOM     48  C   UNL A   1      43.251  29.319  30.126  1.00  0.00     0.029 A 
ATOM     49  C   UNL A   1      42.086  29.779  30.878  1.00  0.00     0.049 A 
ATOM     50  H   UNL A   1      40.208  29.993  29.881  1.00  0.00     0.167 HD
ATOM     51  C   UNL A   1      43.243  23.734  27.860  1.00  0.00     0.037 A 
ATOM     52  C   UNL A   1      41.862  29.582  32.212  1.00  0.00     0.037 A 
ATOM     53  C   UNL A   1      44.198  24.461  28.688  1.00  0.00     0.049 A 
ATOM     54  C   UNL A   1      42.705  28.431  32.708  1.00  0.00     0.074 A 
ATOM     55  C   UNL A   1      44.969  25.584  28.441  1.00  0.00     0.029 A 
ATOM     56  N   UNL A   1      44.092  24.346  30.066  1.00  0.00    -0.354 N 
ATOM     57  N   UNL A   1      43.025  27.387  31.988  1.00  0.00    -0.248 NA
ATOM     58  C   UNL A   1      43.344  28.437  34.016  1.00  0.00     0.031 C 
ATOM     59  C   UNL A   1      45.250  26.196  29.691  1.00  0.00     0.029 A 
ATOM     60  C   UNL A   1      44.634  25.456  30.685  1.00  0.00     0.049 A 
ATOM     61  H   UNL A   1      43.689  23.581  30.536  1.00  0.00     0.167 HD
ATOM     62  C   UNL A   1      43.962  26.651  32.662  1.00  0.00     0.074 A 
ATOM     63  C   UNL A   1      44.102  27.330  33.937  1.00  0.00     0.031 C 
ATOM     64  C   UNL A   1      44.599  25.566  32.131  1.00  0.00     0.037 A 
BRANCH  51  65
ATOM     65  C   UNL A   1      43.652  22.893  26.673  1.00  0.00     0.064 A 
ATOM     66  C   UNL A   1      43.254  21.537  26.589  1.00  0.00     0.173 A 
ATOM     67  C   UNL A   1      44.459  23.333  25.611  1.00  0.00     0.173 A 
ATOM     68  F   UNL A   1      42.412  20.994  27.476  1.00  0.00    -0.203 F 
ATOM     69  C   UNL A   1      43.712  20.670  25.595  1.00  0.00     0.198 A 
ATOM     70  C   UNL A   1      44.932  22.456  24.621  1.00  0.00     0.198 A 
ATOM     71  F   UNL A   1      44.784  24.625  25.488  1.00  0.00    -0.203 F 
ATOM     72  F   UNL A   1      43.315  19.389  25.596  1.00  0.00    -0.200 F 
ATOM     73  C   UNL A   1      44.575  21.122  24.626  1.00  0.00     0.200 A 
ATOM     74  F   UNL A   1      45.749  22.902  23.657  1.00  0.00    -0.200 F 
ATOM     75  F   UNL A   1      45.047  20.284  23.693  1.00  0.00    -0.200 F 
ENDBRANCH  51  65
BRANCH  52  76
ATOM     76  C   UNL A   1      40.452  29.906  32.635  1.00  0.00     0.064 A 
ATOM     77  C   UNL A   1      40.005  31.246  32.512  1.00  0.00     0.173 A 
ATOM     78  C   UNL A   1      39.463  28.939  32.853  1.00  0.00     0.173 A 
ATOM     79  F   UNL A   1      40.895  32.230  32.298  1.00  0.00    -0.203 F 
ATOM     80  C   UNL A   1      38.650  31.581  32.500  1.00  0.00     0.198 A 
ATOM     81  C   UNL A   1      38.101  29.284  32.865  1.00  0.00     0.198 A 
ATOM     82  F   UNL A   1      39.789  27.645  32.969  1.00  0.00    -0.203 F 
ATOM     83  F   UNL A   1      38.275  32.846  32.257  1.00  0.00    -0.200 F 
ATOM     84  C   UNL A   1      37.697  30.596  32.666  1.00  0.00     0.200 A 
ATOM     85  F   UNL A   1      37.169  28.325  32.978  1.00  0.00    -0.200 F 
ATOM     86  F   UNL A   1      36.392  30.894  32.573  1.00  0.00    -0.200 F 
ENDBRANCH  52  76
BRANCH  64  87
ATOM     87  C   UNL A   1      45.316  24.512  32.930  1.00  0.00     0.064 A 
ATOM     88  C   UNL A   1      46.580  24.718  33.501  1.00  0.00     0.173 A 
ATOM     89  C   UNL A   1      44.647  23.326  33.326  1.00  0.00     0.173 A 
ATOM     90  F   UNL A   1      47.257  25.858  33.310  1.00  0.00    -0.203 F 
ATOM     91  C   UNL A   1      47.162  23.778  34.349  1.00  0.00     0.198 A 
ATOM     92  C   UNL A   1      45.194  22.436  34.242  1.00  0.00     0.198 A 
ATOM     93  F   UNL A   1      43.422  23.018  32.873  1.00  0.00    -0.203 F 
ATOM     94  F   UNL A   1      48.396  23.995  34.822  1.00  0.00    -0.200 F 
ATOM     95  C   UNL A   1      46.464  22.650  34.735  1.00  0.00     0.200 A 
ATOM     96  F   UNL A   1      44.473  21.389  34.664  1.00  0.00    -0.200 F 
ATOM     97  F   UNL A   1      47.003  21.783  35.599  1.00  0.00    -0.200 F 
ENDBRANCH  64  87
ENDBRANCH  38  39
ENDBRANCH  31  33
ENDBRANCH  30  31
ENDBRANCH  29  30
ENDBRANCH   1  29
TORSDOF 15
ENDMDL
MODEL 2
REMARK VINA RESULT:     -13.5      3.563      6.111
REMARK SMILES Cc1ccc(C(=O)OCCOC(=O)c2ccc(-c3c4nc(c(-c5c(F)c(F)c(F)c(F)c5F)c5ccc([nH]5)c(-c5c(F)c(F)c(F)c(F)c5F)c5nc(c(-c6c(F)c(F)c(F)c(F)c6F)c6ccc3[nH]6)C=C5)C=C4)cc2)cc1CNC(=O)C[N@@H+]1CCC[C@]2(CCOC2)C1
REMARK SMILES IDX 9 1 8 2 6 3 7 4 5 5 1 6 2 7 3 8 78 9 4 10 77 11 79 12 80 13
REMARK SMILES IDX 81 14 82 16 83 17 84 18 85 19 93 20 86 22 88 23 87 24 89 25
REMARK SMILES IDX 92 26 90 27 91 28 10 29 11 30 12 31 13 32 14 33 15 34 76 35
REMARK SMILES IDX 16 36 75 37 17 38 18 39 19 40 69 41 20 42 74 43 68 44 70 45
REMARK SMILES IDX 21 46 73 47 67 48 66 49 22 51 54 52 34 53 53 54 35 55 38 56
REMARK SMILES IDX 52 57 71 58 36 59 37 60 51 62 72 63 39 64 23 65 24 66 32 67
REMARK SMILES IDX 25 68 26 69 30 70 33 71 27 72 28 73 31 74 29 75 55 76 56 77
REMARK SMILES IDX 64 78 57 79 58 80 62 81 65 82 59 83 60 84 63 85 61 86 40 87
REMARK SMILES IDX 41 88 49 89 42 90 43 91 47 92 50 93 44 94 45 95 48 96 46 97
REMARK H PARENT 80 15 84 21 70 50 38 61
REMARK Flexibility Score: inf
ROOT
ATOM      1  C   UNL A   1      33.113  36.032  29.875  1.00  0.00     0.275 C 
ENDROOT
BRANCH   1   2
ATOM      2  O   UNL A   1      33.427  34.669  29.537  1.00  0.00    -0.458 OA
BRANCH   2   3
ATOM      3  C   UNL A   1      34.318  34.600  28.515  1.00  0.00     0.338 C 
ATOM      4  O   UNL A   1      34.403  35.408  27.597  1.00  0.00    -0.246 OA
BRANCH   3   5
ATOM      5  C   UNL A   1      35.120  33.366  28.463  1.00  0.00     0.060 A 
ATOM      6  C   UNL A   1      37.070  29.628  27.507  1.00  0.00     0.044 C 
ATOM      7  C   UNL A   1      36.324  30.874  27.890  1.00  0.00    -0.046 A 
ATOM      8  C   UNL A   1      37.074  31.975  28.375  1.00  0.00     0.004 A 
ATOM      9  C   UNL A   1      34.939  31.020  27.754  1.00  0.00    -0.025 A 
ATOM     10  C   UNL A   1      36.471  33.203  28.706  1.00  0.00     0.016 A 
ATOM     11  C   UNL A   1      34.399  32.289  27.979  1.00  0.00     0.021 A 
BRANCH   9  12
ATOM     12  C   UNL A   1      33.926  29.946  27.423  1.00  0.00     0.152 C 
BRANCH  12  13
ATOM     13  N   UNL A   1      32.644  30.594  27.154  1.00  0.00    -0.347 N 
ATOM     14  C   UNL A   1      31.856  30.486  26.042  1.00  0.00     0.275 C 
ATOM     15  H   UNL A   1      32.305  31.186  27.865  1.00  0.00     0.164 HD
ATOM     16  O   UNL A   1      31.080  31.409  25.778  1.00  0.00    -0.268 OA
BRANCH  14  17
ATOM     17  C   UNL A   1      31.901  29.221  25.186  1.00  0.00     0.363 C 
BRANCH  17  18
ATOM     18  N   UNL A   1      31.622  29.433  23.753  1.00  0.00    -0.327 N 
ATOM     19  C   UNL A   1      30.199  29.327  23.392  1.00  0.00     0.262 C 
ATOM     20  C   UNL A   1      32.406  28.544  22.876  1.00  0.00     0.272 C 
ATOM     21  H   UNL A   1      31.913  30.398  23.597  1.00  0.00     0.348 HD
ATOM     22  C   UNL A   1      29.644  27.912  23.501  1.00  0.00     0.062 C 
ATOM     23  C   UNL A   1      31.989  27.052  22.873  1.00  0.00     0.045 C 
ATOM     24  C   UNL A   1      30.467  26.919  22.688  1.00  0.00     0.021 C 
ATOM     25  C   UNL A   1      32.580  26.283  24.060  1.00  0.00     0.043 C 
ATOM     26  C   UNL A   1      32.685  26.318  21.728  1.00  0.00     0.173 C 
ATOM     27  C   UNL A   1      33.929  25.776  23.569  1.00  0.00     0.161 C 
ATOM     28  O   UNL A   1      34.016  26.084  22.178  1.00  0.00    -0.381 OA
ENDBRANCH  17  18
ENDBRANCH  14  17
ENDBRANCH  12  13
ENDBRANCH   9  12
ENDBRANCH   3   5
ENDBRANCH   2   3
ENDBRANCH   1   2
BRANCH   1  29
ATOM     29  C   UNL A   1      33.051  36.325  31.380  1.00  0.00     0.275 C 
BRANCH  29  30
ATOM     30  O   UNL A   1      33.995  35.737  32.317  1.00  0.00    -0.458 OA
BRANCH  30  31
ATOM     31  C   UNL A   1      33.980  34.466  32.770  1.00  0.00     0.338 C 
ATOM     32  O   UNL A   1      32.983  33.939  33.250  1.00  0.00    -0.246 OA
BRANCH  31  33
ATOM     33  C   UNL A   1      35.266  33.755  32.724  1.00  0.00     0.060 A 
ATOM     34  C   UNL A   1      36.287  34.259  31.896  1.00  0.00     0.016 A 
ATOM     35  C   UNL A   1      35.494  32.690  33.591  1.00  0.00     0.016 A 
ATOM     36  C   UNL A   1      37.573  33.755  31.992  1.00  0.00     0.010 A 
ATOM     37  C   UNL A   1      36.784  32.279  33.790  1.00  0.00     0.010 A 
ATOM     38  C   UNL A   1      37.797  32.759  32.936  1.00  0.00    -0.014 A 
BRANCH  38  39
ATOM     39  C   UNL A   1      38.872  31.797  32.797  1.00  0.00     0.031 A 
ATOM     40  C   UNL A   1      38.713  30.540  32.062  1.00  0.00     0.074 A 
ATOM     41  C   UNL A   1      40.026  32.418  33.139  1.00  0.00     0.049 A 
ATOM     42  N   UNL A   1      39.634  29.645  32.001  1.00  0.00    -0.248 NA
ATOM     43  C   UNL A   1      37.502  30.134  31.349  1.00  0.00     0.031 C 
ATOM     44  C   UNL A   1      41.404  32.206  32.749  1.00  0.00     0.029 A 
ATOM     45  N   UNL A   1      40.113  33.477  34.072  1.00  0.00    -0.354 N 
ATOM     46  C   UNL A   1      39.314  28.788  30.969  1.00  0.00     0.074 A 
ATOM     47  C   UNL A   1      37.922  29.033  30.706  1.00  0.00     0.031 C 
ATOM     48  C   UNL A   1      42.197  32.821  33.650  1.00  0.00     0.029 A 
ATOM     49  C   UNL A   1      41.336  33.318  34.720  1.00  0.00     0.049 A 
ATOM     50  H   UNL A   1      39.444  34.182  34.232  1.00  0.00     0.167 HD
ATOM     51  C   UNL A   1      40.339  28.134  30.348  1.00  0.00     0.037 A 
ATOM     52  C   UNL A   1      41.292  32.843  36.001  1.00  0.00     0.037 A 
ATOM     53  C   UNL A   1      41.576  28.402  31.073  1.00  0.00     0.049 A 
ATOM     54  C   UNL A   1      41.872  31.449  36.050  1.00  0.00     0.074 A 
ATOM     55  C   UNL A   1      42.564  29.354  30.896  1.00  0.00     0.029 A 
ATOM     56  N   UNL A   1      41.672  27.966  32.387  1.00  0.00    -0.354 N 
ATOM     57  N   UNL A   1      41.780  30.577  35.079  1.00  0.00    -0.248 NA
ATOM     58  C   UNL A   1      42.696  30.983  37.156  1.00  0.00     0.031 C 
ATOM     59  C   UNL A   1      43.200  29.553  32.150  1.00  0.00     0.029 A 
ATOM     60  C   UNL A   1      42.583  28.737  33.083  1.00  0.00     0.049 A 
ATOM     61  H   UNL A   1      41.165  27.214  32.768  1.00  0.00     0.167 HD
ATOM     62  C   UNL A   1      42.588  29.509  35.361  1.00  0.00     0.074 A 
ATOM     63  C   UNL A   1      43.111  29.795  36.685  1.00  0.00     0.031 C 
ATOM     64  C   UNL A   1      42.818  28.482  34.491  1.00  0.00     0.037 A 
BRANCH  51  65
ATOM     65  C   UNL A   1      40.309  27.554  28.953  1.00  0.00     0.064 A 
ATOM     66  C   UNL A   1      39.636  26.334  28.703  1.00  0.00     0.173 A 
ATOM     67  C   UNL A   1      40.946  28.111  27.832  1.00  0.00     0.173 A 
ATOM     68  F   UNL A   1      38.907  25.726  29.647  1.00  0.00    -0.203 F 
ATOM     69  C   UNL A   1      39.688  25.674  27.473  1.00  0.00     0.198 A 
ATOM     70  C   UNL A   1      41.012  27.438  26.601  1.00  0.00     0.198 A 
ATOM     71  F   UNL A   1      41.494  29.330  27.892  1.00  0.00    -0.203 F 
ATOM     72  F   UNL A   1      39.048  24.505  27.319  1.00  0.00    -0.200 F 
ATOM     73  C   UNL A   1      40.401  26.211  26.429  1.00  0.00     0.200 A 
ATOM     74  F   UNL A   1      41.681  27.976  25.572  1.00  0.00    -0.200 F 
ATOM     75  F   UNL A   1      40.485  25.562  25.260  1.00  0.00    -0.200 F 
ENDBRANCH  51  65
BRANCH  52  76
ATOM     76  C   UNL A   1      40.109  33.349  36.785  1.00  0.00     0.064 A 
ATOM     77  C   UNL A   1      39.014  32.471  36.991  1.00  0.00     0.173 A 
ATOM     78  C   UNL A   1      40.136  34.504  37.578  1.00  0.00     0.173 A 
ATOM     79  F   UNL A   1      38.921  31.340  36.272  1.00  0.00    -0.203 F 
ATOM     80  C   UNL A   1      38.069  32.681  37.997  1.00  0.00     0.198 A 
ATOM     81  C   UNL A   1      39.168  34.724  38.572  1.00  0.00     0.198 A 
ATOM     82  F   UNL A   1      41.138  35.385  37.463  1.00  0.00    -0.203 F 
ATOM     83  F   UNL A   1      37.124  31.759  38.231  1.00  0.00    -0.200 F 
ATOM     84  C   UNL A   1      38.154  33.805  38.795  1.00  0.00     0.200 A 
ATOM     85  F   UNL A   1      39.272  35.789  39.382  1.00  0.00    -0.200 F 
ATOM     86  F   UNL A   1      37.301  33.974  39.817  1.00  0.00    -0.200 F 
ENDBRANCH  52  76
BRANCH  64  87
ATOM     87  C   UNL A   1      43.353  27.130  34.877  1.00  0.00     0.064 A 
ATOM     88  C   UNL A   1      42.526  26.024  35.122  1.00  0.00     0.173 A 
ATOM     89  C   UNL A   1      44.742  26.855  34.800  1.00  0.00     0.173 A 
ATOM     90  F   UNL A   1      41.191  26.128  35.089  1.00  0.00    -0.203 F 
ATOM     91  C   UNL A   1      43.050  24.752  35.343  1.00  0.00     0.198 A 
ATOM     92  C   UNL A   1      45.252  25.570  34.933  1.00  0.00     0.198 A 
ATOM     93  F   UNL A   1      45.643  27.817  34.547  1.00  0.00    -0.203 F 
ATOM     94  F   UNL A   1      42.222  23.740  35.631  1.00  0.00    -0.200 F 
ATOM     95  C   UNL A   1      44.408  24.521  35.229  1.00  0.00     0.200 A 
ATOM     96  F   UNL A   1      46.560  25.350  34.742  1.00  0.00    -0.200 F 
ATOM     97  F   UNL A   1      44.898  23.285  35.380  1.00  0.00    -0.200 F 
ENDBRANCH  64  87
ENDBRANCH  38  39
ENDBRANCH  31  33
ENDBRANCH  30  31
ENDBRANCH  29  30
ENDBRANCH   1  29
TORSDOF 15
ENDMDL
MODEL 3
REMARK VINA RESULT:     -13.5      3.788     10.107
REMARK SMILES Cc1ccc(C(=O)OCCOC(=O)c2ccc(-c3c4nc(c(-c5c(F)c(F)c(F)c(F)c5F)c5ccc([nH]5)c(-c5c(F)c(F)c(F)c(F)c5F)c5nc(c(-c6c(F)c(F)c(F)c(F)c6F)c6ccc3[nH]6)C=C5)C=C4)cc2)cc1CNC(=O)C[N@@H+]1CCC[C@]2(CCOC2)C1
REMARK SMILES IDX 9 1 8 2 6 3 7 4 5 5 1 6 2 7 3 8 78 9 4 10 77 11 79 12 80 13
REMARK SMILES IDX 81 14 82 16 83 17 84 18 85 19 93 20 86 22 88 23 87 24 89 25
REMARK SMILES IDX 92 26 90 27 91 28 10 29 11 30 12 31 13 32 14 33 15 34 76 35
REMARK SMILES IDX 16 36 75 37 17 38 18 39 19 40 69 41 20 42 74 43 68 44 70 45
REMARK SMILES IDX 21 46 73 47 67 48 66 49 22 51 54 52 34 53 53 54 35 55 38 56
REMARK SMILES IDX 52 57 71 58 36 59 37 60 51 62 72 63 39 64 23 65 24 66 32 67
REMARK SMILES IDX 25 68 26 69 30 70 33 71 27 72 28 73 31 74 29 75 55 76 56 77
REMARK SMILES IDX 64 78 57 79 58 80 62 81 65 82 59 83 60 84 63 85 61 86 40 87
REMARK SMILES IDX 41 88 49 89 42 90 43 91 47 92 50 93 44 94 45 95 48 96 46 97
REMARK H PARENT 80 15 84 21 70 50 38 61
REMARK Flexibility Score: inf
ROOT
ATOM      1  C   UNL A   1      37.759  21.441  25.045  1.00  0.00     0.275 C 
ENDROOT
BRANCH   1   2
ATOM      2  O   UNL A   1      36.477  21.847  25.556  1.00  0.00    -0.458 OA
BRANCH   2   3
ATOM      3  C   UNL A   1      35.487  21.015  25.143  1.00  0.00     0.338 C 
ATOM      4  O   UNL A   1      35.645  19.849  24.796  1.00  0.00    -0.246 OA
BRANCH   3   5
ATOM      5  C   UNL A   1      34.168  21.643  24.969  1.00  0.00     0.060 A 
ATOM      6  C   UNL A   1      30.681  23.887  23.742  1.00  0.00     0.044 C 
ATOM      7  C   UNL A   1      31.915  23.182  24.232  1.00  0.00    -0.046 A 
ATOM      8  C   UNL A   1      31.808  21.807  24.557  1.00  0.00     0.004 A 
ATOM      9  C   UNL A   1      33.166  23.799  24.341  1.00  0.00    -0.025 A 
ATOM     10  C   UNL A   1      32.920  21.048  24.971  1.00  0.00     0.016 A 
ATOM     11  C   UNL A   1      34.262  22.984  24.638  1.00  0.00     0.021 A 
BRANCH   9  12
ATOM     12  C   UNL A   1      33.484  25.272  24.213  1.00  0.00     0.152 C 
BRANCH  12  13
ATOM     13  N   UNL A   1      33.817  25.548  22.817  1.00  0.00    -0.347 N 
ATOM     14  C   UNL A   1      33.017  26.079  21.843  1.00  0.00     0.275 C 
ATOM     15  H   UNL A   1      34.735  25.321  22.541  1.00  0.00     0.164 HD
ATOM     16  O   UNL A   1      33.278  25.826  20.664  1.00  0.00    -0.268 OA
BRANCH  14  17
ATOM     17  C   UNL A   1      31.864  27.010  22.217  1.00  0.00     0.363 C 
BRANCH  17  18
ATOM     18  N   UNL A   1      32.199  28.447  22.204  1.00  0.00    -0.327 N 
ATOM     19  C   UNL A   1      33.027  28.884  23.339  1.00  0.00     0.262 C 
ATOM     20  C   UNL A   1      31.011  29.315  22.115  1.00  0.00     0.272 C 
ATOM     21  H   UNL A   1      32.755  28.551  21.355  1.00  0.00     0.348 HD
ATOM     22  C   UNL A   1      32.295  28.857  24.676  1.00  0.00     0.062 C 
ATOM     23  C   UNL A   1      30.132  29.395  23.387  1.00  0.00     0.045 C 
ATOM     24  C   UNL A   1      31.003  29.664  24.627  1.00  0.00     0.021 C 
ATOM     25  C   UNL A   1      29.167  28.210  23.500  1.00  0.00     0.043 C 
ATOM     26  C   UNL A   1      29.118  30.530  23.249  1.00  0.00     0.173 C 
ATOM     27  C   UNL A   1      27.912  28.649  22.758  1.00  0.00     0.161 C 
ATOM     28  O   UNL A   1      28.088  30.022  22.406  1.00  0.00    -0.381 OA
ENDBRANCH  17  18
ENDBRANCH  14  17
ENDBRANCH  12  13
ENDBRANCH   9  12
ENDBRANCH   3   5
ENDBRANCH   2   3
ENDBRANCH   1   2
BRANCH   1  29
ATOM     29  C   UNL A   1      38.954  21.812  25.933  1.00  0.00     0.275 C 
BRANCH  29  30
ATOM     30  O   UNL A   1      39.118  23.149  26.480  1.00  0.00    -0.458 OA
BRANCH  30  31
ATOM     31  C   UNL A   1      40.155  23.581  27.228  1.00  0.00     0.338 C 
ATOM     32  O   UNL A   1      41.044  22.839  27.631  1.00  0.00    -0.246 OA
BRANCH  31  33
ATOM     33  C   UNL A   1      40.125  25.002  27.603  1.00  0.00     0.060 A 
ATOM     34  C   UNL A   1      40.470  25.963  26.634  1.00  0.00     0.016 A 
ATOM     35  C   UNL A   1      39.632  25.373  28.851  1.00  0.00     0.016 A 
ATOM     36  C   UNL A   1      40.242  27.308  26.876  1.00  0.00     0.010 A 
ATOM     37  C   UNL A   1      39.278  26.681  29.046  1.00  0.00     0.010 A 
ATOM     38  C   UNL A   1      39.657  27.645  28.091  1.00  0.00    -0.014 A 
BRANCH  38  39
ATOM     39  C   UNL A   1      39.845  28.947  28.699  1.00  0.00     0.031 A 
ATOM     40  C   UNL A   1      38.821  29.995  28.649  1.00  0.00     0.074 A 
ATOM     41  C   UNL A   1      40.900  28.858  29.544  1.00  0.00     0.049 A 
ATOM     42  N   UNL A   1      39.009  31.178  29.115  1.00  0.00    -0.248 NA
ATOM     43  C   UNL A   1      37.498  29.844  28.044  1.00  0.00     0.031 C 
ATOM     44  C   UNL A   1      41.253  29.581  30.747  1.00  0.00     0.029 A 
ATOM     45  N   UNL A   1      41.989  27.974  29.365  1.00  0.00    -0.354 N 
ATOM     46  C   UNL A   1      37.774  31.778  29.236  1.00  0.00     0.074 A 
ATOM     47  C   UNL A   1      36.897  30.984  28.419  1.00  0.00     0.031 C 
ATOM     48  C   UNL A   1      42.566  29.383  30.988  1.00  0.00     0.029 A 
ATOM     49  C   UNL A   1      43.110  28.643  29.853  1.00  0.00     0.049 A 
ATOM     50  H   UNL A   1      41.961  27.071  28.974  1.00  0.00     0.167 HD
ATOM     51  C   UNL A   1      37.634  32.752  30.183  1.00  0.00     0.037 A 
ATOM     52  C   UNL A   1      43.984  29.130  28.922  1.00  0.00     0.037 A 
ATOM     53  C   UNL A   1      38.941  33.040  30.760  1.00  0.00     0.049 A 
ATOM     54  C   UNL A   1      43.942  30.640  28.920  1.00  0.00     0.074 A 
ATOM     55  C   UNL A   1      39.584  32.553  31.884  1.00  0.00     0.029 A 
ATOM     56  N   UNL A   1      39.927  33.549  29.926  1.00  0.00    -0.354 N 
ATOM     57  N   UNL A   1      42.871  31.348  29.173  1.00  0.00    -0.248 NA
ATOM     58  C   UNL A   1      45.136  31.455  28.748  1.00  0.00     0.031 C 
ATOM     59  C   UNL A   1      40.982  32.693  31.676  1.00  0.00     0.029 A 
ATOM     60  C   UNL A   1      41.180  33.244  30.422  1.00  0.00     0.049 A 
ATOM     61  H   UNL A   1      39.757  34.056  29.099  1.00  0.00     0.167 HD
ATOM     62  C   UNL A   1      43.228  32.664  29.300  1.00  0.00     0.074 A 
ATOM     63  C   UNL A   1      44.646  32.683  28.992  1.00  0.00     0.031 C 
ATOM     64  C   UNL A   1      42.364  33.648  29.689  1.00  0.00     0.037 A 
BRANCH  51  65
ATOM     65  C   UNL A   1      36.336  33.196  30.818  1.00  0.00     0.064 A 
ATOM     66  C   UNL A   1      35.469  34.077  30.128  1.00  0.00     0.173 A 
ATOM     67  C   UNL A   1      35.900  32.834  32.103  1.00  0.00     0.173 A 
ATOM     68  F   UNL A   1      35.699  34.442  28.861  1.00  0.00    -0.203 F 
ATOM     69  C   UNL A   1      34.328  34.633  30.710  1.00  0.00     0.198 A 
ATOM     70  C   UNL A   1      34.762  33.408  32.694  1.00  0.00     0.198 A 
ATOM     71  F   UNL A   1      36.547  31.896  32.806  1.00  0.00    -0.203 F 
ATOM     72  F   UNL A   1      33.570  35.485  30.004  1.00  0.00    -0.200 F 
ATOM     73  C   UNL A   1      33.990  34.322  32.005  1.00  0.00     0.200 A 
ATOM     74  F   UNL A   1      34.413  33.081  33.946  1.00  0.00    -0.200 F 
ATOM     75  F   UNL A   1      32.918  34.884  32.580  1.00  0.00    -0.200 F 
ENDBRANCH  51  65
BRANCH  52  76
ATOM     76  C   UNL A   1      44.131  28.238  27.716  1.00  0.00     0.064 A 
ATOM     77  C   UNL A   1      44.676  26.942  27.901  1.00  0.00     0.173 A 
ATOM     78  C   UNL A   1      43.495  28.475  26.490  1.00  0.00     0.173 A 
ATOM     79  F   UNL A   1      45.297  26.638  29.053  1.00  0.00    -0.203 F 
ATOM     80  C   UNL A   1      44.503  25.920  26.966  1.00  0.00     0.198 A 
ATOM     81  C   UNL A   1      43.345  27.450  25.541  1.00  0.00     0.198 A 
ATOM     82  F   UNL A   1      42.939  29.665  26.230  1.00  0.00    -0.203 F 
ATOM     83  F   UNL A   1      44.931  24.679  27.243  1.00  0.00    -0.200 F 
ATOM     84  C   UNL A   1      43.826  26.173  25.789  1.00  0.00     0.200 A 
ATOM     85  F   UNL A   1      42.648  27.676  24.416  1.00  0.00    -0.200 F 
ATOM     86  F   UNL A   1      43.582  25.178  24.923  1.00  0.00    -0.200 F 
ENDBRANCH  52  76
BRANCH  64  87
ATOM     87  C   UNL A   1      42.581  35.120  29.467  1.00  0.00     0.064 A 
ATOM     88  C   UNL A   1      43.156  35.960  30.432  1.00  0.00     0.173 A 
ATOM     89  C   UNL A   1      42.409  35.690  28.180  1.00  0.00     0.173 A 
ATOM     90  F   UNL A   1      43.490  35.504  31.646  1.00  0.00    -0.203 F 
ATOM     91  C   UNL A   1      43.472  37.288  30.153  1.00  0.00     0.198 A 
ATOM     92  C   UNL A   1      42.808  36.987  27.883  1.00  0.00     0.198 A 
ATOM     93  F   UNL A   1      41.893  34.990  27.158  1.00  0.00    -0.203 F 
ATOM     94  F   UNL A   1      43.965  38.065  31.126  1.00  0.00    -0.200 F 
ATOM     95  C   UNL A   1      43.318  37.795  28.877  1.00  0.00     0.200 A 
ATOM     96  F   UNL A   1      42.724  37.437  26.624  1.00  0.00    -0.200 F 
ATOM     97  F   UNL A   1      43.681  39.053  28.600  1.00  0.00    -0.200 F 
ENDBRANCH  64  87
ENDBRANCH  38  39
ENDBRANCH  31  33
ENDBRANCH  30  31
ENDBRANCH  29  30
ENDBRANCH   1  29
TORSDOF 15
ENDMDL
