MODEL 1
REMARK VINA RESULT:     -10.3      0.000      0.000
REMARK SMILES CNC(=O)CCn1c(SCC(=O)OCCOC(=O)c2ccc(-c3c4nc(c(-c5c(F)c(F)c(F)c(F)c5F)c5ccc([nH]5)c(-c5c(F)c(F)c(F)c(F)c5F)c5nc(c(-c6c(F)c(F)c(F)c(F)c6F)c6ccc3[nH]6)C=C5)C=C4)cc2)nc2ccc(C)cc21
REMARK SMILES IDX 13 1 11 2 12 3 10 4 9 5 8 6 7 7 89 8 82 9 83 10 88 11 84 12
REMARK SMILES IDX 86 13 85 14 87 15 6 16 5 17 3 18 1 19 2 20 4 22 14 23 15 24
REMARK SMILES IDX 16 25 17 26 18 27 19 28 20 29 81 30 21 31 80 32 22 33 23 34
REMARK SMILES IDX 24 35 74 36 25 37 79 38 73 39 75 40 26 41 78 42 72 43 71 44
REMARK SMILES IDX 27 46 59 47 39 48 58 49 40 50 43 51 57 52 76 53 41 54 42 55
REMARK SMILES IDX 56 57 77 58 44 59 28 60 29 61 37 62 30 63 31 64 35 65 38 66
REMARK SMILES IDX 32 67 33 68 36 69 34 70 60 71 61 72 69 73 62 74 63 75 67 76
REMARK SMILES IDX 70 77 64 78 65 79 68 80 66 81 45 82 46 83 54 84 47 85 48 86
REMARK SMILES IDX 52 87 55 88 49 89 50 90 53 91 51 92
REMARK H PARENT 2 21 75 45 43 56
REMARK Flexibility Score: inf
ROOT
ATOM      1  O   UNL A   1      43.481  21.140  24.764  1.00  0.00    -0.461 OA
ENDROOT
BRANCH   1   2
ATOM      2  C   UNL A   1      44.768  21.567  24.755  1.00  0.00     0.316 C 
ATOM      3  O   UNL A   1      45.729  20.854  25.041  1.00  0.00    -0.251 OA
BRANCH   2   4
ATOM      4  C   UNL A   1      44.970  23.021  24.379  1.00  0.00     0.200 C 
BRANCH   4   5
ATOM      5  S   UNL A   1      46.152  23.983  25.340  1.00  0.00    -0.076 SA
BRANCH   5   6
ATOM      6  C   UNL A   1      45.444  24.077  26.917  1.00  0.00     0.169 A 
ATOM      7  N   UNL A   1      45.227  25.268  27.563  1.00  0.00    -0.318 N 
ATOM      8  C   UNL A   1      45.023  24.980  28.896  1.00  0.00     0.069 A 
ATOM      9  N   UNL A   1      45.059  23.073  27.664  1.00  0.00    -0.222 NA
ATOM     10  C   UNL A   1      44.780  23.614  28.901  1.00  0.00     0.090 A 
ATOM     11  C   UNL A   1      44.930  25.778  30.041  1.00  0.00     0.032 A 
ATOM     12  C   UNL A   1      44.305  23.020  30.081  1.00  0.00     0.031 A 
ATOM     13  C   UNL A   1      44.485  25.170  31.224  1.00  0.00    -0.049 A 
ATOM     14  C   UNL A   1      44.153  23.810  31.232  1.00  0.00     0.006 A 
ATOM     15  C   UNL A   1      44.274  26.019  32.444  1.00  0.00     0.044 C 
BRANCH   7  16
ATOM     16  C   UNL A   1      44.954  26.563  26.961  1.00  0.00     0.135 C 
BRANCH  16  17
ATOM     17  C   UNL A   1      46.226  27.411  26.830  1.00  0.00     0.122 C 
BRANCH  17  18
ATOM     18  C   UNL A   1      46.505  27.757  25.384  1.00  0.00     0.221 C 
ATOM     19  C   UNL A   1      49.015  27.302  25.475  1.00  0.00     0.142 C 
ATOM     20  N   UNL A   1      47.767  27.727  24.880  1.00  0.00    -0.359 N 
ATOM     21  H   UNL A   1      47.846  28.049  23.953  1.00  0.00     0.163 HD
ATOM     22  O   UNL A   1      45.579  28.060  24.628  1.00  0.00    -0.275 OA
ENDBRANCH  17  18
ENDBRANCH  16  17
ENDBRANCH   7  16
ENDBRANCH   5   6
ENDBRANCH   4   5
ENDBRANCH   2   4
ENDBRANCH   1   2
BRANCH   1  23
ATOM     23  C   UNL A   1      43.050  20.357  25.901  1.00  0.00     0.274 C 
BRANCH  23  24
ATOM     24  C   UNL A   1      41.723  20.888  26.448  1.00  0.00     0.275 C 
BRANCH  24  25
ATOM     25  O   UNL A   1      41.792  22.319  26.440  1.00  0.00    -0.458 OA
BRANCH  25  26
ATOM     26  C   UNL A   1      40.616  22.987  26.460  1.00  0.00     0.338 C 
ATOM     27  O   UNL A   1      39.491  22.537  26.375  1.00  0.00    -0.246 OA
BRANCH  26  28
ATOM     28  C   UNL A   1      40.985  24.341  26.891  1.00  0.00     0.060 A 
ATOM     29  C   UNL A   1      41.553  24.550  28.144  1.00  0.00     0.016 A 
ATOM     30  C   UNL A   1      40.503  25.408  26.133  1.00  0.00     0.016 A 
ATOM     31  C   UNL A   1      41.530  25.830  28.680  1.00  0.00     0.010 A 
ATOM     32  C   UNL A   1      40.420  26.670  26.689  1.00  0.00     0.010 A 
ATOM     33  C   UNL A   1      40.905  26.868  27.975  1.00  0.00    -0.014 A 
BRANCH  33  34
ATOM     34  C   UNL A   1      40.935  28.209  28.527  1.00  0.00     0.031 A 
ATOM     35  C   UNL A   1      42.127  28.997  28.138  1.00  0.00     0.074 A 
ATOM     36  C   UNL A   1      39.950  28.800  29.226  1.00  0.00     0.049 A 
ATOM     37  N   UNL A   1      43.096  29.382  28.902  1.00  0.00    -0.248 NA
ATOM     38  C   UNL A   1      42.304  29.330  26.719  1.00  0.00     0.031 C 
ATOM     39  C   UNL A   1      38.569  28.366  29.430  1.00  0.00     0.029 A 
ATOM     40  N   UNL A   1      40.001  30.006  29.861  1.00  0.00    -0.354 N 
ATOM     41  C   UNL A   1      43.952  30.114  28.091  1.00  0.00     0.074 A 
ATOM     42  C   UNL A   1      43.478  29.959  26.739  1.00  0.00     0.031 C 
ATOM     43  C   UNL A   1      37.870  29.377  30.001  1.00  0.00     0.029 A 
ATOM     44  C   UNL A   1      38.779  30.466  30.324  1.00  0.00     0.049 A 
ATOM     45  H   UNL A   1      40.839  30.507  29.983  1.00  0.00     0.167 HD
ATOM     46  C   UNL A   1      44.900  30.937  28.611  1.00  0.00     0.037 A 
ATOM     47  C   UNL A   1      38.550  31.675  30.891  1.00  0.00     0.037 A 
ATOM     48  C   UNL A   1      45.146  30.664  30.001  1.00  0.00     0.049 A 
ATOM     49  C   UNL A   1      39.849  32.194  31.390  1.00  0.00     0.074 A 
ATOM     50  C   UNL A   1      45.592  29.560  30.701  1.00  0.00     0.029 A 
ATOM     51  N   UNL A   1      44.587  31.494  30.939  1.00  0.00    -0.354 N 
ATOM     52  N   UNL A   1      40.497  31.704  32.410  1.00  0.00    -0.248 NA
ATOM     53  C   UNL A   1      40.630  33.055  30.513  1.00  0.00     0.031 C 
ATOM     54  C   UNL A   1      44.852  29.567  31.920  1.00  0.00     0.029 A 
ATOM     55  C   UNL A   1      44.024  30.690  31.898  1.00  0.00     0.049 A 
ATOM     56  H   UNL A   1      44.589  32.479  30.927  1.00  0.00     0.167 HD
ATOM     57  C   UNL A   1      41.835  31.846  32.081  1.00  0.00     0.074 A 
ATOM     58  C   UNL A   1      41.856  32.785  30.966  1.00  0.00     0.031 C 
ATOM     59  C   UNL A   1      42.774  30.979  32.560  1.00  0.00     0.037 A 
BRANCH  46  60
ATOM     60  C   UNL A   1      45.398  32.176  27.929  1.00  0.00     0.064 A 
ATOM     61  C   UNL A   1      44.498  33.208  27.611  1.00  0.00     0.173 A 
ATOM     62  C   UNL A   1      46.676  32.266  27.337  1.00  0.00     0.173 A 
ATOM     63  F   UNL A   1      43.246  33.194  28.092  1.00  0.00    -0.203 F 
ATOM     64  C   UNL A   1      44.841  34.236  26.731  1.00  0.00     0.198 A 
ATOM     65  C   UNL A   1      47.034  33.322  26.504  1.00  0.00     0.198 A 
ATOM     66  F   UNL A   1      47.581  31.286  27.460  1.00  0.00    -0.203 F 
ATOM     67  F   UNL A   1      43.921  35.139  26.371  1.00  0.00    -0.200 F 
ATOM     68  C   UNL A   1      46.109  34.293  26.179  1.00  0.00     0.200 A 
ATOM     69  F   UNL A   1      48.260  33.349  25.961  1.00  0.00    -0.200 F 
ATOM     70  F   UNL A   1      46.425  35.250  25.297  1.00  0.00    -0.200 F 
ENDBRANCH  46  60
BRANCH  47  71
ATOM     71  C   UNL A   1      37.340  32.527  30.841  1.00  0.00     0.064 A 
ATOM     72  C   UNL A   1      37.035  33.282  29.695  1.00  0.00     0.173 A 
ATOM     73  C   UNL A   1      36.312  32.393  31.793  1.00  0.00     0.173 A 
ATOM     74  F   UNL A   1      37.944  33.430  28.721  1.00  0.00    -0.203 F 
ATOM     75  C   UNL A   1      35.765  33.832  29.494  1.00  0.00     0.198 A 
ATOM     76  C   UNL A   1      35.048  32.951  31.595  1.00  0.00     0.198 A 
ATOM     77  F   UNL A   1      36.479  31.634  32.886  1.00  0.00    -0.203 F 
ATOM     78  F   UNL A   1      35.492  34.481  28.354  1.00  0.00    -0.200 F 
ATOM     79  C   UNL A   1      34.769  33.655  30.439  1.00  0.00     0.200 A 
ATOM     80  F   UNL A   1      34.083  32.745  32.503  1.00  0.00    -0.200 F 
ATOM     81  F   UNL A   1      33.533  34.123  30.216  1.00  0.00    -0.200 F 
ENDBRANCH  47  71
BRANCH  59  82
ATOM     82  C   UNL A   1      42.375  30.064  33.684  1.00  0.00     0.064 A 
ATOM     83  C   UNL A   1      41.843  28.777  33.493  1.00  0.00     0.173 A 
ATOM     84  C   UNL A   1      42.682  30.448  34.996  1.00  0.00     0.173 A 
ATOM     85  F   UNL A   1      41.619  28.297  32.263  1.00  0.00    -0.203 F 
ATOM     86  C   UNL A   1      41.589  27.934  34.575  1.00  0.00     0.198 A 
ATOM     87  C   UNL A   1      42.464  29.589  36.070  1.00  0.00     0.198 A 
ATOM     88  F   UNL A   1      43.244  31.644  35.233  1.00  0.00    -0.203 F 
ATOM     89  F   UNL A   1      41.069  26.716  34.368  1.00  0.00    -0.200 F 
ATOM     90  C   UNL A   1      41.908  28.338  35.860  1.00  0.00     0.200 A 
ATOM     91  F   UNL A   1      42.820  29.965  37.306  1.00  0.00    -0.200 F 
ATOM     92  F   UNL A   1      41.707  27.510  36.895  1.00  0.00    -0.200 F 
ENDBRANCH  59  82
ENDBRANCH  33  34
ENDBRANCH  26  28
ENDBRANCH  25  26
ENDBRANCH  24  25
ENDBRANCH  23  24
ENDBRANCH   1  23
TORSDOF 16
ENDMDL
MODEL 2
REMARK VINA RESULT:     -10.2      4.486     10.799
REMARK SMILES CNC(=O)CCn1c(SCC(=O)OCCOC(=O)c2ccc(-c3c4nc(c(-c5c(F)c(F)c(F)c(F)c5F)c5ccc([nH]5)c(-c5c(F)c(F)c(F)c(F)c5F)c5nc(c(-c6c(F)c(F)c(F)c(F)c6F)c6ccc3[nH]6)C=C5)C=C4)cc2)nc2ccc(C)cc21
REMARK SMILES IDX 13 1 11 2 12 3 10 4 9 5 8 6 7 7 89 8 82 9 83 10 88 11 84 12
REMARK SMILES IDX 86 13 85 14 87 15 6 16 5 17 3 18 1 19 2 20 4 22 14 23 15 24
REMARK SMILES IDX 16 25 17 26 18 27 19 28 20 29 81 30 21 31 80 32 22 33 23 34
REMARK SMILES IDX 24 35 74 36 25 37 79 38 73 39 75 40 26 41 78 42 72 43 71 44
REMARK SMILES IDX 27 46 59 47 39 48 58 49 40 50 43 51 57 52 76 53 41 54 42 55
REMARK SMILES IDX 56 57 77 58 44 59 28 60 29 61 37 62 30 63 31 64 35 65 38 66
REMARK SMILES IDX 32 67 33 68 36 69 34 70 60 71 61 72 69 73 62 74 63 75 67 76
REMARK SMILES IDX 70 77 64 78 65 79 68 80 66 81 45 82 46 83 54 84 47 85 48 86
REMARK SMILES IDX 52 87 55 88 49 89 50 90 53 91 51 92
REMARK H PARENT 2 21 75 45 43 56
REMARK Flexibility Score: inf
ROOT
ATOM      1  O   UNL A   1      34.730  33.719  30.812  1.00  0.00    -0.461 OA
ENDROOT
BRANCH   1   2
ATOM      2  C   UNL A   1      34.484  34.108  32.088  1.00  0.00     0.316 C 
ATOM      3  O   UNL A   1      33.803  35.087  32.387  1.00  0.00    -0.251 OA
BRANCH   2   4
ATOM      4  C   UNL A   1      35.126  33.255  33.163  1.00  0.00     0.200 C 
BRANCH   4   5
ATOM      5  S   UNL A   1      36.400  34.012  34.190  1.00  0.00    -0.076 SA
BRANCH   5   6
ATOM      6  C   UNL A   1      37.820  33.979  33.200  1.00  0.00     0.169 A 
ATOM      7  N   UNL A   1      39.077  33.779  33.713  1.00  0.00    -0.318 N 
ATOM      8  C   UNL A   1      39.980  34.184  32.753  1.00  0.00     0.069 A 
ATOM      9  N   UNL A   1      37.875  34.148  31.903  1.00  0.00    -0.222 NA
ATOM     10  C   UNL A   1      39.214  34.267  31.599  1.00  0.00     0.090 A 
ATOM     11  C   UNL A   1      41.365  34.377  32.767  1.00  0.00     0.032 A 
ATOM     12  C   UNL A   1      39.869  34.437  30.368  1.00  0.00     0.031 A 
ATOM     13  C   UNL A   1      42.008  34.578  31.536  1.00  0.00    -0.049 A 
ATOM     14  C   UNL A   1      41.265  34.581  30.349  1.00  0.00     0.006 A 
ATOM     15  C   UNL A   1      43.505  34.683  31.506  1.00  0.00     0.044 C 
BRANCH   7  16
ATOM     16  C   UNL A   1      39.437  33.016  34.897  1.00  0.00     0.135 C 
BRANCH  16  17
ATOM     17  C   UNL A   1      39.812  31.569  34.551  1.00  0.00     0.122 C 
BRANCH  17  18
ATOM     18  C   UNL A   1      38.763  30.600  35.048  1.00  0.00     0.221 C 
ATOM     19  C   UNL A   1      37.481  30.433  32.848  1.00  0.00     0.142 C 
ATOM     20  N   UNL A   1      37.745  30.185  34.248  1.00  0.00    -0.359 N 
ATOM     21  H   UNL A   1      37.075  29.621  34.697  1.00  0.00     0.163 HD
ATOM     22  O   UNL A   1      38.824  30.153  36.197  1.00  0.00    -0.275 OA
ENDBRANCH  17  18
ENDBRANCH  16  17
ENDBRANCH   7  16
ENDBRANCH   5   6
ENDBRANCH   4   5
ENDBRANCH   2   4
ENDBRANCH   1   2
BRANCH   1  23
ATOM     23  C   UNL A   1      33.950  34.344  29.766  1.00  0.00     0.274 C 
BRANCH  23  24
ATOM     24  C   UNL A   1      34.700  34.294  28.433  1.00  0.00     0.275 C 
BRANCH  24  25
ATOM     25  O   UNL A   1      35.726  33.302  28.550  1.00  0.00    -0.458 OA
BRANCH  25  26
ATOM     26  C   UNL A   1      35.426  32.059  28.110  1.00  0.00     0.338 C 
ATOM     27  O   UNL A   1      34.585  31.728  27.299  1.00  0.00    -0.246 OA
BRANCH  26  28
ATOM     28  C   UNL A   1      36.530  31.230  28.612  1.00  0.00     0.060 A 
ATOM     29  C   UNL A   1      37.668  31.824  29.148  1.00  0.00     0.016 A 
ATOM     30  C   UNL A   1      36.513  29.874  28.284  1.00  0.00     0.016 A 
ATOM     31  C   UNL A   1      38.828  31.070  29.247  1.00  0.00     0.010 A 
ATOM     32  C   UNL A   1      37.681  29.138  28.322  1.00  0.00     0.010 A 
ATOM     33  C   UNL A   1      38.843  29.750  28.773  1.00  0.00    -0.014 A 
BRANCH  33  34
ATOM     34  C   UNL A   1      40.049  28.961  28.933  1.00  0.00     0.031 A 
ATOM     35  C   UNL A   1      40.423  28.703  30.342  1.00  0.00     0.074 A 
ATOM     36  C   UNL A   1      40.744  28.369  27.944  1.00  0.00     0.049 A 
ATOM     37  N   UNL A   1      41.445  29.170  30.979  1.00  0.00    -0.248 NA
ATOM     38  C   UNL A   1      39.511  27.897  31.164  1.00  0.00     0.031 C 
ATOM     39  C   UNL A   1      40.385  28.185  26.540  1.00  0.00     0.029 A 
ATOM     40  N   UNL A   1      41.945  27.731  28.052  1.00  0.00    -0.354 N 
ATOM     41  C   UNL A   1      41.383  28.622  32.253  1.00  0.00     0.074 A 
ATOM     42  C   UNL A   1      40.119  27.937  32.349  1.00  0.00     0.031 C 
ATOM     43  C   UNL A   1      41.273  27.337  25.966  1.00  0.00     0.029 A 
ATOM     44  C   UNL A   1      42.330  27.033  26.920  1.00  0.00     0.049 A 
ATOM     45  H   UNL A   1      42.494  27.765  28.869  1.00  0.00     0.167 HD
ATOM     46  C   UNL A   1      42.454  28.629  33.088  1.00  0.00     0.037 A 
ATOM     47  C   UNL A   1      43.422  26.237  26.811  1.00  0.00     0.037 A 
ATOM     48  C   UNL A   1      43.461  29.564  32.664  1.00  0.00     0.049 A 
ATOM     49  C   UNL A   1      44.375  26.629  27.881  1.00  0.00     0.074 A 
ATOM     50  C   UNL A   1      43.486  30.932  32.473  1.00  0.00     0.029 A 
ATOM     51  N   UNL A   1      44.569  29.081  32.015  1.00  0.00    -0.354 N 
ATOM     52  N   UNL A   1      45.044  27.748  27.899  1.00  0.00    -0.248 NA
ATOM     53  C   UNL A   1      44.317  25.918  29.150  1.00  0.00     0.031 C 
ATOM     54  C   UNL A   1      44.317  31.135  31.332  1.00  0.00     0.029 A 
ATOM     55  C   UNL A   1      44.768  29.881  30.917  1.00  0.00     0.049 A 
ATOM     56  H   UNL A   1      45.117  28.308  32.284  1.00  0.00     0.167 HD
ATOM     57  C   UNL A   1      45.129  28.087  29.240  1.00  0.00     0.074 A 
ATOM     58  C   UNL A   1      44.773  26.873  29.964  1.00  0.00     0.031 C 
ATOM     59  C   UNL A   1      45.211  29.392  29.633  1.00  0.00     0.037 A 
BRANCH  46  60
ATOM     60  C   UNL A   1      42.709  27.584  34.132  1.00  0.00     0.064 A 
ATOM     61  C   UNL A   1      43.286  26.355  33.764  1.00  0.00     0.173 A 
ATOM     62  C   UNL A   1      42.160  27.644  35.431  1.00  0.00     0.173 A 
ATOM     63  F   UNL A   1      43.800  26.184  32.537  1.00  0.00    -0.203 F 
ATOM     64  C   UNL A   1      43.276  25.254  34.622  1.00  0.00     0.198 A 
ATOM     65  C   UNL A   1      42.202  26.562  36.305  1.00  0.00     0.198 A 
ATOM     66  F   UNL A   1      41.475  28.713  35.858  1.00  0.00    -0.203 F 
ATOM     67  F   UNL A   1      43.739  24.073  34.193  1.00  0.00    -0.200 F 
ATOM     68  C   UNL A   1      42.736  25.359  35.892  1.00  0.00     0.200 A 
ATOM     69  F   UNL A   1      41.653  26.675  37.523  1.00  0.00    -0.200 F 
ATOM     70  F   UNL A   1      42.682  24.290  36.698  1.00  0.00    -0.200 F 
ENDBRANCH  46  60
BRANCH  47  71
ATOM     71  C   UNL A   1      43.621  25.013  26.002  1.00  0.00     0.064 A 
ATOM     72  C   UNL A   1      44.741  24.876  25.163  1.00  0.00     0.173 A 
ATOM     73  C   UNL A   1      42.881  23.843  26.255  1.00  0.00     0.173 A 
ATOM     74  F   UNL A   1      45.523  25.933  24.900  1.00  0.00    -0.203 F 
ATOM     75  C   UNL A   1      45.122  23.635  24.645  1.00  0.00     0.198 A 
ATOM     76  C   UNL A   1      43.258  22.606  25.727  1.00  0.00     0.198 A 
ATOM     77  F   UNL A   1      41.839  23.854  27.098  1.00  0.00    -0.203 F 
ATOM     78  F   UNL A   1      46.240  23.532  23.911  1.00  0.00    -0.200 F 
ATOM     79  C   UNL A   1      44.388  22.499  24.938  1.00  0.00     0.200 A 
ATOM     80  F   UNL A   1      42.557  21.508  26.045  1.00  0.00    -0.200 F 
ATOM     81  F   UNL A   1      44.790  21.299  24.498  1.00  0.00    -0.200 F 
ENDBRANCH  47  71
BRANCH  59  82
ATOM     82  C   UNL A   1      45.512  30.423  28.582  1.00  0.00     0.064 A 
ATOM     83  C   UNL A   1      44.536  31.005  27.755  1.00  0.00     0.173 A 
ATOM     84  C   UNL A   1      46.810  30.946  28.516  1.00  0.00     0.173 A 
ATOM     85  F   UNL A   1      43.252  30.633  27.833  1.00  0.00    -0.203 F 
ATOM     86  C   UNL A   1      44.860  32.033  26.870  1.00  0.00     0.198 A 
ATOM     87  C   UNL A   1      47.122  31.999  27.659  1.00  0.00     0.198 A 
ATOM     88  F   UNL A   1      47.771  30.467  29.322  1.00  0.00    -0.203 F 
ATOM     89  F   UNL A   1      43.915  32.563  26.081  1.00  0.00    -0.200 F 
ATOM     90  C   UNL A   1      46.150  32.533  26.830  1.00  0.00     0.200 A 
ATOM     91  F   UNL A   1      48.360  32.513  27.659  1.00  0.00    -0.200 F 
ATOM     92  F   UNL A   1      46.452  33.553  26.013  1.00  0.00    -0.200 F 
ENDBRANCH  59  82
ENDBRANCH  33  34
ENDBRANCH  26  28
ENDBRANCH  25  26
ENDBRANCH  24  25
ENDBRANCH  23  24
ENDBRANCH   1  23
TORSDOF 16
ENDMDL
MODEL 3
REMARK VINA RESULT:     -10.1      5.101     10.628
REMARK SMILES CNC(=O)CCn1c(SCC(=O)OCCOC(=O)c2ccc(-c3c4nc(c(-c5c(F)c(F)c(F)c(F)c5F)c5ccc([nH]5)c(-c5c(F)c(F)c(F)c(F)c5F)c5nc(c(-c6c(F)c(F)c(F)c(F)c6F)c6ccc3[nH]6)C=C5)C=C4)cc2)nc2ccc(C)cc21
REMARK SMILES IDX 13 1 11 2 12 3 10 4 9 5 8 6 7 7 89 8 82 9 83 10 88 11 84 12
REMARK SMILES IDX 86 13 85 14 87 15 6 16 5 17 3 18 1 19 2 20 4 22 14 23 15 24
REMARK SMILES IDX 16 25 17 26 18 27 19 28 20 29 81 30 21 31 80 32 22 33 23 34
REMARK SMILES IDX 24 35 74 36 25 37 79 38 73 39 75 40 26 41 78 42 72 43 71 44
REMARK SMILES IDX 27 46 59 47 39 48 58 49 40 50 43 51 57 52 76 53 41 54 42 55
REMARK SMILES IDX 56 57 77 58 44 59 28 60 29 61 37 62 30 63 31 64 35 65 38 66
REMARK SMILES IDX 32 67 33 68 36 69 34 70 60 71 61 72 69 73 62 74 63 75 67 76
REMARK SMILES IDX 70 77 64 78 65 79 68 80 66 81 45 82 46 83 54 84 47 85 48 86
REMARK SMILES IDX 52 87 55 88 49 89 50 90 53 91 51 92
REMARK H PARENT 2 21 75 45 43 56
REMARK Flexibility Score: inf
ROOT
ATOM      1  O   UNL A   1      33.197  29.714  25.378  1.00  0.00    -0.461 OA
ENDROOT
BRANCH   1   2
ATOM      2  C   UNL A   1      32.325  28.911  24.719  1.00  0.00     0.316 C 
ATOM      3  O   UNL A   1      31.122  28.856  24.967  1.00  0.00    -0.251 OA
BRANCH   2   4
ATOM      4  C   UNL A   1      32.931  28.044  23.635  1.00  0.00     0.200 C 
BRANCH   4   5
ATOM      5  S   UNL A   1      32.109  26.488  23.243  1.00  0.00    -0.076 SA
BRANCH   5   6
ATOM      6  C   UNL A   1      33.309  25.280  23.557  1.00  0.00     0.169 A 
ATOM      7  N   UNL A   1      33.772  25.005  24.819  1.00  0.00    -0.318 N 
ATOM      8  C   UNL A   1      34.948  24.300  24.678  1.00  0.00     0.069 A 
ATOM      9  N   UNL A   1      33.909  24.524  22.672  1.00  0.00    -0.222 NA
ATOM     10  C   UNL A   1      34.929  23.894  23.352  1.00  0.00     0.090 A 
ATOM     11  C   UNL A   1      35.939  23.908  25.585  1.00  0.00     0.032 A 
ATOM     12  C   UNL A   1      35.880  22.953  22.923  1.00  0.00     0.031 A 
ATOM     13  C   UNL A   1      36.904  22.992  25.139  1.00  0.00    -0.049 A 
ATOM     14  C   UNL A   1      36.855  22.504  23.828  1.00  0.00     0.006 A 
ATOM     15  C   UNL A   1      37.918  22.471  26.116  1.00  0.00     0.044 C 
BRANCH   7  16
ATOM     16  C   UNL A   1      33.050  25.139  26.073  1.00  0.00     0.135 C 
BRANCH  16  17
ATOM     17  C   UNL A   1      31.787  24.268  26.101  1.00  0.00     0.122 C 
BRANCH  17  18
ATOM     18  C   UNL A   1      32.054  22.942  26.779  1.00  0.00     0.221 C 
ATOM     19  C   UNL A   1      32.178  21.561  24.636  1.00  0.00     0.142 C 
ATOM     20  N   UNL A   1      32.167  21.791  26.064  1.00  0.00    -0.359 N 
ATOM     21  H   UNL A   1      32.259  20.977  26.610  1.00  0.00     0.163 HD
ATOM     22  O   UNL A   1      32.190  22.887  28.004  1.00  0.00    -0.275 OA
ENDBRANCH  17  18
ENDBRANCH  16  17
ENDBRANCH   7  16
ENDBRANCH   5   6
ENDBRANCH   4   5
ENDBRANCH   2   4
ENDBRANCH   1   2
BRANCH   1  23
ATOM     23  C   UNL A   1      33.017  29.858  26.806  1.00  0.00     0.274 C 
BRANCH  23  24
ATOM     24  C   UNL A   1      33.255  31.308  27.235  1.00  0.00     0.275 C 
BRANCH  24  25
ATOM     25  O   UNL A   1      34.271  31.300  28.245  1.00  0.00    -0.458 OA
BRANCH  25  26
ATOM     26  C   UNL A   1      35.384  32.026  27.996  1.00  0.00     0.338 C 
ATOM     27  O   UNL A   1      35.467  33.186  27.645  1.00  0.00    -0.246 OA
BRANCH  26  28
ATOM     28  C   UNL A   1      36.475  31.191  28.517  1.00  0.00     0.060 A 
ATOM     29  C   UNL A   1      37.620  31.779  29.046  1.00  0.00     0.016 A 
ATOM     30  C   UNL A   1      36.440  29.830  28.214  1.00  0.00     0.016 A 
ATOM     31  C   UNL A   1      38.768  31.011  29.164  1.00  0.00     0.010 A 
ATOM     32  C   UNL A   1      37.598  29.079  28.270  1.00  0.00     0.010 A 
ATOM     33  C   UNL A   1      38.767  29.683  28.714  1.00  0.00    -0.014 A 
BRANCH  33  34
ATOM     34  C   UNL A   1      39.962  28.880  28.892  1.00  0.00     0.031 A 
ATOM     35  C   UNL A   1      40.312  28.622  30.307  1.00  0.00     0.074 A 
ATOM     36  C   UNL A   1      40.664  28.278  27.915  1.00  0.00     0.049 A 
ATOM     37  N   UNL A   1      41.331  29.078  30.958  1.00  0.00    -0.248 NA
ATOM     38  C   UNL A   1      39.380  27.828  31.118  1.00  0.00     0.031 C 
ATOM     39  C   UNL A   1      40.322  28.094  26.507  1.00  0.00     0.029 A 
ATOM     40  N   UNL A   1      41.855  27.626  28.041  1.00  0.00    -0.354 N 
ATOM     41  C   UNL A   1      41.244  28.534  32.232  1.00  0.00     0.074 A 
ATOM     42  C   UNL A   1      39.971  27.864  32.311  1.00  0.00     0.031 C 
ATOM     43  C   UNL A   1      41.208  27.234  25.947  1.00  0.00     0.029 A 
ATOM     44  C   UNL A   1      42.248  26.921  26.916  1.00  0.00     0.049 A 
ATOM     45  H   UNL A   1      42.393  27.656  28.865  1.00  0.00     0.167 HD
ATOM     46  C   UNL A   1      42.304  28.531  33.082  1.00  0.00     0.037 A 
ATOM     47  C   UNL A   1      43.332  26.113  26.824  1.00  0.00     0.037 A 
ATOM     48  C   UNL A   1      43.327  29.453  32.670  1.00  0.00     0.049 A 
ATOM     49  C   UNL A   1      44.275  26.496  27.906  1.00  0.00     0.074 A 
ATOM     50  C   UNL A   1      43.371  30.820  32.476  1.00  0.00     0.029 A 
ATOM     51  N   UNL A   1      44.438  28.955  32.037  1.00  0.00    -0.354 N 
ATOM     52  N   UNL A   1      44.956  27.607  27.932  1.00  0.00    -0.248 NA
ATOM     53  C   UNL A   1      44.190  25.789  29.176  1.00  0.00     0.031 C 
ATOM     54  C   UNL A   1      44.220  31.010  31.346  1.00  0.00     0.029 A 
ATOM     55  C   UNL A   1      44.662  29.750  30.941  1.00  0.00     0.049 A 
ATOM     56  H   UNL A   1      44.973  28.177  32.316  1.00  0.00     0.167 HD
ATOM     57  C   UNL A   1      45.026  27.948  29.273  1.00  0.00     0.074 A 
ATOM     58  C   UNL A   1      44.646  26.740  29.994  1.00  0.00     0.031 C 
ATOM     59  C   UNL A   1      45.117  29.253  29.664  1.00  0.00     0.037 A 
BRANCH  46  60
ATOM     60  C   UNL A   1      42.532  27.485  34.131  1.00  0.00     0.064 A 
ATOM     61  C   UNL A   1      43.168  26.278  33.789  1.00  0.00     0.173 A 
ATOM     62  C   UNL A   1      41.908  27.517  35.397  1.00  0.00     0.173 A 
ATOM     63  F   UNL A   1      43.756  26.133  32.592  1.00  0.00    -0.203 F 
ATOM     64  C   UNL A   1      43.144  25.170  34.638  1.00  0.00     0.198 A 
ATOM     65  C   UNL A   1      41.934  26.429  36.264  1.00  0.00     0.198 A 
ATOM     66  F   UNL A   1      41.165  28.560  35.791  1.00  0.00    -0.203 F 
ATOM     67  F   UNL A   1      43.668  24.007  34.228  1.00  0.00    -0.200 F 
ATOM     68  C   UNL A   1      42.528  25.246  35.875  1.00  0.00     0.200 A 
ATOM     69  F   UNL A   1      41.313  26.514  37.450  1.00  0.00    -0.200 F 
ATOM     70  F   UNL A   1      42.463  24.170  36.669  1.00  0.00    -0.200 F 
ENDBRANCH  46  60
BRANCH  47  71
ATOM     71  C   UNL A   1      43.528  24.884  26.021  1.00  0.00     0.064 A 
ATOM     72  C   UNL A   1      44.677  24.716  25.229  1.00  0.00     0.173 A 
ATOM     73  C   UNL A   1      42.745  23.735  26.240  1.00  0.00     0.173 A 
ATOM     74  F   UNL A   1      45.500  25.749  25.000  1.00  0.00    -0.203 F 
ATOM     75  C   UNL A   1      45.043  23.464  24.723  1.00  0.00     0.198 A 
ATOM     76  C   UNL A   1      43.106  22.489  25.725  1.00  0.00     0.198 A 
ATOM     77  F   UNL A   1      41.670  23.777  27.039  1.00  0.00    -0.203 F 
ATOM     78  F   UNL A   1      46.186  23.330  24.036  1.00  0.00    -0.200 F 
ATOM     79  C   UNL A   1      44.264  22.350  24.983  1.00  0.00     0.200 A 
ATOM     80  F   UNL A   1      42.361  21.412  26.011  1.00  0.00    -0.200 F 
ATOM     81  F   UNL A   1      44.649  21.139  24.556  1.00  0.00    -0.200 F 
ENDBRANCH  47  71
BRANCH  59  82
ATOM     82  C   UNL A   1      45.445  30.278  28.616  1.00  0.00     0.064 A 
ATOM     83  C   UNL A   1      44.489  30.861  27.765  1.00  0.00     0.173 A 
ATOM     84  C   UNL A   1      46.747  30.796  28.574  1.00  0.00     0.173 A 
ATOM     85  F   UNL A   1      43.203  30.494  27.818  1.00  0.00    -0.203 F 
ATOM     86  C   UNL A   1      44.837  31.882  26.882  1.00  0.00     0.198 A 
ATOM     87  C   UNL A   1      47.081  31.843  27.720  1.00  0.00     0.198 A 
ATOM     88  F   UNL A   1      47.688  30.316  29.403  1.00  0.00    -0.203 F 
ATOM     89  F   UNL A   1      43.910  32.414  26.072  1.00  0.00    -0.200 F 
ATOM     90  C   UNL A   1      46.130  32.378  26.868  1.00  0.00     0.200 A 
ATOM     91  F   UNL A   1      48.321  32.352  27.744  1.00  0.00    -0.200 F 
ATOM     92  F   UNL A   1      46.453  33.392  26.053  1.00  0.00    -0.200 F 
ENDBRANCH  59  82
ENDBRANCH  33  34
ENDBRANCH  26  28
ENDBRANCH  25  26
ENDBRANCH  24  25
ENDBRANCH  23  24
ENDBRANCH   1  23
TORSDOF 16
ENDMDL
