MODEL 1
REMARK VINA RESULT:     -12.1      0.000      0.000
REMARK SMILES O=C(OCCOC(=O)c1ccc(-c2c3nc(c(-c4c(F)c(F)c(F)c(F)c4F)c4ccc([nH]4)c(-c4c(F)c(F)c(F)c(F)c4F)c4nc(c(-c5c(F)c(F)c(F)c(F)c5F)c5ccc2[nH]5)C=C4)C=C3)cc1)c1ccc(CN2CCCCC2=O)cc1
REMARK SMILES IDX 4 1 3 2 2 3 1 4 72 5 73 6 85 7 74 8 84 9 75 10 76 11 77 12
REMARK SMILES IDX 78 13 82 14 79 15 81 16 83 17 80 18 5 19 6 20 7 21 8 22 9 23
REMARK SMILES IDX 10 24 71 25 11 26 70 27 12 28 13 29 14 30 64 31 15 32 69 33
REMARK SMILES IDX 63 34 65 35 16 36 68 37 62 38 61 39 17 41 49 42 29 43 48 44
REMARK SMILES IDX 30 45 33 46 47 47 66 48 31 49 32 50 46 52 67 53 34 54 18 55
REMARK SMILES IDX 19 56 27 57 20 58 21 59 25 60 28 61 22 62 23 63 26 64 24 65
REMARK SMILES IDX 50 66 51 67 59 68 52 69 53 70 57 71 60 72 54 73 55 74 58 75
REMARK SMILES IDX 56 76 35 77 36 78 44 79 37 80 38 81 42 82 45 83 39 84 40 85
REMARK SMILES IDX 43 86 41 87
REMARK H PARENT 65 40 33 51
REMARK Flexibility Score: inf
ROOT
ATOM      1  C   UNL A   1      31.601  30.261  25.765  1.00  0.00     0.275 C 
ENDROOT
BRANCH   1   2
ATOM      2  O   UNL A   1      32.323  29.214  26.448  1.00  0.00    -0.458 OA
BRANCH   2   3
ATOM      3  C   UNL A   1      31.936  27.963  26.804  1.00  0.00     0.338 C 
ATOM      4  O   UNL A   1      31.094  27.846  27.694  1.00  0.00    -0.246 OA
BRANCH   3   5
ATOM      5  C   UNL A   1      32.555  26.700  26.276  1.00  0.00     0.060 A 
ATOM      6  C   UNL A   1      33.748  26.617  25.569  1.00  0.00     0.016 A 
ATOM      7  C   UNL A   1      31.907  25.483  26.578  1.00  0.00     0.016 A 
ATOM      8  C   UNL A   1      34.322  25.387  25.262  1.00  0.00     0.006 A 
ATOM      9  C   UNL A   1      32.457  24.239  26.215  1.00  0.00     0.006 A 
ATOM     10  C   UNL A   1      33.687  24.180  25.560  1.00  0.00    -0.029 A 
BRANCH  10  11
ATOM     11  C   UNL A   1      34.354  22.871  25.181  1.00  0.00     0.155 C 
BRANCH  11  12
ATOM     12  N   UNL A   1      33.404  21.972  24.523  1.00  0.00    -0.338 N 
ATOM     13  C   UNL A   1      33.005  22.296  23.162  1.00  0.00     0.120 C 
ATOM     14  C   UNL A   1      33.080  20.775  25.140  1.00  0.00     0.222 C 
ATOM     15  C   UNL A   1      31.899  21.390  22.652  1.00  0.00     0.022 C 
ATOM     16  C   UNL A   1      32.617  19.625  24.259  1.00  0.00     0.100 C 
ATOM     17  O   UNL A   1      33.254  20.580  26.345  1.00  0.00    -0.275 OA
ATOM     18  C   UNL A   1      32.361  19.955  22.799  1.00  0.00     0.012 C 
ENDBRANCH  11  12
ENDBRANCH  10  11
ENDBRANCH   3   5
ENDBRANCH   2   3
ENDBRANCH   1   2
BRANCH   1  19
ATOM     19  C   UNL A   1      31.691  31.626  26.465  1.00  0.00     0.275 C 
BRANCH  19  20
ATOM     20  O   UNL A   1      32.556  31.601  27.614  1.00  0.00    -0.458 OA
BRANCH  20  21
ATOM     21  C   UNL A   1      33.432  32.633  27.685  1.00  0.00     0.338 C 
ATOM     22  O   UNL A   1      33.154  33.819  27.595  1.00  0.00    -0.246 OA
BRANCH  21  23
ATOM     23  C   UNL A   1      34.797  32.157  28.025  1.00  0.00     0.060 A 
ATOM     24  C   UNL A   1      34.953  30.785  28.257  1.00  0.00     0.016 A 
ATOM     25  C   UNL A   1      35.900  33.009  28.149  1.00  0.00     0.016 A 
ATOM     26  C   UNL A   1      36.181  30.275  28.683  1.00  0.00     0.010 A 
ATOM     27  C   UNL A   1      37.140  32.491  28.558  1.00  0.00     0.010 A 
ATOM     28  C   UNL A   1      37.277  31.127  28.877  1.00  0.00    -0.014 A 
BRANCH  28  29
ATOM     29  C   UNL A   1      38.486  30.598  29.566  1.00  0.00     0.031 A 
ATOM     30  C   UNL A   1      38.738  30.976  31.004  1.00  0.00     0.074 A 
ATOM     31  C   UNL A   1      39.315  29.722  28.968  1.00  0.00     0.049 A 
ATOM     32  N   UNL A   1      39.636  30.516  31.841  1.00  0.00    -0.248 NA
ATOM     33  C   UNL A   1      37.863  32.011  31.575  1.00  0.00     0.031 C 
ATOM     34  C   UNL A   1      39.198  29.251  27.591  1.00  0.00     0.029 A 
ATOM     35  N   UNL A   1      40.415  29.056  29.459  1.00  0.00    -0.354 N 
ATOM     36  C   UNL A   1      39.421  31.190  33.036  1.00  0.00     0.074 A 
ATOM     37  C   UNL A   1      38.350  32.134  32.800  1.00  0.00     0.031 C 
ATOM     38  C   UNL A   1      40.180  28.365  27.348  1.00  0.00     0.029 A 
ATOM     39  C   UNL A   1      40.996  28.204  28.552  1.00  0.00     0.049 A 
ATOM     40  H   UNL A   1      40.754  29.180  30.374  1.00  0.00     0.167 HD
ATOM     41  C   UNL A   1      40.035  31.025  34.232  1.00  0.00     0.037 A 
ATOM     42  C   UNL A   1      42.053  27.378  28.682  1.00  0.00     0.037 A 
ATOM     43  C   UNL A   1      41.099  30.091  34.489  1.00  0.00     0.049 A 
ATOM     44  C   UNL A   1      42.759  27.253  30.011  1.00  0.00     0.074 A 
ATOM     45  C   UNL A   1      41.746  29.828  35.685  1.00  0.00     0.029 A 
ATOM     46  N   UNL A   1      41.683  29.276  33.532  1.00  0.00    -0.354 N 
ATOM     47  N   UNL A   1      42.484  27.825  31.156  1.00  0.00    -0.248 NA
ATOM     48  C   UNL A   1      43.915  26.343  30.063  1.00  0.00     0.031 C 
ATOM     49  C   UNL A   1      42.760  28.895  35.440  1.00  0.00     0.029 A 
ATOM     50  C   UNL A   1      42.705  28.533  34.105  1.00  0.00     0.049 A 
ATOM     51  H   UNL A   1      41.411  29.231  32.587  1.00  0.00     0.167 HD
ATOM     52  C   UNL A   1      43.396  27.310  32.072  1.00  0.00     0.074 A 
ATOM     53  C   UNL A   1      44.231  26.375  31.350  1.00  0.00     0.031 C 
ATOM     54  C   UNL A   1      43.522  27.584  33.393  1.00  0.00     0.037 A 
BRANCH  41  55
ATOM     55  C   UNL A   1      39.569  31.889  35.368  1.00  0.00     0.064 A 
ATOM     56  C   UNL A   1      40.063  33.190  35.550  1.00  0.00     0.173 A 
ATOM     57  C   UNL A   1      38.597  31.421  36.263  1.00  0.00     0.173 A 
ATOM     58  F   UNL A   1      41.002  33.678  34.725  1.00  0.00    -0.203 F 
ATOM     59  C   UNL A   1      39.622  33.980  36.607  1.00  0.00     0.198 A 
ATOM     60  C   UNL A   1      38.137  32.226  37.302  1.00  0.00     0.198 A 
ATOM     61  F   UNL A   1      38.089  30.187  36.128  1.00  0.00    -0.203 F 
ATOM     62  F   UNL A   1      40.142  35.201  36.792  1.00  0.00    -0.200 F 
ATOM     63  C   UNL A   1      38.655  33.501  37.478  1.00  0.00     0.200 A 
ATOM     64  F   UNL A   1      37.192  31.766  38.134  1.00  0.00    -0.200 F 
ATOM     65  F   UNL A   1      38.226  34.264  38.493  1.00  0.00    -0.200 F 
ENDBRANCH  41  55
BRANCH  42  66
ATOM     66  C   UNL A   1      42.507  26.558  27.527  1.00  0.00     0.064 A 
ATOM     67  C   UNL A   1      41.982  25.277  27.299  1.00  0.00     0.173 A 
ATOM     68  C   UNL A   1      43.516  27.013  26.667  1.00  0.00     0.173 A 
ATOM     69  F   UNL A   1      41.036  24.787  28.113  1.00  0.00    -0.203 F 
ATOM     70  C   UNL A   1      42.470  24.472  26.271  1.00  0.00     0.198 A 
ATOM     71  C   UNL A   1      43.984  26.217  25.624  1.00  0.00     0.198 A 
ATOM     72  F   UNL A   1      44.053  28.229  26.844  1.00  0.00    -0.203 F 
ATOM     73  F   UNL A   1      41.994  23.229  26.114  1.00  0.00    -0.200 F 
ATOM     74  C   UNL A   1      43.469  24.944  25.433  1.00  0.00     0.200 A 
ATOM     75  F   UNL A   1      44.945  26.678  24.812  1.00  0.00    -0.200 F 
ATOM     76  F   UNL A   1      43.945  24.165  24.452  1.00  0.00    -0.200 F 
ENDBRANCH  42  66
BRANCH  54  77
ATOM     77  C   UNL A   1      44.561  26.825  34.172  1.00  0.00     0.064 A 
ATOM     78  C   UNL A   1      44.286  25.583  34.764  1.00  0.00     0.173 A 
ATOM     79  C   UNL A   1      45.864  27.332  34.295  1.00  0.00     0.173 A 
ATOM     80  F   UNL A   1      43.054  25.056  34.688  1.00  0.00    -0.203 F 
ATOM     81  C   UNL A   1      45.267  24.894  35.475  1.00  0.00     0.198 A 
ATOM     82  C   UNL A   1      46.851  26.626  34.978  1.00  0.00     0.198 A 
ATOM     83  F   UNL A   1      46.187  28.511  33.740  1.00  0.00    -0.203 F 
ATOM     84  F   UNL A   1      44.966  23.734  36.076  1.00  0.00    -0.200 F 
ATOM     85  C   UNL A   1      46.549  25.412  35.575  1.00  0.00     0.200 A 
ATOM     86  F   UNL A   1      48.094  27.121  35.059  1.00  0.00    -0.200 F 
ATOM     87  F   UNL A   1      47.493  24.745  36.254  1.00  0.00    -0.200 F 
ENDBRANCH  54  77
ENDBRANCH  28  29
ENDBRANCH  21  23
ENDBRANCH  20  21
ENDBRANCH  19  20
ENDBRANCH   1  19
TORSDOF 13
ENDMDL
MODEL 2
REMARK VINA RESULT:     -12.0      4.277     10.095
REMARK SMILES O=C(OCCOC(=O)c1ccc(-c2c3nc(c(-c4c(F)c(F)c(F)c(F)c4F)c4ccc([nH]4)c(-c4c(F)c(F)c(F)c(F)c4F)c4nc(c(-c5c(F)c(F)c(F)c(F)c5F)c5ccc2[nH]5)C=C4)C=C3)cc1)c1ccc(CN2CCCCC2=O)cc1
REMARK SMILES IDX 4 1 3 2 2 3 1 4 72 5 73 6 85 7 74 8 84 9 75 10 76 11 77 12
REMARK SMILES IDX 78 13 82 14 79 15 81 16 83 17 80 18 5 19 6 20 7 21 8 22 9 23
REMARK SMILES IDX 10 24 71 25 11 26 70 27 12 28 13 29 14 30 64 31 15 32 69 33
REMARK SMILES IDX 63 34 65 35 16 36 68 37 62 38 61 39 17 41 49 42 29 43 48 44
REMARK SMILES IDX 30 45 33 46 47 47 66 48 31 49 32 50 46 52 67 53 34 54 18 55
REMARK SMILES IDX 19 56 27 57 20 58 21 59 25 60 28 61 22 62 23 63 26 64 24 65
REMARK SMILES IDX 50 66 51 67 59 68 52 69 53 70 57 71 60 72 54 73 55 74 58 75
REMARK SMILES IDX 56 76 35 77 36 78 44 79 37 80 38 81 42 82 45 83 39 84 40 85
REMARK SMILES IDX 43 86 41 87
REMARK H PARENT 65 40 33 51
REMARK Flexibility Score: inf
ROOT
ATOM      1  C   UNL A   1      36.214  20.323  24.988  1.00  0.00     0.275 C 
ENDROOT
BRANCH   1   2
ATOM      2  O   UNL A   1      35.915  21.724  25.162  1.00  0.00    -0.458 OA
BRANCH   2   3
ATOM      3  C   UNL A   1      35.693  22.699  24.245  1.00  0.00     0.338 C 
ATOM      4  O   UNL A   1      36.358  22.687  23.210  1.00  0.00    -0.246 OA
BRANCH   3   5
ATOM      5  C   UNL A   1      34.776  23.871  24.456  1.00  0.00     0.060 A 
ATOM      6  C   UNL A   1      34.373  24.372  25.687  1.00  0.00     0.016 A 
ATOM      7  C   UNL A   1      34.336  24.567  23.310  1.00  0.00     0.016 A 
ATOM      8  C   UNL A   1      33.653  25.559  25.784  1.00  0.00     0.006 A 
ATOM      9  C   UNL A   1      33.557  25.735  23.404  1.00  0.00     0.006 A 
ATOM     10  C   UNL A   1      33.217  26.253  24.654  1.00  0.00    -0.029 A 
BRANCH  10  11
ATOM     11  C   UNL A   1      32.417  27.531  24.824  1.00  0.00     0.155 C 
BRANCH  11  12
ATOM     12  N   UNL A   1      31.137  27.444  24.119  1.00  0.00    -0.338 N 
ATOM     13  C   UNL A   1      30.134  26.538  24.659  1.00  0.00     0.120 C 
ATOM     14  C   UNL A   1      30.870  28.348  23.105  1.00  0.00     0.222 C 
ATOM     15  C   UNL A   1      28.922  26.412  23.753  1.00  0.00     0.022 C 
ATOM     16  C   UNL A   1      29.414  28.661  22.798  1.00  0.00     0.100 C 
ATOM     17  O   UNL A   1      31.758  28.976  22.524  1.00  0.00    -0.275 OA
ATOM     18  C   UNL A   1      28.376  27.802  23.501  1.00  0.00     0.012 C 
ENDBRANCH  11  12
ENDBRANCH  10  11
ENDBRANCH   3   5
ENDBRANCH   2   3
ENDBRANCH   1   2
BRANCH   1  19
ATOM     19  C   UNL A   1      37.719  20.010  25.001  1.00  0.00     0.275 C 
BRANCH  19  20
ATOM     20  O   UNL A   1      38.520  21.167  25.297  1.00  0.00    -0.458 OA
BRANCH  20  21
ATOM     21  C   UNL A   1      39.573  20.930  26.119  1.00  0.00     0.338 C 
ATOM     22  O   UNL A   1      40.184  19.877  26.218  1.00  0.00    -0.246 OA
BRANCH  21  23
ATOM     23  C   UNL A   1      40.001  22.171  26.814  1.00  0.00     0.060 A 
ATOM     24  C   UNL A   1      39.338  23.355  26.471  1.00  0.00     0.016 A 
ATOM     25  C   UNL A   1      41.037  22.206  27.755  1.00  0.00     0.016 A 
ATOM     26  C   UNL A   1      39.752  24.577  27.003  1.00  0.00     0.010 A 
ATOM     27  C   UNL A   1      41.438  23.434  28.305  1.00  0.00     0.010 A 
ATOM     28  C   UNL A   1      40.832  24.636  27.894  1.00  0.00    -0.014 A 
BRANCH  28  29
ATOM     29  C   UNL A   1      41.404  25.966  28.243  1.00  0.00     0.031 A 
ATOM     30  C   UNL A   1      42.785  26.323  27.754  1.00  0.00     0.074 A 
ATOM     31  C   UNL A   1      40.689  26.891  28.910  1.00  0.00     0.049 A 
ATOM     32  N   UNL A   1      43.416  27.471  27.808  1.00  0.00    -0.248 NA
ATOM     33  C   UNL A   1      43.558  25.245  27.121  1.00  0.00     0.031 C 
ATOM     34  C   UNL A   1      39.340  26.701  29.436  1.00  0.00     0.029 A 
ATOM     35  N   UNL A   1      40.999  28.190  29.242  1.00  0.00    -0.354 N 
ATOM     36  C   UNL A   1      44.647  27.257  27.202  1.00  0.00     0.074 A 
ATOM     37  C   UNL A   1      44.700  25.856  26.843  1.00  0.00     0.031 C 
ATOM     38  C   UNL A   1      38.933  27.844  30.016  1.00  0.00     0.029 A 
ATOM     39  C   UNL A   1      39.991  28.848  29.903  1.00  0.00     0.049 A 
ATOM     40  H   UNL A   1      41.863  28.608  29.026  1.00  0.00     0.167 HD
ATOM     41  C   UNL A   1      45.636  28.144  26.940  1.00  0.00     0.037 A 
ATOM     42  C   UNL A   1      39.923  30.118  30.351  1.00  0.00     0.037 A 
ATOM     43  C   UNL A   1      45.602  29.540  27.285  1.00  0.00     0.049 A 
ATOM     44  C   UNL A   1      41.063  31.074  30.096  1.00  0.00     0.074 A 
ATOM     45  C   UNL A   1      46.544  30.518  27.015  1.00  0.00     0.029 A 
ATOM     46  N   UNL A   1      44.579  30.155  27.988  1.00  0.00    -0.354 N 
ATOM     47  N   UNL A   1      42.179  30.882  29.439  1.00  0.00    -0.248 NA
ATOM     48  C   UNL A   1      40.916  32.436  30.635  1.00  0.00     0.031 C 
ATOM     49  C   UNL A   1      46.118  31.714  27.603  1.00  0.00     0.029 A 
ATOM     50  C   UNL A   1      44.882  31.494  28.189  1.00  0.00     0.049 A 
ATOM     51  H   UNL A   1      43.759  29.708  28.299  1.00  0.00     0.167 HD
ATOM     52  C   UNL A   1      42.842  32.105  29.441  1.00  0.00     0.074 A 
ATOM     53  C   UNL A   1      42.001  33.036  30.162  1.00  0.00     0.031 C 
ATOM     54  C   UNL A   1      44.036  32.426  28.887  1.00  0.00     0.037 A 
BRANCH  41  55
ATOM     55  C   UNL A   1      46.858  27.622  26.241  1.00  0.00     0.064 A 
ATOM     56  C   UNL A   1      46.988  27.683  24.845  1.00  0.00     0.173 A 
ATOM     57  C   UNL A   1      47.923  27.085  26.979  1.00  0.00     0.173 A 
ATOM     58  F   UNL A   1      45.991  28.179  24.095  1.00  0.00    -0.203 F 
ATOM     59  C   UNL A   1      48.126  27.196  24.211  1.00  0.00     0.198 A 
ATOM     60  C   UNL A   1      49.073  26.626  26.343  1.00  0.00     0.198 A 
ATOM     61  F   UNL A   1      47.851  27.011  28.316  1.00  0.00    -0.203 F 
ATOM     62  F   UNL A   1      48.209  27.219  22.874  1.00  0.00    -0.200 F 
ATOM     63  C   UNL A   1      49.171  26.674  24.960  1.00  0.00     0.200 A 
ATOM     64  F   UNL A   1      50.087  26.135  27.069  1.00  0.00    -0.200 F 
ATOM     65  F   UNL A   1      50.270  26.211  24.348  1.00  0.00    -0.200 F 
ENDBRANCH  41  55
BRANCH  42  66
ATOM     66  C   UNL A   1      38.708  30.593  31.066  1.00  0.00     0.064 A 
ATOM     67  C   UNL A   1      37.613  31.115  30.362  1.00  0.00     0.173 A 
ATOM     68  C   UNL A   1      38.644  30.592  32.466  1.00  0.00     0.173 A 
ATOM     69  F   UNL A   1      37.640  31.164  29.022  1.00  0.00    -0.203 F 
ATOM     70  C   UNL A   1      36.512  31.644  31.033  1.00  0.00     0.198 A 
ATOM     71  C   UNL A   1      37.532  31.098  33.135  1.00  0.00     0.198 A 
ATOM     72  F   UNL A   1      39.667  30.108  33.186  1.00  0.00    -0.203 F 
ATOM     73  F   UNL A   1      35.506  32.192  30.337  1.00  0.00    -0.200 F 
ATOM     74  C   UNL A   1      36.471  31.632  32.419  1.00  0.00     0.200 A 
ATOM     75  F   UNL A   1      37.493  31.079  34.474  1.00  0.00    -0.200 F 
ATOM     76  F   UNL A   1      35.417  32.151  33.064  1.00  0.00    -0.200 F 
ENDBRANCH  42  66
BRANCH  54  77
ATOM     77  C   UNL A   1      44.491  33.858  28.979  1.00  0.00     0.064 A 
ATOM     78  C   UNL A   1      44.146  34.811  28.010  1.00  0.00     0.173 A 
ATOM     79  C   UNL A   1      45.253  34.289  30.077  1.00  0.00     0.173 A 
ATOM     80  F   UNL A   1      43.429  34.453  26.934  1.00  0.00    -0.203 F 
ATOM     81  C   UNL A   1      44.573  36.134  28.121  1.00  0.00     0.198 A 
ATOM     82  C   UNL A   1      45.650  35.618  30.201  1.00  0.00     0.198 A 
ATOM     83  F   UNL A   1      45.604  33.422  31.040  1.00  0.00    -0.203 F 
ATOM     84  F   UNL A   1      44.274  37.015  27.155  1.00  0.00    -0.200 F 
ATOM     85  C   UNL A   1      45.317  36.537  29.218  1.00  0.00     0.200 A 
ATOM     86  F   UNL A   1      46.355  36.009  31.271  1.00  0.00    -0.200 F 
ATOM     87  F   UNL A   1      45.721  37.811  29.326  1.00  0.00    -0.200 F 
ENDBRANCH  54  77
ENDBRANCH  28  29
ENDBRANCH  21  23
ENDBRANCH  20  21
ENDBRANCH  19  20
ENDBRANCH   1  19
TORSDOF 13
ENDMDL
MODEL 3
REMARK VINA RESULT:     -11.9      6.946     14.449
REMARK SMILES O=C(OCCOC(=O)c1ccc(-c2c3nc(c(-c4c(F)c(F)c(F)c(F)c4F)c4ccc([nH]4)c(-c4c(F)c(F)c(F)c(F)c4F)c4nc(c(-c5c(F)c(F)c(F)c(F)c5F)c5ccc2[nH]5)C=C4)C=C3)cc1)c1ccc(CN2CCCCC2=O)cc1
REMARK SMILES IDX 4 1 3 2 2 3 1 4 72 5 73 6 85 7 74 8 84 9 75 10 76 11 77 12
REMARK SMILES IDX 78 13 82 14 79 15 81 16 83 17 80 18 5 19 6 20 7 21 8 22 9 23
REMARK SMILES IDX 10 24 71 25 11 26 70 27 12 28 13 29 14 30 64 31 15 32 69 33
REMARK SMILES IDX 63 34 65 35 16 36 68 37 62 38 61 39 17 41 49 42 29 43 48 44
REMARK SMILES IDX 30 45 33 46 47 47 66 48 31 49 32 50 46 52 67 53 34 54 18 55
REMARK SMILES IDX 19 56 27 57 20 58 21 59 25 60 28 61 22 62 23 63 26 64 24 65
REMARK SMILES IDX 50 66 51 67 59 68 52 69 53 70 57 71 60 72 54 73 55 74 58 75
REMARK SMILES IDX 56 76 35 77 36 78 44 79 37 80 38 81 42 82 45 83 39 84 40 85
REMARK SMILES IDX 43 86 41 87
REMARK H PARENT 65 40 33 51
REMARK Flexibility Score: inf
ROOT
ATOM      1  C   UNL A   1      46.371  20.814  38.133  1.00  0.00     0.275 C 
ENDROOT
BRANCH   1   2
ATOM      2  O   UNL A   1      45.983  19.425  38.108  1.00  0.00    -0.458 OA
BRANCH   2   3
ATOM      3  C   UNL A   1      46.221  18.426  38.996  1.00  0.00     0.338 C 
ATOM      4  O   UNL A   1      47.391  18.157  39.269  1.00  0.00    -0.246 OA
BRANCH   3   5
ATOM      5  C   UNL A   1      45.160  17.537  39.579  1.00  0.00     0.060 A 
ATOM      6  C   UNL A   1      44.723  17.555  40.898  1.00  0.00     0.016 A 
ATOM      7  C   UNL A   1      44.498  16.651  38.702  1.00  0.00     0.016 A 
ATOM      8  C   UNL A   1      43.624  16.806  41.306  1.00  0.00     0.006 A 
ATOM      9  C   UNL A   1      43.424  15.849  39.127  1.00  0.00     0.006 A 
ATOM     10  C   UNL A   1      42.965  15.930  40.442  1.00  0.00    -0.029 A 
BRANCH  10  11
ATOM     11  C   UNL A   1      41.784  15.125  40.952  1.00  0.00     0.155 C 
BRANCH  11  12
ATOM     12  N   UNL A   1      42.235  13.998  41.772  1.00  0.00    -0.338 N 
ATOM     13  C   UNL A   1      42.774  14.300  43.089  1.00  0.00     0.120 C 
ATOM     14  C   UNL A   1      41.959  12.710  41.346  1.00  0.00     0.222 C 
ATOM     15  C   UNL A   1      43.357  13.075  43.770  1.00  0.00     0.022 C 
ATOM     16  C   UNL A   1      41.870  11.618  42.400  1.00  0.00     0.100 C 
ATOM     17  O   UNL A   1      41.684  12.442  40.174  1.00  0.00    -0.275 OA
ATOM     18  C   UNL A   1      42.286  12.004  43.809  1.00  0.00     0.012 C 
ENDBRANCH  11  12
ENDBRANCH  10  11
ENDBRANCH   3   5
ENDBRANCH   2   3
ENDBRANCH   1   2
BRANCH   1  19
ATOM     19  C   UNL A   1      46.234  21.514  36.772  1.00  0.00     0.275 C 
BRANCH  19  20
ATOM     20  O   UNL A   1      45.978  22.924  36.900  1.00  0.00    -0.458 OA
BRANCH  20  21
ATOM     21  C   UNL A   1      46.621  23.700  35.992  1.00  0.00     0.338 C 
ATOM     22  O   UNL A   1      47.721  23.478  35.510  1.00  0.00    -0.246 OA
BRANCH  21  23
ATOM     23  C   UNL A   1      45.759  24.820  35.536  1.00  0.00     0.060 A 
ATOM     24  C   UNL A   1      44.374  24.625  35.600  1.00  0.00     0.016 A 
ATOM     25  C   UNL A   1      46.265  26.022  35.029  1.00  0.00     0.016 A 
ATOM     26  C   UNL A   1      43.500  25.588  35.094  1.00  0.00     0.010 A 
ATOM     27  C   UNL A   1      45.383  26.999  34.539  1.00  0.00     0.010 A 
ATOM     28  C   UNL A   1      43.995  26.767  34.521  1.00  0.00    -0.014 A 
BRANCH  28  29
ATOM     29  C   UNL A   1      43.060  27.650  33.770  1.00  0.00     0.031 A 
ATOM     30  C   UNL A   1      42.887  27.444  32.285  1.00  0.00     0.074 A 
ATOM     31  C   UNL A   1      42.299  28.568  34.394  1.00  0.00     0.049 A 
ATOM     32  N   UNL A   1      42.022  27.990  31.465  1.00  0.00    -0.248 NA
ATOM     33  C   UNL A   1      43.812  26.501  31.640  1.00  0.00     0.031 C 
ATOM     34  C   UNL A   1      42.342  28.875  35.820  1.00  0.00     0.029 A 
ATOM     35  N   UNL A   1      41.323  29.403  33.899  1.00  0.00    -0.354 N 
ATOM     36  C   UNL A   1      42.287  27.442  30.216  1.00  0.00     0.074 A 
ATOM     37  C   UNL A   1      43.431  26.570  30.374  1.00  0.00     0.031 C 
ATOM     38  C   UNL A   1      41.426  29.823  36.091  1.00  0.00     0.029 A 
ATOM     39  C   UNL A   1      40.731  30.191  34.856  1.00  0.00     0.049 A 
ATOM     40  H   UNL A   1      41.073  29.434  32.948  1.00  0.00     0.167 HD
ATOM     41  C   UNL A   1      41.627  27.622  29.047  1.00  0.00     0.037 A 
ATOM     42  C   UNL A   1      39.734  31.092  34.753  1.00  0.00     0.037 A 
ATOM     43  C   UNL A   1      40.487  28.481  28.871  1.00  0.00     0.049 A 
ATOM     44  C   UNL A   1      39.051  31.318  33.426  1.00  0.00     0.074 A 
ATOM     45  C   UNL A   1      39.730  28.686  27.729  1.00  0.00     0.029 A 
ATOM     46  N   UNL A   1      39.945  29.290  29.857  1.00  0.00    -0.354 N 
ATOM     47  N   UNL A   1      39.249  30.723  32.276  1.00  0.00    -0.248 NA
ATOM     48  C   UNL A   1      37.985  32.332  33.396  1.00  0.00     0.031 C 
ATOM     49  C   UNL A   1      38.766  29.660  28.009  1.00  0.00     0.029 A 
ATOM     50  C   UNL A   1      38.884  30.019  29.341  1.00  0.00     0.049 A 
ATOM     51  H   UNL A   1      40.266  29.338  30.787  1.00  0.00     0.167 HD
ATOM     52  C   UNL A   1      38.305  31.252  31.403  1.00  0.00     0.074 A 
ATOM     53  C   UNL A   1      37.530  32.214  32.156  1.00  0.00     0.031 C 
ATOM     54  C   UNL A   1      38.097  30.959  30.096  1.00  0.00     0.037 A 
BRANCH  41  55
ATOM     55  C   UNL A   1      42.133  26.870  27.851  1.00  0.00     0.064 A 
ATOM     56  C   UNL A   1      43.082  27.428  26.981  1.00  0.00     0.173 A 
ATOM     57  C   UNL A   1      41.687  25.566  27.591  1.00  0.00     0.173 A 
ATOM     58  F   UNL A   1      43.531  28.676  27.182  1.00  0.00    -0.203 F 
ATOM     59  C   UNL A   1      43.542  26.719  25.876  1.00  0.00     0.198 A 
ATOM     60  C   UNL A   1      42.172  24.849  26.501  1.00  0.00     0.198 A 
ATOM     61  F   UNL A   1      40.785  24.985  28.397  1.00  0.00    -0.203 F 
ATOM     62  F   UNL A   1      44.411  27.289  25.030  1.00  0.00    -0.200 F 
ATOM     63  C   UNL A   1      43.093  25.429  25.640  1.00  0.00     0.200 A 
ATOM     64  F   UNL A   1      41.747  23.597  26.283  1.00  0.00    -0.200 F 
ATOM     65  F   UNL A   1      43.541  24.744  24.578  1.00  0.00    -0.200 F 
ENDBRANCH  41  55
BRANCH  42  66
ATOM     66  C   UNL A   1      39.278  31.842  35.954  1.00  0.00     0.064 A 
ATOM     67  C   UNL A   1      38.304  31.310  36.811  1.00  0.00     0.173 A 
ATOM     68  C   UNL A   1      39.762  33.127  36.233  1.00  0.00     0.173 A 
ATOM     69  F   UNL A   1      37.789  30.095  36.569  1.00  0.00    -0.203 F 
ATOM     70  C   UNL A   1      37.809  32.049  37.885  1.00  0.00     0.198 A 
ATOM     71  C   UNL A   1      39.285  33.854  37.322  1.00  0.00     0.198 A 
ATOM     72  F   UNL A   1      40.691  33.683  35.441  1.00  0.00    -0.203 F 
ATOM     73  F   UNL A   1      36.834  31.541  38.652  1.00  0.00    -0.200 F 
ATOM     74  C   UNL A   1      38.303  33.318  38.141  1.00  0.00     0.200 A 
ATOM     75  F   UNL A   1      39.769  35.079  37.570  1.00  0.00    -0.200 F 
ATOM     76  F   UNL A   1      37.820  34.033  39.167  1.00  0.00    -0.200 F 
ENDBRANCH  42  66
BRANCH  54  77
ATOM     77  C   UNL A   1      36.949  31.637  29.398  1.00  0.00     0.064 A 
ATOM     78  C   UNL A   1      35.790  30.940  29.025  1.00  0.00     0.173 A 
ATOM     79  C   UNL A   1      36.995  33.015  29.133  1.00  0.00     0.173 A 
ATOM     80  F   UNL A   1      35.696  29.619  29.243  1.00  0.00    -0.203 F 
ATOM     81  C   UNL A   1      34.736  31.591  28.386  1.00  0.00     0.198 A 
ATOM     82  C   UNL A   1      35.927  33.668  28.524  1.00  0.00     0.198 A 
ATOM     83  F   UNL A   1      38.076  33.734  29.477  1.00  0.00    -0.203 F 
ATOM     84  F   UNL A   1      33.661  30.893  27.993  1.00  0.00    -0.200 F 
ATOM     85  C   UNL A   1      34.802  32.953  28.143  1.00  0.00     0.200 A 
ATOM     86  F   UNL A   1      35.987  34.989  28.305  1.00  0.00    -0.200 F 
ATOM     87  F   UNL A   1      33.784  33.579  27.534  1.00  0.00    -0.200 F 
ENDBRANCH  54  77
ENDBRANCH  28  29
ENDBRANCH  21  23
ENDBRANCH  20  21
ENDBRANCH  19  20
ENDBRANCH   1  19
TORSDOF 13
ENDMDL
