MODEL 1
REMARK VINA RESULT:     -13.4      0.000      0.000
REMARK SMILES Cc1ccc(C)c(NS(=O)(=O)c2cc(C(=O)OCCOC(=O)c3ccc(-c4c5nc(c(-c6c(F)c(F)c(F)c(F)c6F)c6ccc([nH]6)c(-c6c(F)c(F)c(F)c(F)c6F)c6nc(c(-c7c(F)c(F)c(F)c(F)c7F)c7ccc4[nH]7)C=C6)C=C5)cc3)ccc2Cl)c1
REMARK SMILES IDX 18 1 17 2 15 3 16 4 14 5 12 6 13 7 88 8 87 9 89 10 86 11
REMARK SMILES IDX 9 12 10 13 11 14 8 15 7 17 1 18 2 19 3 20 90 21 4 22 5 23
REMARK SMILES IDX 6 24 19 25 20 26 21 27 22 28 23 29 24 30 85 31 25 32 84 33
REMARK SMILES IDX 26 34 27 35 28 36 78 37 29 38 83 39 77 40 79 41 30 42 82 43
REMARK SMILES IDX 76 44 75 45 31 47 63 48 43 49 62 50 44 51 47 52 61 53 80 54
REMARK SMILES IDX 45 55 46 56 60 58 81 59 48 60 32 61 33 62 41 63 34 64 35 65
REMARK SMILES IDX 39 66 42 67 36 68 37 69 40 70 38 71 64 72 65 73 73 74 66 75
REMARK SMILES IDX 67 76 71 77 74 78 68 79 69 80 72 81 70 82 49 83 50 84 58 85
REMARK SMILES IDX 51 86 52 87 56 88 59 89 53 90 54 91 57 92 55 93
REMARK H PARENT 8 16 79 46 47 57
REMARK Flexibility Score: inf
ROOT
ATOM      1  C   UNL A   1      39.381  22.129  26.542  1.00  0.00     0.275 C 
ENDROOT
BRANCH   1   2
ATOM      2  O   UNL A   1      39.332  21.193  25.450  1.00  0.00    -0.458 OA
BRANCH   2   3
ATOM      3  C   UNL A   1      37.986  20.725  24.996  1.00  0.00     0.338 C 
ATOM      4  O   UNL A   1      38.181  19.483  25.030  1.00  0.00    -0.246 OA
BRANCH   3   5
ATOM      5  C   UNL A   1      36.281  21.971  24.511  1.00  0.00     0.061 A 
ATOM      6  C   UNL A   1      33.791  22.839  25.266  1.00  0.00     0.107 A 
ATOM      7  C   UNL A   1      34.767  21.811  24.860  1.00  0.00     0.039 A 
ATOM      8  C   UNL A   1      34.173  24.150  25.243  1.00  0.00     0.061 A 
ATOM      9  C   UNL A   1      35.283  24.419  24.469  1.00  0.00     0.023 A 
ATOM     10  Cl  UNL A   1      33.391  25.455  26.036  1.00  0.00    -0.083 Cl
ATOM     11  C   UNL A   1      36.188  23.391  24.024  1.00  0.00     0.017 A 
BRANCH   6  12
ATOM     12  S   UNL A   1      32.116  22.360  25.704  1.00  0.00     0.263 S 
ATOM     13  O   UNL A   1      31.256  23.077  24.781  1.00  0.00    -0.201 OA
ATOM     14  O   UNL A   1      31.980  22.592  27.128  1.00  0.00    -0.201 OA
BRANCH  12  15
ATOM     15  N   UNL A   1      31.770  20.736  25.421  1.00  0.00    -0.279 N 
ATOM     16  H   UNL A   1      31.021  20.391  25.960  1.00  0.00     0.180 HD
BRANCH  15  17
ATOM     17  C   UNL A   1      32.355  19.756  24.548  1.00  0.00     0.052 A 
ATOM     18  C   UNL A   1      34.258  16.435  25.067  1.00  0.00     0.044 C 
ATOM     19  C   UNL A   1      33.419  17.529  24.467  1.00  0.00    -0.049 A 
ATOM     20  C   UNL A   1      32.968  17.386  23.160  1.00  0.00     0.004 A 
ATOM     21  C   UNL A   1      33.042  18.686  25.177  1.00  0.00     0.030 A 
ATOM     22  C   UNL A   1      32.399  18.474  22.509  1.00  0.00     0.006 A 
ATOM     23  C   UNL A   1      32.228  19.709  23.160  1.00  0.00    -0.027 A 
ATOM     24  C   UNL A   1      32.022  20.903  22.284  1.00  0.00     0.046 C 
ENDBRANCH  15  17
ENDBRANCH  12  15
ENDBRANCH   6  12
ENDBRANCH   3   5
ENDBRANCH   2   3
ENDBRANCH   1   2
BRANCH   1  25
ATOM     25  C   UNL A   1      40.567  21.766  27.437  1.00  0.00     0.275 C 
BRANCH  25  26
ATOM     26  O   UNL A   1      41.638  22.746  27.421  1.00  0.00    -0.458 OA
BRANCH  26  27
ATOM     27  C   UNL A   1      42.346  22.918  26.272  1.00  0.00     0.338 C 
ATOM     28  O   UNL A   1      42.592  22.062  25.447  1.00  0.00    -0.246 OA
BRANCH  27  29
ATOM     29  C   UNL A   1      42.925  24.266  26.226  1.00  0.00     0.060 A 
ATOM     30  C   UNL A   1      44.030  24.770  27.588  1.00  0.00     0.016 A 
ATOM     31  C   UNL A   1      41.894  25.495  25.384  1.00  0.00     0.016 A 
ATOM     32  C   UNL A   1      44.067  26.543  28.119  1.00  0.00     0.010 A 
ATOM     33  C   UNL A   1      41.844  27.224  26.017  1.00  0.00     0.010 A 
ATOM     34  C   UNL A   1      42.887  27.724  27.407  1.00  0.00    -0.014 A 
BRANCH  34  35
ATOM     35  C   UNL A   1      42.345  28.913  28.175  1.00  0.00     0.031 A 
ATOM     36  C   UNL A   1      43.237  30.064  27.979  1.00  0.00     0.074 A 
ATOM     37  C   UNL A   1      41.139  29.211  28.767  1.00  0.00     0.049 A 
ATOM     38  N   UNL A   1      44.160  30.448  28.792  1.00  0.00    -0.248 NA
ATOM     39  C   UNL A   1      43.229  30.757  26.686  1.00  0.00     0.031 C 
ATOM     40  C   UNL A   1      39.906  28.416  28.834  1.00  0.00     0.029 A 
ATOM     41  N   UNL A   1      40.725  30.388  29.404  1.00  0.00    -0.354 N 
ATOM     42  C   UNL A   1      44.717  31.562  28.196  1.00  0.00     0.074 A 
ATOM     43  C   UNL A   1      44.298  31.545  26.817  1.00  0.00     0.031 C 
ATOM     44  C   UNL A   1      38.863  29.172  29.278  1.00  0.00     0.029 A 
ATOM     45  C   UNL A   1      39.343  30.486  29.681  1.00  0.00     0.049 A 
ATOM     46  H   UNL A   1      41.358  31.102  29.645  1.00  0.00     0.167 HD
ATOM     47  C   UNL A   1      45.210  32.579  28.949  1.00  0.00     0.037 A 
ATOM     48  C   UNL A   1      38.646  31.530  30.239  1.00  0.00     0.037 A 
ATOM     49  C   UNL A   1      45.179  32.253  30.354  1.00  0.00     0.049 A 
ATOM     50  C   UNL A   1      39.608  32.326  31.023  1.00  0.00     0.074 A 
ATOM     51  C   UNL A   1      45.814  31.363  31.191  1.00  0.00     0.029 A 
ATOM     52  N   UNL A   1      44.047  32.677  30.999  1.00  0.00    -0.354 N 
ATOM     53  N   UNL A   1      40.121  31.931  32.150  1.00  0.00    -0.248 NA
ATOM     54  C   UNL A   1      40.195  33.530  30.452  1.00  0.00     0.031 C 
ATOM     55  C   UNL A   1      44.908  31.108  32.264  1.00  0.00     0.029 A 
ATOM     56  C   UNL A   1      43.762  31.874  32.070  1.00  0.00     0.049 A 
ATOM     57  H   UNL A   1      43.510  33.456  30.728  1.00  0.00     0.167 HD
ATOM     58  C   UNL A   1      41.372  32.505  32.152  1.00  0.00     0.074 A 
ATOM     59  C   UNL A   1      41.282  33.621  31.221  1.00  0.00     0.031 C 
ATOM     60  C   UNL A   1      42.430  31.790  32.619  1.00  0.00     0.037 A 
BRANCH  47  61
ATOM     61  C   UNL A   1      45.293  34.008  28.494  1.00  0.00     0.064 A 
ATOM     62  C   UNL A   1      44.106  34.688  28.169  1.00  0.00     0.173 A 
ATOM     63  C   UNL A   1      46.493  34.646  28.115  1.00  0.00     0.173 A 
ATOM     64  F   UNL A   1      42.913  34.135  28.435  1.00  0.00    -0.203 F 
ATOM     65  C   UNL A   1      44.122  35.912  27.498  1.00  0.00     0.198 A 
ATOM     66  C   UNL A   1      46.508  35.896  27.506  1.00  0.00     0.198 A 
ATOM     67  F   UNL A   1      47.681  34.034  28.211  1.00  0.00    -0.203 F 
ATOM     68  F   UNL A   1      42.969  36.476  27.116  1.00  0.00    -0.200 F 
ATOM     69  C   UNL A   1      45.323  36.520  27.176  1.00  0.00     0.200 A 
ATOM     70  F   UNL A   1      47.682  36.452  27.174  1.00  0.00    -0.200 F 
ATOM     71  F   UNL A   1      45.342  37.678  26.505  1.00  0.00    -0.200 F 
ENDBRANCH  47  61
BRANCH  48  72
ATOM     72  C   UNL A   1      37.225  32.024  30.204  1.00  0.00     0.064 A 
ATOM     73  C   UNL A   1      36.333  31.831  31.291  1.00  0.00     0.173 A 
ATOM     74  C   UNL A   1      36.837  33.004  29.278  1.00  0.00     0.173 A 
ATOM     75  F   UNL A   1      36.616  30.944  32.257  1.00  0.00    -0.203 F 
ATOM     76  C   UNL A   1      35.172  32.603  31.463  1.00  0.00     0.198 A 
ATOM     77  C   UNL A   1      35.676  33.776  29.451  1.00  0.00     0.198 A 
ATOM     78  F   UNL A   1      37.636  33.306  28.246  1.00  0.00    -0.203 F 
ATOM     79  F   UNL A   1      34.406  32.439  32.553  1.00  0.00    -0.200 F 
ATOM     80  C   UNL A   1      34.855  33.590  30.551  1.00  0.00     0.200 A 
ATOM     81  F   UNL A   1      35.396  34.760  28.584  1.00  0.00    -0.200 F 
ATOM     82  F   UNL A   1      33.794  34.388  30.753  1.00  0.00    -0.200 F 
ENDBRANCH  48  72
BRANCH  60  83
ATOM     83  C   UNL A   1      42.132  30.727  33.636  1.00  0.00     0.064 A 
ATOM     84  C   UNL A   1      41.742  29.410  33.338  1.00  0.00     0.173 A 
ATOM     85  C   UNL A   1      42.289  31.063  34.987  1.00  0.00     0.173 A 
ATOM     86  F   UNL A   1      41.635  28.987  32.071  1.00  0.00    -0.203 F 
ATOM     87  C   UNL A   1      41.481  28.490  34.352  1.00  0.00     0.198 A 
ATOM     88  C   UNL A   1      42.070  30.131  35.996  1.00  0.00     0.198 A 
ATOM     89  F   UNL A   1      42.683  32.301  35.329  1.00  0.00    -0.203 F 
ATOM     90  F   UNL A   1      41.077  27.247  34.047  1.00  0.00    -0.200 F 
ATOM     91  C   UNL A   1      41.654  28.849  35.679  1.00  0.00     0.200 A 
ATOM     92  F   UNL A   1      42.275  30.476  37.275  1.00  0.00    -0.200 F 
ATOM     93  F   UNL A   1      41.437  27.955  36.654  1.00  0.00    -0.200 F 
ENDBRANCH  60  83
ENDBRANCH  34  35
ENDBRANCH  27  29
ENDBRANCH  26  27
ENDBRANCH  25  26
ENDBRANCH   1  25
TORSDOF 14
ENDMDL
MODEL 2
REMARK VINA RESULT:     -13.3      5.575     10.508
REMARK SMILES Cc1ccc(C)c(NS(=O)(=O)c2cc(C(=O)OCCOC(=O)c3ccc(-c4c5nc(c(-c6c(F)c(F)c(F)c(F)c6F)c6ccc([nH]6)c(-c6c(F)c(F)c(F)c(F)c6F)c6nc(c(-c7c(F)c(F)c(F)c(F)c7F)c7ccc4[nH]7)C=C6)C=C5)cc3)ccc2Cl)c1
REMARK SMILES IDX 18 1 17 2 15 3 16 4 14 5 12 6 13 7 88 8 87 9 89 10 86 11
REMARK SMILES IDX 9 12 10 13 11 14 8 15 7 17 1 18 2 19 3 20 90 21 4 22 5 23
REMARK SMILES IDX 6 24 19 25 20 26 21 27 22 28 23 29 24 30 85 31 25 32 84 33
REMARK SMILES IDX 26 34 27 35 28 36 78 37 29 38 83 39 77 40 79 41 30 42 82 43
REMARK SMILES IDX 76 44 75 45 31 47 63 48 43 49 62 50 44 51 47 52 61 53 80 54
REMARK SMILES IDX 45 55 46 56 60 58 81 59 48 60 32 61 33 62 41 63 34 64 35 65
REMARK SMILES IDX 39 66 42 67 36 68 37 69 40 70 38 71 64 72 65 73 73 74 66 75
REMARK SMILES IDX 67 76 71 77 74 78 68 79 69 80 72 81 70 82 49 83 50 84 58 85
REMARK SMILES IDX 51 86 52 87 56 88 59 89 53 90 54 91 57 92 55 93
REMARK H PARENT 8 16 79 46 47 57
REMARK Flexibility Score: inf
ROOT
ATOM      1  C   UNL A   1      34.371  33.842  28.660  1.00  0.00     0.275 C 
ENDROOT
BRANCH   1   2
ATOM      2  O   UNL A   1      33.980  32.465  28.501  1.00  0.00    -0.458 OA
BRANCH   2   3
ATOM      3  C   UNL A   1      32.866  32.165  27.550  1.00  0.00     0.338 C 
ATOM      4  O   UNL A   1      32.413  33.329  27.396  1.00  0.00    -0.246 OA
BRANCH   3   5
ATOM      5  C   UNL A   1      32.352  30.226  26.731  1.00  0.00     0.061 A 
ATOM      6  C   UNL A   1      32.845  28.362  24.781  1.00  0.00     0.107 A 
ATOM      7  C   UNL A   1      32.417  29.687  25.267  1.00  0.00     0.039 A 
ATOM      8  C   UNL A   1      33.126  27.388  25.695  1.00  0.00     0.061 A 
ATOM      9  C   UNL A   1      32.604  27.604  26.955  1.00  0.00     0.023 A 
ATOM     10  Cl  UNL A   1      34.010  25.946  25.412  1.00  0.00    -0.083 Cl
ATOM     11  C   UNL A   1      32.128  28.892  27.388  1.00  0.00     0.017 A 
BRANCH   6  12
ATOM     12  S   UNL A   1      32.910  28.034  23.016  1.00  0.00     0.263 S 
ATOM     13  O   UNL A   1      33.095  26.600  22.896  1.00  0.00    -0.201 OA
ATOM     14  O   UNL A   1      33.910  28.928  22.468  1.00  0.00    -0.201 OA
BRANCH  12  15
ATOM     15  N   UNL A   1      31.464  28.337  22.206  1.00  0.00    -0.279 N 
ATOM     16  H   UNL A   1      31.525  28.224  21.230  1.00  0.00     0.180 HD
BRANCH  15  17
ATOM     17  C   UNL A   1      30.160  28.730  22.663  1.00  0.00     0.052 A 
ATOM     18  C   UNL A   1      28.004  31.919  22.333  1.00  0.00     0.044 C 
ATOM     19  C   UNL A   1      28.431  30.488  22.511  1.00  0.00    -0.049 A 
ATOM     20  C   UNL A   1      27.466  29.532  22.802  1.00  0.00     0.004 A 
ATOM     21  C   UNL A   1      29.767  30.062  22.370  1.00  0.00     0.030 A 
ATOM     22  C   UNL A   1      27.859  28.260  23.202  1.00  0.00     0.006 A 
ATOM     23  C   UNL A   1      29.218  27.904  23.276  1.00  0.00    -0.027 A 
ATOM     24  C   UNL A   1      29.550  26.705  24.105  1.00  0.00     0.046 C 
ENDBRANCH  15  17
ENDBRANCH  12  15
ENDBRANCH   6  12
ENDBRANCH   3   5
ENDBRANCH   2   3
ENDBRANCH   1   2
BRANCH   1  25
ATOM     25  C   UNL A   1      35.894  33.900  28.782  1.00  0.00     0.275 C 
BRANCH  25  26
ATOM     26  O   UNL A   1      36.390  33.611  30.117  1.00  0.00    -0.458 OA
BRANCH  26  27
ATOM     27  C   UNL A   1      36.781  32.340  30.405  1.00  0.00     0.338 C 
ATOM     28  O   UNL A   1      36.457  31.694  31.381  1.00  0.00    -0.246 OA
BRANCH  27  29
ATOM     29  C   UNL A   1      37.795  31.888  29.445  1.00  0.00     0.060 A 
ATOM     30  C   UNL A   1      37.350  30.539  28.300  1.00  0.00     0.016 A 
ATOM     31  C   UNL A   1      39.504  32.072  30.020  1.00  0.00     0.016 A 
ATOM     32  C   UNL A   1      38.653  29.345  27.753  1.00  0.00     0.010 A 
ATOM     33  C   UNL A   1      40.753  30.794  29.574  1.00  0.00     0.010 A 
ATOM     34  C   UNL A   1      40.311  29.415  28.490  1.00  0.00    -0.014 A 
BRANCH  34  35
ATOM     35  C   UNL A   1      41.182  28.190  28.681  1.00  0.00     0.031 A 
ATOM     36  C   UNL A   1      41.555  28.076  30.097  1.00  0.00     0.074 A 
ATOM     37  C   UNL A   1      41.469  27.082  27.917  1.00  0.00     0.049 A 
ATOM     38  N   UNL A   1      42.665  28.473  30.617  1.00  0.00    -0.248 NA
ATOM     39  C   UNL A   1      40.543  27.641  31.065  1.00  0.00     0.031 C 
ATOM     40  C   UNL A   1      40.976  26.708  26.585  1.00  0.00     0.029 A 
ATOM     41  N   UNL A   1      42.253  25.963  28.228  1.00  0.00    -0.354 N 
ATOM     42  C   UNL A   1      42.566  28.149  31.956  1.00  0.00     0.074 A 
ATOM     43  C   UNL A   1      41.171  27.893  32.215  1.00  0.00     0.031 C 
ATOM     44  C   UNL A   1      41.294  25.416  26.293  1.00  0.00     0.029 A 
ATOM     45  C   UNL A   1      42.148  24.871  27.339  1.00  0.00     0.049 A 
ATOM     46  H   UNL A   1      42.841  25.940  29.016  1.00  0.00     0.167 HD
ATOM     47  C   UNL A   1      43.667  27.803  32.670  1.00  0.00     0.037 A 
ATOM     48  C   UNL A   1      42.743  23.636  27.414  1.00  0.00     0.037 A 
ATOM     49  C   UNL A   1      44.869  27.957  31.888  1.00  0.00     0.049 A 
ATOM     50  C   UNL A   1      43.947  23.783  28.254  1.00  0.00     0.074 A 
ATOM     51  C   UNL A   1      45.584  29.002  31.344  1.00  0.00     0.029 A 
ATOM     52  N   UNL A   1      45.259  26.818  31.235  1.00  0.00    -0.354 N 
ATOM     53  N   UNL A   1      45.026  24.394  27.865  1.00  0.00    -0.248 NA
ATOM     54  C   UNL A   1      43.902  23.420  29.663  1.00  0.00     0.031 C 
ATOM     55  C   UNL A   1      46.254  28.474  30.200  1.00  0.00     0.029 A 
ATOM     56  C   UNL A   1      45.956  27.118  30.096  1.00  0.00     0.049 A 
ATOM     57  H   UNL A   1      45.065  25.904  31.545  1.00  0.00     0.167 HD
ATOM     58  C   UNL A   1      45.529  24.928  29.028  1.00  0.00     0.074 A 
ATOM     59  C   UNL A   1      44.940  24.137  30.099  1.00  0.00     0.031 C 
ATOM     60  C   UNL A   1      46.068  26.177  29.007  1.00  0.00     0.037 A 
BRANCH  47  61
ATOM     61  C   UNL A   1      43.649  26.913  33.880  1.00  0.00     0.064 A 
ATOM     62  C   UNL A   1      43.792  27.493  35.153  1.00  0.00     0.173 A 
ATOM     63  C   UNL A   1      43.762  25.508  33.826  1.00  0.00     0.173 A 
ATOM     64  F   UNL A   1      43.759  28.827  35.297  1.00  0.00    -0.203 F 
ATOM     65  C   UNL A   1      44.045  26.719  36.287  1.00  0.00     0.198 A 
ATOM     66  C   UNL A   1      43.949  24.734  34.967  1.00  0.00     0.198 A 
ATOM     67  F   UNL A   1      43.815  24.845  32.662  1.00  0.00    -0.203 F 
ATOM     68  F   UNL A   1      44.276  27.319  37.462  1.00  0.00    -0.200 F 
ATOM     69  C   UNL A   1      44.113  25.340  36.195  1.00  0.00     0.200 A 
ATOM     70  F   UNL A   1      44.043  23.402  34.851  1.00  0.00    -0.200 F 
ATOM     71  F   UNL A   1      44.387  24.598  37.275  1.00  0.00    -0.200 F 
ENDBRANCH  47  61
BRANCH  48  72
ATOM     72  C   UNL A   1      42.444  22.255  26.894  1.00  0.00     0.064 A 
ATOM     73  C   UNL A   1      43.240  21.638  25.894  1.00  0.00     0.173 A 
ATOM     74  C   UNL A   1      41.616  21.387  27.621  1.00  0.00     0.173 A 
ATOM     75  F   UNL A   1      44.095  22.363  25.158  1.00  0.00    -0.203 F 
ATOM     76  C   UNL A   1      43.245  20.249  25.681  1.00  0.00     0.198 A 
ATOM     77  C   UNL A   1      41.622  19.998  27.408  1.00  0.00     0.198 A 
ATOM     78  F   UNL A   1      40.867  21.858  28.627  1.00  0.00    -0.203 F 
ATOM     79  F   UNL A   1      44.078  19.706  24.781  1.00  0.00    -0.200 F 
ATOM     80  C   UNL A   1      42.449  19.427  26.454  1.00  0.00     0.200 A 
ATOM     81  F   UNL A   1      40.877  19.202  28.189  1.00  0.00    -0.200 F 
ATOM     82  F   UNL A   1      42.510  18.094  26.315  1.00  0.00    -0.200 F 
ENDBRANCH  48  72
BRANCH  60  83
ATOM     83  C   UNL A   1      46.641  26.644  27.702  1.00  0.00     0.064 A 
ATOM     84  C   UNL A   1      45.918  27.293  26.687  1.00  0.00     0.173 A 
ATOM     85  C   UNL A   1      48.014  26.451  27.494  1.00  0.00     0.173 A 
ATOM     86  F   UNL A   1      44.617  27.578  26.835  1.00  0.00    -0.203 F 
ATOM     87  C   UNL A   1      46.537  27.688  25.502  1.00  0.00     0.198 A 
ATOM     88  C   UNL A   1      48.638  26.885  26.329  1.00  0.00     0.198 A 
ATOM     89  F   UNL A   1      48.759  25.857  28.440  1.00  0.00    -0.203 F 
ATOM     90  F   UNL A   1      45.820  28.275  24.531  1.00  0.00    -0.200 F 
ATOM     91  C   UNL A   1      47.897  27.492  25.329  1.00  0.00     0.200 A 
ATOM     92  F   UNL A   1      49.960  26.724  26.184  1.00  0.00    -0.200 F 
ATOM     93  F   UNL A   1      48.500  27.903  24.204  1.00  0.00    -0.200 F 
ENDBRANCH  60  83
ENDBRANCH  34  35
ENDBRANCH  27  29
ENDBRANCH  26  27
ENDBRANCH  25  26
ENDBRANCH   1  25
TORSDOF 14
ENDMDL
MODEL 3
REMARK VINA RESULT:     -13.2      3.960      9.136
REMARK SMILES Cc1ccc(C)c(NS(=O)(=O)c2cc(C(=O)OCCOC(=O)c3ccc(-c4c5nc(c(-c6c(F)c(F)c(F)c(F)c6F)c6ccc([nH]6)c(-c6c(F)c(F)c(F)c(F)c6F)c6nc(c(-c7c(F)c(F)c(F)c(F)c7F)c7ccc4[nH]7)C=C6)C=C5)cc3)ccc2Cl)c1
REMARK SMILES IDX 18 1 17 2 15 3 16 4 14 5 12 6 13 7 88 8 87 9 89 10 86 11
REMARK SMILES IDX 9 12 10 13 11 14 8 15 7 17 1 18 2 19 3 20 90 21 4 22 5 23
REMARK SMILES IDX 6 24 19 25 20 26 21 27 22 28 23 29 24 30 85 31 25 32 84 33
REMARK SMILES IDX 26 34 27 35 28 36 78 37 29 38 83 39 77 40 79 41 30 42 82 43
REMARK SMILES IDX 76 44 75 45 31 47 63 48 43 49 62 50 44 51 47 52 61 53 80 54
REMARK SMILES IDX 45 55 46 56 60 58 81 59 48 60 32 61 33 62 41 63 34 64 35 65
REMARK SMILES IDX 39 66 42 67 36 68 37 69 40 70 38 71 64 72 65 73 73 74 66 75
REMARK SMILES IDX 67 76 71 77 74 78 68 79 69 80 72 81 70 82 49 83 50 84 58 85
REMARK SMILES IDX 51 86 52 87 56 88 59 89 53 90 54 91 57 92 55 93
REMARK H PARENT 8 16 79 46 47 57
REMARK Flexibility Score: inf
ROOT
ATOM      1  C   UNL A   1      34.122  30.486  27.626  1.00  0.00     0.275 C 
ENDROOT
BRANCH   1   2
ATOM      2  O   UNL A   1      33.973  29.093  27.294  1.00  0.00    -0.458 OA
BRANCH   2   3
ATOM      3  C   UNL A   1      33.035  28.741  26.183  1.00  0.00     0.338 C 
ATOM      4  O   UNL A   1      32.889  29.882  25.673  1.00  0.00    -0.246 OA
BRANCH   3   5
ATOM      5  C   UNL A   1      32.285  26.766  25.701  1.00  0.00     0.061 A 
ATOM      6  C   UNL A   1      32.130  24.131  26.448  1.00  0.00     0.107 A 
ATOM      7  C   UNL A   1      32.852  25.350  26.035  1.00  0.00     0.039 A 
ATOM      8  C   UNL A   1      30.766  24.147  26.446  1.00  0.00     0.061 A 
ATOM      9  C   UNL A   1      30.195  25.147  25.685  1.00  0.00     0.023 A 
ATOM     10  Cl  UNL A   1      29.731  23.040  27.250  1.00  0.00    -0.083 Cl
ATOM     11  C   UNL A   1      30.935  26.297  25.233  1.00  0.00     0.017 A 
BRANCH   6  12
ATOM     12  S   UNL A   1      33.049  22.645  26.865  1.00  0.00     0.263 S 
ATOM     13  O   UNL A   1      32.902  22.490  28.300  1.00  0.00    -0.201 OA
ATOM     14  O   UNL A   1      34.372  22.806  26.299  1.00  0.00    -0.201 OA
BRANCH  12  15
ATOM     15  N   UNL A   1      32.394  21.231  26.224  1.00  0.00    -0.279 N 
ATOM     16  H   UNL A   1      31.714  20.813  26.801  1.00  0.00     0.180 HD
BRANCH  15  17
ATOM     17  C   UNL A   1      32.636  20.516  25.002  1.00  0.00     0.052 A 
ATOM     18  C   UNL A   1      33.772  16.930  24.123  1.00  0.00     0.044 C 
ATOM     19  C   UNL A   1      33.144  18.294  24.050  1.00  0.00    -0.049 A 
ATOM     20  C   UNL A   1      32.528  18.685  22.867  1.00  0.00     0.004 A 
ATOM     21  C   UNL A   1      33.126  19.191  25.136  1.00  0.00     0.030 A 
ATOM     22  C   UNL A   1      32.154  20.012  22.695  1.00  0.00     0.006 A 
ATOM     23  C   UNL A   1      32.346  20.964  23.713  1.00  0.00    -0.027 A 
ATOM     24  C   UNL A   1      32.322  22.400  23.298  1.00  0.00     0.046 C 
ENDBRANCH  15  17
ENDBRANCH  12  15
ENDBRANCH   6  12
ENDBRANCH   3   5
ENDBRANCH   2   3
ENDBRANCH   1   2
BRANCH   1  25
ATOM     25  C   UNL A   1      35.563  30.721  28.082  1.00  0.00     0.275 C 
BRANCH  25  26
ATOM     26  O   UNL A   1      35.773  32.004  28.731  1.00  0.00    -0.458 OA
BRANCH  26  27
ATOM     27  C   UNL A   1      35.360  32.158  30.018  1.00  0.00     0.338 C 
ATOM     28  O   UNL A   1      34.346  32.718  30.383  1.00  0.00    -0.246 OA
BRANCH  27  29
ATOM     29  C   UNL A   1      36.395  31.690  30.946  1.00  0.00     0.060 A 
ATOM     30  C   UNL A   1      38.019  32.521  30.909  1.00  0.00     0.016 A 
ATOM     31  C   UNL A   1      36.278  29.932  31.372  1.00  0.00     0.016 A 
ATOM     32  C   UNL A   1      39.547  31.547  31.283  1.00  0.00     0.010 A 
ATOM     33  C   UNL A   1      37.820  28.951  31.605  1.00  0.00     0.010 A 
ATOM     34  C   UNL A   1      39.440  29.748  31.509  1.00  0.00    -0.014 A 
BRANCH  34  35
ATOM     35  C   UNL A   1      40.560  28.801  31.131  1.00  0.00     0.031 A 
ATOM     36  C   UNL A   1      41.281  28.394  32.345  1.00  0.00     0.074 A 
ATOM     37  C   UNL A   1      40.872  28.076  30.004  1.00  0.00     0.049 A 
ATOM     38  N   UNL A   1      42.379  28.909  32.777  1.00  0.00    -0.248 NA
ATOM     39  C   UNL A   1      40.643  27.446  33.265  1.00  0.00     0.031 C 
ATOM     40  C   UNL A   1      40.157  27.978  28.725  1.00  0.00     0.029 A 
ATOM     41  N   UNL A   1      41.918  27.169  29.788  1.00  0.00    -0.354 N 
ATOM     42  C   UNL A   1      42.676  28.204  33.926  1.00  0.00     0.074 A 
ATOM     43  C   UNL A   1      41.467  27.519  34.312  1.00  0.00     0.031 C 
ATOM     44  C   UNL A   1      40.649  26.958  27.969  1.00  0.00     0.029 A 
ATOM     45  C   UNL A   1      41.823  26.388  28.615  1.00  0.00     0.049 A 
ATOM     46  H   UNL A   1      42.671  27.082  30.414  1.00  0.00     0.167 HD
ATOM     47  C   UNL A   1      43.964  27.979  34.290  1.00  0.00     0.037 A 
ATOM     48  C   UNL A   1      42.657  25.390  28.172  1.00  0.00     0.037 A 
ATOM     49  C   UNL A   1      44.883  28.666  33.418  1.00  0.00     0.049 A 
ATOM     50  C   UNL A   1      43.973  25.611  28.801  1.00  0.00     0.074 A 
ATOM     51  C   UNL A   1      45.219  29.974  33.145  1.00  0.00     0.029 A 
ATOM     52  N   UNL A   1      45.326  27.908  32.367  1.00  0.00    -0.354 N 
ATOM     53  N   UNL A   1      44.779  26.574  28.466  1.00  0.00    -0.248 NA
ATOM     54  C   UNL A   1      44.345  24.864  29.994  1.00  0.00     0.031 C 
ATOM     55  C   UNL A   1      45.683  29.994  31.796  1.00  0.00     0.029 A 
ATOM     56  C   UNL A   1      45.650  28.695  31.295  1.00  0.00     0.049 A 
ATOM     57  H   UNL A   1      45.402  26.927  32.380  1.00  0.00     0.167 HD
ATOM     58  C   UNL A   1      45.430  26.869  29.641  1.00  0.00     0.074 A 
ATOM     59  C   UNL A   1      45.291  25.678  30.467  1.00  0.00     0.031 C 
ATOM     60  C   UNL A   1      45.683  28.170  29.951  1.00  0.00     0.037 A 
BRANCH  47  61
ATOM     61  C   UNL A   1      44.420  26.810  35.118  1.00  0.00     0.064 A 
ATOM     62  C   UNL A   1      44.209  25.508  34.630  1.00  0.00     0.173 A 
ATOM     63  C   UNL A   1      44.809  26.906  36.470  1.00  0.00     0.173 A 
ATOM     64  F   UNL A   1      43.779  25.317  33.373  1.00  0.00    -0.203 F 
ATOM     65  C   UNL A   1      44.362  24.386  35.445  1.00  0.00     0.198 A 
ATOM     66  C   UNL A   1      45.026  25.783  37.262  1.00  0.00     0.198 A 
ATOM     67  F   UNL A   1      44.878  28.084  37.105  1.00  0.00    -0.203 F 
ATOM     68  F   UNL A   1      44.053  23.172  34.971  1.00  0.00    -0.200 F 
ATOM     69  C   UNL A   1      44.781  24.523  36.757  1.00  0.00     0.200 A 
ATOM     70  F   UNL A   1      45.400  25.940  38.539  1.00  0.00    -0.200 F 
ATOM     71  F   UNL A   1      44.899  23.451  37.550  1.00  0.00    -0.200 F 
ENDBRANCH  47  61
BRANCH  48  72
ATOM     72  C   UNL A   1      42.526  24.188  27.277  1.00  0.00     0.064 A 
ATOM     73  C   UNL A   1      43.038  24.174  25.953  1.00  0.00     0.173 A 
ATOM     74  C   UNL A   1      42.237  22.927  27.819  1.00  0.00     0.173 A 
ATOM     75  F   UNL A   1      43.382  25.318  25.343  1.00  0.00    -0.203 F 
ATOM     76  C   UNL A   1      43.294  22.984  25.252  1.00  0.00     0.198 A 
ATOM     77  C   UNL A   1      42.493  21.736  27.118  1.00  0.00     0.198 A 
ATOM     78  F   UNL A   1      41.804  22.823  29.083  1.00  0.00    -0.203 F 
ATOM     79  F   UNL A   1      43.858  23.023  24.035  1.00  0.00    -0.200 F 
ATOM     80  C   UNL A   1      43.039  21.763  25.845  1.00  0.00     0.200 A 
ATOM     81  F   UNL A   1      42.281  20.554  27.715  1.00  0.00    -0.200 F 
ATOM     82  F   UNL A   1      43.359  20.621  25.216  1.00  0.00    -0.200 F 
ENDBRANCH  48  72
BRANCH  60  83
ATOM     83  C   UNL A   1      45.816  29.125  28.802  1.00  0.00     0.064 A 
ATOM     84  C   UNL A   1      44.752  29.814  28.196  1.00  0.00     0.173 A 
ATOM     85  C   UNL A   1      47.107  29.378  28.319  1.00  0.00     0.173 A 
ATOM     86  F   UNL A   1      43.495  29.682  28.642  1.00  0.00    -0.203 F 
ATOM     87  C   UNL A   1      44.972  30.681  27.127  1.00  0.00     0.198 A 
ATOM     88  C   UNL A   1      47.329  30.276  27.281  1.00  0.00     0.198 A 
ATOM     89  F   UNL A   1      48.165  28.765  28.877  1.00  0.00    -0.203 F 
ATOM     90  F   UNL A   1      43.938  31.303  26.540  1.00  0.00    -0.200 F 
ATOM     91  C   UNL A   1      46.261  30.919  26.677  1.00  0.00     0.200 A 
ATOM     92  F   UNL A   1      48.582  30.528  26.876  1.00  0.00    -0.200 F 
ATOM     93  F   UNL A   1      46.477  31.779  25.672  1.00  0.00    -0.200 F 
ENDBRANCH  60  83
ENDBRANCH  34  35
ENDBRANCH  27  29
ENDBRANCH  26  27
ENDBRANCH  25  26
ENDBRANCH   1  25
TORSDOF 14
ENDMDL
