MODEL 1
REMARK VINA RESULT:     -12.4      0.000      0.000
REMARK SMILES COc1ccc(C(=O)N(C)C)cc1NC(=O)[C@H]1[C@@H](C(=O)OCCOC(=O)c2ccc(-c3c4nc(c(-c5c(F)c(F)c(F)c(F)c5F)c5ccc([nH]5)c(-c5c(F)c(F)c(F)c(F)c5F)c5nc(c(-c6c(F)c(F)c(F)c(F)c6F)c6ccc3[nH]6)C=C5)C=C4)cc2)[C@H]2C=C[C@@H]1C2
REMARK SMILES IDX 22 1 21 2 19 3 20 4 18 5 17 6 93 7 90 8 92 9 94 10 91 11
REMARK SMILES IDX 15 12 14 13 16 15 13 16 3 17 4 18 5 19 12 20 6 21 2 22 1 23
REMARK SMILES IDX 7 24 8 25 9 26 10 27 11 28 23 29 24 30 25 31 26 32 27 33
REMARK SMILES IDX 28 34 89 35 29 36 88 37 30 38 31 39 32 40 82 41 33 42 87 43
REMARK SMILES IDX 81 44 83 45 34 46 86 47 80 48 79 49 35 51 67 52 47 53 66 54
REMARK SMILES IDX 48 55 51 56 65 57 84 58 49 59 50 60 64 62 85 63 52 64 36 65
REMARK SMILES IDX 37 66 45 67 38 68 39 69 43 70 46 71 40 72 41 73 44 74 42 75
REMARK SMILES IDX 68 76 69 77 77 78 70 79 71 80 75 81 78 82 72 83 73 84 76 85
REMARK SMILES IDX 74 86 53 87 54 88 62 89 55 90 56 91 60 92 63 93 57 94 58 95
REMARK SMILES IDX 61 96 59 97
REMARK H PARENT 14 14 83 50 51 61
REMARK Flexibility Score: inf
ROOT
ATOM      1  C   UNL A   1      31.737  28.713  26.175  1.00  0.00     0.274 C 
ENDROOT
BRANCH   1   2
ATOM      2  O   UNL A   1      32.882  28.326  25.389  1.00  0.00    -0.462 OA
BRANCH   2   3
ATOM      3  C   UNL A   1      33.068  26.982  25.285  1.00  0.00     0.310 C 
ATOM      4  O   UNL A   1      34.054  26.396  25.716  1.00  0.00    -0.252 OA
BRANCH   3   5
ATOM      5  C   UNL A   1      31.969  26.323  24.464  1.00  0.00     0.119 C 
ATOM      6  C   UNL A   1      31.531  24.829  24.812  1.00  0.00     0.100 C 
ATOM      7  C   UNL A   1      31.874  24.119  23.479  1.00  0.00     0.025 C 
ATOM      8  C   UNL A   1      32.437  26.219  22.982  1.00  0.00     0.027 C 
ATOM      9  C   UNL A   1      33.352  24.115  23.223  1.00  0.00    -0.027 C 
ATOM     10  C   UNL A   1      31.455  25.192  22.452  1.00  0.00     0.017 C 
ATOM     11  C   UNL A   1      33.685  25.365  22.878  1.00  0.00    -0.027 C 
BRANCH   6  12
ATOM     12  C   UNL A   1      31.950  24.465  26.237  1.00  0.00     0.229 C 
ATOM     13  N   UNL A   1      32.765  23.502  26.711  1.00  0.00    -0.323 N 
ATOM     14  H   UNL A   1      32.876  23.594  27.686  1.00  0.00     0.170 HD
ATOM     15  O   UNL A   1      31.404  25.113  27.150  1.00  0.00    -0.274 OA
BRANCH  13  16
ATOM     16  C   UNL A   1      33.500  22.410  26.237  1.00  0.00     0.084 A 
ATOM     17  C   UNL A   1      34.898  22.505  26.110  1.00  0.00     0.142 A 
ATOM     18  C   UNL A   1      35.616  21.514  25.426  1.00  0.00     0.049 A 
ATOM     19  C   UNL A   1      34.957  20.400  24.905  1.00  0.00     0.018 A 
ATOM     20  C   UNL A   1      32.898  21.237  25.837  1.00  0.00     0.044 A 
ATOM     21  C   UNL A   1      33.592  20.242  25.138  1.00  0.00     0.042 A 
BRANCH  17  22
ATOM     22  O   UNL A   1      35.602  23.636  26.433  1.00  0.00    -0.495 OA
ATOM     23  C   UNL A   1      36.928  23.704  25.920  1.00  0.00     0.278 C 
ENDBRANCH  17  22
BRANCH  21  24
ATOM     24  C   UNL A   1      32.840  19.143  24.467  1.00  0.00     0.253 C 
ATOM     25  O   UNL A   1      32.673  18.102  25.101  1.00  0.00    -0.269 OA
ATOM     26  N   UNL A   1      32.449  19.282  23.135  1.00  0.00    -0.345 N 
ATOM     27  C   UNL A   1      32.153  20.544  22.472  1.00  0.00     0.146 C 
ATOM     28  C   UNL A   1      32.153  18.078  22.377  1.00  0.00     0.146 C 
ENDBRANCH  21  24
ENDBRANCH  13  16
ENDBRANCH   6  12
ENDBRANCH   3   5
ENDBRANCH   2   3
ENDBRANCH   1   2
BRANCH   1  29
ATOM     29  C   UNL A   1      31.787  30.170  26.645  1.00  0.00     0.275 C 
BRANCH  29  30
ATOM     30  O   UNL A   1      33.032  30.797  26.278  1.00  0.00    -0.458 OA
BRANCH  30  31
ATOM     31  C   UNL A   1      33.583  31.598  27.217  1.00  0.00     0.338 C 
ATOM     32  O   UNL A   1      33.134  32.646  27.655  1.00  0.00    -0.246 OA
BRANCH  31  33
ATOM     33  C   UNL A   1      34.896  31.085  27.658  1.00  0.00     0.060 A 
ATOM     34  C   UNL A   1      35.081  29.735  27.931  1.00  0.00     0.016 A 
ATOM     35  C   UNL A   1      35.894  32.003  28.001  1.00  0.00     0.016 A 
ATOM     36  C   UNL A   1      36.208  29.325  28.651  1.00  0.00     0.010 A 
ATOM     37  C   UNL A   1      37.064  31.572  28.645  1.00  0.00     0.010 A 
ATOM     38  C   UNL A   1      37.214  30.234  29.039  1.00  0.00    -0.014 A 
BRANCH  38  39
ATOM     39  C   UNL A   1      38.366  29.776  29.886  1.00  0.00     0.031 A 
ATOM     40  C   UNL A   1      39.384  28.764  29.393  1.00  0.00     0.074 A 
ATOM     41  C   UNL A   1      38.579  30.351  31.089  1.00  0.00     0.049 A 
ATOM     42  N   UNL A   1      40.480  28.334  29.980  1.00  0.00    -0.248 NA
ATOM     43  C   UNL A   1      39.186  28.193  28.053  1.00  0.00     0.031 C 
ATOM     44  C   UNL A   1      37.744  31.395  31.685  1.00  0.00     0.029 A 
ATOM     45  N   UNL A   1      39.572  30.152  32.020  1.00  0.00    -0.354 N 
ATOM     46  C   UNL A   1      41.128  27.524  29.054  1.00  0.00     0.074 A 
ATOM     47  C   UNL A   1      40.285  27.473  27.880  1.00  0.00     0.031 C 
ATOM     48  C   UNL A   1      38.279  31.774  32.853  1.00  0.00     0.029 A 
ATOM     49  C   UNL A   1      39.426  30.923  33.147  1.00  0.00     0.049 A 
ATOM     50  H   UNL A   1      40.314  29.519  31.890  1.00  0.00     0.167 HD
ATOM     51  C   UNL A   1      42.321  26.887  29.155  1.00  0.00     0.037 A 
ATOM     52  C   UNL A   1      40.090  30.911  34.320  1.00  0.00     0.037 A 
ATOM     53  C   UNL A   1      43.114  26.811  30.351  1.00  0.00     0.049 A 
ATOM     54  C   UNL A   1      41.223  29.947  34.520  1.00  0.00     0.074 A 
ATOM     55  C   UNL A   1      44.276  26.091  30.577  1.00  0.00     0.029 A 
ATOM     56  N   UNL A   1      42.805  27.452  31.539  1.00  0.00    -0.354 N 
ATOM     57  N   UNL A   1      41.809  29.168  33.645  1.00  0.00    -0.248 NA
ATOM     58  C   UNL A   1      41.766  29.836  35.881  1.00  0.00     0.031 C 
ATOM     59  C   UNL A   1      44.640  26.255  31.919  1.00  0.00     0.029 A 
ATOM     60  C   UNL A   1      43.728  27.108  32.516  1.00  0.00     0.049 A 
ATOM     61  H   UNL A   1      42.043  28.061  31.672  1.00  0.00     0.167 HD
ATOM     62  C   UNL A   1      42.798  28.489  34.343  1.00  0.00     0.074 A 
ATOM     63  C   UNL A   1      42.741  28.953  35.712  1.00  0.00     0.031 C 
ATOM     64  C   UNL A   1      43.672  27.563  33.880  1.00  0.00     0.037 A 
BRANCH  51  65
ATOM     65  C   UNL A   1      42.845  26.199  27.929  1.00  0.00     0.064 A 
ATOM     66  C   UNL A   1      42.450  24.888  27.622  1.00  0.00     0.173 A 
ATOM     67  C   UNL A   1      43.689  26.862  27.027  1.00  0.00     0.173 A 
ATOM     68  F   UNL A   1      41.647  24.211  28.457  1.00  0.00    -0.203 F 
ATOM     69  C   UNL A   1      42.889  24.262  26.457  1.00  0.00     0.198 A 
ATOM     70  C   UNL A   1      44.118  26.236  25.859  1.00  0.00     0.198 A 
ATOM     71  F   UNL A   1      44.086  28.118  27.273  1.00  0.00    -0.203 F 
ATOM     72  F   UNL A   1      42.513  23.004  26.191  1.00  0.00    -0.200 F 
ATOM     73  C   UNL A   1      43.720  24.937  25.576  1.00  0.00     0.200 A 
ATOM     74  F   UNL A   1      44.915  26.892  25.003  1.00  0.00    -0.200 F 
ATOM     75  F   UNL A   1      44.141  24.336  24.455  1.00  0.00    -0.200 F 
ENDBRANCH  51  65
BRANCH  52  76
ATOM     76  C   UNL A   1      39.618  31.777  35.432  1.00  0.00     0.064 A 
ATOM     77  C   UNL A   1      40.118  33.071  35.618  1.00  0.00     0.173 A 
ATOM     78  C   UNL A   1      38.645  31.317  36.336  1.00  0.00     0.173 A 
ATOM     79  F   UNL A   1      41.077  33.543  34.807  1.00  0.00    -0.203 F 
ATOM     80  C   UNL A   1      39.657  33.875  36.660  1.00  0.00     0.198 A 
ATOM     81  C   UNL A   1      38.160  32.133  37.353  1.00  0.00     0.198 A 
ATOM     82  F   UNL A   1      38.147  30.077  36.215  1.00  0.00    -0.203 F 
ATOM     83  F   UNL A   1      40.179  35.096  36.843  1.00  0.00    -0.200 F 
ATOM     84  C   UNL A   1      38.670  33.410  37.518  1.00  0.00     0.200 A 
ATOM     85  F   UNL A   1      37.197  31.681  38.168  1.00  0.00    -0.200 F 
ATOM     86  F   UNL A   1      38.220  34.188  38.511  1.00  0.00    -0.200 F 
ENDBRANCH  52  76
BRANCH  64  87
ATOM     87  C   UNL A   1      44.656  26.990  34.856  1.00  0.00     0.064 A 
ATOM     88  C   UNL A   1      45.870  27.636  35.132  1.00  0.00     0.173 A 
ATOM     89  C   UNL A   1      44.361  25.813  35.560  1.00  0.00     0.173 A 
ATOM     90  F   UNL A   1      46.203  28.756  34.471  1.00  0.00    -0.203 F 
ATOM     91  C   UNL A   1      46.761  27.116  36.066  1.00  0.00     0.198 A 
ATOM     92  C   UNL A   1      45.243  25.310  36.513  1.00  0.00     0.198 A 
ATOM     93  F   UNL A   1      43.211  25.161  35.335  1.00  0.00    -0.203 F 
ATOM     94  F   UNL A   1      47.930  27.730  36.289  1.00  0.00    -0.200 F 
ATOM     95  C   UNL A   1      46.443  25.959  36.762  1.00  0.00     0.200 A 
ATOM     96  F   UNL A   1      44.929  24.198  37.193  1.00  0.00    -0.200 F 
ATOM     97  F   UNL A   1      47.295  25.466  37.671  1.00  0.00    -0.200 F 
ENDBRANCH  64  87
ENDBRANCH  38  39
ENDBRANCH  31  33
ENDBRANCH  30  31
ENDBRANCH  29  30
ENDBRANCH   1  29
TORSDOF 15
ENDMDL
MODEL 2
REMARK VINA RESULT:     -12.4      0.388      1.934
REMARK SMILES COc1ccc(C(=O)N(C)C)cc1NC(=O)[C@H]1[C@@H](C(=O)OCCOC(=O)c2ccc(-c3c4nc(c(-c5c(F)c(F)c(F)c(F)c5F)c5ccc([nH]5)c(-c5c(F)c(F)c(F)c(F)c5F)c5nc(c(-c6c(F)c(F)c(F)c(F)c6F)c6ccc3[nH]6)C=C5)C=C4)cc2)[C@H]2C=C[C@@H]1C2
REMARK SMILES IDX 22 1 21 2 19 3 20 4 18 5 17 6 93 7 90 8 92 9 94 10 91 11
REMARK SMILES IDX 15 12 14 13 16 15 13 16 3 17 4 18 5 19 12 20 6 21 2 22 1 23
REMARK SMILES IDX 7 24 8 25 9 26 10 27 11 28 23 29 24 30 25 31 26 32 27 33
REMARK SMILES IDX 28 34 89 35 29 36 88 37 30 38 31 39 32 40 82 41 33 42 87 43
REMARK SMILES IDX 81 44 83 45 34 46 86 47 80 48 79 49 35 51 67 52 47 53 66 54
REMARK SMILES IDX 48 55 51 56 65 57 84 58 49 59 50 60 64 62 85 63 52 64 36 65
REMARK SMILES IDX 37 66 45 67 38 68 39 69 43 70 46 71 40 72 41 73 44 74 42 75
REMARK SMILES IDX 68 76 69 77 77 78 70 79 71 80 75 81 78 82 72 83 73 84 76 85
REMARK SMILES IDX 74 86 53 87 54 88 62 89 55 90 56 91 60 92 63 93 57 94 58 95
REMARK SMILES IDX 61 96 59 97
REMARK H PARENT 14 14 83 50 51 61
REMARK Flexibility Score: inf
ROOT
ATOM      1  C   UNL A   1      31.791  28.951  25.448  1.00  0.00     0.274 C 
ENDROOT
BRANCH   1   2
ATOM      2  O   UNL A   1      33.083  28.408  25.112  1.00  0.00    -0.462 OA
BRANCH   2   3
ATOM      3  C   UNL A   1      33.146  27.049  25.124  1.00  0.00     0.310 C 
ATOM      4  O   UNL A   1      34.031  26.413  25.684  1.00  0.00    -0.252 OA
BRANCH   3   5
ATOM      5  C   UNL A   1      32.059  26.427  24.258  1.00  0.00     0.119 C 
ATOM      6  C   UNL A   1      31.522  24.968  24.617  1.00  0.00     0.100 C 
ATOM      7  C   UNL A   1      31.899  24.206  23.323  1.00  0.00     0.025 C 
ATOM      8  C   UNL A   1      32.602  26.259  22.809  1.00  0.00     0.027 C 
ATOM      9  C   UNL A   1      33.387  24.116  23.152  1.00  0.00    -0.027 C 
ATOM     10  C   UNL A   1      31.596  25.271  22.249  1.00  0.00     0.017 C 
ATOM     11  C   UNL A   1      33.806  25.337  22.796  1.00  0.00    -0.027 C 
BRANCH   6  12
ATOM     12  C   UNL A   1      31.841  24.622  26.072  1.00  0.00     0.229 C 
ATOM     13  N   UNL A   1      32.588  23.639  26.614  1.00  0.00    -0.323 N 
ATOM     14  H   UNL A   1      32.645  23.749  27.591  1.00  0.00     0.170 HD
ATOM     15  O   UNL A   1      31.268  25.310  26.937  1.00  0.00    -0.274 OA
BRANCH  13  16
ATOM     16  C   UNL A   1      33.306  22.509  26.207  1.00  0.00     0.084 A 
ATOM     17  C   UNL A   1      34.712  22.551  26.155  1.00  0.00     0.142 A 
ATOM     18  C   UNL A   1      35.428  21.516  25.535  1.00  0.00     0.049 A 
ATOM     19  C   UNL A   1      34.756  20.413  25.006  1.00  0.00     0.018 A 
ATOM     20  C   UNL A   1      32.683  21.348  25.803  1.00  0.00     0.044 A 
ATOM     21  C   UNL A   1      33.376  20.311  25.168  1.00  0.00     0.042 A 
BRANCH  17  22
ATOM     22  O   UNL A   1      35.439  23.663  26.488  1.00  0.00    -0.495 OA
ATOM     23  C   UNL A   1      36.781  23.688  26.013  1.00  0.00     0.278 C 
ENDBRANCH  17  22
BRANCH  21  24
ATOM     24  C   UNL A   1      32.620  19.223  24.484  1.00  0.00     0.253 C 
ATOM     25  O   UNL A   1      32.356  18.218  25.142  1.00  0.00    -0.269 OA
ATOM     26  N   UNL A   1      32.336  19.325  23.122  1.00  0.00    -0.345 N 
ATOM     27  C   UNL A   1      32.154  20.571  22.392  1.00  0.00     0.146 C 
ATOM     28  C   UNL A   1      32.036  18.106  22.390  1.00  0.00     0.146 C 
ENDBRANCH  21  24
ENDBRANCH  13  16
ENDBRANCH   6  12
ENDBRANCH   3   5
ENDBRANCH   2   3
ENDBRANCH   1   2
BRANCH   1  29
ATOM     29  C   UNL A   1      31.839  30.427  25.853  1.00  0.00     0.275 C 
BRANCH  29  30
ATOM     30  O   UNL A   1      32.353  30.588  27.191  1.00  0.00    -0.458 OA
BRANCH  30  31
ATOM     31  C   UNL A   1      33.200  31.625  27.372  1.00  0.00     0.338 C 
ATOM     32  O   UNL A   1      32.971  32.811  27.196  1.00  0.00    -0.246 OA
BRANCH  31  33
ATOM     33  C   UNL A   1      34.542  31.158  27.779  1.00  0.00     0.060 A 
ATOM     34  C   UNL A   1      34.779  29.815  28.051  1.00  0.00     0.016 A 
ATOM     35  C   UNL A   1      35.518  32.109  28.092  1.00  0.00     0.016 A 
ATOM     36  C   UNL A   1      35.939  29.446  28.742  1.00  0.00     0.010 A 
ATOM     37  C   UNL A   1      36.718  31.720  28.706  1.00  0.00     0.010 A 
ATOM     38  C   UNL A   1      36.924  30.390  29.100  1.00  0.00    -0.014 A 
BRANCH  38  39
ATOM     39  C   UNL A   1      38.112  29.974  29.917  1.00  0.00     0.031 A 
ATOM     40  C   UNL A   1      39.146  28.989  29.403  1.00  0.00     0.074 A 
ATOM     41  C   UNL A   1      38.342  30.566  31.108  1.00  0.00     0.049 A 
ATOM     42  N   UNL A   1      40.270  28.597  29.961  1.00  0.00    -0.248 NA
ATOM     43  C   UNL A   1      38.926  28.400  28.074  1.00  0.00     0.031 C 
ATOM     44  C   UNL A   1      37.493  31.591  31.719  1.00  0.00     0.029 A 
ATOM     45  N   UNL A   1      39.367  30.406  32.012  1.00  0.00    -0.354 N 
ATOM     46  C   UNL A   1      40.916  27.798  29.023  1.00  0.00     0.074 A 
ATOM     47  C   UNL A   1      40.042  27.712  27.875  1.00  0.00     0.031 C 
ATOM     48  C   UNL A   1      38.050  31.995  32.869  1.00  0.00     0.029 A 
ATOM     49  C   UNL A   1      39.230  31.181  33.137  1.00  0.00     0.049 A 
ATOM     50  H   UNL A   1      40.124  29.794  31.866  1.00  0.00     0.167 HD
ATOM     51  C   UNL A   1      42.130  27.199  29.095  1.00  0.00     0.037 A 
ATOM     52  C   UNL A   1      39.928  31.200  34.289  1.00  0.00     0.037 A 
ATOM     53  C   UNL A   1      42.959  27.157  30.269  1.00  0.00     0.049 A 
ATOM     54  C   UNL A   1      41.094  30.272  34.464  1.00  0.00     0.074 A 
ATOM     55  C   UNL A   1      44.148  26.475  30.467  1.00  0.00     0.029 A 
ATOM     56  N   UNL A   1      42.665  27.799  31.460  1.00  0.00    -0.354 N 
ATOM     57  N   UNL A   1      41.678  29.503  33.580  1.00  0.00    -0.248 NA
ATOM     58  C   UNL A   1      41.679  30.190  35.810  1.00  0.00     0.031 C 
ATOM     59  C   UNL A   1      44.545  26.662  31.795  1.00  0.00     0.029 A 
ATOM     60  C   UNL A   1      43.625  27.491  32.412  1.00  0.00     0.049 A 
ATOM     61  H   UNL A   1      41.889  28.386  31.610  1.00  0.00     0.167 HD
ATOM     62  C   UNL A   1      42.707  28.861  34.254  1.00  0.00     0.074 A 
ATOM     63  C   UNL A   1      42.675  29.335  35.620  1.00  0.00     0.031 C 
ATOM     64  C   UNL A   1      43.595  27.957  33.774  1.00  0.00     0.037 A 
BRANCH  51  65
ATOM     65  C   UNL A   1      42.639  26.515  27.860  1.00  0.00     0.064 A 
ATOM     66  C   UNL A   1      43.426  27.212  26.931  1.00  0.00     0.173 A 
ATOM     67  C   UNL A   1      42.399  25.153  27.632  1.00  0.00     0.173 A 
ATOM     68  F   UNL A   1      43.680  28.518  27.105  1.00  0.00    -0.203 F 
ATOM     69  C   UNL A   1      43.948  26.569  25.810  1.00  0.00     0.198 A 
ATOM     70  C   UNL A   1      42.930  24.512  26.516  1.00  0.00     0.198 A 
ATOM     71  F   UNL A   1      41.660  24.444  28.496  1.00  0.00    -0.203 F 
ATOM     72  F   UNL A   1      44.683  27.257  24.926  1.00  0.00    -0.200 F 
ATOM     73  C   UNL A   1      43.702  25.220  25.605  1.00  0.00     0.200 A 
ATOM     74  F   UNL A   1      42.698  23.206  26.321  1.00  0.00    -0.200 F 
ATOM     75  F   UNL A   1      44.205  24.602  24.528  1.00  0.00    -0.200 F 
ENDBRANCH  51  65
BRANCH  52  76
ATOM     76  C   UNL A   1      39.461  32.062  35.408  1.00  0.00     0.064 A 
ATOM     77  C   UNL A   1      38.581  31.583  36.385  1.00  0.00     0.173 A 
ATOM     78  C   UNL A   1      39.897  33.393  35.518  1.00  0.00     0.173 A 
ATOM     79  F   UNL A   1      38.103  30.333  36.303  1.00  0.00    -0.203 F 
ATOM     80  C   UNL A   1      38.160  32.401  37.433  1.00  0.00     0.198 A 
ATOM     81  C   UNL A   1      39.506  34.197  36.584  1.00  0.00     0.198 A 
ATOM     82  F   UNL A   1      40.726  33.908  34.596  1.00  0.00    -0.203 F 
ATOM     83  F   UNL A   1      37.285  31.934  38.335  1.00  0.00    -0.200 F 
ATOM     84  C   UNL A   1      38.633  33.701  37.538  1.00  0.00     0.200 A 
ATOM     85  F   UNL A   1      39.978  35.446  36.685  1.00  0.00    -0.200 F 
ATOM     86  F   UNL A   1      38.238  34.482  38.553  1.00  0.00    -0.200 F 
ENDBRANCH  52  76
BRANCH  64  87
ATOM     87  C   UNL A   1      44.623  27.423  34.725  1.00  0.00     0.064 A 
ATOM     88  C   UNL A   1      44.421  26.219  35.418  1.00  0.00     0.173 A 
ATOM     89  C   UNL A   1      45.843  28.090  34.908  1.00  0.00     0.173 A 
ATOM     90  F   UNL A   1      43.263  25.553  35.288  1.00  0.00    -0.203 F 
ATOM     91  C   UNL A   1      45.396  25.713  36.271  1.00  0.00     0.198 A 
ATOM     92  C   UNL A   1      46.827  27.567  35.742  1.00  0.00     0.198 A 
ATOM     93  F   UNL A   1      46.087  29.242  34.265  1.00  0.00    -0.203 F 
ATOM     94  F   UNL A   1      45.168  24.580  36.950  1.00  0.00    -0.200 F 
ATOM     95  C   UNL A   1      46.602  26.381  36.426  1.00  0.00     0.200 A 
ATOM     96  F   UNL A   1      47.996  28.209  35.882  1.00  0.00    -0.200 F 
ATOM     97  F   UNL A   1      47.545  25.885  37.238  1.00  0.00    -0.200 F 
ENDBRANCH  64  87
ENDBRANCH  38  39
ENDBRANCH  31  33
ENDBRANCH  30  31
ENDBRANCH  29  30
ENDBRANCH   1  29
TORSDOF 15
ENDMDL
MODEL 3
REMARK VINA RESULT:     -12.3      4.218      9.754
REMARK SMILES COc1ccc(C(=O)N(C)C)cc1NC(=O)[C@H]1[C@@H](C(=O)OCCOC(=O)c2ccc(-c3c4nc(c(-c5c(F)c(F)c(F)c(F)c5F)c5ccc([nH]5)c(-c5c(F)c(F)c(F)c(F)c5F)c5nc(c(-c6c(F)c(F)c(F)c(F)c6F)c6ccc3[nH]6)C=C5)C=C4)cc2)[C@H]2C=C[C@@H]1C2
REMARK SMILES IDX 22 1 21 2 19 3 20 4 18 5 17 6 93 7 90 8 92 9 94 10 91 11
REMARK SMILES IDX 15 12 14 13 16 15 13 16 3 17 4 18 5 19 12 20 6 21 2 22 1 23
REMARK SMILES IDX 7 24 8 25 9 26 10 27 11 28 23 29 24 30 25 31 26 32 27 33
REMARK SMILES IDX 28 34 89 35 29 36 88 37 30 38 31 39 32 40 82 41 33 42 87 43
REMARK SMILES IDX 81 44 83 45 34 46 86 47 80 48 79 49 35 51 67 52 47 53 66 54
REMARK SMILES IDX 48 55 51 56 65 57 84 58 49 59 50 60 64 62 85 63 52 64 36 65
REMARK SMILES IDX 37 66 45 67 38 68 39 69 43 70 46 71 40 72 41 73 44 74 42 75
REMARK SMILES IDX 68 76 69 77 77 78 70 79 71 80 75 81 78 82 72 83 73 84 76 85
REMARK SMILES IDX 74 86 53 87 54 88 62 89 55 90 56 91 60 92 63 93 57 94 58 95
REMARK SMILES IDX 61 96 59 97
REMARK H PARENT 14 14 83 50 51 61
REMARK Flexibility Score: inf
ROOT
ATOM      1  C   UNL A   1      35.697  21.424  24.957  1.00  0.00     0.274 C 
ENDROOT
BRANCH   1   2
ATOM      2  O   UNL A   1      35.195  22.263  26.017  1.00  0.00    -0.462 OA
BRANCH   2   3
ATOM      3  C   UNL A   1      34.512  23.360  25.593  1.00  0.00     0.310 C 
ATOM      4  O   UNL A   1      34.889  24.511  25.780  1.00  0.00    -0.252 OA
BRANCH   3   5
ATOM      5  C   UNL A   1      33.171  22.987  24.976  1.00  0.00     0.119 C 
ATOM      6  C   UNL A   1      32.507  23.970  23.910  1.00  0.00     0.100 C 
ATOM      7  C   UNL A   1      31.188  24.324  24.640  1.00  0.00     0.025 C 
ATOM      8  C   UNL A   1      32.100  22.909  26.103  1.00  0.00     0.027 C 
ATOM      9  C   UNL A   1      31.447  25.111  25.891  1.00  0.00    -0.027 C 
ATOM     10  C   UNL A   1      30.827  22.966  25.280  1.00  0.00     0.017 C 
ATOM     11  C   UNL A   1      31.949  24.254  26.787  1.00  0.00    -0.027 C 
BRANCH   6  12
ATOM     12  C   UNL A   1      33.561  24.902  23.311  1.00  0.00     0.229 C 
ATOM     13  N   UNL A   1      33.646  26.247  23.269  1.00  0.00    -0.323 N 
ATOM     14  H   UNL A   1      34.501  26.526  22.868  1.00  0.00     0.170 HD
ATOM     15  O   UNL A   1      34.484  24.352  22.681  1.00  0.00    -0.274 OA
BRANCH  13  16
ATOM     16  C   UNL A   1      32.884  27.366  23.624  1.00  0.00     0.084 A 
ATOM     17  C   UNL A   1      33.148  28.043  24.829  1.00  0.00     0.142 A 
ATOM     18  C   UNL A   1      32.256  29.014  25.306  1.00  0.00     0.049 A 
ATOM     19  C   UNL A   1      31.121  29.351  24.566  1.00  0.00     0.018 A 
ATOM     20  C   UNL A   1      31.836  27.817  22.850  1.00  0.00     0.044 A 
ATOM     21  C   UNL A   1      30.924  28.772  23.313  1.00  0.00     0.042 A 
BRANCH  17  22
ATOM     22  O   UNL A   1      34.134  27.660  25.700  1.00  0.00    -0.495 OA
ATOM     23  C   UNL A   1      34.393  28.559  26.772  1.00  0.00     0.278 C 
ENDBRANCH  17  22
BRANCH  21  24
ATOM     24  C   UNL A   1      29.650  29.002  22.574  1.00  0.00     0.253 C 
ATOM     25  O   UNL A   1      29.673  29.804  21.642  1.00  0.00    -0.269 OA
ATOM     26  N   UNL A   1      28.472  28.399  23.018  1.00  0.00    -0.345 N 
ATOM     27  C   UNL A   1      28.392  27.135  23.736  1.00  0.00     0.146 C 
ATOM     28  C   UNL A   1      27.206  28.979  22.602  1.00  0.00     0.146 C 
ENDBRANCH  21  24
ENDBRANCH  13  16
ENDBRANCH   6  12
ENDBRANCH   3   5
ENDBRANCH   2   3
ENDBRANCH   1   2
BRANCH   1  29
ATOM     29  C   UNL A   1      36.940  20.622  25.354  1.00  0.00     0.275 C 
BRANCH  29  30
ATOM     30  O   UNL A   1      38.147  21.375  25.124  1.00  0.00    -0.458 OA
BRANCH  30  31
ATOM     31  C   UNL A   1      39.121  21.219  26.049  1.00  0.00     0.338 C 
ATOM     32  O   UNL A   1      39.621  20.173  26.431  1.00  0.00    -0.246 OA
BRANCH  31  33
ATOM     33  C   UNL A   1      39.515  22.515  26.639  1.00  0.00     0.060 A 
ATOM     34  C   UNL A   1      38.956  23.705  26.188  1.00  0.00     0.016 A 
ATOM     35  C   UNL A   1      40.609  22.551  27.510  1.00  0.00     0.016 A 
ATOM     36  C   UNL A   1      39.567  24.921  26.513  1.00  0.00     0.010 A 
ATOM     37  C   UNL A   1      41.163  23.779  27.903  1.00  0.00     0.010 A 
ATOM     38  C   UNL A   1      40.692  24.985  27.362  1.00  0.00    -0.014 A 
BRANCH  38  39
ATOM     39  C   UNL A   1      41.376  26.296  27.620  1.00  0.00     0.031 A 
ATOM     40  C   UNL A   1      40.694  27.436  28.353  1.00  0.00     0.074 A 
ATOM     41  C   UNL A   1      42.676  26.446  27.289  1.00  0.00     0.049 A 
ATOM     42  N   UNL A   1      41.186  28.598  28.724  1.00  0.00    -0.248 NA
ATOM     43  C   UNL A   1      39.299  27.240  28.774  1.00  0.00     0.031 C 
ATOM     44  C   UNL A   1      43.507  25.426  26.647  1.00  0.00     0.029 A 
ATOM     45  N   UNL A   1      43.533  27.509  27.461  1.00  0.00    -0.354 N 
ATOM     46  C   UNL A   1      40.198  29.218  29.483  1.00  0.00     0.074 A 
ATOM     47  C   UNL A   1      39.055  28.334  29.483  1.00  0.00     0.031 C 
ATOM     48  C   UNL A   1      44.757  25.892  26.519  1.00  0.00     0.029 A 
ATOM     49  C   UNL A   1      44.791  27.282  26.960  1.00  0.00     0.049 A 
ATOM     50  H   UNL A   1      43.269  28.349  27.899  1.00  0.00     0.167 HD
ATOM     51  C   UNL A   1      40.235  30.406  30.135  1.00  0.00     0.037 A 
ATOM     52  C   UNL A   1      45.844  28.108  26.804  1.00  0.00     0.037 A 
ATOM     53  C   UNL A   1      41.304  31.362  30.044  1.00  0.00     0.049 A 
ATOM     54  C   UNL A   1      45.737  29.537  27.250  1.00  0.00     0.074 A 
ATOM     55  C   UNL A   1      41.372  32.639  30.575  1.00  0.00     0.029 A 
ATOM     56  N   UNL A   1      42.481  31.159  29.343  1.00  0.00    -0.354 N 
ATOM     57  N   UNL A   1      44.789  30.117  27.943  1.00  0.00    -0.248 NA
ATOM     58  C   UNL A   1      46.834  30.436  26.865  1.00  0.00     0.031 C 
ATOM     59  C   UNL A   1      42.569  33.228  30.151  1.00  0.00     0.029 A 
ATOM     60  C   UNL A   1      43.262  32.303  29.389  1.00  0.00     0.049 A 
ATOM     61  H   UNL A   1      42.727  30.326  28.880  1.00  0.00     0.167 HD
ATOM     62  C   UNL A   1      45.180  31.440  28.091  1.00  0.00     0.074 A 
ATOM     63  C   UNL A   1      46.457  31.578  27.424  1.00  0.00     0.031 C 
ATOM     64  C   UNL A   1      44.531  32.447  28.724  1.00  0.00     0.037 A 
BRANCH  51  65
ATOM     65  C   UNL A   1      39.064  30.754  31.006  1.00  0.00     0.064 A 
ATOM     66  C   UNL A   1      39.070  30.436  32.372  1.00  0.00     0.173 A 
ATOM     67  C   UNL A   1      37.964  31.459  30.497  1.00  0.00     0.173 A 
ATOM     68  F   UNL A   1      40.098  29.759  32.903  1.00  0.00    -0.203 F 
ATOM     69  C   UNL A   1      38.009  30.805  33.198  1.00  0.00     0.198 A 
ATOM     70  C   UNL A   1      36.910  31.835  31.327  1.00  0.00     0.198 A 
ATOM     71  F   UNL A   1      37.917  31.793  29.200  1.00  0.00    -0.203 F 
ATOM     72  F   UNL A   1      38.027  30.477  34.496  1.00  0.00    -0.200 F 
ATOM     73  C   UNL A   1      36.933  31.506  32.676  1.00  0.00     0.200 A 
ATOM     74  F   UNL A   1      35.873  32.519  30.824  1.00  0.00    -0.200 F 
ATOM     75  F   UNL A   1      35.914  31.862  33.470  1.00  0.00    -0.200 F 
ENDBRANCH  51  65
BRANCH  52  76
ATOM     76  C   UNL A   1      47.055  27.618  26.092  1.00  0.00     0.064 A 
ATOM     77  C   UNL A   1      47.157  27.669  24.698  1.00  0.00     0.173 A 
ATOM     78  C   UNL A   1      48.141  27.086  26.808  1.00  0.00     0.173 A 
ATOM     79  F   UNL A   1      46.132  28.130  23.966  1.00  0.00    -0.203 F 
ATOM     80  C   UNL A   1      48.302  27.215  24.046  1.00  0.00     0.198 A 
ATOM     81  C   UNL A   1      49.298  26.667  26.159  1.00  0.00     0.198 A 
ATOM     82  F   UNL A   1      48.086  26.996  28.145  1.00  0.00    -0.203 F 
ATOM     83  F   UNL A   1      48.363  27.236  22.707  1.00  0.00    -0.200 F 
ATOM     84  C   UNL A   1      49.376  26.727  24.778  1.00  0.00     0.200 A 
ATOM     85  F   UNL A   1      50.335  26.210  26.874  1.00  0.00    -0.200 F 
ATOM     86  F   UNL A   1      50.481  26.302  24.151  1.00  0.00    -0.200 F 
ENDBRANCH  52  76
BRANCH  64  87
ATOM     87  C   UNL A   1      45.191  33.792  28.745  1.00  0.00     0.064 A 
ATOM     88  C   UNL A   1      44.946  34.740  27.740  1.00  0.00     0.173 A 
ATOM     89  C   UNL A   1      46.034  34.158  29.805  1.00  0.00     0.173 A 
ATOM     90  F   UNL A   1      44.160  34.431  26.698  1.00  0.00    -0.203 F 
ATOM     91  C   UNL A   1      45.536  36.001  27.787  1.00  0.00     0.198 A 
ATOM     92  C   UNL A   1      46.601  35.429  29.862  1.00  0.00     0.198 A 
ATOM     93  F   UNL A   1      46.296  33.289  30.792  1.00  0.00    -0.203 F 
ATOM     94  F   UNL A   1      45.316  36.878  26.799  1.00  0.00    -0.200 F 
ATOM     95  C   UNL A   1      46.354  36.347  28.852  1.00  0.00     0.200 A 
ATOM     96  F   UNL A   1      47.383  35.766  30.898  1.00  0.00    -0.200 F 
ATOM     97  F   UNL A   1      46.910  37.565  28.903  1.00  0.00    -0.200 F 
ENDBRANCH  64  87
ENDBRANCH  38  39
ENDBRANCH  31  33
ENDBRANCH  30  31
ENDBRANCH  29  30
ENDBRANCH   1  29
TORSDOF 15
ENDMDL
