MODEL 1
REMARK VINA RESULT:     -12.2      0.000      0.000
REMARK SMILES COc1ncccc1NS(=O)(=O)c1ccc(Br)c(C(=O)OCCOC(=O)c2ccc(-c3c4nc(c(-c5c(F)c(F)c(F)c(F)c5F)c5ccc([nH]5)c(-c5c(F)c(F)c(F)c(F)c5F)c5nc(c(-c6c(F)c(F)c(F)c(F)c6F)c6ccc3[nH]6)C=C5)C=C4)cc2)c1
REMARK SMILES IDX 22 1 21 2 19 3 20 4 18 5 13 6 14 7 90 8 15 9 16 10 17 11
REMARK SMILES IDX 10 12 11 13 12 14 9 15 8 17 3 18 4 19 5 20 7 21 6 22 2 23
REMARK SMILES IDX 1 24 23 25 24 26 25 27 26 28 27 29 28 30 89 31 29 32 88 33
REMARK SMILES IDX 30 34 31 35 32 36 82 37 33 38 87 39 81 40 83 41 34 42 86 43
REMARK SMILES IDX 80 44 79 45 35 47 67 48 47 49 66 50 48 51 51 52 65 53 84 54
REMARK SMILES IDX 49 55 50 56 64 58 85 59 52 60 36 61 37 62 45 63 38 64 39 65
REMARK SMILES IDX 43 66 46 67 40 68 41 69 44 70 42 71 68 72 69 73 77 74 70 75
REMARK SMILES IDX 71 76 75 77 78 78 72 79 73 80 76 81 74 82 53 83 54 84 62 85
REMARK SMILES IDX 55 86 56 87 60 88 63 89 57 90 58 91 61 92 59 93
REMARK H PARENT 9 16 83 46 51 57
REMARK Flexibility Score: inf
ROOT
ATOM      1  C   UNL A   1      32.599  29.183  25.110  1.00  0.00     0.275 C 
ENDROOT
BRANCH   1   2
ATOM      2  O   UNL A   1      32.861  28.014  25.918  1.00  0.00    -0.458 OA
BRANCH   2   3
ATOM      3  C   UNL A   1      31.853  27.117  26.027  1.00  0.00     0.339 C 
ATOM      4  O   UNL A   1      30.984  27.109  26.888  1.00  0.00    -0.246 OA
BRANCH   3   5
ATOM      5  C   UNL A   1      31.862  26.132  24.912  1.00  0.00     0.075 A 
ATOM      6  C   UNL A   1      32.977  24.159  23.966  1.00  0.00     0.088 A 
ATOM      7  C   UNL A   1      32.098  24.215  22.879  1.00  0.00     0.023 A 
ATOM      8  C   UNL A   1      32.863  25.133  24.959  1.00  0.00     0.039 A 
ATOM      9  C   UNL A   1      31.149  25.238  22.782  1.00  0.00     0.018 A 
ATOM     10  C   UNL A   1      31.029  26.202  23.792  1.00  0.00     0.032 A 
ATOM     11  Br  UNL A   1      29.813  27.623  23.466  1.00  0.00    -0.050 Br
BRANCH   6  12
ATOM     12  S   UNL A   1      34.224  22.876  23.880  1.00  0.00     0.262 S 
ATOM     13  O   UNL A   1      35.227  23.335  22.946  1.00  0.00    -0.201 OA
ATOM     14  O   UNL A   1      33.488  21.648  23.640  1.00  0.00    -0.201 OA
BRANCH  12  15
ATOM     15  N   UNL A   1      34.960  22.586  25.340  1.00  0.00    -0.274 N 
ATOM     16  H   UNL A   1      34.402  22.265  26.083  1.00  0.00     0.180 HD
BRANCH  15  17
ATOM     17  C   UNL A   1      36.339  22.772  25.580  1.00  0.00     0.111 A 
ATOM     18  C   UNL A   1      37.242  21.724  25.401  1.00  0.00     0.238 A 
ATOM     19  N   UNL A   1      38.535  21.797  25.795  1.00  0.00    -0.220 NA
ATOM     20  C   UNL A   1      38.959  22.962  26.328  1.00  0.00     0.115 A 
ATOM     21  C   UNL A   1      36.819  23.981  26.073  1.00  0.00     0.034 A 
ATOM     22  C   UNL A   1      38.155  24.080  26.458  1.00  0.00     0.023 A 
BRANCH  18  23
ATOM     23  O   UNL A   1      36.849  20.446  25.092  1.00  0.00    -0.480 OA
ATOM     24  C   UNL A   1      37.850  19.448  24.960  1.00  0.00     0.280 C 
ENDBRANCH  18  23
ENDBRANCH  15  17
ENDBRANCH  12  15
ENDBRANCH   6  12
ENDBRANCH   3   5
ENDBRANCH   2   3
ENDBRANCH   1   2
BRANCH   1  25
ATOM     25  C   UNL A   1      31.811  30.225  25.899  1.00  0.00     0.275 C 
BRANCH  25  26
ATOM     26  O   UNL A   1      32.420  30.419  27.189  1.00  0.00    -0.458 OA
BRANCH  26  27
ATOM     27  C   UNL A   1      33.154  31.546  27.340  1.00  0.00     0.338 C 
ATOM     28  O   UNL A   1      32.765  32.700  27.265  1.00  0.00    -0.246 OA
BRANCH  27  29
ATOM     29  C   UNL A   1      34.559  31.202  27.639  1.00  0.00     0.060 A 
ATOM     30  C   UNL A   1      34.928  29.877  27.786  1.00  0.00     0.016 A 
ATOM     31  C   UNL A   1      35.483  32.203  27.950  1.00  0.00     0.016 A 
ATOM     32  C   UNL A   1      36.150  29.578  28.398  1.00  0.00     0.010 A 
ATOM     33  C   UNL A   1      36.747  31.874  28.478  1.00  0.00     0.010 A 
ATOM     34  C   UNL A   1      37.073  30.549  28.813  1.00  0.00    -0.014 A 
BRANCH  34  35
ATOM     35  C   UNL A   1      38.253  30.190  29.701  1.00  0.00     0.031 A 
ATOM     36  C   UNL A   1      39.417  29.370  29.159  1.00  0.00     0.074 A 
ATOM     37  C   UNL A   1      38.395  30.662  30.963  1.00  0.00     0.049 A 
ATOM     38  N   UNL A   1      40.373  28.745  29.810  1.00  0.00    -0.248 NA
ATOM     39  C   UNL A   1      39.522  29.226  27.699  1.00  0.00     0.031 C 
ATOM     40  C   UNL A   1      37.467  31.547  31.662  1.00  0.00     0.029 A 
ATOM     41  N   UNL A   1      39.413  30.484  31.882  1.00  0.00    -0.354 N 
ATOM     42  C   UNL A   1      41.103  28.042  28.854  1.00  0.00     0.074 A 
ATOM     43  C   UNL A   1      40.505  28.346  27.572  1.00  0.00     0.031 C 
ATOM     44  C   UNL A   1      38.001  31.930  32.828  1.00  0.00     0.029 A 
ATOM     45  C   UNL A   1      39.217  31.164  33.062  1.00  0.00     0.049 A 
ATOM     46  H   UNL A   1      40.203  29.923  31.709  1.00  0.00     0.167 HD
ATOM     47  C   UNL A   1      42.163  27.211  29.026  1.00  0.00     0.037 A 
ATOM     48  C   UNL A   1      39.867  31.128  34.243  1.00  0.00     0.037 A 
ATOM     49  C   UNL A   1      42.853  27.006  30.277  1.00  0.00     0.049 A 
ATOM     50  C   UNL A   1      41.007  30.172  34.438  1.00  0.00     0.074 A 
ATOM     51  C   UNL A   1      43.949  26.198  30.537  1.00  0.00     0.029 A 
ATOM     52  N   UNL A   1      42.544  27.643  31.468  1.00  0.00    -0.354 N 
ATOM     53  N   UNL A   1      41.577  29.378  33.568  1.00  0.00    -0.248 NA
ATOM     54  C   UNL A   1      41.557  30.068  35.798  1.00  0.00     0.031 C 
ATOM     55  C   UNL A   1      44.278  26.317  31.891  1.00  0.00     0.029 A 
ATOM     56  C   UNL A   1      43.418  27.236  32.465  1.00  0.00     0.049 A 
ATOM     57  H   UNL A   1      41.811  28.289  31.587  1.00  0.00     0.167 HD
ATOM     58  C   UNL A   1      42.548  28.680  34.271  1.00  0.00     0.074 A 
ATOM     59  C   UNL A   1      42.512  29.164  35.634  1.00  0.00     0.031 C 
ATOM     60  C   UNL A   1      43.384  27.713  33.823  1.00  0.00     0.037 A 
BRANCH  47  61
ATOM     61  C   UNL A   1      42.624  26.397  27.847  1.00  0.00     0.064 A 
ATOM     62  C   UNL A   1      42.113  25.126  27.552  1.00  0.00     0.173 A 
ATOM     63  C   UNL A   1      43.563  26.946  26.954  1.00  0.00     0.173 A 
ATOM     64  F   UNL A   1      41.221  24.552  28.372  1.00  0.00    -0.203 F 
ATOM     65  C   UNL A   1      42.543  24.424  26.427  1.00  0.00     0.198 A 
ATOM     66  C   UNL A   1      43.965  26.256  25.813  1.00  0.00     0.198 A 
ATOM     67  F   UNL A   1      44.073  28.167  27.176  1.00  0.00    -0.203 F 
ATOM     68  F   UNL A   1      42.074  23.191  26.189  1.00  0.00    -0.200 F 
ATOM     69  C   UNL A   1      43.461  24.992  25.554  1.00  0.00     0.200 A 
ATOM     70  F   UNL A   1      44.836  26.817  24.963  1.00  0.00    -0.200 F 
ATOM     71  F   UNL A   1      43.863  24.319  24.467  1.00  0.00    -0.200 F 
ENDBRANCH  47  61
BRANCH  48  72
ATOM     72  C   UNL A   1      39.372  31.954  35.381  1.00  0.00     0.064 A 
ATOM     73  C   UNL A   1      38.477  31.430  36.322  1.00  0.00     0.173 A 
ATOM     74  C   UNL A   1      39.802  33.279  35.559  1.00  0.00     0.173 A 
ATOM     75  F   UNL A   1      38.001  30.185  36.175  1.00  0.00    -0.203 F 
ATOM     76  C   UNL A   1      38.043  32.195  37.404  1.00  0.00     0.198 A 
ATOM     77  C   UNL A   1      39.403  34.027  36.662  1.00  0.00     0.198 A 
ATOM     78  F   UNL A   1      40.647  33.834  34.677  1.00  0.00    -0.203 F 
ATOM     79  F   UNL A   1      37.160  31.684  38.273  1.00  0.00    -0.200 F 
ATOM     80  C   UNL A   1      38.519  33.487  37.582  1.00  0.00     0.200 A 
ATOM     81  F   UNL A   1      39.884  35.265  36.838  1.00  0.00    -0.200 F 
ATOM     82  F   UNL A   1      38.125  34.209  38.638  1.00  0.00    -0.200 F 
ENDBRANCH  48  72
BRANCH  60  83
ATOM     83  C   UNL A   1      44.356  27.136  34.808  1.00  0.00     0.064 A 
ATOM     84  C   UNL A   1      45.601  27.737  35.053  1.00  0.00     0.173 A 
ATOM     85  C   UNL A   1      44.039  25.971  35.523  1.00  0.00     0.173 A 
ATOM     86  F   UNL A   1      45.959  28.842  34.381  1.00  0.00    -0.203 F 
ATOM     87  C   UNL A   1      46.500  27.178  35.957  1.00  0.00     0.198 A 
ATOM     88  C   UNL A   1      44.930  25.430  36.445  1.00  0.00     0.198 A 
ATOM     89  F   UNL A   1      42.862  25.358  35.327  1.00  0.00    -0.203 F 
ATOM     90  F   UNL A   1      47.704  27.741  36.137  1.00  0.00    -0.200 F 
ATOM     91  C   UNL A   1      46.164  26.028  36.655  1.00  0.00     0.200 A 
ATOM     92  F   UNL A   1      44.599  24.323  37.125  1.00  0.00    -0.200 F 
ATOM     93  F   UNL A   1      47.032  25.490  37.523  1.00  0.00    -0.200 F 
ENDBRANCH  60  83
ENDBRANCH  34  35
ENDBRANCH  27  29
ENDBRANCH  26  27
ENDBRANCH  25  26
ENDBRANCH   1  25
TORSDOF 15
ENDMDL
MODEL 2
REMARK VINA RESULT:     -12.1      1.297      2.479
REMARK SMILES COc1ncccc1NS(=O)(=O)c1ccc(Br)c(C(=O)OCCOC(=O)c2ccc(-c3c4nc(c(-c5c(F)c(F)c(F)c(F)c5F)c5ccc([nH]5)c(-c5c(F)c(F)c(F)c(F)c5F)c5nc(c(-c6c(F)c(F)c(F)c(F)c6F)c6ccc3[nH]6)C=C5)C=C4)cc2)c1
REMARK SMILES IDX 22 1 21 2 19 3 20 4 18 5 13 6 14 7 90 8 15 9 16 10 17 11
REMARK SMILES IDX 10 12 11 13 12 14 9 15 8 17 3 18 4 19 5 20 7 21 6 22 2 23
REMARK SMILES IDX 1 24 23 25 24 26 25 27 26 28 27 29 28 30 89 31 29 32 88 33
REMARK SMILES IDX 30 34 31 35 32 36 82 37 33 38 87 39 81 40 83 41 34 42 86 43
REMARK SMILES IDX 80 44 79 45 35 47 67 48 47 49 66 50 48 51 51 52 65 53 84 54
REMARK SMILES IDX 49 55 50 56 64 58 85 59 52 60 36 61 37 62 45 63 38 64 39 65
REMARK SMILES IDX 43 66 46 67 40 68 41 69 44 70 42 71 68 72 69 73 77 74 70 75
REMARK SMILES IDX 71 76 75 77 78 78 72 79 73 80 76 81 74 82 53 83 54 84 62 85
REMARK SMILES IDX 55 86 56 87 60 88 63 89 57 90 58 91 61 92 59 93
REMARK H PARENT 9 16 83 46 51 57
REMARK Flexibility Score: inf
ROOT
ATOM      1  C   UNL A   1      32.210  29.269  24.672  1.00  0.00     0.275 C 
ENDROOT
BRANCH   1   2
ATOM      2  O   UNL A   1      32.974  28.231  25.326  1.00  0.00    -0.458 OA
BRANCH   2   3
ATOM      3  C   UNL A   1      32.363  27.032  25.472  1.00  0.00     0.339 C 
ATOM      4  O   UNL A   1      31.346  26.816  26.116  1.00  0.00    -0.246 OA
BRANCH   3   5
ATOM      5  C   UNL A   1      33.040  25.964  24.688  1.00  0.00     0.075 A 
ATOM      6  C   UNL A   1      34.802  24.254  24.701  1.00  0.00     0.088 A 
ATOM      7  C   UNL A   1      34.488  23.957  23.371  1.00  0.00     0.023 A 
ATOM      8  C   UNL A   1      34.088  25.270  25.338  1.00  0.00     0.039 A 
ATOM      9  C   UNL A   1      33.502  24.681  22.692  1.00  0.00     0.018 A 
ATOM     10  C   UNL A   1      32.777  25.689  23.343  1.00  0.00     0.032 A 
ATOM     11  Br  UNL A   1      31.581  26.700  22.270  1.00  0.00    -0.050 Br
BRANCH   6  12
ATOM     12  S   UNL A   1      36.178  23.337  25.388  1.00  0.00     0.262 S 
ATOM     13  O   UNL A   1      36.784  24.186  26.388  1.00  0.00    -0.201 OA
ATOM     14  O   UNL A   1      36.938  22.877  24.240  1.00  0.00    -0.201 OA
BRANCH  12  15
ATOM     15  N   UNL A   1      35.715  21.917  26.117  1.00  0.00    -0.274 N 
ATOM     16  H   UNL A   1      36.165  21.660  26.953  1.00  0.00     0.180 HD
BRANCH  15  17
ATOM     17  C   UNL A   1      34.717  21.059  25.609  1.00  0.00     0.111 A 
ATOM     18  C   UNL A   1      33.372  21.267  25.918  1.00  0.00     0.238 A 
ATOM     19  N   UNL A   1      32.405  20.371  25.614  1.00  0.00    -0.220 NA
ATOM     20  C   UNL A   1      32.772  19.264  24.933  1.00  0.00     0.115 A 
ATOM     21  C   UNL A   1      35.056  19.941  24.853  1.00  0.00     0.034 A 
ATOM     22  C   UNL A   1      34.066  19.022  24.509  1.00  0.00     0.023 A 
BRANCH  18  23
ATOM     23  O   UNL A   1      32.951  22.230  26.800  1.00  0.00    -0.480 OA
ATOM     24  C   UNL A   1      31.671  22.810  26.599  1.00  0.00     0.280 C 
ENDBRANCH  18  23
ENDBRANCH  15  17
ENDBRANCH  12  15
ENDBRANCH   6  12
ENDBRANCH   3   5
ENDBRANCH   2   3
ENDBRANCH   1   2
BRANCH   1  25
ATOM     25  C   UNL A   1      31.687  30.283  25.685  1.00  0.00     0.275 C 
BRANCH  25  26
ATOM     26  O   UNL A   1      32.469  30.207  26.892  1.00  0.00    -0.458 OA
BRANCH  26  27
ATOM     27  C   UNL A   1      33.103  31.343  27.266  1.00  0.00     0.338 C 
ATOM     28  O   UNL A   1      32.619  32.456  27.388  1.00  0.00    -0.246 OA
BRANCH  27  29
ATOM     29  C   UNL A   1      34.528  31.064  27.539  1.00  0.00     0.060 A 
ATOM     30  C   UNL A   1      34.970  29.756  27.623  1.00  0.00     0.016 A 
ATOM     31  C   UNL A   1      35.397  32.100  27.891  1.00  0.00     0.016 A 
ATOM     32  C   UNL A   1      36.212  29.497  28.213  1.00  0.00     0.010 A 
ATOM     33  C   UNL A   1      36.682  31.817  28.396  1.00  0.00     0.010 A 
ATOM     34  C   UNL A   1      37.084  30.498  28.667  1.00  0.00    -0.014 A 
BRANCH  34  35
ATOM     35  C   UNL A   1      38.289  30.165  29.530  1.00  0.00     0.031 A 
ATOM     36  C   UNL A   1      39.450  29.351  28.970  1.00  0.00     0.074 A 
ATOM     37  C   UNL A   1      38.456  30.654  30.782  1.00  0.00     0.049 A 
ATOM     38  N   UNL A   1      40.429  28.746  29.605  1.00  0.00    -0.248 NA
ATOM     39  C   UNL A   1      39.520  29.189  27.509  1.00  0.00     0.031 C 
ATOM     40  C   UNL A   1      37.535  31.538  31.492  1.00  0.00     0.029 A 
ATOM     41  N   UNL A   1      39.498  30.501  31.678  1.00  0.00    -0.354 N 
ATOM     42  C   UNL A   1      41.143  28.039  28.640  1.00  0.00     0.074 A 
ATOM     43  C   UNL A   1      40.511  28.319  27.370  1.00  0.00     0.031 C 
ATOM     44  C   UNL A   1      38.093  31.943  32.640  1.00  0.00     0.029 A 
ATOM     45  C   UNL A   1      39.324  31.194  32.853  1.00  0.00     0.049 A 
ATOM     46  H   UNL A   1      40.291  29.947  31.492  1.00  0.00     0.167 HD
ATOM     47  C   UNL A   1      42.217  27.223  28.797  1.00  0.00     0.037 A 
ATOM     48  C   UNL A   1      40.003  31.180  34.019  1.00  0.00     0.037 A 
ATOM     49  C   UNL A   1      42.940  27.043  30.033  1.00  0.00     0.049 A 
ATOM     50  C   UNL A   1      41.158  30.241  34.198  1.00  0.00     0.074 A 
ATOM     51  C   UNL A   1      44.052  26.251  30.276  1.00  0.00     0.029 A 
ATOM     52  N   UNL A   1      42.653  27.692  31.223  1.00  0.00    -0.354 N 
ATOM     53  N   UNL A   1      41.716  29.443  33.324  1.00  0.00    -0.248 NA
ATOM     54  C   UNL A   1      41.743  30.161  35.545  1.00  0.00     0.031 C 
ATOM     55  C   UNL A   1      44.412  26.391  31.620  1.00  0.00     0.029 A 
ATOM     56  C   UNL A   1      43.556  27.308  32.203  1.00  0.00     0.049 A 
ATOM     57  H   UNL A   1      41.915  28.331  31.352  1.00  0.00     0.167 HD
ATOM     58  C   UNL A   1      42.713  28.765  34.012  1.00  0.00     0.074 A 
ATOM     59  C   UNL A   1      42.705  29.266  35.369  1.00  0.00     0.031 C 
ATOM     60  C   UNL A   1      43.550  27.803  33.555  1.00  0.00     0.037 A 
BRANCH  47  61
ATOM     61  C   UNL A   1      42.659  26.400  27.617  1.00  0.00     0.064 A 
ATOM     62  C   UNL A   1      43.682  26.801  26.748  1.00  0.00     0.173 A 
ATOM     63  C   UNL A   1      42.072  25.140  27.396  1.00  0.00     0.173 A 
ATOM     64  F   UNL A   1      44.272  27.995  26.908  1.00  0.00    -0.203 F 
ATOM     65  C   UNL A   1      44.084  25.988  25.689  1.00  0.00     0.198 A 
ATOM     66  C   UNL A   1      42.498  24.316  26.358  1.00  0.00     0.198 A 
ATOM     67  F   UNL A   1      41.099  24.696  28.205  1.00  0.00    -0.203 F 
ATOM     68  F   UNL A   1      45.035  26.412  24.845  1.00  0.00    -0.200 F 
ATOM     69  C   UNL A   1      43.499  24.744  25.499  1.00  0.00     0.200 A 
ATOM     70  F   UNL A   1      41.945  23.107  26.191  1.00  0.00    -0.200 F 
ATOM     71  F   UNL A   1      43.896  23.960  24.488  1.00  0.00    -0.200 F 
ENDBRANCH  47  61
BRANCH  48  72
ATOM     72  C   UNL A   1      39.525  32.016  35.158  1.00  0.00     0.064 A 
ATOM     73  C   UNL A   1      38.650  31.497  36.121  1.00  0.00     0.173 A 
ATOM     74  C   UNL A   1      39.954  33.344  35.315  1.00  0.00     0.173 A 
ATOM     75  F   UNL A   1      38.177  30.249  35.994  1.00  0.00    -0.203 F 
ATOM     76  C   UNL A   1      38.234  32.271  37.203  1.00  0.00     0.198 A 
ATOM     77  C   UNL A   1      39.572  34.100  36.418  1.00  0.00     0.198 A 
ATOM     78  F   UNL A   1      40.780  33.894  34.412  1.00  0.00    -0.203 F 
ATOM     79  F   UNL A   1      37.370  31.764  38.094  1.00  0.00    -0.200 F 
ATOM     80  C   UNL A   1      38.708  33.566  37.360  1.00  0.00     0.200 A 
ATOM     81  F   UNL A   1      40.052  35.342  36.574  1.00  0.00    -0.200 F 
ATOM     82  F   UNL A   1      38.331  34.297  38.416  1.00  0.00    -0.200 F 
ENDBRANCH  48  72
BRANCH  60  83
ATOM     83  C   UNL A   1      44.552  27.249  34.524  1.00  0.00     0.064 A 
ATOM     84  C   UNL A   1      44.295  26.085  35.264  1.00  0.00     0.173 A 
ATOM     85  C   UNL A   1      45.789  27.884  34.709  1.00  0.00     0.173 A 
ATOM     86  F   UNL A   1      43.119  25.451  35.136  1.00  0.00    -0.203 F 
ATOM     87  C   UNL A   1      45.228  25.594  36.173  1.00  0.00     0.198 A 
ATOM     88  C   UNL A   1      46.731  27.376  35.600  1.00  0.00     0.198 A 
ATOM     89  F   UNL A   1      46.086  29.000  34.025  1.00  0.00    -0.203 F 
ATOM     90  F   UNL A   1      44.940  24.510  36.907  1.00  0.00    -0.200 F 
ATOM     91  C   UNL A   1      46.446  26.236  36.338  1.00  0.00     0.200 A 
ATOM     92  F   UNL A   1      47.910  27.993  35.751  1.00  0.00    -0.200 F 
ATOM     93  F   UNL A   1      47.342  25.764  37.215  1.00  0.00    -0.200 F 
ENDBRANCH  60  83
ENDBRANCH  34  35
ENDBRANCH  27  29
ENDBRANCH  26  27
ENDBRANCH  25  26
ENDBRANCH   1  25
TORSDOF 15
ENDMDL
MODEL 3
REMARK VINA RESULT:     -12.0      4.287      9.909
REMARK SMILES COc1ncccc1NS(=O)(=O)c1ccc(Br)c(C(=O)OCCOC(=O)c2ccc(-c3c4nc(c(-c5c(F)c(F)c(F)c(F)c5F)c5ccc([nH]5)c(-c5c(F)c(F)c(F)c(F)c5F)c5nc(c(-c6c(F)c(F)c(F)c(F)c6F)c6ccc3[nH]6)C=C5)C=C4)cc2)c1
REMARK SMILES IDX 22 1 21 2 19 3 20 4 18 5 13 6 14 7 90 8 15 9 16 10 17 11
REMARK SMILES IDX 10 12 11 13 12 14 9 15 8 17 3 18 4 19 5 20 7 21 6 22 2 23
REMARK SMILES IDX 1 24 23 25 24 26 25 27 26 28 27 29 28 30 89 31 29 32 88 33
REMARK SMILES IDX 30 34 31 35 32 36 82 37 33 38 87 39 81 40 83 41 34 42 86 43
REMARK SMILES IDX 80 44 79 45 35 47 67 48 47 49 66 50 48 51 51 52 65 53 84 54
REMARK SMILES IDX 49 55 50 56 64 58 85 59 52 60 36 61 37 62 45 63 38 64 39 65
REMARK SMILES IDX 43 66 46 67 40 68 41 69 44 70 42 71 68 72 69 73 77 74 70 75
REMARK SMILES IDX 71 76 75 77 78 78 72 79 73 80 76 81 74 82 53 83 54 84 62 85
REMARK SMILES IDX 55 86 56 87 60 88 63 89 57 90 58 91 61 92 59 93
REMARK H PARENT 9 16 83 46 51 57
REMARK Flexibility Score: inf
ROOT
ATOM      1  C   UNL A   1      35.399  20.912  25.008  1.00  0.00     0.275 C 
ENDROOT
BRANCH   1   2
ATOM      2  O   UNL A   1      35.383  22.234  24.423  1.00  0.00    -0.458 OA
BRANCH   2   3
ATOM      3  C   UNL A   1      34.901  23.233  25.200  1.00  0.00     0.339 C 
ATOM      4  O   UNL A   1      35.461  23.724  26.170  1.00  0.00    -0.246 OA
BRANCH   3   5
ATOM      5  C   UNL A   1      33.595  23.743  24.703  1.00  0.00     0.075 A 
ATOM      6  C   UNL A   1      32.475  25.115  23.002  1.00  0.00     0.088 A 
ATOM      7  C   UNL A   1      31.255  24.862  23.638  1.00  0.00     0.023 A 
ATOM      8  C   UNL A   1      33.635  24.570  23.556  1.00  0.00     0.039 A 
ATOM      9  C   UNL A   1      31.208  24.105  24.814  1.00  0.00     0.018 A 
ATOM     10  C   UNL A   1      32.374  23.546  25.354  1.00  0.00     0.032 A 
ATOM     11  Br  UNL A   1      32.198  22.675  27.032  1.00  0.00    -0.050 Br
BRANCH   6  12
ATOM     12  S   UNL A   1      32.391  26.214  21.591  1.00  0.00     0.262 S 
ATOM     13  O   UNL A   1      31.028  26.174  21.115  1.00  0.00    -0.201 OA
ATOM     14  O   UNL A   1      33.493  25.814  20.733  1.00  0.00    -0.201 OA
BRANCH  12  15
ATOM     15  N   UNL A   1      32.770  27.787  21.967  1.00  0.00    -0.274 N 
ATOM     16  H   UNL A   1      33.241  28.323  21.291  1.00  0.00     0.180 HD
BRANCH  15  17
ATOM     17  C   UNL A   1      32.456  28.401  23.199  1.00  0.00     0.111 A 
ATOM     18  C   UNL A   1      31.165  28.859  23.460  1.00  0.00     0.238 A 
ATOM     19  N   UNL A   1      30.861  29.616  24.539  1.00  0.00    -0.220 NA
ATOM     20  C   UNL A   1      31.853  29.878  25.416  1.00  0.00     0.115 A 
ATOM     21  C   UNL A   1      33.444  28.632  24.152  1.00  0.00     0.034 A 
ATOM     22  C   UNL A   1      33.140  29.389  25.282  1.00  0.00     0.023 A 
BRANCH  18  23
ATOM     23  O   UNL A   1      30.165  28.842  22.520  1.00  0.00    -0.480 OA
ATOM     24  C   UNL A   1      29.801  30.068  21.903  1.00  0.00     0.280 C 
ENDBRANCH  18  23
ENDBRANCH  15  17
ENDBRANCH  12  15
ENDBRANCH   6  12
ENDBRANCH   3   5
ENDBRANCH   2   3
ENDBRANCH   1   2
BRANCH   1  25
ATOM     25  C   UNL A   1      36.809  20.328  24.997  1.00  0.00     0.275 C 
BRANCH  25  26
ATOM     26  O   UNL A   1      37.775  21.394  25.062  1.00  0.00    -0.458 OA
BRANCH  26  27
ATOM     27  C   UNL A   1      38.911  21.130  25.748  1.00  0.00     0.338 C 
ATOM     28  O   UNL A   1      39.556  20.096  25.745  1.00  0.00    -0.246 OA
BRANCH  27  29
ATOM     29  C   UNL A   1      39.313  22.313  26.539  1.00  0.00     0.060 A 
ATOM     30  C   UNL A   1      38.741  23.545  26.275  1.00  0.00     0.016 A 
ATOM     31  C   UNL A   1      40.390  22.238  27.425  1.00  0.00     0.016 A 
ATOM     32  C   UNL A   1      39.359  24.698  26.771  1.00  0.00     0.010 A 
ATOM     33  C   UNL A   1      40.938  23.409  27.988  1.00  0.00     0.010 A 
ATOM     34  C   UNL A   1      40.497  24.682  27.591  1.00  0.00    -0.014 A 
BRANCH  34  35
ATOM     35  C   UNL A   1      41.278  25.952  27.883  1.00  0.00     0.031 A 
ATOM     36  C   UNL A   1      40.701  27.032  28.791  1.00  0.00     0.074 A 
ATOM     37  C   UNL A   1      42.550  26.149  27.460  1.00  0.00     0.049 A 
ATOM     38  N   UNL A   1      41.083  28.280  28.952  1.00  0.00    -0.248 NA
ATOM     39  C   UNL A   1      39.543  26.670  29.622  1.00  0.00     0.031 C 
ATOM     40  C   UNL A   1      43.349  25.217  26.669  1.00  0.00     0.029 A 
ATOM     41  N   UNL A   1      43.418  27.204  27.674  1.00  0.00    -0.354 N 
ATOM     42  C   UNL A   1      40.144  28.871  29.794  1.00  0.00     0.074 A 
ATOM     43  C   UNL A   1      39.194  27.838  30.144  1.00  0.00     0.031 C 
ATOM     44  C   UNL A   1      44.605  25.671  26.569  1.00  0.00     0.029 A 
ATOM     45  C   UNL A   1      44.659  27.022  27.109  1.00  0.00     0.049 A 
ATOM     46  H   UNL A   1      43.171  28.011  28.182  1.00  0.00     0.167 HD
ATOM     47  C   UNL A   1      40.071  30.156  30.227  1.00  0.00     0.037 A 
ATOM     48  C   UNL A   1      45.707  27.856  26.946  1.00  0.00     0.037 A 
ATOM     49  C   UNL A   1      41.082  31.160  29.999  1.00  0.00     0.049 A 
ATOM     50  C   UNL A   1      45.599  29.285  27.384  1.00  0.00     0.074 A 
ATOM     51  C   UNL A   1      41.098  32.481  30.419  1.00  0.00     0.029 A 
ATOM     52  N   UNL A   1      42.275  30.947  29.327  1.00  0.00    -0.354 N 
ATOM     53  N   UNL A   1      44.626  29.881  28.027  1.00  0.00    -0.248 NA
ATOM     54  C   UNL A   1      46.714  30.174  27.024  1.00  0.00     0.031 C 
ATOM     55  C   UNL A   1      42.281  33.076  29.968  1.00  0.00     0.029 A 
ATOM     56  C   UNL A   1      43.025  32.114  29.309  1.00  0.00     0.049 A 
ATOM     57  H   UNL A   1      42.548  30.093  28.921  1.00  0.00     0.167 HD
ATOM     58  C   UNL A   1      45.008  31.209  28.145  1.00  0.00     0.074 A 
ATOM     59  C   UNL A   1      46.315  31.329  27.536  1.00  0.00     0.031 C 
ATOM     60  C   UNL A   1      44.324  32.238  28.702  1.00  0.00     0.037 A 
BRANCH  47  61
ATOM     61  C   UNL A   1      38.823  30.590  30.949  1.00  0.00     0.064 A 
ATOM     62  C   UNL A   1      38.714  30.594  32.346  1.00  0.00     0.173 A 
ATOM     63  C   UNL A   1      37.730  31.075  30.208  1.00  0.00     0.173 A 
ATOM     64  F   UNL A   1      39.722  30.136  33.102  1.00  0.00    -0.203 F 
ATOM     65  C   UNL A   1      37.551  31.040  32.973  1.00  0.00     0.198 A 
ATOM     66  C   UNL A   1      36.583  31.551  30.838  1.00  0.00     0.198 A 
ATOM     67  F   UNL A   1      37.784  31.110  28.868  1.00  0.00    -0.203 F 
ATOM     68  F   UNL A   1      37.453  30.993  34.309  1.00  0.00    -0.200 F 
ATOM     69  C   UNL A   1      36.491  31.525  32.221  1.00  0.00     0.200 A 
ATOM     70  F   UNL A   1      35.571  32.038  30.108  1.00  0.00    -0.200 F 
ATOM     71  F   UNL A   1      35.380  31.965  32.827  1.00  0.00    -0.200 F 
ENDBRANCH  47  61
BRANCH  48  72
ATOM     72  C   UNL A   1      46.921  27.377  26.224  1.00  0.00     0.064 A 
ATOM     73  C   UNL A   1      47.035  27.501  24.834  1.00  0.00     0.173 A 
ATOM     74  C   UNL A   1      48.001  26.805  26.918  1.00  0.00     0.173 A 
ATOM     75  F   UNL A   1      46.016  28.000  24.119  1.00  0.00    -0.203 F 
ATOM     76  C   UNL A   1      48.186  27.083  24.168  1.00  0.00     0.198 A 
ATOM     77  C   UNL A   1      49.166  26.429  26.257  1.00  0.00     0.198 A 
ATOM     78  F   UNL A   1      47.936  26.649  28.248  1.00  0.00    -0.203 F 
ATOM     79  F   UNL A   1      48.259  27.181  22.833  1.00  0.00    -0.200 F 
ATOM     80  C   UNL A   1      49.257  26.564  24.882  1.00  0.00     0.200 A 
ATOM     81  F   UNL A   1      50.203  25.949  26.956  1.00  0.00    -0.200 F 
ATOM     82  F   UNL A   1      50.374  26.192  24.243  1.00  0.00    -0.200 F 
ENDBRANCH  48  72
BRANCH  60  83
ATOM     83  C   UNL A   1      44.991  33.582  28.707  1.00  0.00     0.064 A 
ATOM     84  C   UNL A   1      45.861  33.967  29.739  1.00  0.00     0.173 A 
ATOM     85  C   UNL A   1      44.765  34.494  27.666  1.00  0.00     0.173 A 
ATOM     86  F   UNL A   1      46.096  33.137  30.768  1.00  0.00    -0.203 F 
ATOM     87  C   UNL A   1      46.458  35.225  29.740  1.00  0.00     0.198 A 
ATOM     88  C   UNL A   1      45.383  35.741  27.657  1.00  0.00     0.198 A 
ATOM     89  F   UNL A   1      43.942  34.175  26.655  1.00  0.00    -0.203 F 
ATOM     90  F   UNL A   1      47.244  35.590  30.763  1.00  0.00    -0.200 F 
ATOM     91  C   UNL A   1      46.222  36.109  28.699  1.00  0.00     0.200 A 
ATOM     92  F   UNL A   1      45.160  36.591  26.645  1.00  0.00    -0.200 F 
ATOM     93  F   UNL A   1      46.795  37.321  28.703  1.00  0.00    -0.200 F 
ENDBRANCH  60  83
ENDBRANCH  34  35
ENDBRANCH  27  29
ENDBRANCH  26  27
ENDBRANCH  25  26
ENDBRANCH   1  25
TORSDOF 15
ENDMDL
