MODEL 1
REMARK VINA RESULT:     -12.5      0.000      0.000
REMARK SMILES C[C@@H]1CCCN(c2ccc(NC(=O)Cc3cccs3)c(C(=O)OCCOC(=O)c3ccc(-c4c5nc(c(-c6c(F)c(F)c(F)c(F)c6F)c6ccc([nH]6)c(-c6c(F)c(F)c(F)c(F)c6F)c6nc(c(-c7c(F)c(F)c(F)c(F)c7F)c7ccc4[nH]7)C=C6)C=C5)cc3)c2)C1
REMARK SMILES IDX 24 1 23 2 21 3 22 4 20 5 7 6 8 7 92 8 9 9 10 10 6 11 1 12
REMARK SMILES IDX 2 13 3 14 93 15 4 16 5 17 11 18 12 19 13 21 14 22 15 23
REMARK SMILES IDX 16 24 19 25 17 26 18 27 25 28 26 29 27 30 28 31 29 32 30 33
REMARK SMILES IDX 91 34 31 35 90 36 32 37 33 38 34 39 84 40 35 41 89 42 83 43
REMARK SMILES IDX 85 44 36 45 88 46 82 47 81 48 37 50 69 51 49 52 68 53 50 54
REMARK SMILES IDX 53 55 67 56 86 57 51 58 52 59 66 61 87 62 54 63 38 64 39 65
REMARK SMILES IDX 47 66 40 67 41 68 45 69 48 70 42 71 43 72 46 73 44 74 70 75
REMARK SMILES IDX 71 76 79 77 72 78 73 79 77 80 80 81 74 82 75 83 78 84 76 85
REMARK SMILES IDX 55 86 56 87 64 88 57 89 58 90 62 91 65 92 59 93 60 94 63 95
REMARK SMILES IDX 61 96
REMARK H PARENT 11 20 85 49 53 60
REMARK Flexibility Score: inf
ROOT
ATOM      1  C   UNL A   1      32.493  28.706  25.162  1.00  0.00     0.275 C 
ENDROOT
BRANCH   1   2
ATOM      2  O   UNL A   1      32.764  27.730  26.192  1.00  0.00    -0.458 OA
BRANCH   2   3
ATOM      3  C   UNL A   1      31.790  26.830  26.488  1.00  0.00     0.340 C 
ATOM      4  O   UNL A   1      30.840  27.022  27.232  1.00  0.00    -0.246 OA
BRANCH   3   5
ATOM      5  C   UNL A   1      32.013  25.532  25.776  1.00  0.00     0.085 A 
ATOM      6  C   UNL A   1      33.577  23.828  24.991  1.00  0.00     0.038 A 
ATOM      7  C   UNL A   1      32.521  23.119  24.434  1.00  0.00     0.028 A 
ATOM      8  C   UNL A   1      33.309  25.011  25.688  1.00  0.00     0.043 A 
ATOM      9  C   UNL A   1      31.220  23.598  24.543  1.00  0.00     0.029 A 
ATOM     10  C   UNL A   1      30.959  24.833  25.144  1.00  0.00     0.055 A 
BRANCH   6  11
ATOM     11  N   UNL A   1      34.873  23.383  24.912  1.00  0.00    -0.371 N 
ATOM     12  C   UNL A   1      38.286  24.186  26.329  1.00  0.00     0.009 C 
ATOM     13  C   UNL A   1      37.042  23.375  25.982  1.00  0.00     0.005 C 
ATOM     14  C   UNL A   1      37.408  22.152  25.118  1.00  0.00     0.007 C 
ATOM     15  C   UNL A   1      35.987  24.247  25.279  1.00  0.00     0.119 C 
ATOM     16  C   UNL A   1      36.166  21.364  24.697  1.00  0.00     0.022 C 
ATOM     17  C   UNL A   1      35.147  22.269  24.018  1.00  0.00     0.116 C 
ENDBRANCH   6  11
BRANCH  10  18
ATOM     18  N   UNL A   1      29.674  25.395  25.083  1.00  0.00    -0.325 N 
ATOM     19  C   UNL A   1      29.115  26.308  24.236  1.00  0.00     0.229 C 
ATOM     20  H   UNL A   1      29.061  25.071  25.781  1.00  0.00     0.169 HD
ATOM     21  O   UNL A   1      27.888  26.452  24.328  1.00  0.00    -0.274 OA
BRANCH  19  22
ATOM     22  C   UNL A   1      29.885  27.142  23.215  1.00  0.00     0.147 C 
BRANCH  22  23
ATOM     23  C   UNL A   1      29.271  28.453  22.748  1.00  0.00     0.014 A 
ATOM     24  C   UNL A   1      27.979  28.951  22.764  1.00  0.00     0.016 A 
ATOM     25  S   UNL A   1      30.345  29.666  22.136  1.00  0.00    -0.148 S 
ATOM     26  C   UNL A   1      27.871  30.298  22.311  1.00  0.00     0.012 A 
ATOM     27  C   UNL A   1      29.092  30.812  21.952  1.00  0.00     0.065 A 
ENDBRANCH  22  23
ENDBRANCH  19  22
ENDBRANCH  10  18
ENDBRANCH   3   5
ENDBRANCH   2   3
ENDBRANCH   1   2
BRANCH   1  28
ATOM     28  C   UNL A   1      31.999  30.036  25.739  1.00  0.00     0.275 C 
BRANCH  28  29
ATOM     29  O   UNL A   1      32.529  30.247  27.061  1.00  0.00    -0.458 OA
BRANCH  29  30
ATOM     30  C   UNL A   1      33.145  31.438  27.238  1.00  0.00     0.338 C 
ATOM     31  O   UNL A   1      32.647  32.546  27.147  1.00  0.00    -0.246 OA
BRANCH  30  32
ATOM     32  C   UNL A   1      34.488  31.211  27.799  1.00  0.00     0.060 A 
ATOM     33  C   UNL A   1      34.753  29.908  28.202  1.00  0.00     0.016 A 
ATOM     34  C   UNL A   1      35.452  32.207  27.966  1.00  0.00     0.016 A 
ATOM     35  C   UNL A   1      35.977  29.590  28.770  1.00  0.00     0.010 A 
ATOM     36  C   UNL A   1      36.693  31.879  28.542  1.00  0.00     0.010 A 
ATOM     37  C   UNL A   1      36.961  30.561  28.941  1.00  0.00    -0.014 A 
BRANCH  37  38
ATOM     38  C   UNL A   1      38.204  30.136  29.629  1.00  0.00     0.031 A 
ATOM     39  C   UNL A   1      38.459  30.600  31.030  1.00  0.00     0.074 A 
ATOM     40  C   UNL A   1      38.996  29.189  29.090  1.00  0.00     0.049 A 
ATOM     41  N   UNL A   1      39.473  30.352  31.818  1.00  0.00    -0.248 NA
ATOM     42  C   UNL A   1      37.412  31.435  31.636  1.00  0.00     0.031 C 
ATOM     43  C   UNL A   1      38.750  28.508  27.822  1.00  0.00     0.029 A 
ATOM     44  N   UNL A   1      40.145  28.606  29.566  1.00  0.00    -0.354 N 
ATOM     45  C   UNL A   1      39.199  31.016  33.004  1.00  0.00     0.074 A 
ATOM     46  C   UNL A   1      37.918  31.671  32.838  1.00  0.00     0.031 C 
ATOM     47  C   UNL A   1      39.713  27.593  27.623  1.00  0.00     0.029 A 
ATOM     48  C   UNL A   1      40.678  27.666  28.717  1.00  0.00     0.049 A 
ATOM     49  H   UNL A   1      40.550  28.840  30.433  1.00  0.00     0.167 HD
ATOM     50  C   UNL A   1      39.956  31.083  34.123  1.00  0.00     0.037 A 
ATOM     51  C   UNL A   1      41.828  26.970  28.800  1.00  0.00     0.037 A 
ATOM     52  C   UNL A   1      41.228  30.427  34.285  1.00  0.00     0.049 A 
ATOM     53  C   UNL A   1      42.725  27.176  29.995  1.00  0.00     0.074 A 
ATOM     54  C   UNL A   1      42.101  30.489  35.358  1.00  0.00     0.029 A 
ATOM     55  N   UNL A   1      41.808  29.587  33.347  1.00  0.00    -0.354 N 
ATOM     56  N   UNL A   1      42.512  27.879  31.081  1.00  0.00    -0.248 NA
ATOM     57  C   UNL A   1      44.034  26.506  29.966  1.00  0.00     0.031 C 
ATOM     58  C   UNL A   1      43.235  29.733  35.044  1.00  0.00     0.029 A 
ATOM     59  C   UNL A   1      43.041  29.147  33.803  1.00  0.00     0.049 A 
ATOM     60  H   UNL A   1      41.404  29.338  32.484  1.00  0.00     0.167 HD
ATOM     61  C   UNL A   1      43.642  27.717  31.871  1.00  0.00     0.074 A 
ATOM     62  C   UNL A   1      44.533  26.832  31.150  1.00  0.00     0.031 C 
ATOM     63  C   UNL A   1      43.918  28.258  33.084  1.00  0.00     0.037 A 
BRANCH  50  64
ATOM     64  C   UNL A   1      39.469  31.975  35.225  1.00  0.00     0.064 A 
ATOM     65  C   UNL A   1      38.636  31.511  36.251  1.00  0.00     0.173 A 
ATOM     66  C   UNL A   1      39.853  33.325  35.248  1.00  0.00     0.173 A 
ATOM     67  F   UNL A   1      38.223  30.234  36.263  1.00  0.00    -0.203 F 
ATOM     68  C   UNL A   1      38.183  32.372  37.248  1.00  0.00     0.198 A 
ATOM     69  C   UNL A   1      39.423  34.176  36.261  1.00  0.00     0.198 A 
ATOM     70  F   UNL A   1      40.648  33.819  34.287  1.00  0.00    -0.203 F 
ATOM     71  F   UNL A   1      37.344  31.922  38.191  1.00  0.00    -0.200 F 
ATOM     72  C   UNL A   1      38.581  33.702  37.254  1.00  0.00     0.200 A 
ATOM     73  F   UNL A   1      39.817  35.457  36.270  1.00  0.00    -0.200 F 
ATOM     74  F   UNL A   1      38.145  34.528  38.214  1.00  0.00    -0.200 F 
ENDBRANCH  50  64
BRANCH  51  75
ATOM     75  C   UNL A   1      42.245  26.066  27.692  1.00  0.00     0.064 A 
ATOM     76  C   UNL A   1      41.790  24.742  27.615  1.00  0.00     0.173 A 
ATOM     77  C   UNL A   1      43.164  26.493  26.720  1.00  0.00     0.173 A 
ATOM     78  F   UNL A   1      40.942  24.269  28.540  1.00  0.00    -0.203 F 
ATOM     79  C   UNL A   1      42.256  23.876  26.626  1.00  0.00     0.198 A 
ATOM     80  C   UNL A   1      43.602  25.637  25.712  1.00  0.00     0.198 A 
ATOM     81  F   UNL A   1      43.651  27.742  26.757  1.00  0.00    -0.203 F 
ATOM     82  F   UNL A   1      41.858  22.596  26.617  1.00  0.00    -0.200 F 
ATOM     83  C   UNL A   1      43.156  24.326  25.672  1.00  0.00     0.200 A 
ATOM     84  F   UNL A   1      44.471  26.078  24.792  1.00  0.00    -0.200 F 
ATOM     85  F   UNL A   1      43.612  23.490  24.729  1.00  0.00    -0.200 F 
ENDBRANCH  51  75
BRANCH  63  86
ATOM     86  C   UNL A   1      45.221  27.882  33.732  1.00  0.00     0.064 A 
ATOM     87  C   UNL A   1      45.332  26.767  34.576  1.00  0.00     0.173 A 
ATOM     88  C   UNL A   1      46.386  28.618  33.463  1.00  0.00     0.173 A 
ATOM     89  F   UNL A   1      44.248  26.037  34.877  1.00  0.00    -0.203 F 
ATOM     90  C   UNL A   1      46.555  26.418  35.145  1.00  0.00     0.198 A 
ATOM     91  C   UNL A   1      47.612  28.246  34.007  1.00  0.00     0.198 A 
ATOM     92  F   UNL A   1      46.338  29.689  32.656  1.00  0.00    -0.203 F 
ATOM     93  F   UNL A   1      46.628  25.376  35.986  1.00  0.00    -0.200 F 
ATOM     94  C   UNL A   1      47.694  27.153  34.853  1.00  0.00     0.200 A 
ATOM     95  F   UNL A   1      48.715  28.948  33.710  1.00  0.00    -0.200 F 
ATOM     96  F   UNL A   1      48.871  26.807  35.391  1.00  0.00    -0.200 F 
ENDBRANCH  63  86
ENDBRANCH  37  38
ENDBRANCH  30  32
ENDBRANCH  29  30
ENDBRANCH  28  29
ENDBRANCH   1  28
TORSDOF 15
ENDMDL
MODEL 2
REMARK VINA RESULT:     -12.3      0.782      7.099
REMARK SMILES C[C@@H]1CCCN(c2ccc(NC(=O)Cc3cccs3)c(C(=O)OCCOC(=O)c3ccc(-c4c5nc(c(-c6c(F)c(F)c(F)c(F)c6F)c6ccc([nH]6)c(-c6c(F)c(F)c(F)c(F)c6F)c6nc(c(-c7c(F)c(F)c(F)c(F)c7F)c7ccc4[nH]7)C=C6)C=C5)cc3)c2)C1
REMARK SMILES IDX 24 1 23 2 21 3 22 4 20 5 7 6 8 7 92 8 9 9 10 10 6 11 1 12
REMARK SMILES IDX 2 13 3 14 93 15 4 16 5 17 11 18 12 19 13 21 14 22 15 23
REMARK SMILES IDX 16 24 19 25 17 26 18 27 25 28 26 29 27 30 28 31 29 32 30 33
REMARK SMILES IDX 91 34 31 35 90 36 32 37 33 38 34 39 84 40 35 41 89 42 83 43
REMARK SMILES IDX 85 44 36 45 88 46 82 47 81 48 37 50 69 51 49 52 68 53 50 54
REMARK SMILES IDX 53 55 67 56 86 57 51 58 52 59 66 61 87 62 54 63 38 64 39 65
REMARK SMILES IDX 47 66 40 67 41 68 45 69 48 70 42 71 43 72 46 73 44 74 70 75
REMARK SMILES IDX 71 76 79 77 72 78 73 79 77 80 80 81 74 82 75 83 78 84 76 85
REMARK SMILES IDX 55 86 56 87 64 88 57 89 58 90 62 91 65 92 59 93 60 94 63 95
REMARK SMILES IDX 61 96
REMARK H PARENT 11 20 85 49 53 60
REMARK Flexibility Score: inf
ROOT
ATOM      1  C   UNL A   1      31.519  29.390  25.525  1.00  0.00     0.275 C 
ENDROOT
BRANCH   1   2
ATOM      2  O   UNL A   1      32.229  28.133  25.549  1.00  0.00    -0.458 OA
BRANCH   2   3
ATOM      3  C   UNL A   1      31.692  27.112  26.267  1.00  0.00     0.340 C 
ATOM      4  O   UNL A   1      31.070  27.221  27.313  1.00  0.00    -0.246 OA
BRANCH   3   5
ATOM      5  C   UNL A   1      31.950  25.791  25.611  1.00  0.00     0.085 A 
ATOM      6  C   UNL A   1      33.562  24.113  24.866  1.00  0.00     0.038 A 
ATOM      7  C   UNL A   1      32.523  23.337  24.372  1.00  0.00     0.028 A 
ATOM      8  C   UNL A   1      33.264  25.318  25.513  1.00  0.00     0.043 A 
ATOM      9  C   UNL A   1      31.206  23.768  24.494  1.00  0.00     0.029 A 
ATOM     10  C   UNL A   1      30.909  25.020  25.043  1.00  0.00     0.055 A 
BRANCH   6  11
ATOM     11  N   UNL A   1      34.873  23.717  24.772  1.00  0.00    -0.371 N 
ATOM     12  C   UNL A   1      38.162  24.192  26.578  1.00  0.00     0.009 C 
ATOM     13  C   UNL A   1      36.966  23.475  25.958  1.00  0.00     0.005 C 
ATOM     14  C   UNL A   1      37.424  22.504  24.851  1.00  0.00     0.007 C 
ATOM     15  C   UNL A   1      35.936  24.479  25.415  1.00  0.00     0.119 C 
ATOM     16  C   UNL A   1      36.235  21.828  24.166  1.00  0.00     0.022 C 
ATOM     17  C   UNL A   1      35.237  22.859  23.656  1.00  0.00     0.116 C 
ENDBRANCH   6  11
BRANCH  10  18
ATOM     18  N   UNL A   1      29.602  25.527  24.990  1.00  0.00    -0.325 N 
ATOM     19  C   UNL A   1      29.000  26.419  24.151  1.00  0.00     0.229 C 
ATOM     20  H   UNL A   1      29.007  25.173  25.689  1.00  0.00     0.169 HD
ATOM     21  O   UNL A   1      27.768  26.510  24.248  1.00  0.00    -0.274 OA
BRANCH  19  22
ATOM     22  C   UNL A   1      29.729  27.291  23.130  1.00  0.00     0.147 C 
BRANCH  22  23
ATOM     23  C   UNL A   1      29.114  28.632  22.761  1.00  0.00     0.014 A 
ATOM     24  C   UNL A   1      27.858  29.183  22.957  1.00  0.00     0.016 A 
ATOM     25  S   UNL A   1      30.145  29.808  22.017  1.00  0.00    -0.148 S 
ATOM     26  C   UNL A   1      27.748  30.539  22.533  1.00  0.00     0.012 A 
ATOM     27  C   UNL A   1      28.930  31.007  22.014  1.00  0.00     0.065 A 
ENDBRANCH  22  23
ENDBRANCH  19  22
ENDBRANCH  10  18
ENDBRANCH   3   5
ENDBRANCH   2   3
ENDBRANCH   1   2
BRANCH   1  28
ATOM     28  C   UNL A   1      31.966  30.331  26.648  1.00  0.00     0.275 C 
BRANCH  28  29
ATOM     29  O   UNL A   1      33.385  30.564  26.583  1.00  0.00    -0.458 OA
BRANCH  29  30
ATOM     30  C   UNL A   1      33.811  31.645  27.274  1.00  0.00     0.338 C 
ATOM     31  O   UNL A   1      33.192  32.672  27.491  1.00  0.00    -0.246 OA
BRANCH  30  32
ATOM     32  C   UNL A   1      35.078  31.320  27.951  1.00  0.00     0.060 A 
ATOM     33  C   UNL A   1      35.125  30.074  28.562  1.00  0.00     0.016 A 
ATOM     34  C   UNL A   1      36.174  32.183  28.032  1.00  0.00     0.016 A 
ATOM     35  C   UNL A   1      36.260  29.678  29.253  1.00  0.00     0.010 A 
ATOM     36  C   UNL A   1      37.324  31.777  28.732  1.00  0.00     0.010 A 
ATOM     37  C   UNL A   1      37.372  30.513  29.341  1.00  0.00    -0.014 A 
BRANCH  37  38
ATOM     38  C   UNL A   1      38.505  30.030  30.167  1.00  0.00     0.031 A 
ATOM     39  C   UNL A   1      39.521  29.119  29.550  1.00  0.00     0.074 A 
ATOM     40  C   UNL A   1      38.736  30.552  31.386  1.00  0.00     0.049 A 
ATOM     41  N   UNL A   1      40.587  28.579  30.081  1.00  0.00    -0.248 NA
ATOM     42  C   UNL A   1      39.325  28.797  28.128  1.00  0.00     0.031 C 
ATOM     43  C   UNL A   1      37.936  31.597  32.020  1.00  0.00     0.029 A 
ATOM     44  N   UNL A   1      39.741  30.306  32.289  1.00  0.00    -0.354 N 
ATOM     45  C   UNL A   1      41.177  27.836  29.070  1.00  0.00     0.074 A 
ATOM     46  C   UNL A   1      40.357  28.003  27.888  1.00  0.00     0.031 C 
ATOM     47  C   UNL A   1      38.484  31.908  33.206  1.00  0.00     0.029 A 
ATOM     48  C   UNL A   1      39.637  31.044  33.444  1.00  0.00     0.049 A 
ATOM     49  H   UNL A   1      40.467  29.661  32.126  1.00  0.00     0.167 HD
ATOM     50  C   UNL A   1      42.294  27.075  29.129  1.00  0.00     0.037 A 
ATOM     51  C   UNL A   1      40.370  31.002  34.573  1.00  0.00     0.037 A 
ATOM     52  C   UNL A   1      43.109  26.916  30.307  1.00  0.00     0.049 A 
ATOM     53  C   UNL A   1      41.524  30.035  34.663  1.00  0.00     0.074 A 
ATOM     54  C   UNL A   1      44.222  26.114  30.483  1.00  0.00     0.029 A 
ATOM     55  N   UNL A   1      42.897  27.575  31.508  1.00  0.00    -0.354 N 
ATOM     56  N   UNL A   1      42.030  29.259  33.735  1.00  0.00    -0.248 NA
ATOM     57  C   UNL A   1      42.198  29.924  35.966  1.00  0.00     0.031 C 
ATOM     58  C   UNL A   1      44.649  26.243  31.809  1.00  0.00     0.029 A 
ATOM     59  C   UNL A   1      43.841  27.175  32.441  1.00  0.00     0.049 A 
ATOM     60  H   UNL A   1      42.181  28.231  31.675  1.00  0.00     0.167 HD
ATOM     61  C   UNL A   1      43.091  28.589  34.331  1.00  0.00     0.074 A 
ATOM     62  C   UNL A   1      43.170  29.064  35.697  1.00  0.00     0.031 C 
ATOM     63  C   UNL A   1      43.920  27.660  33.796  1.00  0.00     0.037 A 
BRANCH  50  64
ATOM     64  C   UNL A   1      42.643  26.280  27.908  1.00  0.00     0.064 A 
ATOM     65  C   UNL A   1      42.072  25.029  27.639  1.00  0.00     0.173 A 
ATOM     66  C   UNL A   1      43.570  26.792  26.986  1.00  0.00     0.173 A 
ATOM     67  F   UNL A   1      41.198  24.485  28.499  1.00  0.00    -0.203 F 
ATOM     68  C   UNL A   1      42.437  24.306  26.505  1.00  0.00     0.198 A 
ATOM     69  C   UNL A   1      43.909  26.082  25.839  1.00  0.00     0.198 A 
ATOM     70  F   UNL A   1      44.145  27.985  27.198  1.00  0.00    -0.203 F 
ATOM     71  F   UNL A   1      41.920  23.088  26.293  1.00  0.00    -0.200 F 
ATOM     72  C   UNL A   1      43.350  24.837  25.605  1.00  0.00     0.200 A 
ATOM     73  F   UNL A   1      44.784  26.601  24.967  1.00  0.00    -0.200 F 
ATOM     74  F   UNL A   1      43.698  24.141  24.514  1.00  0.00    -0.200 F 
ENDBRANCH  50  64
BRANCH  51  75
ATOM     75  C   UNL A   1      40.000  31.845  35.745  1.00  0.00     0.064 A 
ATOM     76  C   UNL A   1      38.910  31.522  36.564  1.00  0.00     0.173 A 
ATOM     77  C   UNL A   1      40.696  33.031  36.027  1.00  0.00     0.173 A 
ATOM     78  F   UNL A   1      38.185  30.422  36.315  1.00  0.00    -0.203 F 
ATOM     79  C   UNL A   1      38.516  32.365  37.605  1.00  0.00     0.198 A 
ATOM     80  C   UNL A   1      40.323  33.854  37.088  1.00  0.00     0.198 A 
ATOM     81  F   UNL A   1      41.734  33.402  35.263  1.00  0.00    -0.203 F 
ATOM     82  F   UNL A   1      37.428  32.068  38.329  1.00  0.00    -0.200 F 
ATOM     83  C   UNL A   1      39.227  33.526  37.869  1.00  0.00     0.200 A 
ATOM     84  F   UNL A   1      41.015  34.973  37.340  1.00  0.00    -0.200 F 
ATOM     85  F   UNL A   1      38.841  34.340  38.861  1.00  0.00    -0.200 F 
ENDBRANCH  51  75
BRANCH  63  86
ATOM     86  C   UNL A   1      45.014  27.117  34.671  1.00  0.00     0.064 A 
ATOM     87  C   UNL A   1      44.840  25.954  35.436  1.00  0.00     0.173 A 
ATOM     88  C   UNL A   1      46.271  27.741  34.705  1.00  0.00     0.173 A 
ATOM     89  F   UNL A   1      43.655  25.326  35.451  1.00  0.00    -0.203 F 
ATOM     90  C   UNL A   1      45.876  25.451  36.220  1.00  0.00     0.198 A 
ATOM     91  C   UNL A   1      47.313  27.216  35.464  1.00  0.00     0.198 A 
ATOM     92  F   UNL A   1      46.495  28.852  33.987  1.00  0.00    -0.203 F 
ATOM     93  F   UNL A   1      45.672  24.364  36.979  1.00  0.00    -0.200 F 
ATOM     94  C   UNL A   1      47.113  26.077  36.226  1.00  0.00     0.200 A 
ATOM     95  F   UNL A   1      48.513  27.813  35.456  1.00  0.00    -0.200 F 
ATOM     96  F   UNL A   1      48.111  25.583  36.971  1.00  0.00    -0.200 F 
ENDBRANCH  63  86
ENDBRANCH  37  38
ENDBRANCH  30  32
ENDBRANCH  29  30
ENDBRANCH  28  29
ENDBRANCH   1  28
TORSDOF 15
ENDMDL
MODEL 3
REMARK VINA RESULT:     -12.2      4.653      7.436
REMARK SMILES C[C@@H]1CCCN(c2ccc(NC(=O)Cc3cccs3)c(C(=O)OCCOC(=O)c3ccc(-c4c5nc(c(-c6c(F)c(F)c(F)c(F)c6F)c6ccc([nH]6)c(-c6c(F)c(F)c(F)c(F)c6F)c6nc(c(-c7c(F)c(F)c(F)c(F)c7F)c7ccc4[nH]7)C=C6)C=C5)cc3)c2)C1
REMARK SMILES IDX 24 1 23 2 21 3 22 4 20 5 7 6 8 7 92 8 9 9 10 10 6 11 1 12
REMARK SMILES IDX 2 13 3 14 93 15 4 16 5 17 11 18 12 19 13 21 14 22 15 23
REMARK SMILES IDX 16 24 19 25 17 26 18 27 25 28 26 29 27 30 28 31 29 32 30 33
REMARK SMILES IDX 91 34 31 35 90 36 32 37 33 38 34 39 84 40 35 41 89 42 83 43
REMARK SMILES IDX 85 44 36 45 88 46 82 47 81 48 37 50 69 51 49 52 68 53 50 54
REMARK SMILES IDX 53 55 67 56 86 57 51 58 52 59 66 61 87 62 54 63 38 64 39 65
REMARK SMILES IDX 47 66 40 67 41 68 45 69 48 70 42 71 43 72 46 73 44 74 70 75
REMARK SMILES IDX 71 76 79 77 72 78 73 79 77 80 80 81 74 82 75 83 78 84 76 85
REMARK SMILES IDX 55 86 56 87 64 88 57 89 58 90 62 91 65 92 59 93 60 94 63 95
REMARK SMILES IDX 61 96
REMARK H PARENT 11 20 85 49 53 60
REMARK Flexibility Score: inf
ROOT
ATOM      1  C   UNL A   1      35.566  21.463  24.814  1.00  0.00     0.275 C 
ENDROOT
BRANCH   1   2
ATOM      2  O   UNL A   1      35.342  22.888  24.759  1.00  0.00    -0.458 OA
BRANCH   2   3
ATOM      3  C   UNL A   1      35.013  23.436  23.561  1.00  0.00     0.340 C 
ATOM      4  O   UNL A   1      35.591  23.243  22.502  1.00  0.00    -0.246 OA
BRANCH   3   5
ATOM      5  C   UNL A   1      33.818  24.330  23.680  1.00  0.00     0.085 A 
ATOM      6  C   UNL A   1      32.732  26.221  24.780  1.00  0.00     0.038 A 
ATOM      7  C   UNL A   1      31.608  26.036  23.986  1.00  0.00     0.028 A 
ATOM      8  C   UNL A   1      33.840  25.388  24.596  1.00  0.00     0.043 A 
ATOM      9  C   UNL A   1      31.578  25.015  23.042  1.00  0.00     0.029 A 
ATOM     10  C   UNL A   1      32.640  24.112  22.927  1.00  0.00     0.055 A 
BRANCH   6  11
ATOM     11  N   UNL A   1      32.802  27.223  25.717  1.00  0.00    -0.371 N 
ATOM     12  C   UNL A   1      35.393  29.328  27.493  1.00  0.00     0.009 C 
ATOM     13  C   UNL A   1      34.174  28.985  26.643  1.00  0.00     0.005 C 
ATOM     14  C   UNL A   1      32.895  29.594  27.250  1.00  0.00     0.007 C 
ATOM     15  C   UNL A   1      34.028  27.465  26.467  1.00  0.00     0.119 C 
ATOM     16  C   UNL A   1      31.649  29.202  26.453  1.00  0.00     0.022 C 
ATOM     17  C   UNL A   1      31.553  27.691  26.294  1.00  0.00     0.116 C 
ENDBRANCH   6  11
BRANCH  10  18
ATOM     18  N   UNL A   1      32.523  22.978  22.110  1.00  0.00    -0.325 N 
ATOM     19  C   UNL A   1      32.227  21.675  22.389  1.00  0.00     0.229 C 
ATOM     20  H   UNL A   1      32.686  23.154  21.155  1.00  0.00     0.169 HD
ATOM     21  O   UNL A   1      32.006  20.948  21.411  1.00  0.00    -0.274 OA
BRANCH  19  22
ATOM     22  C   UNL A   1      32.156  21.074  23.791  1.00  0.00     0.147 C 
BRANCH  22  23
ATOM     23  C   UNL A   1      32.459  19.593  23.954  1.00  0.00     0.014 A 
ATOM     24  C   UNL A   1      32.527  18.538  23.060  1.00  0.00     0.016 A 
ATOM     25  S   UNL A   1      32.903  19.036  25.533  1.00  0.00    -0.148 S 
ATOM     26  C   UNL A   1      32.956  17.310  23.644  1.00  0.00     0.012 A 
ATOM     27  C   UNL A   1      33.209  17.448  24.986  1.00  0.00     0.065 A 
ENDBRANCH  22  23
ENDBRANCH  19  22
ENDBRANCH  10  18
ENDBRANCH   3   5
ENDBRANCH   2   3
ENDBRANCH   1   2
BRANCH   1  28
ATOM     28  C   UNL A   1      37.055  21.113  24.913  1.00  0.00     0.275 C 
BRANCH  28  29
ATOM     29  O   UNL A   1      37.664  21.788  26.028  1.00  0.00    -0.458 OA
BRANCH  29  30
ATOM     30  C   UNL A   1      38.960  21.466  26.242  1.00  0.00     0.338 C 
ATOM     31  O   UNL A   1      39.518  20.422  25.951  1.00  0.00    -0.246 OA
BRANCH  30  32
ATOM     32  C   UNL A   1      39.693  22.667  26.678  1.00  0.00     0.060 A 
ATOM     33  C   UNL A   1      39.323  23.851  26.055  1.00  0.00     0.016 A 
ATOM     34  C   UNL A   1      40.721  22.664  27.625  1.00  0.00     0.016 A 
ATOM     35  C   UNL A   1      39.968  25.037  26.370  1.00  0.00     0.010 A 
ATOM     36  C   UNL A   1      41.372  23.869  27.943  1.00  0.00     0.010 A 
ATOM     37  C   UNL A   1      40.990  25.066  27.317  1.00  0.00    -0.014 A 
BRANCH  37  38
ATOM     38  C   UNL A   1      41.668  26.368  27.526  1.00  0.00     0.031 A 
ATOM     39  C   UNL A   1      40.992  27.420  28.350  1.00  0.00     0.074 A 
ATOM     40  C   UNL A   1      42.952  26.539  27.158  1.00  0.00     0.049 A 
ATOM     41  N   UNL A   1      41.399  28.623  28.662  1.00  0.00    -0.248 NA
ATOM     42  C   UNL A   1      39.690  27.053  28.928  1.00  0.00     0.031 C 
ATOM     43  C   UNL A   1      43.789  25.520  26.528  1.00  0.00     0.029 A 
ATOM     44  N   UNL A   1      43.789  27.618  27.302  1.00  0.00    -0.354 N 
ATOM     45  C   UNL A   1      40.397  29.167  29.451  1.00  0.00     0.074 A 
ATOM     46  C   UNL A   1      39.365  28.159  29.582  1.00  0.00     0.031 C 
ATOM     47  C   UNL A   1      45.023  26.019  26.347  1.00  0.00     0.029 A 
ATOM     48  C   UNL A   1      45.047  27.411  26.790  1.00  0.00     0.049 A 
ATOM     49  H   UNL A   1      43.513  28.461  27.731  1.00  0.00     0.167 HD
ATOM     50  C   UNL A   1      40.340  30.400  30.004  1.00  0.00     0.037 A 
ATOM     51  C   UNL A   1      46.087  28.259  26.666  1.00  0.00     0.037 A 
ATOM     52  C   UNL A   1      41.371  31.398  29.876  1.00  0.00     0.049 A 
ATOM     53  C   UNL A   1      45.941  29.676  27.163  1.00  0.00     0.074 A 
ATOM     54  C   UNL A   1      41.375  32.700  30.345  1.00  0.00     0.029 A 
ATOM     55  N   UNL A   1      42.582  31.203  29.230  1.00  0.00    -0.354 N 
ATOM     56  N   UNL A   1      44.954  30.223  27.830  1.00  0.00    -0.248 NA
ATOM     57  C   UNL A   1      47.048  30.599  26.871  1.00  0.00     0.031 C 
ATOM     58  C   UNL A   1      42.564  33.310  29.933  1.00  0.00     0.029 A 
ATOM     59  C   UNL A   1      43.330  32.370  29.263  1.00  0.00     0.049 A 
ATOM     60  H   UNL A   1      42.870  30.359  28.811  1.00  0.00     0.167 HD
ATOM     61  C   UNL A   1      45.330  31.541  28.059  1.00  0.00     0.074 A 
ATOM     62  C   UNL A   1      46.644  31.707  27.476  1.00  0.00     0.031 C 
ATOM     63  C   UNL A   1      44.643  32.525  28.690  1.00  0.00     0.037 A 
BRANCH  50  64
ATOM     64  C   UNL A   1      39.075  30.769  30.720  1.00  0.00     0.064 A 
ATOM     65  C   UNL A   1      38.943  30.660  32.111  1.00  0.00     0.173 A 
ATOM     66  C   UNL A   1      37.977  31.247  29.990  1.00  0.00     0.173 A 
ATOM     67  F   UNL A   1      39.957  30.188  32.852  1.00  0.00    -0.203 F 
ATOM     68  C   UNL A   1      37.746  30.990  32.742  1.00  0.00     0.198 A 
ATOM     69  C   UNL A   1      36.792  31.605  30.626  1.00  0.00     0.198 A 
ATOM     70  F   UNL A   1      38.053  31.369  28.656  1.00  0.00    -0.203 F 
ATOM     71  F   UNL A   1      37.621  30.828  34.066  1.00  0.00    -0.200 F 
ATOM     72  C   UNL A   1      36.675  31.467  31.999  1.00  0.00     0.200 A 
ATOM     73  F   UNL A   1      35.764  32.074  29.907  1.00  0.00    -0.200 F 
ATOM     74  F   UNL A   1      35.525  31.786  32.609  1.00  0.00    -0.200 F 
ENDBRANCH  50  64
BRANCH  51  75
ATOM     75  C   UNL A   1      47.336  27.826  25.980  1.00  0.00     0.064 A 
ATOM     76  C   UNL A   1      47.435  27.806  24.581  1.00  0.00     0.173 A 
ATOM     77  C   UNL A   1      48.438  27.359  26.715  1.00  0.00     0.173 A 
ATOM     78  F   UNL A   1      46.398  28.203  23.829  1.00  0.00    -0.203 F 
ATOM     79  C   UNL A   1      48.576  27.314  23.947  1.00  0.00     0.198 A 
ATOM     80  C   UNL A   1      49.590  26.901  26.080  1.00  0.00     0.198 A 
ATOM     81  F   UNL A   1      48.391  27.333  28.056  1.00  0.00    -0.203 F 
ATOM     82  F   UNL A   1      48.618  27.242  22.609  1.00  0.00    -0.200 F 
ATOM     83  C   UNL A   1      49.654  26.868  24.696  1.00  0.00     0.200 A 
ATOM     84  F   UNL A   1      50.629  26.473  26.810  1.00  0.00    -0.200 F 
ATOM     85  F   UNL A   1      50.745  26.386  24.086  1.00  0.00    -0.200 F 
ENDBRANCH  51  75
BRANCH  63  86
ATOM     86  C   UNL A   1      45.311  33.864  28.821  1.00  0.00     0.064 A 
ATOM     87  C   UNL A   1      45.124  34.880  27.871  1.00  0.00     0.173 A 
ATOM     88  C   UNL A   1      46.108  34.153  29.940  1.00  0.00     0.173 A 
ATOM     89  F   UNL A   1      44.383  34.652  26.776  1.00  0.00    -0.203 F 
ATOM     90  C   UNL A   1      45.729  36.125  28.025  1.00  0.00     0.198 A 
ATOM     91  C   UNL A   1      46.684  35.410  30.106  1.00  0.00     0.198 A 
ATOM     92  F   UNL A   1      46.314  33.222  30.883  1.00  0.00    -0.203 F 
ATOM     93  F   UNL A   1      45.574  37.065  27.081  1.00  0.00    -0.200 F 
ATOM     94  C   UNL A   1      46.501  36.391  29.146  1.00  0.00     0.200 A 
ATOM     95  F   UNL A   1      47.415  35.670  31.199  1.00  0.00    -0.200 F 
ATOM     96  F   UNL A   1      47.071  37.594  29.298  1.00  0.00    -0.200 F 
ENDBRANCH  63  86
ENDBRANCH  37  38
ENDBRANCH  30  32
ENDBRANCH  29  30
ENDBRANCH  28  29
ENDBRANCH   1  28
TORSDOF 15
ENDMDL
