MODEL 1
REMARK VINA RESULT:     -13.9      0.000      0.000
REMARK SMILES Cc1cc(F)ccc1OC1(C(=O)OCCOC(=O)c2ccc(-c3c4nc(c(-c5c(F)c(F)c(F)c(F)c5F)c5ccc([nH]5)c(-c5c(F)c(F)c(F)c(F)c5F)c5nc(c(-c6c(F)c(F)c(F)c(F)c6F)c6ccc3[nH]6)C=C5)C=C4)cc2)CCN(C(=O)[C@H]2CCOC2)CC1
REMARK SMILES IDX 14 1 13 2 11 3 12 4 10 5 82 6 93 7 83 8 92 9 84 10 85 11
REMARK SMILES IDX 86 12 9 13 8 14 1 15 2 16 3 17 4 18 7 19 5 20 6 21 87 22
REMARK SMILES IDX 88 23 91 24 89 25 90 26 15 27 16 28 17 29 18 30 19 31 20 32
REMARK SMILES IDX 81 33 21 34 80 35 22 36 23 37 24 38 74 39 25 40 79 41 73 42
REMARK SMILES IDX 75 43 26 44 78 45 72 46 71 47 27 49 59 50 39 51 58 52 40 53
REMARK SMILES IDX 43 54 57 55 76 56 41 57 42 58 56 60 77 61 44 62 28 63 29 64
REMARK SMILES IDX 37 65 30 66 31 67 35 68 38 69 32 70 33 71 36 72 34 73 60 74
REMARK SMILES IDX 61 75 69 76 62 77 63 78 67 79 70 80 64 81 65 82 68 83 66 84
REMARK SMILES IDX 45 85 46 86 54 87 47 88 48 89 52 90 55 91 49 92 50 93 53 94
REMARK SMILES IDX 51 95
REMARK H PARENT 75 48 43 59
REMARK Flexibility Score: inf
ROOT
ATOM      1  C   UNL A   1      33.384  30.218  26.573  1.00  0.00     0.274 C 
ENDROOT
BRANCH   1   2
ATOM      2  O   UNL A   1      33.531  28.818  26.904  1.00  0.00    -0.459 OA
BRANCH   2   3
ATOM      3  C   UNL A   1      32.436  27.989  26.914  1.00  0.00     0.350 C 
ATOM      4  O   UNL A   1      31.530  28.081  27.725  1.00  0.00    -0.247 OA
BRANCH   3   5
ATOM      5  C   UNL A   1      32.520  26.899  25.779  1.00  0.00     0.209 C 
ATOM      6  C   UNL A   1      34.022  26.694  25.451  1.00  0.00     0.082 C 
ATOM      7  C   UNL A   1      31.919  25.624  26.354  1.00  0.00     0.082 C 
ATOM      8  C   UNL A   1      34.423  25.392  24.804  1.00  0.00     0.124 C 
ATOM      9  C   UNL A   1      32.258  24.358  25.585  1.00  0.00     0.124 C 
ATOM     10  N   UNL A   1      33.665  24.211  25.200  1.00  0.00    -0.342 N 
ATOM     11  C   UNL A   1      34.255  22.999  24.832  1.00  0.00     0.228 C 
ATOM     12  O   UNL A   1      35.367  22.969  24.297  1.00  0.00    -0.274 OA
BRANCH   5  13
ATOM     13  O   UNL A   1      31.905  27.449  24.595  1.00  0.00    -0.475 OA
BRANCH  13  14
ATOM     14  C   UNL A   1      30.692  28.039  24.368  1.00  0.00     0.124 A 
ATOM     15  C   UNL A   1      29.519  25.824  23.750  1.00  0.00     0.048 C 
ATOM     16  C   UNL A   1      29.609  27.315  23.815  1.00  0.00    -0.006 A 
ATOM     17  C   UNL A   1      28.568  27.986  23.141  1.00  0.00     0.046 A 
ATOM     18  C   UNL A   1      28.628  29.352  22.944  1.00  0.00     0.123 A 
ATOM     19  C   UNL A   1      30.704  29.433  24.181  1.00  0.00     0.050 A 
ATOM     20  F   UNL A   1      27.690  29.951  22.198  1.00  0.00    -0.207 F 
ATOM     21  C   UNL A   1      29.685  30.083  23.462  1.00  0.00     0.043 A 
ENDBRANCH  13  14
ENDBRANCH   5  13
BRANCH  11  22
ATOM     22  C   UNL A   1      33.484  21.713  25.048  1.00  0.00     0.107 C 
ATOM     23  C   UNL A   1      32.608  21.377  23.858  1.00  0.00     0.044 C 
ATOM     24  C   UNL A   1      34.408  20.509  25.104  1.00  0.00     0.173 C 
ATOM     25  C   UNL A   1      32.529  19.864  23.896  1.00  0.00     0.161 C 
ATOM     26  O   UNL A   1      33.638  19.383  24.664  1.00  0.00    -0.381 OA
ENDBRANCH  11  22
ENDBRANCH   3   5
ENDBRANCH   2   3
ENDBRANCH   1   2
BRANCH   1  27
ATOM     27  C   UNL A   1      33.772  31.150  27.727  1.00  0.00     0.275 C 
BRANCH  27  28
ATOM     28  O   UNL A   1      35.089  31.682  27.525  1.00  0.00    -0.458 OA
BRANCH  28  29
ATOM     29  C   UNL A   1      35.903  31.438  28.566  1.00  0.00     0.338 C 
ATOM     30  O   UNL A   1      36.107  32.163  29.533  1.00  0.00    -0.246 OA
BRANCH  29  31
ATOM     31  C   UNL A   1      36.603  30.171  28.435  1.00  0.00     0.060 A 
ATOM     32  C   UNL A   1      36.640  29.340  29.561  1.00  0.00     0.016 A 
ATOM     33  C   UNL A   1      37.540  30.074  27.413  1.00  0.00     0.016 A 
ATOM     34  C   UNL A   1      37.734  28.519  29.774  1.00  0.00     0.010 A 
ATOM     35  C   UNL A   1      38.630  29.256  27.625  1.00  0.00     0.010 A 
ATOM     36  C   UNL A   1      38.765  28.562  28.844  1.00  0.00    -0.014 A 
BRANCH  36  37
ATOM     37  C   UNL A   1      40.073  27.985  29.095  1.00  0.00     0.031 A 
ATOM     38  C   UNL A   1      40.397  26.618  28.660  1.00  0.00     0.074 A 
ATOM     39  C   UNL A   1      41.037  28.788  29.595  1.00  0.00     0.049 A 
ATOM     40  N   UNL A   1      41.403  25.935  29.095  1.00  0.00    -0.248 NA
ATOM     41  C   UNL A   1      39.561  25.890  27.713  1.00  0.00     0.031 C 
ATOM     42  C   UNL A   1      42.473  28.645  29.398  1.00  0.00     0.029 A 
ATOM     43  N   UNL A   1      40.907  29.880  30.461  1.00  0.00    -0.354 N 
ATOM     44  C   UNL A   1      41.539  24.850  28.262  1.00  0.00     0.074 A 
ATOM     45  C   UNL A   1      40.308  24.803  27.501  1.00  0.00     0.031 C 
ATOM     46  C   UNL A   1      43.120  29.478  30.230  1.00  0.00     0.029 A 
ATOM     47  C   UNL A   1      42.133  30.005  31.155  1.00  0.00     0.049 A 
ATOM     48  H   UNL A   1      40.114  30.454  30.565  1.00  0.00     0.167 HD
ATOM     49  C   UNL A   1      42.752  24.231  28.152  1.00  0.00     0.037 A 
ATOM     50  C   UNL A   1      42.229  29.859  32.516  1.00  0.00     0.037 A 
ATOM     51  C   UNL A   1      43.750  24.829  29.036  1.00  0.00     0.049 A 
ATOM     52  C   UNL A   1      43.178  28.788  32.974  1.00  0.00     0.074 A 
ATOM     53  C   UNL A   1      44.718  25.793  28.803  1.00  0.00     0.029 A 
ATOM     54  N   UNL A   1      43.648  24.703  30.419  1.00  0.00    -0.354 N 
ATOM     55  N   UNL A   1      43.513  27.772  32.237  1.00  0.00    -0.248 NA
ATOM     56  C   UNL A   1      43.691  28.703  34.337  1.00  0.00     0.031 C 
ATOM     57  C   UNL A   1      45.195  26.255  30.047  1.00  0.00     0.029 A 
ATOM     58  C   UNL A   1      44.519  25.577  31.044  1.00  0.00     0.049 A 
ATOM     59  H   UNL A   1      43.043  24.080  30.885  1.00  0.00     0.167 HD
ATOM     60  C   UNL A   1      44.214  26.884  33.001  1.00  0.00     0.074 A 
ATOM     61  C   UNL A   1      44.330  27.522  34.298  1.00  0.00     0.031 C 
ATOM     62  C   UNL A   1      44.605  25.682  32.492  1.00  0.00     0.037 A 
BRANCH  49  63
ATOM     63  C   UNL A   1      43.097  23.395  26.936  1.00  0.00     0.064 A 
ATOM     64  C   UNL A   1      42.837  22.008  26.905  1.00  0.00     0.173 A 
ATOM     65  C   UNL A   1      43.781  23.893  25.814  1.00  0.00     0.173 A 
ATOM     66  F   UNL A   1      42.063  21.413  27.821  1.00  0.00    -0.203 F 
ATOM     67  C   UNL A   1      43.372  21.167  25.927  1.00  0.00     0.198 A 
ATOM     68  C   UNL A   1      44.359  23.048  24.860  1.00  0.00     0.198 A 
ATOM     69  F   UNL A   1      43.887  25.212  25.603  1.00  0.00    -0.203 F 
ATOM     70  F   UNL A   1      43.123  19.852  25.976  1.00  0.00    -0.200 F 
ATOM     71  C   UNL A   1      44.175  21.682  24.932  1.00  0.00     0.200 A 
ATOM     72  F   UNL A   1      45.112  23.567  23.880  1.00  0.00    -0.200 F 
ATOM     73  F   UNL A   1      44.745  20.867  24.035  1.00  0.00    -0.200 F 
ENDBRANCH  49  63
BRANCH  50  74
ATOM     74  C   UNL A   1      40.927  30.031  33.203  1.00  0.00     0.064 A 
ATOM     75  C   UNL A   1      40.434  31.333  33.383  1.00  0.00     0.173 A 
ATOM     76  C   UNL A   1      40.025  28.954  33.175  1.00  0.00     0.173 A 
ATOM     77  F   UNL A   1      41.274  32.376  33.439  1.00  0.00    -0.203 F 
ATOM     78  C   UNL A   1      39.076  31.566  33.317  1.00  0.00     0.198 A 
ATOM     79  C   UNL A   1      38.673  29.196  33.088  1.00  0.00     0.198 A 
ATOM     80  F   UNL A   1      40.457  27.689  33.081  1.00  0.00    -0.203 F 
ATOM     81  F   UNL A   1      38.594  32.816  33.342  1.00  0.00    -0.200 F 
ATOM     82  C   UNL A   1      38.220  30.502  33.110  1.00  0.00     0.200 A 
ATOM     83  F   UNL A   1      37.824  28.180  32.881  1.00  0.00    -0.200 F 
ATOM     84  F   UNL A   1      36.940  30.757  32.889  1.00  0.00    -0.200 F 
ENDBRANCH  50  74
BRANCH  62  85
ATOM     85  C   UNL A   1      45.240  24.582  33.289  1.00  0.00     0.064 A 
ATOM     86  C   UNL A   1      44.587  23.388  33.632  1.00  0.00     0.173 A 
ATOM     87  C   UNL A   1      46.598  24.675  33.665  1.00  0.00     0.173 A 
ATOM     88  F   UNL A   1      43.340  23.132  33.212  1.00  0.00    -0.203 F 
ATOM     89  C   UNL A   1      45.217  22.399  34.387  1.00  0.00     0.198 A 
ATOM     90  C   UNL A   1      47.241  23.662  34.370  1.00  0.00     0.198 A 
ATOM     91  F   UNL A   1      47.341  25.746  33.346  1.00  0.00    -0.203 F 
ATOM     92  F   UNL A   1      44.535  21.303  34.747  1.00  0.00    -0.200 F 
ATOM     93  C   UNL A   1      46.544  22.534  34.755  1.00  0.00     0.200 A 
ATOM     94  F   UNL A   1      48.542  23.783  34.672  1.00  0.00    -0.200 F 
ATOM     95  F   UNL A   1      47.152  21.572  35.460  1.00  0.00    -0.200 F 
ENDBRANCH  62  85
ENDBRANCH  36  37
ENDBRANCH  29  31
ENDBRANCH  28  29
ENDBRANCH  27  28
ENDBRANCH   1  27
TORSDOF 14
ENDMDL
MODEL 2
REMARK VINA RESULT:     -13.5      3.880     10.042
REMARK SMILES Cc1cc(F)ccc1OC1(C(=O)OCCOC(=O)c2ccc(-c3c4nc(c(-c5c(F)c(F)c(F)c(F)c5F)c5ccc([nH]5)c(-c5c(F)c(F)c(F)c(F)c5F)c5nc(c(-c6c(F)c(F)c(F)c(F)c6F)c6ccc3[nH]6)C=C5)C=C4)cc2)CCN(C(=O)[C@H]2CCOC2)CC1
REMARK SMILES IDX 14 1 13 2 11 3 12 4 10 5 82 6 93 7 83 8 92 9 84 10 85 11
REMARK SMILES IDX 86 12 9 13 8 14 1 15 2 16 3 17 4 18 7 19 5 20 6 21 87 22
REMARK SMILES IDX 88 23 91 24 89 25 90 26 15 27 16 28 17 29 18 30 19 31 20 32
REMARK SMILES IDX 81 33 21 34 80 35 22 36 23 37 24 38 74 39 25 40 79 41 73 42
REMARK SMILES IDX 75 43 26 44 78 45 72 46 71 47 27 49 59 50 39 51 58 52 40 53
REMARK SMILES IDX 43 54 57 55 76 56 41 57 42 58 56 60 77 61 44 62 28 63 29 64
REMARK SMILES IDX 37 65 30 66 31 67 35 68 38 69 32 70 33 71 36 72 34 73 60 74
REMARK SMILES IDX 61 75 69 76 62 77 63 78 67 79 70 80 64 81 65 82 68 83 66 84
REMARK SMILES IDX 45 85 46 86 54 87 47 88 48 89 52 90 55 91 49 92 50 93 53 94
REMARK SMILES IDX 51 95
REMARK H PARENT 75 48 43 59
REMARK Flexibility Score: inf
ROOT
ATOM      1  C   UNL A   1      38.093  22.582  25.724  1.00  0.00     0.274 C 
ENDROOT
BRANCH   1   2
ATOM      2  O   UNL A   1      37.338  21.918  24.685  1.00  0.00    -0.459 OA
BRANCH   2   3
ATOM      3  C   UNL A   1      36.606  22.650  23.783  1.00  0.00     0.350 C 
ATOM      4  O   UNL A   1      37.045  23.025  22.709  1.00  0.00    -0.247 OA
BRANCH   3   5
ATOM      5  C   UNL A   1      35.160  22.965  24.324  1.00  0.00     0.209 C 
ATOM      6  C   UNL A   1      35.294  24.128  25.340  1.00  0.00     0.082 C 
ATOM      7  C   UNL A   1      34.330  23.397  23.123  1.00  0.00     0.082 C 
ATOM      8  C   UNL A   1      34.066  24.959  25.617  1.00  0.00     0.124 C 
ATOM      9  C   UNL A   1      33.040  24.122  23.469  1.00  0.00     0.124 C 
ATOM     10  N   UNL A   1      33.156  25.161  24.495  1.00  0.00    -0.342 N 
ATOM     11  C   UNL A   1      32.215  26.175  24.696  1.00  0.00     0.228 C 
ATOM     12  O   UNL A   1      32.241  26.876  25.711  1.00  0.00    -0.274 OA
BRANCH   5  13
ATOM     13  O   UNL A   1      34.706  21.812  25.065  1.00  0.00    -0.475 OA
BRANCH  13  14
ATOM     14  C   UNL A   1      34.094  20.648  24.688  1.00  0.00     0.124 A 
ATOM     15  C   UNL A   1      31.729  21.467  25.318  1.00  0.00     0.048 C 
ATOM     16  C   UNL A   1      32.724  20.413  24.953  1.00  0.00    -0.006 A 
ATOM     17  C   UNL A   1      32.224  19.097  25.023  1.00  0.00     0.046 A 
ATOM     18  C   UNL A   1      33.077  18.017  24.910  1.00  0.00     0.123 A 
ATOM     19  C   UNL A   1      34.930  19.526  24.542  1.00  0.00     0.050 A 
ATOM     20  F   UNL A   1      32.600  16.779  25.099  1.00  0.00    -0.207 F 
ATOM     21  C   UNL A   1      34.425  18.218  24.666  1.00  0.00     0.043 A 
ENDBRANCH  13  14
ENDBRANCH   5  13
BRANCH  11  22
ATOM     22  C   UNL A   1      31.118  26.370  23.668  1.00  0.00     0.107 C 
ATOM     23  C   UNL A   1      29.944  27.139  24.239  1.00  0.00     0.044 C 
ATOM     24  C   UNL A   1      31.566  27.278  22.537  1.00  0.00     0.173 C 
ATOM     25  C   UNL A   1      29.366  27.845  23.029  1.00  0.00     0.161 C 
ATOM     26  O   UNL A   1      30.382  27.903  22.023  1.00  0.00    -0.381 OA
ENDBRANCH  11  22
ENDBRANCH   3   5
ENDBRANCH   2   3
ENDBRANCH   1   2
BRANCH   1  27
ATOM     27  C   UNL A   1      39.343  21.802  26.148  1.00  0.00     0.275 C 
BRANCH  27  28
ATOM     28  O   UNL A   1      39.948  22.405  27.300  1.00  0.00    -0.458 OA
BRANCH  28  29
ATOM     29  C   UNL A   1      40.713  23.462  26.981  1.00  0.00     0.338 C 
ATOM     30  O   UNL A   1      41.871  23.444  26.578  1.00  0.00    -0.246 OA
BRANCH  29  31
ATOM     31  C   UNL A   1      40.029  24.726  27.200  1.00  0.00     0.060 A 
ATOM     32  C   UNL A   1      40.324  25.775  26.320  1.00  0.00     0.016 A 
ATOM     33  C   UNL A   1      39.513  24.949  28.470  1.00  0.00     0.016 A 
ATOM     34  C   UNL A   1      40.284  27.082  26.772  1.00  0.00     0.010 A 
ATOM     35  C   UNL A   1      39.474  26.253  28.921  1.00  0.00     0.010 A 
ATOM     36  C   UNL A   1      39.950  27.297  28.103  1.00  0.00    -0.014 A 
BRANCH  36  37
ATOM     37  C   UNL A   1      40.156  28.570  28.768  1.00  0.00     0.031 A 
ATOM     38  C   UNL A   1      39.109  29.603  28.772  1.00  0.00     0.074 A 
ATOM     39  C   UNL A   1      41.267  28.723  29.519  1.00  0.00     0.049 A 
ATOM     40  N   UNL A   1      39.312  30.844  29.069  1.00  0.00    -0.248 NA
ATOM     41  C   UNL A   1      37.734  29.311  28.385  1.00  0.00     0.031 C 
ATOM     42  C   UNL A   1      41.419  29.595  30.676  1.00  0.00     0.029 A 
ATOM     43  N   UNL A   1      42.535  28.157  29.337  1.00  0.00    -0.354 N 
ATOM     44  C   UNL A   1      38.076  31.420  29.242  1.00  0.00     0.074 A 
ATOM     45  C   UNL A   1      37.136  30.466  28.691  1.00  0.00     0.031 C 
ATOM     46  C   UNL A   1      42.716  29.659  31.017  1.00  0.00     0.029 A 
ATOM     47  C   UNL A   1      43.468  29.028  29.947  1.00  0.00     0.049 A 
ATOM     48  H   UNL A   1      42.738  27.312  28.874  1.00  0.00     0.167 HD
ATOM     49  C   UNL A   1      37.955  32.540  30.013  1.00  0.00     0.037 A 
ATOM     50  C   UNL A   1      44.448  29.673  29.237  1.00  0.00     0.037 A 
ATOM     51  C   UNL A   1      39.249  33.000  30.512  1.00  0.00     0.049 A 
ATOM     52  C   UNL A   1      44.426  31.172  29.342  1.00  0.00     0.074 A 
ATOM     53  C   UNL A   1      39.896  32.777  31.717  1.00  0.00     0.029 A 
ATOM     54  N   UNL A   1      40.205  33.523  29.645  1.00  0.00    -0.354 N 
ATOM     55  N   UNL A   1      43.357  31.847  29.640  1.00  0.00    -0.248 NA
ATOM     56  C   UNL A   1      45.556  32.017  28.973  1.00  0.00     0.031 C 
ATOM     57  C   UNL A   1      41.246  33.160  31.576  1.00  0.00     0.029 A 
ATOM     58  C   UNL A   1      41.429  33.614  30.283  1.00  0.00     0.049 A 
ATOM     59  H   UNL A   1      40.034  33.790  28.713  1.00  0.00     0.167 HD
ATOM     60  C   UNL A   1      43.609  33.177  29.455  1.00  0.00     0.074 A 
ATOM     61  C   UNL A   1      45.006  33.239  29.070  1.00  0.00     0.031 C 
ATOM     62  C   UNL A   1      42.620  34.102  29.607  1.00  0.00     0.037 A 
BRANCH  49  63
ATOM     63  C   UNL A   1      36.628  32.920  30.639  1.00  0.00     0.064 A 
ATOM     64  C   UNL A   1      35.719  33.767  29.967  1.00  0.00     0.173 A 
ATOM     65  C   UNL A   1      36.248  32.562  31.943  1.00  0.00     0.173 A 
ATOM     66  F   UNL A   1      35.861  34.070  28.672  1.00  0.00    -0.203 F 
ATOM     67  C   UNL A   1      34.623  34.346  30.608  1.00  0.00     0.198 A 
ATOM     68  C   UNL A   1      35.179  33.179  32.602  1.00  0.00     0.198 A 
ATOM     69  F   UNL A   1      36.890  31.589  32.604  1.00  0.00    -0.203 F 
ATOM     70  F   UNL A   1      33.819  35.175  29.927  1.00  0.00    -0.200 F 
ATOM     71  C   UNL A   1      34.381  34.091  31.941  1.00  0.00     0.200 A 
ATOM     72  F   UNL A   1      34.937  32.895  33.890  1.00  0.00    -0.200 F 
ATOM     73  F   UNL A   1      33.370  34.700  32.574  1.00  0.00    -0.200 F 
ENDBRANCH  49  63
BRANCH  50  74
ATOM     74  C   UNL A   1      44.725  29.032  27.929  1.00  0.00     0.064 A 
ATOM     75  C   UNL A   1      45.528  27.881  27.907  1.00  0.00     0.173 A 
ATOM     76  C   UNL A   1      43.807  29.249  26.888  1.00  0.00     0.173 A 
ATOM     77  F   UNL A   1      46.429  27.661  28.875  1.00  0.00    -0.203 F 
ATOM     78  C   UNL A   1      45.265  26.881  26.994  1.00  0.00     0.198 A 
ATOM     79  C   UNL A   1      43.536  28.238  25.993  1.00  0.00     0.198 A 
ATOM     80  F   UNL A   1      43.075  30.370  26.830  1.00  0.00    -0.203 F 
ATOM     81  F   UNL A   1      45.924  25.716  27.047  1.00  0.00    -0.200 F 
ATOM     82  C   UNL A   1      44.235  27.049  26.090  1.00  0.00     0.200 A 
ATOM     83  F   UNL A   1      42.537  28.376  25.112  1.00  0.00    -0.200 F 
ATOM     84  F   UNL A   1      43.891  26.022  25.329  1.00  0.00    -0.200 F 
ENDBRANCH  50  74
BRANCH  62  85
ATOM     85  C   UNL A   1      42.756  35.559  29.280  1.00  0.00     0.064 A 
ATOM     86  C   UNL A   1      42.151  36.170  28.170  1.00  0.00     0.173 A 
ATOM     87  C   UNL A   1      43.454  36.419  30.156  1.00  0.00     0.173 A 
ATOM     88  F   UNL A   1      41.353  35.479  27.346  1.00  0.00    -0.203 F 
ATOM     89  C   UNL A   1      42.318  37.528  27.901  1.00  0.00     0.198 A 
ATOM     90  C   UNL A   1      43.572  37.785  29.914  1.00  0.00     0.198 A 
ATOM     91  F   UNL A   1      44.030  35.958  31.277  1.00  0.00    -0.203 F 
ATOM     92  F   UNL A   1      41.775  38.057  26.796  1.00  0.00    -0.200 F 
ATOM     93  C   UNL A   1      43.025  38.336  28.773  1.00  0.00     0.200 A 
ATOM     94  F   UNL A   1      44.215  38.563  30.796  1.00  0.00    -0.200 F 
ATOM     95  F   UNL A   1      43.165  39.644  28.523  1.00  0.00    -0.200 F 
ENDBRANCH  62  85
ENDBRANCH  36  37
ENDBRANCH  29  31
ENDBRANCH  28  29
ENDBRANCH  27  28
ENDBRANCH   1  27
TORSDOF 14
ENDMDL
MODEL 3
REMARK VINA RESULT:     -13.1      3.491      9.447
REMARK SMILES Cc1cc(F)ccc1OC1(C(=O)OCCOC(=O)c2ccc(-c3c4nc(c(-c5c(F)c(F)c(F)c(F)c5F)c5ccc([nH]5)c(-c5c(F)c(F)c(F)c(F)c5F)c5nc(c(-c6c(F)c(F)c(F)c(F)c6F)c6ccc3[nH]6)C=C5)C=C4)cc2)CCN(C(=O)[C@H]2CCOC2)CC1
REMARK SMILES IDX 14 1 13 2 11 3 12 4 10 5 82 6 93 7 83 8 92 9 84 10 85 11
REMARK SMILES IDX 86 12 9 13 8 14 1 15 2 16 3 17 4 18 7 19 5 20 6 21 87 22
REMARK SMILES IDX 88 23 91 24 89 25 90 26 15 27 16 28 17 29 18 30 19 31 20 32
REMARK SMILES IDX 81 33 21 34 80 35 22 36 23 37 24 38 74 39 25 40 79 41 73 42
REMARK SMILES IDX 75 43 26 44 78 45 72 46 71 47 27 49 59 50 39 51 58 52 40 53
REMARK SMILES IDX 43 54 57 55 76 56 41 57 42 58 56 60 77 61 44 62 28 63 29 64
REMARK SMILES IDX 37 65 30 66 31 67 35 68 38 69 32 70 33 71 36 72 34 73 60 74
REMARK SMILES IDX 61 75 69 76 62 77 63 78 67 79 70 80 64 81 65 82 68 83 66 84
REMARK SMILES IDX 45 85 46 86 54 87 47 88 48 89 52 90 55 91 49 92 50 93 53 94
REMARK SMILES IDX 51 95
REMARK H PARENT 75 48 43 59
REMARK Flexibility Score: inf
ROOT
ATOM      1  C   UNL A   1      37.777  21.545  25.375  1.00  0.00     0.274 C 
ENDROOT
BRANCH   1   2
ATOM      2  O   UNL A   1      36.813  22.621  25.320  1.00  0.00    -0.459 OA
BRANCH   2   3
ATOM      3  C   UNL A   1      36.208  22.951  24.132  1.00  0.00     0.350 C 
ATOM      4  O   UNL A   1      36.781  22.921  23.056  1.00  0.00    -0.247 OA
BRANCH   3   5
ATOM      5  C   UNL A   1      34.712  23.398  24.343  1.00  0.00     0.209 C 
ATOM      6  C   UNL A   1      34.691  24.370  25.551  1.00  0.00     0.082 C 
ATOM      7  C   UNL A   1      34.288  24.117  23.070  1.00  0.00     0.082 C 
ATOM      8  C   UNL A   1      33.529  25.327  25.656  1.00  0.00     0.124 C 
ATOM      9  C   UNL A   1      33.037  24.969  23.207  1.00  0.00     0.124 C 
ATOM     10  N   UNL A   1      32.983  25.822  24.398  1.00  0.00    -0.342 N 
ATOM     11  C   UNL A   1      32.137  26.925  24.534  1.00  0.00     0.228 C 
ATOM     12  O   UNL A   1      31.961  27.462  25.632  1.00  0.00    -0.274 OA
BRANCH   5  13
ATOM     13  O   UNL A   1      33.955  22.232  24.732  1.00  0.00    -0.475 OA
BRANCH  13  14
ATOM     14  C   UNL A   1      33.830  20.982  24.188  1.00  0.00     0.124 A 
ATOM     15  C   UNL A   1      31.778  21.607  22.753  1.00  0.00     0.048 C 
ATOM     16  C   UNL A   1      32.718  20.633  23.386  1.00  0.00    -0.006 A 
ATOM     17  C   UNL A   1      32.336  19.283  23.241  1.00  0.00     0.046 A 
ATOM     18  C   UNL A   1      32.994  18.291  23.940  1.00  0.00     0.123 A 
ATOM     19  C   UNL A   1      34.501  19.944  24.857  1.00  0.00     0.050 A 
ATOM     20  F   UNL A   1      32.538  17.032  23.881  1.00  0.00    -0.207 F 
ATOM     21  C   UNL A   1      34.076  18.607  24.744  1.00  0.00     0.043 A 
ENDBRANCH  13  14
ENDBRANCH   5  13
BRANCH  11  22
ATOM     22  C   UNL A   1      31.384  27.427  23.318  1.00  0.00     0.107 C 
ATOM     23  C   UNL A   1      29.905  27.589  23.599  1.00  0.00     0.044 C 
ATOM     24  C   UNL A   1      31.790  28.845  22.955  1.00  0.00     0.173 C 
ATOM     25  C   UNL A   1      29.488  28.703  22.659  1.00  0.00     0.161 C 
ATOM     26  O   UNL A   1      30.663  29.434  22.293  1.00  0.00    -0.381 OA
ENDBRANCH  11  22
ENDBRANCH   3   5
ENDBRANCH   2   3
ENDBRANCH   1   2
BRANCH   1  27
ATOM     27  C   UNL A   1      39.135  21.986  25.935  1.00  0.00     0.275 C 
BRANCH  27  28
ATOM     28  O   UNL A   1      39.743  20.923  26.681  1.00  0.00    -0.458 OA
BRANCH  28  29
ATOM     29  C   UNL A   1      41.007  20.685  26.295  1.00  0.00     0.338 C 
ATOM     30  O   UNL A   1      41.396  19.808  25.533  1.00  0.00    -0.246 OA
BRANCH  29  31
ATOM     31  C   UNL A   1      41.956  21.592  26.920  1.00  0.00     0.060 A 
ATOM     32  C   UNL A   1      41.931  21.680  28.318  1.00  0.00     0.016 A 
ATOM     33  C   UNL A   1      42.475  22.605  26.125  1.00  0.00     0.016 A 
ATOM     34  C   UNL A   1      42.256  22.874  28.937  1.00  0.00     0.010 A 
ATOM     35  C   UNL A   1      42.799  23.796  26.742  1.00  0.00     0.010 A 
ATOM     36  C   UNL A   1      42.595  23.951  28.127  1.00  0.00    -0.014 A 
BRANCH  36  37
ATOM     37  C   UNL A   1      42.667  25.313  28.623  1.00  0.00     0.031 A 
ATOM     38  C   UNL A   1      41.533  26.237  28.472  1.00  0.00     0.074 A 
ATOM     39  C   UNL A   1      43.737  25.664  29.368  1.00  0.00     0.049 A 
ATOM     40  N   UNL A   1      41.616  27.520  28.607  1.00  0.00    -0.248 NA
ATOM     41  C   UNL A   1      40.201  25.773  28.103  1.00  0.00     0.031 C 
ATOM     42  C   UNL A   1      43.776  26.688  30.402  1.00  0.00     0.029 A 
ATOM     43  N   UNL A   1      45.054  25.197  29.285  1.00  0.00    -0.354 N 
ATOM     44  C   UNL A   1      40.329  27.997  28.680  1.00  0.00     0.074 A 
ATOM     45  C   UNL A   1      39.494  26.898  28.242  1.00  0.00     0.031 C 
ATOM     46  C   UNL A   1      45.052  26.914  30.755  1.00  0.00     0.029 A 
ATOM     47  C   UNL A   1      45.888  26.222  29.792  1.00  0.00     0.049 A 
ATOM     48  H   UNL A   1      45.345  24.322  28.940  1.00  0.00     0.167 HD
ATOM     49  C   UNL A   1      40.086  29.192  29.296  1.00  0.00     0.037 A 
ATOM     50  C   UNL A   1      46.828  26.857  29.021  1.00  0.00     0.037 A 
ATOM     51  C   UNL A   1      41.319  29.829  29.753  1.00  0.00     0.049 A 
ATOM     52  C   UNL A   1      46.670  28.348  28.927  1.00  0.00     0.074 A 
ATOM     53  C   UNL A   1      41.947  29.824  30.988  1.00  0.00     0.029 A 
ATOM     54  N   UNL A   1      42.250  30.322  28.843  1.00  0.00    -0.354 N 
ATOM     55  N   UNL A   1      45.537  28.956  29.114  1.00  0.00    -0.248 NA
ATOM     56  C   UNL A   1      47.731  29.239  28.471  1.00  0.00     0.031 C 
ATOM     57  C   UNL A   1      43.261  30.308  30.823  1.00  0.00     0.029 A 
ATOM     58  C   UNL A   1      43.442  30.606  29.485  1.00  0.00     0.049 A 
ATOM     59  H   UNL A   1      42.084  30.449  27.880  1.00  0.00     0.167 HD
ATOM     60  C   UNL A   1      45.675  30.267  28.761  1.00  0.00     0.074 A 
ATOM     61  C   UNL A   1      47.072  30.407  28.396  1.00  0.00     0.031 C 
ATOM     62  C   UNL A   1      44.605  31.110  28.772  1.00  0.00     0.037 A 
BRANCH  49  63
ATOM     63  C   UNL A   1      38.713  29.527  29.842  1.00  0.00     0.064 A 
ATOM     64  C   UNL A   1      37.771  30.239  29.067  1.00  0.00     0.173 A 
ATOM     65  C   UNL A   1      38.310  29.259  31.161  1.00  0.00     0.173 A 
ATOM     66  F   UNL A   1      37.940  30.435  27.754  1.00  0.00    -0.203 F 
ATOM     67  C   UNL A   1      36.613  30.790  29.617  1.00  0.00     0.198 A 
ATOM     68  C   UNL A   1      37.175  29.851  31.727  1.00  0.00     0.198 A 
ATOM     69  F   UNL A   1      38.995  28.400  31.928  1.00  0.00    -0.203 F 
ATOM     70  F   UNL A   1      35.778  31.492  28.838  1.00  0.00    -0.200 F 
ATOM     71  C   UNL A   1      36.340  30.638  30.959  1.00  0.00     0.200 A 
ATOM     72  F   UNL A   1      36.905  29.667  33.027  1.00  0.00    -0.200 F 
ATOM     73  F   UNL A   1      35.264  31.224  31.502  1.00  0.00    -0.200 F 
ENDBRANCH  49  63
BRANCH  50  74
ATOM     74  C   UNL A   1      47.200  26.080  27.814  1.00  0.00     0.064 A 
ATOM     75  C   UNL A   1      46.564  26.388  26.601  1.00  0.00     0.173 A 
ATOM     76  C   UNL A   1      48.467  25.475  27.790  1.00  0.00     0.173 A 
ATOM     77  F   UNL A   1      45.344  26.943  26.594  1.00  0.00    -0.203 F 
ATOM     78  C   UNL A   1      47.266  26.293  25.417  1.00  0.00     0.198 A 
ATOM     79  C   UNL A   1      49.170  25.404  26.608  1.00  0.00     0.198 A 
ATOM     80  F   UNL A   1      49.077  25.096  28.922  1.00  0.00    -0.203 F 
ATOM     81  F   UNL A   1      46.727  26.718  24.266  1.00  0.00    -0.200 F 
ATOM     82  C   UNL A   1      48.578  25.860  25.445  1.00  0.00     0.200 A 
ATOM     83  F   UNL A   1      50.444  24.992  26.612  1.00  0.00    -0.200 F 
ATOM     84  F   UNL A   1      49.287  25.926  24.330  1.00  0.00    -0.200 F 
ENDBRANCH  50  74
BRANCH  62  85
ATOM     85  C   UNL A   1      44.621  32.519  28.259  1.00  0.00     0.064 A 
ATOM     86  C   UNL A   1      45.087  33.615  29.002  1.00  0.00     0.173 A 
ATOM     87  C   UNL A   1      44.233  32.792  26.929  1.00  0.00     0.173 A 
ATOM     88  F   UNL A   1      45.607  33.455  30.227  1.00  0.00    -0.203 F 
ATOM     89  C   UNL A   1      45.071  34.910  28.484  1.00  0.00     0.198 A 
ATOM     90  C   UNL A   1      44.270  34.078  26.397  1.00  0.00     0.198 A 
ATOM     91  F   UNL A   1      43.819  31.816  26.107  1.00  0.00    -0.203 F 
ATOM     92  F   UNL A   1      45.466  35.936  29.252  1.00  0.00    -0.200 F 
ATOM     93  C   UNL A   1      44.665  35.142  27.183  1.00  0.00     0.200 A 
ATOM     94  F   UNL A   1      43.925  34.279  25.118  1.00  0.00    -0.200 F 
ATOM     95  F   UNL A   1      44.671  36.384  26.682  1.00  0.00    -0.200 F 
ENDBRANCH  62  85
ENDBRANCH  36  37
ENDBRANCH  29  31
ENDBRANCH  28  29
ENDBRANCH  27  28
ENDBRANCH   1  27
TORSDOF 14
ENDMDL
