MODEL 1
REMARK VINA RESULT:     -13.4      0.000      0.000
REMARK SMILES Cc1cc(F)cc(N[C@](C)(C(=O)OCCOC(=O)c2ccc(-c3c4nc(c(-c5c(F)c(F)c(F)c(F)c5F)c5ccc([nH]5)c(-c5c(F)c(F)c(F)c(F)c5F)c5nc(c(-c6c(F)c(F)c(F)c(F)c6F)c6ccc3[nH]6)C=C5)C=C4)cc2)c2cccc(F)c2)c1
REMARK SMILES IDX 14 1 13 2 11 3 12 4 9 5 10 6 8 7 7 9 1 10 2 11 3 12 89 13
REMARK SMILES IDX 4 14 5 15 6 16 82 17 83 18 88 19 84 20 86 21 85 22 87 23
REMARK SMILES IDX 15 24 16 25 17 26 18 27 19 28 20 29 81 30 21 31 80 32 22 33
REMARK SMILES IDX 23 34 24 35 74 36 25 37 79 38 73 39 75 40 26 41 78 42 72 43
REMARK SMILES IDX 71 44 27 46 59 47 39 48 58 49 40 50 43 51 57 52 76 53 41 54
REMARK SMILES IDX 42 55 56 57 77 58 44 59 28 60 29 61 37 62 30 63 31 64 35 65
REMARK SMILES IDX 38 66 32 67 33 68 36 69 34 70 60 71 61 72 69 73 62 74 63 75
REMARK SMILES IDX 67 76 70 77 64 78 65 79 68 80 66 81 45 82 46 83 54 84 47 85
REMARK SMILES IDX 48 86 52 87 55 88 49 89 50 90 53 91 51 92
REMARK H PARENT 8 8 75 45 43 56
REMARK Flexibility Score: inf
ROOT
ATOM      1  C   UNL A   1      33.275  30.600  26.955  1.00  0.00     0.274 C 
ENDROOT
BRANCH   1   2
ATOM      2  O   UNL A   1      33.625  29.203  27.104  1.00  0.00    -0.460 OA
BRANCH   2   3
ATOM      3  C   UNL A   1      32.622  28.312  26.852  1.00  0.00     0.336 C 
ATOM      4  O   UNL A   1      31.813  28.009  27.730  1.00  0.00    -0.249 OA
BRANCH   3   5
ATOM      5  C   UNL A   1      32.675  27.628  25.427  1.00  0.00     0.159 C 
ATOM      6  C   UNL A   1      33.885  28.169  24.649  1.00  0.00     0.053 C 
BRANCH   5   7
ATOM      7  N   UNL A   1      32.787  26.136  25.623  1.00  0.00    -0.366 N 
ATOM      8  H   UNL A   1      32.218  25.763  26.335  1.00  0.00     0.162 HD
BRANCH   7   9
ATOM      9  C   UNL A   1      33.572  25.208  24.950  1.00  0.00     0.038 A 
ATOM     10  C   UNL A   1      37.033  23.610  25.470  1.00  0.00     0.044 C 
ATOM     11  C   UNL A   1      35.694  23.943  24.882  1.00  0.00    -0.046 A 
ATOM     12  C   UNL A   1      35.313  23.361  23.674  1.00  0.00     0.042 A 
ATOM     13  C   UNL A   1      34.815  24.847  25.512  1.00  0.00     0.029 A 
ATOM     14  C   UNL A   1      34.077  23.673  23.134  1.00  0.00     0.125 A 
ATOM     15  F   UNL A   1      33.709  23.118  21.969  1.00  0.00    -0.207 F 
ATOM     16  C   UNL A   1      33.212  24.566  23.765  1.00  0.00     0.065 A 
ENDBRANCH   7   9
ENDBRANCH   5   7
BRANCH   5  17
ATOM     17  C   UNL A   1      31.459  27.873  24.471  1.00  0.00    -0.009 A 
ATOM     18  C   UNL A   1      30.350  26.983  24.483  1.00  0.00     0.007 A 
ATOM     19  C   UNL A   1      31.413  28.906  23.519  1.00  0.00     0.046 A 
ATOM     20  C   UNL A   1      29.227  27.174  23.666  1.00  0.00     0.003 A 
ATOM     21  C   UNL A   1      30.302  29.072  22.687  1.00  0.00     0.123 A 
ATOM     22  C   UNL A   1      29.203  28.230  22.766  1.00  0.00     0.039 A 
ATOM     23  F   UNL A   1      30.297  30.067  21.790  1.00  0.00    -0.207 F 
ENDBRANCH   5  17
ENDBRANCH   3   5
ENDBRANCH   2   3
ENDBRANCH   1   2
BRANCH   1  24
ATOM     24  C   UNL A   1      33.837  31.551  28.025  1.00  0.00     0.275 C 
BRANCH  24  25
ATOM     25  O   UNL A   1      35.161  32.035  27.739  1.00  0.00    -0.458 OA
BRANCH  25  26
ATOM     26  C   UNL A   1      36.067  31.681  28.678  1.00  0.00     0.338 C 
ATOM     27  O   UNL A   1      36.414  32.348  29.639  1.00  0.00    -0.246 OA
BRANCH  26  28
ATOM     28  C   UNL A   1      36.672  30.368  28.418  1.00  0.00     0.060 A 
ATOM     29  C   UNL A   1      36.741  29.462  29.487  1.00  0.00     0.016 A 
ATOM     30  C   UNL A   1      37.497  30.234  27.306  1.00  0.00     0.016 A 
ATOM     31  C   UNL A   1      37.779  28.537  29.546  1.00  0.00     0.010 A 
ATOM     32  C   UNL A   1      38.527  29.305  27.362  1.00  0.00     0.010 A 
ATOM     33  C   UNL A   1      38.727  28.536  28.524  1.00  0.00    -0.014 A 
BRANCH  33  34
ATOM     34  C   UNL A   1      40.061  27.966  28.698  1.00  0.00     0.031 A 
ATOM     35  C   UNL A   1      40.439  26.606  28.272  1.00  0.00     0.074 A 
ATOM     36  C   UNL A   1      41.017  28.730  29.274  1.00  0.00     0.049 A 
ATOM     37  N   UNL A   1      41.401  25.927  28.818  1.00  0.00    -0.248 NA
ATOM     38  C   UNL A   1      39.744  25.888  27.209  1.00  0.00     0.031 C 
ATOM     39  C   UNL A   1      42.461  28.547  29.173  1.00  0.00     0.029 A 
ATOM     40  N   UNL A   1      40.860  29.767  30.199  1.00  0.00    -0.354 N 
ATOM     41  C   UNL A   1      41.649  24.857  27.999  1.00  0.00     0.074 A 
ATOM     42  C   UNL A   1      40.527  24.809  27.079  1.00  0.00     0.031 C 
ATOM     43  C   UNL A   1      43.067  29.277  30.121  1.00  0.00     0.029 A 
ATOM     44  C   UNL A   1      42.030  29.801  30.991  1.00  0.00     0.049 A 
ATOM     45  H   UNL A   1      40.080  30.362  30.284  1.00  0.00     0.167 HD
ATOM     46  C   UNL A   1      42.852  24.217  28.027  1.00  0.00     0.037 A 
ATOM     47  C   UNL A   1      42.019  29.664  32.352  1.00  0.00     0.037 A 
ATOM     48  C   UNL A   1      43.797  24.786  28.977  1.00  0.00     0.049 A 
ATOM     49  C   UNL A   1      42.929  28.595  32.887  1.00  0.00     0.074 A 
ATOM     50  C   UNL A   1      44.818  25.709  28.818  1.00  0.00     0.029 A 
ATOM     51  N   UNL A   1      43.612  24.645  30.350  1.00  0.00    -0.354 N 
ATOM     52  N   UNL A   1      43.332  27.587  32.174  1.00  0.00    -0.248 NA
ATOM     53  C   UNL A   1      43.348  28.508  34.285  1.00  0.00     0.031 C 
ATOM     54  C   UNL A   1      45.261  26.116  30.091  1.00  0.00     0.029 A 
ATOM     55  C   UNL A   1      44.501  25.453  31.036  1.00  0.00     0.049 A 
ATOM     56  H   UNL A   1      42.944  24.055  30.771  1.00  0.00     0.167 HD
ATOM     57  C   UNL A   1      44.013  26.718  32.977  1.00  0.00     0.074 A 
ATOM     58  C   UNL A   1      44.012  27.339  34.287  1.00  0.00     0.031 C 
ATOM     59  C   UNL A   1      44.504  25.548  32.484  1.00  0.00     0.037 A 
BRANCH  46  60
ATOM     60  C   UNL A   1      43.241  23.314  26.889  1.00  0.00     0.064 A 
ATOM     61  C   UNL A   1      42.968  21.932  26.910  1.00  0.00     0.173 A 
ATOM     62  C   UNL A   1      43.979  23.775  25.786  1.00  0.00     0.173 A 
ATOM     63  F   UNL A   1      42.226  21.373  27.873  1.00  0.00    -0.203 F 
ATOM     64  C   UNL A   1      43.488  21.059  25.955  1.00  0.00     0.198 A 
ATOM     65  C   UNL A   1      44.531  22.895  24.851  1.00  0.00     0.198 A 
ATOM     66  F   UNL A   1      44.208  25.088  25.622  1.00  0.00    -0.203 F 
ATOM     67  F   UNL A   1      43.226  19.747  26.043  1.00  0.00    -0.200 F 
ATOM     68  C   UNL A   1      44.298  21.536  24.945  1.00  0.00     0.200 A 
ATOM     69  F   UNL A   1      45.321  23.368  23.877  1.00  0.00    -0.200 F 
ATOM     70  F   UNL A   1      44.854  20.687  24.070  1.00  0.00    -0.200 F 
ENDBRANCH  46  60
BRANCH  47  71
ATOM     71  C   UNL A   1      40.686  29.918  32.952  1.00  0.00     0.064 A 
ATOM     72  C   UNL A   1      40.221  31.242  32.996  1.00  0.00     0.173 A 
ATOM     73  C   UNL A   1      39.751  28.874  32.990  1.00  0.00     0.173 A 
ATOM     74  F   UNL A   1      41.092  32.263  32.996  1.00  0.00    -0.203 F 
ATOM     75  C   UNL A   1      38.869  31.510  32.845  1.00  0.00     0.198 A 
ATOM     76  C   UNL A   1      38.402  29.147  32.850  1.00  0.00     0.198 A 
ATOM     77  F   UNL A   1      40.149  27.594  33.012  1.00  0.00    -0.203 F 
ATOM     78  F   UNL A   1      38.451  32.777  32.731  1.00  0.00    -0.200 F 
ATOM     79  C   UNL A   1      37.981  30.457  32.698  1.00  0.00     0.200 A 
ATOM     80  F   UNL A   1      37.516  28.146  32.745  1.00  0.00    -0.200 F 
ATOM     81  F   UNL A   1      36.722  30.680  32.323  1.00  0.00    -0.200 F 
ENDBRANCH  47  71
BRANCH  59  82
ATOM     82  C   UNL A   1      45.150  24.480  33.307  1.00  0.00     0.064 A 
ATOM     83  C   UNL A   1      44.520  23.267  33.622  1.00  0.00     0.173 A 
ATOM     84  C   UNL A   1      46.498  24.610  33.708  1.00  0.00     0.173 A 
ATOM     85  F   UNL A   1      43.270  23.012  33.212  1.00  0.00    -0.203 F 
ATOM     86  C   UNL A   1      45.179  22.266  34.340  1.00  0.00     0.198 A 
ATOM     87  C   UNL A   1      47.165  23.594  34.387  1.00  0.00     0.198 A 
ATOM     88  F   UNL A   1      47.198  25.723  33.444  1.00  0.00    -0.203 F 
ATOM     89  F   UNL A   1      44.530  21.135  34.649  1.00  0.00    -0.200 F 
ATOM     90  C   UNL A   1      46.503  22.426  34.713  1.00  0.00     0.200 A 
ATOM     91  F   UNL A   1      48.456  23.747  34.714  1.00  0.00    -0.200 F 
ATOM     92  F   UNL A   1      47.140  21.451  35.373  1.00  0.00    -0.200 F 
ENDBRANCH  59  82
ENDBRANCH  33  34
ENDBRANCH  26  28
ENDBRANCH  25  26
ENDBRANCH  24  25
ENDBRANCH   1  24
TORSDOF 14
ENDMDL
MODEL 2
REMARK VINA RESULT:     -13.3      4.154      9.977
REMARK SMILES Cc1cc(F)cc(N[C@](C)(C(=O)OCCOC(=O)c2ccc(-c3c4nc(c(-c5c(F)c(F)c(F)c(F)c5F)c5ccc([nH]5)c(-c5c(F)c(F)c(F)c(F)c5F)c5nc(c(-c6c(F)c(F)c(F)c(F)c6F)c6ccc3[nH]6)C=C5)C=C4)cc2)c2cccc(F)c2)c1
REMARK SMILES IDX 14 1 13 2 11 3 12 4 9 5 10 6 8 7 7 9 1 10 2 11 3 12 89 13
REMARK SMILES IDX 4 14 5 15 6 16 82 17 83 18 88 19 84 20 86 21 85 22 87 23
REMARK SMILES IDX 15 24 16 25 17 26 18 27 19 28 20 29 81 30 21 31 80 32 22 33
REMARK SMILES IDX 23 34 24 35 74 36 25 37 79 38 73 39 75 40 26 41 78 42 72 43
REMARK SMILES IDX 71 44 27 46 59 47 39 48 58 49 40 50 43 51 57 52 76 53 41 54
REMARK SMILES IDX 42 55 56 57 77 58 44 59 28 60 29 61 37 62 30 63 31 64 35 65
REMARK SMILES IDX 38 66 32 67 33 68 36 69 34 70 60 71 61 72 69 73 62 74 63 75
REMARK SMILES IDX 67 76 70 77 64 78 65 79 68 80 66 81 45 82 46 83 54 84 47 85
REMARK SMILES IDX 48 86 52 87 55 88 49 89 50 90 53 91 51 92
REMARK H PARENT 8 8 75 45 43 56
REMARK Flexibility Score: inf
ROOT
ATOM      1  C   UNL A   1      37.962  21.986  25.740  1.00  0.00     0.274 C 
ENDROOT
BRANCH   1   2
ATOM      2  O   UNL A   1      37.450  23.266  25.297  1.00  0.00    -0.460 OA
BRANCH   2   3
ATOM      3  C   UNL A   1      36.481  23.214  24.337  1.00  0.00     0.336 C 
ATOM      4  O   UNL A   1      36.773  23.275  23.143  1.00  0.00    -0.249 OA
BRANCH   3   5
ATOM      5  C   UNL A   1      34.997  23.209  24.882  1.00  0.00     0.159 C 
ATOM      6  C   UNL A   1      35.020  23.129  26.418  1.00  0.00     0.053 C 
BRANCH   5   7
ATOM      7  N   UNL A   1      34.319  24.478  24.423  1.00  0.00    -0.366 N 
ATOM      8  H   UNL A   1      34.485  24.723  23.484  1.00  0.00     0.162 HD
BRANCH   7   9
ATOM      9  C   UNL A   1      33.497  25.350  25.124  1.00  0.00     0.038 A 
ATOM     10  C   UNL A   1      33.954  28.662  27.027  1.00  0.00     0.044 C 
ATOM     11  C   UNL A   1      33.319  27.447  26.420  1.00  0.00    -0.046 A 
ATOM     12  C   UNL A   1      31.960  27.211  26.623  1.00  0.00     0.042 A 
ATOM     13  C   UNL A   1      34.067  26.523  25.663  1.00  0.00     0.029 A 
ATOM     14  C   UNL A   1      31.379  26.086  26.063  1.00  0.00     0.125 A 
ATOM     15  F   UNL A   1      30.072  25.854  26.260  1.00  0.00    -0.207 F 
ATOM     16  C   UNL A   1      32.125  25.179  25.313  1.00  0.00     0.065 A 
ENDBRANCH   7   9
ENDBRANCH   5   7
BRANCH   5  17
ATOM     17  C   UNL A   1      34.079  22.018  24.446  1.00  0.00    -0.009 A 
ATOM     18  C   UNL A   1      34.215  20.746  25.067  1.00  0.00     0.007 A 
ATOM     19  C   UNL A   1      33.144  22.099  23.399  1.00  0.00     0.046 A 
ATOM     20  C   UNL A   1      33.399  19.657  24.730  1.00  0.00     0.003 A 
ATOM     21  C   UNL A   1      32.356  20.998  23.049  1.00  0.00     0.123 A 
ATOM     22  C   UNL A   1      32.460  19.787  23.717  1.00  0.00     0.039 A 
ATOM     23  F   UNL A   1      31.478  21.115  22.044  1.00  0.00    -0.207 F 
ENDBRANCH   5  17
ENDBRANCH   3   5
ENDBRANCH   2   3
ENDBRANCH   1   2
BRANCH   1  24
ATOM     24  C   UNL A   1      39.493  21.872  25.838  1.00  0.00     0.275 C 
BRANCH  24  25
ATOM     25  O   UNL A   1      40.024  22.240  27.123  1.00  0.00    -0.458 OA
BRANCH  25  26
ATOM     26  C   UNL A   1      40.787  23.355  27.079  1.00  0.00     0.338 C 
ATOM     27  O   UNL A   1      42.001  23.400  26.963  1.00  0.00    -0.246 OA
BRANCH  26  28
ATOM     28  C   UNL A   1      40.002  24.588  27.232  1.00  0.00     0.060 A 
ATOM     29  C   UNL A   1      40.337  25.677  26.415  1.00  0.00     0.016 A 
ATOM     30  C   UNL A   1      39.283  24.765  28.410  1.00  0.00     0.016 A 
ATOM     31  C   UNL A   1      40.136  26.975  26.873  1.00  0.00     0.010 A 
ATOM     32  C   UNL A   1      39.075  26.061  28.863  1.00  0.00     0.010 A 
ATOM     33  C   UNL A   1      39.596  27.154  28.145  1.00  0.00    -0.014 A 
BRANCH  33  34
ATOM     34  C   UNL A   1      39.767  28.396  28.898  1.00  0.00     0.031 A 
ATOM     35  C   UNL A   1      38.758  29.470  28.957  1.00  0.00     0.074 A 
ATOM     36  C   UNL A   1      40.912  28.574  29.594  1.00  0.00     0.049 A 
ATOM     37  N   UNL A   1      39.050  30.714  29.185  1.00  0.00    -0.248 NA
ATOM     38  C   UNL A   1      37.335  29.232  28.737  1.00  0.00     0.031 C 
ATOM     39  C   UNL A   1      41.123  29.492  30.708  1.00  0.00     0.029 A 
ATOM     40  N   UNL A   1      42.179  28.043  29.333  1.00  0.00    -0.354 N 
ATOM     41  C   UNL A   1      37.870  31.358  29.450  1.00  0.00     0.074 A 
ATOM     42  C   UNL A   1      36.828  30.432  29.049  1.00  0.00     0.031 C 
ATOM     43  C   UNL A   1      42.440  29.629  30.925  1.00  0.00     0.029 A 
ATOM     44  C   UNL A   1      43.128  28.962  29.834  1.00  0.00     0.049 A 
ATOM     45  H   UNL A   1      42.374  27.189  28.883  1.00  0.00     0.167 HD
ATOM     46  C   UNL A   1      37.852  32.525  30.153  1.00  0.00     0.037 A 
ATOM     47  C   UNL A   1      44.094  29.542  29.058  1.00  0.00     0.037 A 
ATOM     48  C   UNL A   1      39.170  32.976  30.577  1.00  0.00     0.049 A 
ATOM     49  C   UNL A   1      44.139  31.042  29.120  1.00  0.00     0.074 A 
ATOM     50  C   UNL A   1      39.859  32.810  31.768  1.00  0.00     0.029 A 
ATOM     51  N   UNL A   1      40.095  33.463  29.658  1.00  0.00    -0.354 N 
ATOM     52  N   UNL A   1      43.119  31.766  29.470  1.00  0.00    -0.248 NA
ATOM     53  C   UNL A   1      45.279  31.841  28.675  1.00  0.00     0.031 C 
ATOM     54  C   UNL A   1      41.195  33.212  31.576  1.00  0.00     0.029 A 
ATOM     55  C   UNL A   1      41.332  33.610  30.260  1.00  0.00     0.049 A 
ATOM     56  H   UNL A   1      39.896  33.674  28.716  1.00  0.00     0.167 HD
ATOM     57  C   UNL A   1      43.423  33.083  29.279  1.00  0.00     0.074 A 
ATOM     58  C   UNL A   1      44.789  33.086  28.794  1.00  0.00     0.031 C 
ATOM     59  C   UNL A   1      42.503  34.055  29.526  1.00  0.00     0.037 A 
BRANCH  46  60
ATOM     60  C   UNL A   1      36.562  33.012  30.753  1.00  0.00     0.064 A 
ATOM     61  C   UNL A   1      35.717  33.910  30.070  1.00  0.00     0.173 A 
ATOM     62  C   UNL A   1      36.170  32.679  32.060  1.00  0.00     0.173 A 
ATOM     63  F   UNL A   1      35.943  34.265  28.800  1.00  0.00    -0.203 F 
ATOM     64  C   UNL A   1      34.621  34.512  30.688  1.00  0.00     0.198 A 
ATOM     65  C   UNL A   1      35.095  33.311  32.691  1.00  0.00     0.198 A 
ATOM     66  F   UNL A   1      36.854  31.758  32.760  1.00  0.00    -0.203 F 
ATOM     67  F   UNL A   1      33.871  35.387  30.002  1.00  0.00    -0.200 F 
ATOM     68  C   UNL A   1      34.331  34.239  32.008  1.00  0.00     0.200 A 
ATOM     69  F   UNL A   1      34.826  33.043  33.976  1.00  0.00    -0.200 F 
ATOM     70  F   UNL A   1      33.321  34.871  32.621  1.00  0.00    -0.200 F 
ENDBRANCH  46  60
BRANCH  47  71
ATOM     71  C   UNL A   1      44.338  28.810  27.791  1.00  0.00     0.064 A 
ATOM     72  C   UNL A   1      45.040  27.596  27.849  1.00  0.00     0.173 A 
ATOM     73  C   UNL A   1      43.486  29.044  26.701  1.00  0.00     0.173 A 
ATOM     74  F   UNL A   1      45.889  27.357  28.862  1.00  0.00    -0.203 F 
ATOM     75  C   UNL A   1      44.722  26.565  26.979  1.00  0.00     0.198 A 
ATOM     76  C   UNL A   1      43.181  28.015  25.828  1.00  0.00     0.198 A 
ATOM     77  F   UNL A   1      42.843  30.212  26.568  1.00  0.00    -0.203 F 
ATOM     78  F   UNL A   1      45.284  25.360  27.141  1.00  0.00    -0.200 F 
ATOM     79  C   UNL A   1      43.739  26.764  26.023  1.00  0.00     0.200 A 
ATOM     80  F   UNL A   1      42.261  28.191  24.869  1.00  0.00    -0.200 F 
ATOM     81  F   UNL A   1      43.250  25.734  25.331  1.00  0.00    -0.200 F 
ENDBRANCH  47  71
BRANCH  59  82
ATOM     82  C   UNL A   1      42.698  35.509  29.231  1.00  0.00     0.064 A 
ATOM     83  C   UNL A   1      42.051  36.171  28.177  1.00  0.00     0.173 A 
ATOM     84  C   UNL A   1      43.470  36.313  30.097  1.00  0.00     0.173 A 
ATOM     85  F   UNL A   1      41.227  35.512  27.350  1.00  0.00    -0.203 F 
ATOM     86  C   UNL A   1      42.208  37.543  27.970  1.00  0.00     0.198 A 
ATOM     87  C   UNL A   1      43.591  37.687  29.913  1.00  0.00     0.198 A 
ATOM     88  F   UNL A   1      44.118  35.782  31.145  1.00  0.00    -0.203 F 
ATOM     89  F   UNL A   1      41.599  38.132  26.932  1.00  0.00    -0.200 F 
ATOM     90  C   UNL A   1      42.970  38.301  28.843  1.00  0.00     0.200 A 
ATOM     91  F   UNL A   1      44.304  38.416  30.784  1.00  0.00    -0.200 F 
ATOM     92  F   UNL A   1      43.092  39.622  28.660  1.00  0.00    -0.200 F 
ENDBRANCH  59  82
ENDBRANCH  33  34
ENDBRANCH  26  28
ENDBRANCH  25  26
ENDBRANCH  24  25
ENDBRANCH   1  24
TORSDOF 14
ENDMDL
MODEL 3
REMARK VINA RESULT:     -13.2      4.194     10.104
REMARK SMILES Cc1cc(F)cc(N[C@](C)(C(=O)OCCOC(=O)c2ccc(-c3c4nc(c(-c5c(F)c(F)c(F)c(F)c5F)c5ccc([nH]5)c(-c5c(F)c(F)c(F)c(F)c5F)c5nc(c(-c6c(F)c(F)c(F)c(F)c6F)c6ccc3[nH]6)C=C5)C=C4)cc2)c2cccc(F)c2)c1
REMARK SMILES IDX 14 1 13 2 11 3 12 4 9 5 10 6 8 7 7 9 1 10 2 11 3 12 89 13
REMARK SMILES IDX 4 14 5 15 6 16 82 17 83 18 88 19 84 20 86 21 85 22 87 23
REMARK SMILES IDX 15 24 16 25 17 26 18 27 19 28 20 29 81 30 21 31 80 32 22 33
REMARK SMILES IDX 23 34 24 35 74 36 25 37 79 38 73 39 75 40 26 41 78 42 72 43
REMARK SMILES IDX 71 44 27 46 59 47 39 48 58 49 40 50 43 51 57 52 76 53 41 54
REMARK SMILES IDX 42 55 56 57 77 58 44 59 28 60 29 61 37 62 30 63 31 64 35 65
REMARK SMILES IDX 38 66 32 67 33 68 36 69 34 70 60 71 61 72 69 73 62 74 63 75
REMARK SMILES IDX 67 76 70 77 64 78 65 79 68 80 66 81 45 82 46 83 54 84 47 85
REMARK SMILES IDX 48 86 52 87 55 88 49 89 50 90 53 91 51 92
REMARK H PARENT 8 8 75 45 43 56
REMARK Flexibility Score: inf
ROOT
ATOM      1  C   UNL A   1      38.645  21.696  25.496  1.00  0.00     0.274 C 
ENDROOT
BRANCH   1   2
ATOM      2  O   UNL A   1      37.428  22.197  26.100  1.00  0.00    -0.460 OA
BRANCH   2   3
ATOM      3  C   UNL A   1      36.597  22.891  25.269  1.00  0.00     0.336 C 
ATOM      4  O   UNL A   1      37.048  23.709  24.466  1.00  0.00    -0.249 OA
BRANCH   3   5
ATOM      5  C   UNL A   1      35.053  22.657  25.517  1.00  0.00     0.159 C 
ATOM      6  C   UNL A   1      34.769  22.700  27.027  1.00  0.00     0.053 C 
BRANCH   5   7
ATOM      7  N   UNL A   1      34.289  23.743  24.797  1.00  0.00    -0.366 N 
ATOM      8  H   UNL A   1      34.350  23.716  23.815  1.00  0.00     0.162 HD
BRANCH   7   9
ATOM      9  C   UNL A   1      33.512  24.773  25.312  1.00  0.00     0.038 A 
ATOM     10  C   UNL A   1      34.131  28.377  26.508  1.00  0.00     0.044 C 
ATOM     11  C   UNL A   1      33.438  27.093  26.160  1.00  0.00    -0.046 A 
ATOM     12  C   UNL A   1      32.074  26.962  26.411  1.00  0.00     0.042 A 
ATOM     13  C   UNL A   1      34.138  26.004  25.602  1.00  0.00     0.029 A 
ATOM     14  C   UNL A   1      31.439  25.774  26.092  1.00  0.00     0.125 A 
ATOM     15  F   UNL A   1      30.126  25.643  26.336  1.00  0.00    -0.207 F 
ATOM     16  C   UNL A   1      32.137  24.703  25.536  1.00  0.00     0.065 A 
ENDBRANCH   7   9
ENDBRANCH   5   7
BRANCH   5  17
ATOM     17  C   UNL A   1      34.452  21.289  25.049  1.00  0.00    -0.009 A 
ATOM     18  C   UNL A   1      33.072  21.189  24.721  1.00  0.00     0.007 A 
ATOM     19  C   UNL A   1      35.190  20.094  24.993  1.00  0.00     0.046 A 
ATOM     20  C   UNL A   1      32.493  19.994  24.272  1.00  0.00     0.003 A 
ATOM     21  C   UNL A   1      34.598  18.899  24.572  1.00  0.00     0.123 A 
ATOM     22  C   UNL A   1      33.265  18.843  24.193  1.00  0.00     0.039 A 
ATOM     23  F   UNL A   1      35.333  17.781  24.535  1.00  0.00    -0.207 F 
ENDBRANCH   5  17
ENDBRANCH   3   5
ENDBRANCH   2   3
ENDBRANCH   1   2
BRANCH   1  24
ATOM     24  C   UNL A   1      39.756  21.276  26.472  1.00  0.00     0.275 C 
BRANCH  24  25
ATOM     25  O   UNL A   1      40.082  22.277  27.452  1.00  0.00    -0.458 OA
BRANCH  25  26
ATOM     26  C   UNL A   1      40.722  23.344  26.923  1.00  0.00     0.338 C 
ATOM     27  O   UNL A   1      41.826  23.343  26.401  1.00  0.00    -0.246 OA
BRANCH  26  28
ATOM     28  C   UNL A   1      39.963  24.593  27.069  1.00  0.00     0.060 A 
ATOM     29  C   UNL A   1      40.370  25.693  26.299  1.00  0.00     0.016 A 
ATOM     30  C   UNL A   1      39.188  24.761  28.212  1.00  0.00     0.016 A 
ATOM     31  C   UNL A   1      40.180  26.985  26.782  1.00  0.00     0.010 A 
ATOM     32  C   UNL A   1      38.990  26.049  28.688  1.00  0.00     0.010 A 
ATOM     33  C   UNL A   1      39.577  27.146  28.028  1.00  0.00    -0.014 A 
BRANCH  33  34
ATOM     34  C   UNL A   1      39.740  28.362  28.822  1.00  0.00     0.031 A 
ATOM     35  C   UNL A   1      38.734  29.438  28.898  1.00  0.00     0.074 A 
ATOM     36  C   UNL A   1      40.875  28.514  29.542  1.00  0.00     0.049 A 
ATOM     37  N   UNL A   1      39.027  30.673  29.171  1.00  0.00    -0.248 NA
ATOM     38  C   UNL A   1      37.315  29.214  28.648  1.00  0.00     0.031 C 
ATOM     39  C   UNL A   1      41.071  29.395  30.688  1.00  0.00     0.029 A 
ATOM     40  N   UNL A   1      42.144  27.986  29.285  1.00  0.00    -0.354 N 
ATOM     41  C   UNL A   1      37.846  31.314  29.436  1.00  0.00     0.074 A 
ATOM     42  C   UNL A   1      36.807  30.405  28.990  1.00  0.00     0.031 C 
ATOM     43  C   UNL A   1      42.385  29.520  30.929  1.00  0.00     0.029 A 
ATOM     44  C   UNL A   1      43.088  28.885  29.830  1.00  0.00     0.049 A 
ATOM     45  H   UNL A   1      42.342  27.145  28.812  1.00  0.00     0.167 HD
ATOM     46  C   UNL A   1      37.821  32.458  30.176  1.00  0.00     0.037 A 
ATOM     47  C   UNL A   1      44.069  29.485  29.088  1.00  0.00     0.037 A 
ATOM     48  C   UNL A   1      39.133  32.890  30.635  1.00  0.00     0.049 A 
ATOM     49  C   UNL A   1      44.118  30.982  29.197  1.00  0.00     0.074 A 
ATOM     50  C   UNL A   1      39.802  32.684  31.831  1.00  0.00     0.029 A 
ATOM     51  N   UNL A   1      40.075  33.402  29.746  1.00  0.00    -0.354 N 
ATOM     52  N   UNL A   1      43.095  31.699  29.554  1.00  0.00    -0.248 NA
ATOM     53  C   UNL A   1      45.268  31.789  28.797  1.00  0.00     0.031 C 
ATOM     54  C   UNL A   1      41.142  33.086  31.673  1.00  0.00     0.029 A 
ATOM     55  C   UNL A   1      41.303  33.525  30.372  1.00  0.00     0.049 A 
ATOM     56  H   UNL A   1      39.892  33.643  28.808  1.00  0.00     0.167 HD
ATOM     57  C   UNL A   1      43.407  33.020  29.409  1.00  0.00     0.074 A 
ATOM     58  C   UNL A   1      44.780  33.033  28.947  1.00  0.00     0.031 C 
ATOM     59  C   UNL A   1      42.486  33.988  29.672  1.00  0.00     0.037 A 
BRANCH  46  60
ATOM     60  C   UNL A   1      36.523  32.932  30.769  1.00  0.00     0.064 A 
ATOM     61  C   UNL A   1      35.671  33.819  30.083  1.00  0.00     0.173 A 
ATOM     62  C   UNL A   1      36.129  32.595  32.075  1.00  0.00     0.173 A 
ATOM     63  F   UNL A   1      35.898  34.176  28.813  1.00  0.00    -0.203 F 
ATOM     64  C   UNL A   1      34.566  34.410  30.695  1.00  0.00     0.198 A 
ATOM     65  C   UNL A   1      35.045  33.216  32.701  1.00  0.00     0.198 A 
ATOM     66  F   UNL A   1      36.820  31.682  32.778  1.00  0.00    -0.203 F 
ATOM     67  F   UNL A   1      33.809  35.276  30.005  1.00  0.00    -0.200 F 
ATOM     68  C   UNL A   1      34.273  34.135  32.015  1.00  0.00     0.200 A 
ATOM     69  F   UNL A   1      34.773  32.946  33.985  1.00  0.00    -0.200 F 
ATOM     70  F   UNL A   1      33.254  34.757  32.623  1.00  0.00    -0.200 F 
ENDBRANCH  46  60
BRANCH  47  71
ATOM     71  C   UNL A   1      44.330  28.793  27.802  1.00  0.00     0.064 A 
ATOM     72  C   UNL A   1      45.049  27.588  27.831  1.00  0.00     0.173 A 
ATOM     73  C   UNL A   1      43.482  29.044  26.714  1.00  0.00     0.173 A 
ATOM     74  F   UNL A   1      45.896  27.333  28.842  1.00  0.00    -0.203 F 
ATOM     75  C   UNL A   1      44.752  26.577  26.931  1.00  0.00     0.198 A 
ATOM     76  C   UNL A   1      43.196  28.035  25.811  1.00  0.00     0.198 A 
ATOM     77  F   UNL A   1      42.822  30.206  26.610  1.00  0.00    -0.203 F 
ATOM     78  F   UNL A   1      45.330  25.376  27.063  1.00  0.00    -0.200 F 
ATOM     79  C   UNL A   1      43.771  26.787  25.975  1.00  0.00     0.200 A 
ATOM     80  F   UNL A   1      42.279  28.225  24.852  1.00  0.00    -0.200 F 
ATOM     81  F   UNL A   1      43.301  25.771  25.252  1.00  0.00    -0.200 F 
ENDBRANCH  47  71
BRANCH  59  82
ATOM     82  C   UNL A   1      42.691  35.449  29.426  1.00  0.00     0.064 A 
ATOM     83  C   UNL A   1      43.492  36.260  30.244  1.00  0.00     0.173 A 
ATOM     84  C   UNL A   1      42.166  36.055  28.264  1.00  0.00     0.173 A 
ATOM     85  F   UNL A   1      44.106  35.757  31.325  1.00  0.00    -0.203 F 
ATOM     86  C   UNL A   1      43.711  37.607  29.947  1.00  0.00     0.198 A 
ATOM     87  C   UNL A   1      42.421  37.387  27.948  1.00  0.00     0.198 A 
ATOM     88  F   UNL A   1      41.400  35.365  27.405  1.00  0.00    -0.203 F 
ATOM     89  F   UNL A   1      44.455  38.356  30.772  1.00  0.00    -0.200 F 
ATOM     90  C   UNL A   1      43.184  38.166  28.795  1.00  0.00     0.200 A 
ATOM     91  F   UNL A   1      41.932  37.908  26.814  1.00  0.00    -0.200 F 
ATOM     92  F   UNL A   1      43.423  39.450  28.498  1.00  0.00    -0.200 F 
ENDBRANCH  59  82
ENDBRANCH  33  34
ENDBRANCH  26  28
ENDBRANCH  25  26
ENDBRANCH  24  25
ENDBRANCH   1  24
TORSDOF 14
ENDMDL
