MODEL 1
REMARK VINA RESULT:     -10.7      0.000      0.000
REMARK SMILES CC1=NN(c2ccc(Cl)c(C(=O)OCCOC(=O)c3ccc(-c4c5nc(c(-c6c(F)c(F)c(F)c(F)c6F)c6ccc([nH]6)c(-c6c(F)c(F)c(F)c(F)c6F)c6nc(c(-c7c(F)c(F)c(F)c(F)c7F)c7ccc4[nH]7)C=C6)C=C5)cc3)c2)C(=O)/C1=C\c1ccc(N(C)C)c(Br)c1
REMARK SMILES IDX 14 1 13 2 11 3 12 4 10 5 5 6 6 7 82 8 7 9 8 10 9 11 4 12
REMARK SMILES IDX 1 13 2 14 3 15 85 16 83 17 86 18 84 19 87 20 88 21 96 22
REMARK SMILES IDX 89 23 94 24 90 25 95 26 91 27 92 28 93 29 15 30 16 31 17 32
REMARK SMILES IDX 18 33 19 34 20 35 81 36 21 37 80 38 22 39 23 40 24 41 74 42
REMARK SMILES IDX 25 43 79 44 73 45 75 46 26 47 78 48 72 49 71 50 27 52 59 53
REMARK SMILES IDX 39 54 58 55 40 56 43 57 57 58 76 59 41 60 42 61 56 63 77 64
REMARK SMILES IDX 44 65 28 66 29 67 37 68 30 69 31 70 35 71 38 72 32 73 33 74
REMARK SMILES IDX 36 75 34 76 60 77 61 78 69 79 62 80 63 81 67 82 70 83 64 84
REMARK SMILES IDX 65 85 68 86 66 87 45 88 46 89 54 90 47 91 48 92 52 93 55 94
REMARK SMILES IDX 49 95 50 96 53 97 51 98
REMARK H PARENT 75 51 43 62
REMARK Flexibility Score: inf
ROOT
ATOM      1  C   UNL A   1      33.502  34.945  29.588  1.00  0.00     0.275 C 
ENDROOT
BRANCH   1   2
ATOM      2  O   UNL A   1      34.875  34.569  29.820  1.00  0.00    -0.458 OA
BRANCH   2   3
ATOM      3  C   UNL A   1      35.102  33.807  30.914  1.00  0.00     0.339 C 
ATOM      4  O   UNL A   1      34.470  32.818  31.256  1.00  0.00    -0.246 OA
BRANCH   3   5
ATOM      5  C   UNL A   1      36.295  34.252  31.658  1.00  0.00     0.080 A 
ATOM      6  C   UNL A   1      38.735  34.230  31.726  1.00  0.00     0.070 A 
ATOM      7  C   UNL A   1      38.684  34.569  33.077  1.00  0.00     0.030 A 
ATOM      8  C   UNL A   1      37.538  34.095  31.022  1.00  0.00     0.045 A 
ATOM      9  C   UNL A   1      37.452  34.802  33.702  1.00  0.00     0.023 A 
ATOM     10  C   UNL A   1      36.253  34.626  33.001  1.00  0.00     0.055 A 
ATOM     11  Cl  UNL A   1      34.783  34.790  33.890  1.00  0.00    -0.083 Cl
BRANCH   6  12
ATOM     12  N   UNL A   1      39.947  33.905  31.092  1.00  0.00    -0.196 N 
ATOM     13  C   UNL A   1      42.931  31.884  30.987  1.00  0.00     0.069 C 
ATOM     14  C   UNL A   1      41.822  32.873  30.846  1.00  0.00     0.071 C 
ATOM     15  N   UNL A   1      40.775  32.925  31.633  1.00  0.00    -0.169 NA
ATOM     16  C   UNL A   1      41.794  33.933  29.822  1.00  0.00     0.065 C 
ATOM     17  C   UNL A   1      40.445  34.543  29.949  1.00  0.00     0.280 C 
ATOM     18  C   UNL A   1      42.836  34.356  29.094  1.00  0.00     0.024 C 
ATOM     19  O   UNL A   1      39.953  35.402  29.254  1.00  0.00    -0.267 OA
BRANCH  18  20
ATOM     20  C   UNL A   1      42.812  35.648  28.405  1.00  0.00    -0.024 A 
ATOM     21  C   UNL A   1      42.451  35.775  27.077  1.00  0.00     0.010 A 
ATOM     22  C   UNL A   1      43.109  36.806  29.123  1.00  0.00     0.026 A 
ATOM     23  C   UNL A   1      42.343  37.053  26.501  1.00  0.00     0.028 A 
ATOM     24  C   UNL A   1      43.016  38.088  28.540  1.00  0.00     0.041 A 
ATOM     25  C   UNL A   1      42.602  38.267  27.194  1.00  0.00     0.051 A 
ATOM     26  Br  UNL A   1      43.552  39.460  29.761  1.00  0.00    -0.049 Br
BRANCH  25  27
ATOM     27  N   UNL A   1      42.445  39.485  26.526  1.00  0.00    -0.377 N 
ATOM     28  C   UNL A   1      41.153  40.171  26.446  1.00  0.00     0.143 C 
ATOM     29  C   UNL A   1      43.574  40.320  26.126  1.00  0.00     0.143 C 
ENDBRANCH  25  27
ENDBRANCH  18  20
ENDBRANCH   6  12
ENDBRANCH   3   5
ENDBRANCH   2   3
ENDBRANCH   1   2
BRANCH   1  30
ATOM     30  C   UNL A   1      32.936  34.213  28.375  1.00  0.00     0.275 C 
BRANCH  30  31
ATOM     31  O   UNL A   1      33.987  33.513  27.685  1.00  0.00    -0.458 OA
BRANCH  31  32
ATOM     32  C   UNL A   1      33.812  32.177  27.581  1.00  0.00     0.338 C 
ATOM     33  O   UNL A   1      32.834  31.579  27.168  1.00  0.00    -0.246 OA
BRANCH  32  34
ATOM     34  C   UNL A   1      35.038  31.479  27.990  1.00  0.00     0.060 A 
ATOM     35  C   UNL A   1      34.923  30.210  28.543  1.00  0.00     0.016 A 
ATOM     36  C   UNL A   1      36.258  32.146  28.019  1.00  0.00     0.016 A 
ATOM     37  C   UNL A   1      35.975  29.668  29.272  1.00  0.00     0.010 A 
ATOM     38  C   UNL A   1      37.361  31.532  28.626  1.00  0.00     0.010 A 
ATOM     39  C   UNL A   1      37.221  30.309  29.312  1.00  0.00    -0.014 A 
BRANCH  39  40
ATOM     40  C   UNL A   1      38.355  29.729  30.092  1.00  0.00     0.031 A 
ATOM     41  C   UNL A   1      38.560  30.116  31.536  1.00  0.00     0.074 A 
ATOM     42  C   UNL A   1      39.203  28.846  29.524  1.00  0.00     0.049 A 
ATOM     43  N   UNL A   1      39.589  29.895  32.318  1.00  0.00    -0.248 NA
ATOM     44  C   UNL A   1      37.469  30.859  32.187  1.00  0.00     0.031 C 
ATOM     45  C   UNL A   1      39.107  28.333  28.156  1.00  0.00     0.029 A 
ATOM     46  N   UNL A   1      40.320  28.222  30.028  1.00  0.00    -0.354 N 
ATOM     47  C   UNL A   1      39.300  30.532  33.520  1.00  0.00     0.074 A 
ATOM     48  C   UNL A   1      37.997  31.143  33.369  1.00  0.00     0.031 C 
ATOM     49  C   UNL A   1      40.092  27.450  27.942  1.00  0.00     0.029 A 
ATOM     50  C   UNL A   1      40.956  27.414  29.115  1.00  0.00     0.049 A 
ATOM     51  H   UNL A   1      40.634  28.343  30.953  1.00  0.00     0.167 HD
ATOM     52  C   UNL A   1      40.054  30.600  34.644  1.00  0.00     0.037 A 
ATOM     53  C   UNL A   1      42.132  26.762  29.184  1.00  0.00     0.037 A 
ATOM     54  C   UNL A   1      41.324  29.941  34.812  1.00  0.00     0.049 A 
ATOM     55  C   UNL A   1      42.968  26.887  30.426  1.00  0.00     0.074 A 
ATOM     56  C   UNL A   1      42.155  29.936  35.920  1.00  0.00     0.029 A 
ATOM     57  N   UNL A   1      41.940  29.156  33.850  1.00  0.00    -0.354 N 
ATOM     58  N   UNL A   1      42.710  27.535  31.535  1.00  0.00    -0.248 NA
ATOM     59  C   UNL A   1      44.269  26.203  30.418  1.00  0.00     0.031 C 
ATOM     60  C   UNL A   1      43.289  29.175  35.616  1.00  0.00     0.029 A 
ATOM     61  C   UNL A   1      43.142  28.666  34.336  1.00  0.00     0.049 A 
ATOM     62  H   UNL A   1      41.577  28.972  32.953  1.00  0.00     0.167 HD
ATOM     63  C   UNL A   1      43.805  27.324  32.361  1.00  0.00     0.074 A 
ATOM     64  C   UNL A   1      44.720  26.469  31.634  1.00  0.00     0.031 C 
ATOM     65  C   UNL A   1      44.034  27.802  33.609  1.00  0.00     0.037 A 
BRANCH  52  66
ATOM     66  C   UNL A   1      39.544  31.440  35.782  1.00  0.00     0.064 A 
ATOM     67  C   UNL A   1      40.000  32.748  36.002  1.00  0.00     0.173 A 
ATOM     68  C   UNL A   1      38.541  30.944  36.631  1.00  0.00     0.173 A 
ATOM     69  F   UNL A   1      40.963  33.267  35.226  1.00  0.00    -0.203 F 
ATOM     70  C   UNL A   1      39.487  33.519  37.043  1.00  0.00     0.198 A 
ATOM     71  C   UNL A   1      38.011  31.728  37.651  1.00  0.00     0.198 A 
ATOM     72  F   UNL A   1      38.063  29.703  36.458  1.00  0.00    -0.203 F 
ATOM     73  F   UNL A   1      39.965  34.753  37.259  1.00  0.00    -0.200 F 
ATOM     74  C   UNL A   1      38.487  33.012  37.861  1.00  0.00     0.200 A 
ATOM     75  F   UNL A   1      37.033  31.242  38.429  1.00  0.00    -0.200 F 
ATOM     76  F   UNL A   1      37.987  33.761  38.853  1.00  0.00    -0.200 F 
ENDBRANCH  52  66
BRANCH  53  77
ATOM     77  C   UNL A   1      42.614  25.972  28.019  1.00  0.00     0.064 A 
ATOM     78  C   UNL A   1      43.442  26.551  27.048  1.00  0.00     0.173 A 
ATOM     79  C   UNL A   1      42.251  24.626  27.847  1.00  0.00     0.173 A 
ATOM     80  F   UNL A   1      43.793  27.841  27.154  1.00  0.00    -0.203 F 
ATOM     81  C   UNL A   1      43.873  25.821  25.942  1.00  0.00     0.198 A 
ATOM     82  C   UNL A   1      42.713  23.888  26.761  1.00  0.00     0.198 A 
ATOM     83  F   UNL A   1      41.459  24.024  28.747  1.00  0.00    -0.203 F 
ATOM     84  F   UNL A   1      44.621  26.415  25.002  1.00  0.00    -0.200 F 
ATOM     85  C   UNL A   1      43.516  24.489  25.804  1.00  0.00     0.200 A 
ATOM     86  F   UNL A   1      42.376  22.597  26.639  1.00  0.00    -0.200 F 
ATOM     87  F   UNL A   1      43.936  23.786  24.742  1.00  0.00    -0.200 F 
ENDBRANCH  53  77
BRANCH  65  88
ATOM     88  C   UNL A   1      45.300  27.366  34.286  1.00  0.00     0.064 A 
ATOM     89  C   UNL A   1      46.489  28.100  34.170  1.00  0.00     0.173 A 
ATOM     90  C   UNL A   1      45.314  26.211  35.082  1.00  0.00     0.173 A 
ATOM     91  F   UNL A   1      46.531  29.201  33.405  1.00  0.00    -0.203 F 
ATOM     92  C   UNL A   1      47.655  27.677  34.804  1.00  0.00     0.198 A 
ATOM     93  C   UNL A   1      46.472  25.807  35.739  1.00  0.00     0.198 A 
ATOM     94  F   UNL A   1      44.200  25.477  35.227  1.00  0.00    -0.203 F 
ATOM     95  F   UNL A   1      48.793  28.364  34.638  1.00  0.00    -0.200 F 
ATOM     96  C   UNL A   1      47.643  26.535  35.593  1.00  0.00     0.200 A 
ATOM     97  F   UNL A   1      46.457  24.710  36.508  1.00  0.00    -0.200 F 
ATOM     98  F   UNL A   1      48.765  26.132  36.206  1.00  0.00    -0.200 F 
ENDBRANCH  65  88
ENDBRANCH  39  40
ENDBRANCH  32  34
ENDBRANCH  31  32
ENDBRANCH  30  31
ENDBRANCH   1  30
TORSDOF 14
ENDMDL
MODEL 2
REMARK VINA RESULT:     -10.7      4.931      9.990
REMARK SMILES CC1=NN(c2ccc(Cl)c(C(=O)OCCOC(=O)c3ccc(-c4c5nc(c(-c6c(F)c(F)c(F)c(F)c6F)c6ccc([nH]6)c(-c6c(F)c(F)c(F)c(F)c6F)c6nc(c(-c7c(F)c(F)c(F)c(F)c7F)c7ccc4[nH]7)C=C6)C=C5)cc3)c2)C(=O)/C1=C\c1ccc(N(C)C)c(Br)c1
REMARK SMILES IDX 14 1 13 2 11 3 12 4 10 5 5 6 6 7 82 8 7 9 8 10 9 11 4 12
REMARK SMILES IDX 1 13 2 14 3 15 85 16 83 17 86 18 84 19 87 20 88 21 96 22
REMARK SMILES IDX 89 23 94 24 90 25 95 26 91 27 92 28 93 29 15 30 16 31 17 32
REMARK SMILES IDX 18 33 19 34 20 35 81 36 21 37 80 38 22 39 23 40 24 41 74 42
REMARK SMILES IDX 25 43 79 44 73 45 75 46 26 47 78 48 72 49 71 50 27 52 59 53
REMARK SMILES IDX 39 54 58 55 40 56 43 57 57 58 76 59 41 60 42 61 56 63 77 64
REMARK SMILES IDX 44 65 28 66 29 67 37 68 30 69 31 70 35 71 38 72 32 73 33 74
REMARK SMILES IDX 36 75 34 76 60 77 61 78 69 79 62 80 63 81 67 82 70 83 64 84
REMARK SMILES IDX 65 85 68 86 66 87 45 88 46 89 54 90 47 91 48 92 52 93 55 94
REMARK SMILES IDX 49 95 50 96 53 97 51 98
REMARK H PARENT 75 51 43 62
REMARK Flexibility Score: inf
ROOT
ATOM      1  C   UNL A   1      36.395  34.554  32.672  1.00  0.00     0.275 C 
ENDROOT
BRANCH   1   2
ATOM      2  O   UNL A   1      35.183  35.317  32.499  1.00  0.00    -0.458 OA
BRANCH   2   3
ATOM      3  C   UNL A   1      34.080  34.608  32.169  1.00  0.00     0.339 C 
ATOM      4  O   UNL A   1      33.226  34.189  32.937  1.00  0.00    -0.246 OA
BRANCH   3   5
ATOM      5  C   UNL A   1      33.948  34.444  30.709  1.00  0.00     0.080 A 
ATOM      6  C   UNL A   1      34.479  33.021  28.798  1.00  0.00     0.070 A 
ATOM      7  C   UNL A   1      34.239  34.100  27.949  1.00  0.00     0.030 A 
ATOM      8  C   UNL A   1      34.310  33.197  30.172  1.00  0.00     0.045 A 
ATOM      9  C   UNL A   1      33.804  35.326  28.468  1.00  0.00     0.023 A 
ATOM     10  C   UNL A   1      33.675  35.510  29.850  1.00  0.00     0.055 A 
ATOM     11  Cl  UNL A   1      33.278  37.094  30.408  1.00  0.00    -0.083 Cl
BRANCH   6  12
ATOM     12  N   UNL A   1      34.998  31.805  28.319  1.00  0.00    -0.196 N 
ATOM     13  C   UNL A   1      37.864  29.717  27.664  1.00  0.00     0.069 C 
ATOM     14  C   UNL A   1      36.543  30.404  27.783  1.00  0.00     0.071 C 
ATOM     15  N   UNL A   1      36.374  31.595  28.302  1.00  0.00    -0.169 NA
ATOM     16  C   UNL A   1      35.275  29.831  27.295  1.00  0.00     0.065 C 
ATOM     17  C   UNL A   1      34.229  30.766  27.783  1.00  0.00     0.280 C 
ATOM     18  C   UNL A   1      35.148  28.808  26.440  1.00  0.00     0.024 C 
ATOM     19  O   UNL A   1      33.028  30.650  27.684  1.00  0.00    -0.267 OA
BRANCH  18  20
ATOM     20  C   UNL A   1      33.897  28.568  25.717  1.00  0.00    -0.024 A 
ATOM     21  C   UNL A   1      33.511  29.328  24.630  1.00  0.00     0.010 A 
ATOM     22  C   UNL A   1      33.088  27.498  26.097  1.00  0.00     0.026 A 
ATOM     23  C   UNL A   1      32.353  28.981  23.910  1.00  0.00     0.028 A 
ATOM     24  C   UNL A   1      31.917  27.160  25.385  1.00  0.00     0.041 A 
ATOM     25  C   UNL A   1      31.509  27.883  24.234  1.00  0.00     0.051 A 
ATOM     26  Br  UNL A   1      30.995  25.693  26.195  1.00  0.00    -0.049 Br
BRANCH  25  27
ATOM     27  N   UNL A   1      30.392  27.620  23.436  1.00  0.00    -0.377 N 
ATOM     28  C   UNL A   1      29.394  28.646  23.126  1.00  0.00     0.143 C 
ATOM     29  C   UNL A   1      30.277  26.424  22.605  1.00  0.00     0.143 C 
ENDBRANCH  25  27
ENDBRANCH  18  20
ENDBRANCH   6  12
ENDBRANCH   3   5
ENDBRANCH   2   3
ENDBRANCH   1   2
BRANCH   1  30
ATOM     30  C   UNL A   1      36.316  33.684  33.924  1.00  0.00     0.275 C 
BRANCH  30  31
ATOM     31  O   UNL A   1      36.365  32.292  33.562  1.00  0.00    -0.458 OA
BRANCH  31  32
ATOM     32  C   UNL A   1      37.403  31.602  34.083  1.00  0.00     0.338 C 
ATOM     33  O   UNL A   1      37.674  31.429  35.258  1.00  0.00    -0.246 OA
BRANCH  32  34
ATOM     34  C   UNL A   1      38.188  30.989  33.003  1.00  0.00     0.060 A 
ATOM     35  C   UNL A   1      39.283  30.206  33.345  1.00  0.00     0.016 A 
ATOM     36  C   UNL A   1      37.973  31.349  31.677  1.00  0.00     0.016 A 
ATOM     37  C   UNL A   1      40.257  29.915  32.395  1.00  0.00     0.010 A 
ATOM     38  C   UNL A   1      38.879  30.928  30.696  1.00  0.00     0.010 A 
ATOM     39  C   UNL A   1      40.065  30.254  31.049  1.00  0.00    -0.014 A 
BRANCH  39  40
ATOM     40  C   UNL A   1      41.108  29.942  30.026  1.00  0.00     0.031 A 
ATOM     41  C   UNL A   1      41.108  28.606  29.324  1.00  0.00     0.074 A 
ATOM     42  C   UNL A   1      42.055  30.848  29.708  1.00  0.00     0.049 A 
ATOM     43  N   UNL A   1      42.034  28.062  28.571  1.00  0.00    -0.248 NA
ATOM     44  C   UNL A   1      39.915  27.763  29.499  1.00  0.00     0.031 C 
ATOM     45  C   UNL A   1      42.158  32.201  30.259  1.00  0.00     0.029 A 
ATOM     46  N   UNL A   1      43.119  30.769  28.840  1.00  0.00    -0.354 N 
ATOM     47  C   UNL A   1      41.567  26.793  28.248  1.00  0.00     0.074 A 
ATOM     48  C   UNL A   1      40.273  26.648  28.879  1.00  0.00     0.031 C 
ATOM     49  C   UNL A   1      43.195  32.835  29.694  1.00  0.00     0.029 A 
ATOM     50  C   UNL A   1      43.898  31.902  28.824  1.00  0.00     0.049 A 
ATOM     51  H   UNL A   1      43.306  29.977  28.286  1.00  0.00     0.167 HD
ATOM     52  C   UNL A   1      42.165  25.839  27.493  1.00  0.00     0.037 A 
ATOM     53  C   UNL A   1      45.079  32.151  28.224  1.00  0.00     0.037 A 
ATOM     54  C   UNL A   1      43.425  26.009  26.816  1.00  0.00     0.049 A 
ATOM     55  C   UNL A   1      45.740  31.063  27.427  1.00  0.00     0.074 A 
ATOM     56  C   UNL A   1      44.104  25.108  26.014  1.00  0.00     0.029 A 
ATOM     57  N   UNL A   1      44.190  27.165  26.850  1.00  0.00    -0.354 N 
ATOM     58  N   UNL A   1      45.316  29.850  27.171  1.00  0.00    -0.248 NA
ATOM     59  C   UNL A   1      47.055  31.373  26.850  1.00  0.00     0.031 C 
ATOM     60  C   UNL A   1      45.296  25.705  25.590  1.00  0.00     0.029 A 
ATOM     61  C   UNL A   1      45.336  26.997  26.088  1.00  0.00     0.049 A 
ATOM     62  H   UNL A   1      43.955  27.985  27.342  1.00  0.00     0.167 HD
ATOM     63  C   UNL A   1      46.301  29.259  26.392  1.00  0.00     0.074 A 
ATOM     64  C   UNL A   1      47.333  30.255  26.197  1.00  0.00     0.031 C 
ATOM     65  C   UNL A   1      46.347  28.002  25.888  1.00  0.00     0.037 A 
BRANCH  52  66
ATOM     66  C   UNL A   1      41.480  24.506  27.374  1.00  0.00     0.064 A 
ATOM     67  C   UNL A   1      40.305  24.339  26.627  1.00  0.00     0.173 A 
ATOM     68  C   UNL A   1      42.043  23.367  27.971  1.00  0.00     0.173 A 
ATOM     69  F   UNL A   1      39.720  25.396  26.043  1.00  0.00    -0.203 F 
ATOM     70  C   UNL A   1      39.707  23.087  26.502  1.00  0.00     0.198 A 
ATOM     71  C   UNL A   1      41.460  22.113  27.820  1.00  0.00     0.198 A 
ATOM     72  F   UNL A   1      43.173  23.470  28.688  1.00  0.00    -0.203 F 
ATOM     73  F   UNL A   1      38.563  22.958  25.816  1.00  0.00    -0.200 F 
ATOM     74  C   UNL A   1      40.290  21.974  27.091  1.00  0.00     0.200 A 
ATOM     75  F   UNL A   1      42.034  21.036  28.376  1.00  0.00    -0.200 F 
ATOM     76  F   UNL A   1      39.720  20.768  26.959  1.00  0.00    -0.200 F 
ENDBRANCH  52  66
BRANCH  53  77
ATOM     77  C   UNL A   1      45.738  33.473  28.399  1.00  0.00     0.064 A 
ATOM     78  C   UNL A   1      46.632  33.699  29.454  1.00  0.00     0.173 A 
ATOM     79  C   UNL A   1      45.482  34.540  27.523  1.00  0.00     0.173 A 
ATOM     80  F   UNL A   1      46.889  32.719  30.333  1.00  0.00    -0.203 F 
ATOM     81  C   UNL A   1      47.231  34.944  29.636  1.00  0.00     0.198 A 
ATOM     82  C   UNL A   1      46.108  35.772  27.685  1.00  0.00     0.198 A 
ATOM     83  F   UNL A   1      44.632  34.377  26.498  1.00  0.00    -0.203 F 
ATOM     84  F   UNL A   1      48.041  35.147  30.684  1.00  0.00    -0.200 F 
ATOM     85  C   UNL A   1      46.975  35.977  28.747  1.00  0.00     0.200 A 
ATOM     86  F   UNL A   1      45.869  36.762  26.815  1.00  0.00    -0.200 F 
ATOM     87  F   UNL A   1      47.556  37.173  28.920  1.00  0.00    -0.200 F 
ENDBRANCH  53  77
BRANCH  65  88
ATOM     88  C   UNL A   1      47.528  27.651  25.032  1.00  0.00     0.064 A 
ATOM     89  C   UNL A   1      47.510  27.828  23.641  1.00  0.00     0.173 A 
ATOM     90  C   UNL A   1      48.702  27.155  25.618  1.00  0.00     0.173 A 
ATOM     91  F   UNL A   1      46.403  28.281  23.032  1.00  0.00    -0.203 F 
ATOM     92  C   UNL A   1      48.616  27.492  22.863  1.00  0.00     0.198 A 
ATOM     93  C   UNL A   1      49.816  26.849  24.841  1.00  0.00     0.198 A 
ATOM     94  F   UNL A   1      48.771  26.972  26.945  1.00  0.00    -0.203 F 
ATOM     95  F   UNL A   1      48.558  27.620  21.531  1.00  0.00    -0.200 F 
ATOM     96  C   UNL A   1      49.769  27.010  23.465  1.00  0.00     0.200 A 
ATOM     97  F   UNL A   1      50.933  26.393  25.425  1.00  0.00    -0.200 F 
ATOM     98  F   UNL A   1      50.834  26.692  22.716  1.00  0.00    -0.200 F 
ENDBRANCH  65  88
ENDBRANCH  39  40
ENDBRANCH  32  34
ENDBRANCH  31  32
ENDBRANCH  30  31
ENDBRANCH   1  30
TORSDOF 14
ENDMDL
MODEL 3
REMARK VINA RESULT:     -10.5      5.863     11.801
REMARK SMILES CC1=NN(c2ccc(Cl)c(C(=O)OCCOC(=O)c3ccc(-c4c5nc(c(-c6c(F)c(F)c(F)c(F)c6F)c6ccc([nH]6)c(-c6c(F)c(F)c(F)c(F)c6F)c6nc(c(-c7c(F)c(F)c(F)c(F)c7F)c7ccc4[nH]7)C=C6)C=C5)cc3)c2)C(=O)/C1=C\c1ccc(N(C)C)c(Br)c1
REMARK SMILES IDX 14 1 13 2 11 3 12 4 10 5 5 6 6 7 82 8 7 9 8 10 9 11 4 12
REMARK SMILES IDX 1 13 2 14 3 15 85 16 83 17 86 18 84 19 87 20 88 21 96 22
REMARK SMILES IDX 89 23 94 24 90 25 95 26 91 27 92 28 93 29 15 30 16 31 17 32
REMARK SMILES IDX 18 33 19 34 20 35 81 36 21 37 80 38 22 39 23 40 24 41 74 42
REMARK SMILES IDX 25 43 79 44 73 45 75 46 26 47 78 48 72 49 71 50 27 52 59 53
REMARK SMILES IDX 39 54 58 55 40 56 43 57 57 58 76 59 41 60 42 61 56 63 77 64
REMARK SMILES IDX 44 65 28 66 29 67 37 68 30 69 31 70 35 71 38 72 32 73 33 74
REMARK SMILES IDX 36 75 34 76 60 77 61 78 69 79 62 80 63 81 67 82 70 83 64 84
REMARK SMILES IDX 65 85 68 86 66 87 45 88 46 89 54 90 47 91 48 92 52 93 55 94
REMARK SMILES IDX 49 95 50 96 53 97 51 98
REMARK H PARENT 75 51 43 62
REMARK Flexibility Score: inf
ROOT
ATOM      1  C   UNL A   1      45.938  21.790  24.670  1.00  0.00     0.275 C 
ENDROOT
BRANCH   1   2
ATOM      2  O   UNL A   1      44.972  21.218  25.576  1.00  0.00    -0.458 OA
BRANCH   2   3
ATOM      3  C   UNL A   1      44.151  20.281  25.050  1.00  0.00     0.339 C 
ATOM      4  O   UNL A   1      44.383  19.569  24.085  1.00  0.00    -0.246 OA
BRANCH   3   5
ATOM      5  C   UNL A   1      42.913  20.128  25.839  1.00  0.00     0.080 A 
ATOM      6  C   UNL A   1      40.933  21.269  26.696  1.00  0.00     0.070 A 
ATOM      7  C   UNL A   1      40.768  20.247  27.629  1.00  0.00     0.030 A 
ATOM      8  C   UNL A   1      41.994  21.190  25.793  1.00  0.00     0.045 A 
ATOM      9  C   UNL A   1      41.635  19.147  27.634  1.00  0.00     0.023 A 
ATOM     10  C   UNL A   1      42.722  19.091  26.752  1.00  0.00     0.055 A 
ATOM     11  Cl  UNL A   1      43.822  17.773  26.929  1.00  0.00    -0.083 Cl
BRANCH   6  12
ATOM     12  N   UNL A   1      40.135  22.426  26.720  1.00  0.00    -0.196 N 
ATOM     13  C   UNL A   1      39.511  25.717  28.055  1.00  0.00     0.069 C 
ATOM     14  C   UNL A   1      39.519  24.374  27.402  1.00  0.00     0.071 C 
ATOM     15  N   UNL A   1      40.447  23.468  27.590  1.00  0.00    -0.169 NA
ATOM     16  C   UNL A   1      38.460  23.899  26.493  1.00  0.00     0.065 C 
ATOM     17  C   UNL A   1      38.975  22.611  25.959  1.00  0.00     0.280 C 
ATOM     18  C   UNL A   1      37.239  24.431  26.355  1.00  0.00     0.024 C 
ATOM     19  O   UNL A   1      38.470  21.905  25.115  1.00  0.00    -0.267 OA
BRANCH  18  20
ATOM     20  C   UNL A   1      36.142  23.678  25.743  1.00  0.00    -0.024 A 
ATOM     21  C   UNL A   1      35.997  23.559  24.375  1.00  0.00     0.010 A 
ATOM     22  C   UNL A   1      35.238  23.006  26.566  1.00  0.00     0.026 A 
ATOM     23  C   UNL A   1      34.987  22.733  23.848  1.00  0.00     0.028 A 
ATOM     24  C   UNL A   1      34.214  22.191  26.036  1.00  0.00     0.041 A 
ATOM     25  C   UNL A   1      34.059  22.001  24.638  1.00  0.00     0.051 A 
ATOM     26  Br  UNL A   1      33.105  21.465  27.416  1.00  0.00    -0.049 Br
BRANCH  25  27
ATOM     27  N   UNL A   1      33.106  21.196  24.007  1.00  0.00    -0.377 N 
ATOM     28  C   UNL A   1      32.267  21.690  22.914  1.00  0.00     0.143 C 
ATOM     29  C   UNL A   1      33.073  19.743  24.157  1.00  0.00     0.143 C 
ENDBRANCH  25  27
ENDBRANCH  18  20
ENDBRANCH   6  12
ENDBRANCH   3   5
ENDBRANCH   2   3
ENDBRANCH   1   2
BRANCH   1  30
ATOM     30  C   UNL A   1      45.320  22.932  23.868  1.00  0.00     0.275 C 
BRANCH  30  31
ATOM     31  O   UNL A   1      44.587  23.809  24.742  1.00  0.00    -0.458 OA
BRANCH  31  32
ATOM     32  C   UNL A   1      45.187  24.992  25.001  1.00  0.00     0.338 C 
ATOM     33  O   UNL A   1      46.243  25.409  24.560  1.00  0.00    -0.246 OA
BRANCH  32  34
ATOM     34  C   UNL A   1      44.337  25.800  25.886  1.00  0.00     0.060 A 
ATOM     35  C   UNL A   1      44.365  27.182  25.747  1.00  0.00     0.016 A 
ATOM     36  C   UNL A   1      43.685  25.219  26.968  1.00  0.00     0.016 A 
ATOM     37  C   UNL A   1      43.887  27.995  26.769  1.00  0.00     0.010 A 
ATOM     38  C   UNL A   1      43.072  26.041  27.922  1.00  0.00     0.010 A 
ATOM     39  C   UNL A   1      43.214  27.442  27.867  1.00  0.00    -0.014 A 
BRANCH  39  40
ATOM     40  C   UNL A   1      42.698  28.313  28.965  1.00  0.00     0.031 A 
ATOM     41  C   UNL A   1      43.521  28.535  30.210  1.00  0.00     0.074 A 
ATOM     42  C   UNL A   1      41.498  28.920  28.857  1.00  0.00     0.049 A 
ATOM     43  N   UNL A   1      43.171  29.074  31.353  1.00  0.00    -0.248 NA
ATOM     44  C   UNL A   1      44.920  28.082  30.171  1.00  0.00     0.031 C 
ATOM     45  C   UNL A   1      40.608  28.847  27.696  1.00  0.00     0.029 A 
ATOM     46  N   UNL A   1      40.813  29.722  29.741  1.00  0.00    -0.354 N 
ATOM     47  C   UNL A   1      44.278  28.957  32.185  1.00  0.00     0.074 A 
ATOM     48  C   UNL A   1      45.315  28.303  31.416  1.00  0.00     0.031 C 
ATOM     49  C   UNL A   1      39.521  29.598  27.920  1.00  0.00     0.029 A 
ATOM     50  C   UNL A   1      39.580  30.118  29.280  1.00  0.00     0.049 A 
ATOM     51  H   UNL A   1      41.172  29.985  30.619  1.00  0.00     0.167 HD
ATOM     52  C   UNL A   1      44.415  29.359  33.472  1.00  0.00     0.037 A 
ATOM     53  C   UNL A   1      38.579  30.774  29.896  1.00  0.00     0.037 A 
ATOM     54  C   UNL A   1      43.402  30.064  34.216  1.00  0.00     0.049 A 
ATOM     55  C   UNL A   1      38.740  31.173  31.336  1.00  0.00     0.074 A 
ATOM     56  C   UNL A   1      43.453  30.529  35.519  1.00  0.00     0.029 A 
ATOM     57  N   UNL A   1      42.159  30.420  33.716  1.00  0.00    -0.354 N 
ATOM     58  N   UNL A   1      39.769  31.011  32.129  1.00  0.00    -0.248 NA
ATOM     59  C   UNL A   1      37.589  31.831  31.971  1.00  0.00     0.031 C 
ATOM     60  C   UNL A   1      42.229  31.136  35.819  1.00  0.00     0.029 A 
ATOM     61  C   UNL A   1      41.433  31.093  34.686  1.00  0.00     0.049 A 
ATOM     62  H   UNL A   1      41.839  30.224  32.805  1.00  0.00     0.167 HD
ATOM     63  C   UNL A   1      39.400  31.559  33.349  1.00  0.00     0.074 A 
ATOM     64  C   UNL A   1      38.059  32.080  33.185  1.00  0.00     0.031 C 
ATOM     65  C   UNL A   1      40.106  31.621  34.503  1.00  0.00     0.037 A 
BRANCH  52  66
ATOM     66  C   UNL A   1      45.699  29.026  34.180  1.00  0.00     0.064 A 
ATOM     67  C   UNL A   1      45.876  27.818  34.869  1.00  0.00     0.173 A 
ATOM     68  C   UNL A   1      46.789  29.909  34.117  1.00  0.00     0.173 A 
ATOM     69  F   UNL A   1      44.864  26.943  34.967  1.00  0.00    -0.203 F 
ATOM     70  C   UNL A   1      47.087  27.516  35.488  1.00  0.00     0.198 A 
ATOM     71  C   UNL A   1      48.007  29.591  34.711  1.00  0.00     0.198 A 
ATOM     72  F   UNL A   1      46.677  31.075  33.462  1.00  0.00    -0.203 F 
ATOM     73  F   UNL A   1      47.220  26.372  36.174  1.00  0.00    -0.200 F 
ATOM     74  C   UNL A   1      48.154  28.399  35.401  1.00  0.00     0.200 A 
ATOM     75  F   UNL A   1      49.042  30.439  34.611  1.00  0.00    -0.200 F 
ATOM     76  F   UNL A   1      49.322  28.100  35.986  1.00  0.00    -0.200 F 
ENDBRANCH  52  66
BRANCH  53  77
ATOM     77  C   UNL A   1      37.310  31.051  29.169  1.00  0.00     0.064 A 
ATOM     78  C   UNL A   1      36.364  30.039  28.959  1.00  0.00     0.173 A 
ATOM     79  C   UNL A   1      37.023  32.328  28.659  1.00  0.00     0.173 A 
ATOM     80  F   UNL A   1      36.605  28.797  29.403  1.00  0.00    -0.203 F 
ATOM     81  C   UNL A   1      35.188  30.289  28.255  1.00  0.00     0.198 A 
ATOM     82  C   UNL A   1      35.832  32.584  27.986  1.00  0.00     0.198 A 
ATOM     83  F   UNL A   1      37.897  33.331  28.829  1.00  0.00    -0.203 F 
ATOM     84  F   UNL A   1      34.324  29.290  28.024  1.00  0.00    -0.200 F 
ATOM     85  C   UNL A   1      34.919  31.562  27.776  1.00  0.00     0.200 A 
ATOM     86  F   UNL A   1      35.570  33.819  27.539  1.00  0.00    -0.200 F 
ATOM     87  F   UNL A   1      33.785  31.802  27.103  1.00  0.00    -0.200 F 
ENDBRANCH  53  77
BRANCH  65  88
ATOM     88  C   UNL A   1      39.463  32.323  35.663  1.00  0.00     0.064 A 
ATOM     89  C   UNL A   1      38.635  31.643  36.568  1.00  0.00     0.173 A 
ATOM     90  C   UNL A   1      39.699  33.687  35.883  1.00  0.00     0.173 A 
ATOM     91  F   UNL A   1      38.363  30.341  36.389  1.00  0.00    -0.203 F 
ATOM     92  C   UNL A   1      38.043  32.313  37.637  1.00  0.00     0.198 A 
ATOM     93  C   UNL A   1      39.131  34.347  36.969  1.00  0.00     0.198 A 
ATOM     94  F   UNL A   1      40.487  34.381  35.047  1.00  0.00    -0.203 F 
ATOM     95  F   UNL A   1      37.214  31.656  38.460  1.00  0.00    -0.200 F 
ATOM     96  C   UNL A   1      38.297  33.661  37.840  1.00  0.00     0.200 A 
ATOM     97  F   UNL A   1      39.385  35.647  37.169  1.00  0.00    -0.200 F 
ATOM     98  F   UNL A   1      37.731  34.303  38.871  1.00  0.00    -0.200 F 
ENDBRANCH  65  88
ENDBRANCH  39  40
ENDBRANCH  32  34
ENDBRANCH  31  32
ENDBRANCH  30  31
ENDBRANCH   1  30
TORSDOF 14
ENDMDL
