MODEL 1
REMARK VINA RESULT:     -15.2      0.000      0.000
REMARK SMILES Cc1cccc(N2C(=O)/C(=C/c3ccc(C(=O)OCCOC(=O)c4ccc(-c5c6nc(c(-c7c(F)c(F)c(F)c(F)c7F)c7ccc([nH]7)c(-c7c(F)c(F)c(F)c(F)c7F)c7nc(c(-c8c(F)c(F)c(F)c(F)c8F)c8ccc5[nH]8)C=C7)C=C6)cc4)cc3)c3ccccc3C2=O)c1
REMARK SMILES IDX 19 1 18 2 16 3 17 4 15 5 12 6 13 7 88 8 14 9 87 10 11 11
REMARK SMILES IDX 7 12 8 13 95 14 9 15 10 16 94 17 96 18 89 19 93 20 90 21
REMARK SMILES IDX 92 22 91 23 6 24 1 25 2 26 3 27 97 28 4 29 5 30 20 31 21 32
REMARK SMILES IDX 22 33 23 34 24 35 25 36 86 37 26 38 85 39 27 40 28 41 29 42
REMARK SMILES IDX 79 43 30 44 84 45 78 46 80 47 31 48 83 49 77 50 76 51 32 53
REMARK SMILES IDX 64 54 44 55 63 56 45 57 48 58 62 59 81 60 46 61 47 62 61 64
REMARK SMILES IDX 82 65 49 66 33 67 34 68 42 69 35 70 36 71 40 72 43 73 37 74
REMARK SMILES IDX 38 75 41 76 39 77 65 78 66 79 74 80 67 81 68 82 72 83 75 84
REMARK SMILES IDX 69 85 70 86 73 87 71 88 50 89 51 90 59 91 52 92 53 93 57 94
REMARK SMILES IDX 60 95 54 96 55 97 58 98 56 99
REMARK H PARENT 80 52 48 63
REMARK Flexibility Score: inf
ROOT
ATOM      1  C   UNL A   1      33.166  29.342  25.977  1.00  0.00     0.275 C 
ENDROOT
BRANCH   1   2
ATOM      2  O   UNL A   1      32.275  28.222  25.927  1.00  0.00    -0.458 OA
BRANCH   2   3
ATOM      3  C   UNL A   1      31.460  28.275  24.838  1.00  0.00     0.338 C 
ATOM      4  O   UNL A   1      31.034  29.308  24.338  1.00  0.00    -0.246 OA
BRANCH   3   5
ATOM      5  C   UNL A   1      31.095  26.938  24.307  1.00  0.00     0.060 A 
ATOM      6  C   UNL A   1      30.862  24.259  23.583  1.00  0.00    -0.025 A 
ATOM      7  C   UNL A   1      31.148  25.217  22.606  1.00  0.00     0.009 A 
ATOM      8  C   UNL A   1      30.470  24.664  24.862  1.00  0.00     0.009 A 
ATOM      9  C   UNL A   1      31.273  26.562  22.971  1.00  0.00     0.016 A 
ATOM     10  C   UNL A   1      30.618  25.997  25.230  1.00  0.00     0.016 A 
BRANCH   6  11
ATOM     11  C   UNL A   1      31.214  22.855  23.342  1.00  0.00     0.022 C 
ATOM     12  N   UNL A   1      33.194  20.141  24.554  1.00  0.00    -0.242 N 
ATOM     13  C   UNL A   1      32.507  20.820  23.524  1.00  0.00     0.265 C 
ATOM     14  C   UNL A   1      33.653  20.837  25.698  1.00  0.00     0.265 C 
ATOM     15  O   UNL A   1      31.937  20.329  22.551  1.00  0.00    -0.268 OA
ATOM     16  C   UNL A   1      32.394  22.301  23.715  1.00  0.00     0.049 C 
ATOM     17  C   UNL A   1      34.006  22.266  25.521  1.00  0.00     0.048 A 
ATOM     18  O   UNL A   1      33.807  20.396  26.834  1.00  0.00    -0.268 OA
ATOM     19  C   UNL A   1      33.470  22.972  24.453  1.00  0.00    -0.000 A 
ATOM     20  C   UNL A   1      34.875  22.898  26.425  1.00  0.00     0.014 A 
ATOM     21  C   UNL A   1      33.928  24.275  24.205  1.00  0.00     0.010 A 
ATOM     22  C   UNL A   1      35.241  24.229  26.229  1.00  0.00     0.001 A 
ATOM     23  C   UNL A   1      34.786  24.911  25.105  1.00  0.00     0.001 A 
BRANCH  12  24
ATOM     24  C   UNL A   1      33.316  18.684  24.488  1.00  0.00     0.053 A 
ATOM     25  C   UNL A   1      31.830  15.597  26.223  1.00  0.00     0.044 C 
ATOM     26  C   UNL A   1      32.651  16.440  25.292  1.00  0.00    -0.049 A 
ATOM     27  C   UNL A   1      33.509  15.839  24.376  1.00  0.00     0.003 A 
ATOM     28  C   UNL A   1      32.548  17.844  25.320  1.00  0.00     0.030 A 
ATOM     29  C   UNL A   1      34.256  16.631  23.517  1.00  0.00     0.002 A 
ATOM     30  C   UNL A   1      34.161  18.029  23.575  1.00  0.00     0.027 A 
ENDBRANCH  12  24
ENDBRANCH   6  11
ENDBRANCH   3   5
ENDBRANCH   2   3
ENDBRANCH   1   2
BRANCH   1  31
ATOM     31  C   UNL A   1      34.407  29.128  26.855  1.00  0.00     0.275 C 
BRANCH  31  32
ATOM     32  O   UNL A   1      34.737  30.009  27.968  1.00  0.00    -0.458 OA
BRANCH  32  33
ATOM     33  C   UNL A   1      35.850  30.763  28.105  1.00  0.00     0.338 C 
ATOM     34  O   UNL A   1      35.858  31.974  27.918  1.00  0.00    -0.246 OA
BRANCH  33  35
ATOM     35  C   UNL A   1      37.083  30.033  28.437  1.00  0.00     0.060 A 
ATOM     36  C   UNL A   1      37.094  29.162  29.542  1.00  0.00     0.016 A 
ATOM     37  C   UNL A   1      38.164  30.109  27.565  1.00  0.00     0.016 A 
ATOM     38  C   UNL A   1      38.149  28.274  29.711  1.00  0.00     0.010 A 
ATOM     39  C   UNL A   1      39.125  29.139  27.641  1.00  0.00     0.010 A 
ATOM     40  C   UNL A   1      39.144  28.261  28.739  1.00  0.00    -0.014 A 
BRANCH  40  41
ATOM     41  C   UNL A   1      40.429  27.613  28.906  1.00  0.00     0.031 A 
ATOM     42  C   UNL A   1      40.705  26.263  28.400  1.00  0.00     0.074 A 
ATOM     43  C   UNL A   1      41.347  28.497  29.353  1.00  0.00     0.049 A 
ATOM     44  N   UNL A   1      41.630  25.497  28.861  1.00  0.00    -0.248 NA
ATOM     45  C   UNL A   1      39.930  25.620  27.344  1.00  0.00     0.031 C 
ATOM     46  C   UNL A   1      42.792  28.498  29.277  1.00  0.00     0.029 A 
ATOM     47  N   UNL A   1      41.048  29.671  30.071  1.00  0.00    -0.354 N 
ATOM     48  C   UNL A   1      41.811  24.482  27.937  1.00  0.00     0.074 A 
ATOM     49  C   UNL A   1      40.617  24.489  27.133  1.00  0.00     0.031 C 
ATOM     50  C   UNL A   1      43.266  29.409  30.151  1.00  0.00     0.029 A 
ATOM     51  C   UNL A   1      42.130  29.908  30.919  1.00  0.00     0.049 A 
ATOM     52  H   UNL A   1      40.234  30.218  29.991  1.00  0.00     0.167 HD
ATOM     53  C   UNL A   1      43.056  23.931  27.814  1.00  0.00     0.037 A 
ATOM     54  C   UNL A   1      41.934  29.743  32.261  1.00  0.00     0.037 A 
ATOM     55  C   UNL A   1      43.964  24.622  28.722  1.00  0.00     0.049 A 
ATOM     56  C   UNL A   1      42.754  28.582  32.754  1.00  0.00     0.074 A 
ATOM     57  C   UNL A   1      44.823  25.687  28.502  1.00  0.00     0.029 A 
ATOM     58  N   UNL A   1      43.784  24.523  30.093  1.00  0.00    -0.354 N 
ATOM     59  N   UNL A   1      42.968  27.493  32.065  1.00  0.00    -0.248 NA
ATOM     60  C   UNL A   1      43.493  28.629  34.007  1.00  0.00     0.031 C 
ATOM     61  C   UNL A   1      45.137  26.253  29.758  1.00  0.00     0.029 A 
ATOM     62  C   UNL A   1      44.461  25.540  30.733  1.00  0.00     0.049 A 
ATOM     63  H   UNL A   1      43.251  23.828  30.544  1.00  0.00     0.167 HD
ATOM     64  C   UNL A   1      43.923  26.750  32.712  1.00  0.00     0.074 A 
ATOM     65  C   UNL A   1      44.194  27.486  33.934  1.00  0.00     0.031 C 
ATOM     66  C   UNL A   1      44.481  25.624  32.179  1.00  0.00     0.037 A 
BRANCH  53  67
ATOM     67  C   UNL A   1      43.579  23.062  26.683  1.00  0.00     0.064 A 
ATOM     68  C   UNL A   1      43.221  21.690  26.622  1.00  0.00     0.173 A 
ATOM     69  C   UNL A   1      44.427  23.488  25.646  1.00  0.00     0.173 A 
ATOM     70  F   UNL A   1      42.343  21.150  27.476  1.00  0.00    -0.203 F 
ATOM     71  C   UNL A   1      43.742  20.808  25.673  1.00  0.00     0.198 A 
ATOM     72  C   UNL A   1      44.960  22.597  24.699  1.00  0.00     0.198 A 
ATOM     73  F   UNL A   1      44.732  24.779  25.478  1.00  0.00    -0.203 F 
ATOM     74  F   UNL A   1      43.377  19.518  25.695  1.00  0.00    -0.200 F 
ATOM     75  C   UNL A   1      44.628  21.257  24.721  1.00  0.00     0.200 A 
ATOM     76  F   UNL A   1      45.799  23.053  23.757  1.00  0.00    -0.200 F 
ATOM     77  F   UNL A   1      45.137  20.410  23.816  1.00  0.00    -0.200 F 
ENDBRANCH  53  67
BRANCH  54  78
ATOM     78  C   UNL A   1      40.538  30.085  32.695  1.00  0.00     0.064 A 
ATOM     79  C   UNL A   1      40.103  31.420  32.527  1.00  0.00     0.173 A 
ATOM     80  C   UNL A   1      39.544  29.118  32.899  1.00  0.00     0.173 A 
ATOM     81  F   UNL A   1      41.005  32.396  32.327  1.00  0.00    -0.203 F 
ATOM     82  C   UNL A   1      38.751  31.749  32.434  1.00  0.00     0.198 A 
ATOM     83  C   UNL A   1      38.185  29.456  32.829  1.00  0.00     0.198 A 
ATOM     84  F   UNL A   1      39.870  27.831  33.071  1.00  0.00    -0.203 F 
ATOM     85  F   UNL A   1      38.386  33.005  32.139  1.00  0.00    -0.200 F 
ATOM     86  C   UNL A   1      37.792  30.761  32.563  1.00  0.00     0.200 A 
ATOM     87  F   UNL A   1      37.252  28.499  32.932  1.00  0.00    -0.200 F 
ATOM     88  F   UNL A   1      36.497  31.055  32.385  1.00  0.00    -0.200 F 
ENDBRANCH  54  78
BRANCH  66  89
ATOM     89  C   UNL A   1      45.234  24.561  32.940  1.00  0.00     0.064 A 
ATOM     90  C   UNL A   1      46.527  24.747  33.452  1.00  0.00     0.173 A 
ATOM     91  C   UNL A   1      44.595  23.356  33.333  1.00  0.00     0.173 A 
ATOM     92  F   UNL A   1      47.190  25.898  33.283  1.00  0.00    -0.203 F 
ATOM     93  C   UNL A   1      47.165  23.771  34.216  1.00  0.00     0.198 A 
ATOM     94  C   UNL A   1      45.205  22.422  34.163  1.00  0.00     0.198 A 
ATOM     95  F   UNL A   1      43.343  23.056  32.958  1.00  0.00    -0.203 F 
ATOM     96  F   UNL A   1      48.425  23.974  34.623  1.00  0.00    -0.200 F 
ATOM     97  C   UNL A   1      46.501  22.616  34.583  1.00  0.00     0.200 A 
ATOM     98  F   UNL A   1      44.516  21.345  34.569  1.00  0.00    -0.200 F 
ATOM     99  F   UNL A   1      47.101  21.706  35.360  1.00  0.00    -0.200 F 
ENDBRANCH  66  89
ENDBRANCH  40  41
ENDBRANCH  33  35
ENDBRANCH  32  33
ENDBRANCH  31  32
ENDBRANCH   1  31
TORSDOF 13
ENDMDL
MODEL 2
REMARK VINA RESULT:     -15.2      3.778     10.326
REMARK SMILES Cc1cccc(N2C(=O)/C(=C/c3ccc(C(=O)OCCOC(=O)c4ccc(-c5c6nc(c(-c7c(F)c(F)c(F)c(F)c7F)c7ccc([nH]7)c(-c7c(F)c(F)c(F)c(F)c7F)c7nc(c(-c8c(F)c(F)c(F)c(F)c8F)c8ccc5[nH]8)C=C7)C=C6)cc4)cc3)c3ccccc3C2=O)c1
REMARK SMILES IDX 19 1 18 2 16 3 17 4 15 5 12 6 13 7 88 8 14 9 87 10 11 11
REMARK SMILES IDX 7 12 8 13 95 14 9 15 10 16 94 17 96 18 89 19 93 20 90 21
REMARK SMILES IDX 92 22 91 23 6 24 1 25 2 26 3 27 97 28 4 29 5 30 20 31 21 32
REMARK SMILES IDX 22 33 23 34 24 35 25 36 86 37 26 38 85 39 27 40 28 41 29 42
REMARK SMILES IDX 79 43 30 44 84 45 78 46 80 47 31 48 83 49 77 50 76 51 32 53
REMARK SMILES IDX 64 54 44 55 63 56 45 57 48 58 62 59 81 60 46 61 47 62 61 64
REMARK SMILES IDX 82 65 49 66 33 67 34 68 42 69 35 70 36 71 40 72 43 73 37 74
REMARK SMILES IDX 38 75 41 76 39 77 65 78 66 79 74 80 67 81 68 82 72 83 75 84
REMARK SMILES IDX 69 85 70 86 73 87 71 88 50 89 51 90 59 91 52 92 53 93 57 94
REMARK SMILES IDX 60 95 54 96 55 97 58 98 56 99
REMARK H PARENT 80 52 48 63
REMARK Flexibility Score: inf
ROOT
ATOM      1  C   UNL A   1      36.065  22.797  25.866  1.00  0.00     0.275 C 
ENDROOT
BRANCH   1   2
ATOM      2  O   UNL A   1      35.532  22.399  24.598  1.00  0.00    -0.458 OA
BRANCH   2   3
ATOM      3  C   UNL A   1      34.439  21.602  24.740  1.00  0.00     0.338 C 
ATOM      4  O   UNL A   1      34.466  20.454  25.165  1.00  0.00    -0.246 OA
BRANCH   3   5
ATOM      5  C   UNL A   1      33.176  22.244  24.296  1.00  0.00     0.060 A 
ATOM      6  C   UNL A   1      31.073  23.922  23.579  1.00  0.00    -0.025 A 
ATOM      7  C   UNL A   1      30.944  23.090  24.695  1.00  0.00     0.009 A 
ATOM      8  C   UNL A   1      32.147  23.748  22.700  1.00  0.00     0.009 A 
ATOM      9  C   UNL A   1      32.003  22.253  25.060  1.00  0.00     0.016 A 
ATOM     10  C   UNL A   1      33.209  22.935  23.077  1.00  0.00     0.016 A 
BRANCH   6  11
ATOM     11  C   UNL A   1      30.233  25.122  23.471  1.00  0.00     0.022 C 
ATOM     12  N   UNL A   1      30.322  28.691  23.402  1.00  0.00    -0.242 N 
ATOM     13  C   UNL A   1      29.666  27.465  23.648  1.00  0.00     0.265 C 
ATOM     14  C   UNL A   1      31.735  28.771  23.414  1.00  0.00     0.265 C 
ATOM     15  O   UNL A   1      28.466  27.220  23.534  1.00  0.00    -0.268 OA
ATOM     16  C   UNL A   1      30.574  26.326  23.994  1.00  0.00     0.049 C 
ATOM     17  C   UNL A   1      32.456  27.820  24.293  1.00  0.00     0.048 A 
ATOM     18  O   UNL A   1      32.449  29.547  22.785  1.00  0.00    -0.268 OA
ATOM     19  C   UNL A   1      31.827  26.646  24.686  1.00  0.00    -0.000 A 
ATOM     20  C   UNL A   1      33.761  28.104  24.725  1.00  0.00     0.014 A 
ATOM     21  C   UNL A   1      32.454  25.829  25.638  1.00  0.00     0.010 A 
ATOM     22  C   UNL A   1      34.419  27.230  25.590  1.00  0.00     0.001 A 
ATOM     23  C   UNL A   1      33.756  26.103  26.065  1.00  0.00     0.001 A 
BRANCH  12  24
ATOM     24  C   UNL A   1      29.528  29.856  23.006  1.00  0.00     0.053 A 
ATOM     25  C   UNL A   1      27.887  31.270  19.834  1.00  0.00     0.044 C 
ATOM     26  C   UNL A   1      28.319  31.134  21.265  1.00  0.00    -0.049 A 
ATOM     27  C   UNL A   1      27.961  32.101  22.200  1.00  0.00     0.003 A 
ATOM     28  C   UNL A   1      29.072  30.020  21.682  1.00  0.00     0.030 A 
ATOM     29  C   UNL A   1      28.362  31.958  23.520  1.00  0.00     0.002 A 
ATOM     30  C   UNL A   1      29.133  30.855  23.913  1.00  0.00     0.027 A 
ENDBRANCH  12  24
ENDBRANCH   6  11
ENDBRANCH   3   5
ENDBRANCH   2   3
ENDBRANCH   1   2
BRANCH   1  31
ATOM     31  C   UNL A   1      37.451  23.454  25.795  1.00  0.00     0.275 C 
BRANCH  31  32
ATOM     32  O   UNL A   1      38.495  23.180  26.774  1.00  0.00    -0.458 OA
BRANCH  32  33
ATOM     33  C   UNL A   1      39.760  23.656  26.770  1.00  0.00     0.338 C 
ATOM     34  O   UNL A   1      40.716  22.996  26.381  1.00  0.00    -0.246 OA
BRANCH  33  35
ATOM     35  C   UNL A   1      39.939  25.007  27.323  1.00  0.00     0.060 A 
ATOM     36  C   UNL A   1      40.354  26.051  26.476  1.00  0.00     0.016 A 
ATOM     37  C   UNL A   1      39.552  25.253  28.636  1.00  0.00     0.016 A 
ATOM     38  C   UNL A   1      40.272  27.368  26.911  1.00  0.00     0.010 A 
ATOM     39  C   UNL A   1      39.327  26.548  29.013  1.00  0.00     0.010 A 
ATOM     40  C   UNL A   1      39.735  27.598  28.173  1.00  0.00    -0.014 A 
BRANCH  40  41
ATOM     41  C   UNL A   1      39.840  28.861  28.878  1.00  0.00     0.031 A 
ATOM     42  C   UNL A   1      38.749  29.843  28.905  1.00  0.00     0.074 A 
ATOM     43  C   UNL A   1      40.940  28.871  29.662  1.00  0.00     0.049 A 
ATOM     44  N   UNL A   1      38.917  31.098  29.134  1.00  0.00    -0.248 NA
ATOM     45  C   UNL A   1      37.355  29.513  28.630  1.00  0.00     0.031 C 
ATOM     46  C   UNL A   1      41.269  29.650  30.837  1.00  0.00     0.029 A 
ATOM     47  N   UNL A   1      42.087  28.084  29.448  1.00  0.00    -0.354 N 
ATOM     48  C   UNL A   1      37.670  31.627  29.417  1.00  0.00     0.074 A 
ATOM     49  C   UNL A   1      36.730  30.667  28.900  1.00  0.00     0.031 C 
ATOM     50  C   UNL A   1      42.595  29.546  31.059  1.00  0.00     0.029 A 
ATOM     51  C   UNL A   1      43.171  28.815  29.935  1.00  0.00     0.049 A 
ATOM     52  H   UNL A   1      42.119  27.192  29.034  1.00  0.00     0.167 HD
ATOM     53  C   UNL A   1      37.594  32.690  30.274  1.00  0.00     0.037 A 
ATOM     54  C   UNL A   1      44.063  29.310  29.027  1.00  0.00     0.037 A 
ATOM     55  C   UNL A   1      38.937  33.005  30.745  1.00  0.00     0.049 A 
ATOM     56  C   UNL A   1      44.001  30.814  29.025  1.00  0.00     0.074 A 
ATOM     57  C   UNL A   1      39.607  32.608  31.891  1.00  0.00     0.029 A 
ATOM     58  N   UNL A   1      39.894  33.470  29.856  1.00  0.00    -0.354 N 
ATOM     59  N   UNL A   1      42.902  31.501  29.186  1.00  0.00    -0.248 NA
ATOM     60  C   UNL A   1      45.198  31.641  28.967  1.00  0.00     0.031 C 
ATOM     61  C   UNL A   1      40.989  32.811  31.674  1.00  0.00     0.029 A 
ATOM     62  C   UNL A   1      41.155  33.317  30.396  1.00  0.00     0.049 A 
ATOM     63  H   UNL A   1      39.703  33.855  28.971  1.00  0.00     0.167 HD
ATOM     64  C   UNL A   1      43.235  32.821  29.350  1.00  0.00     0.074 A 
ATOM     65  C   UNL A   1      44.676  32.861  29.173  1.00  0.00     0.031 C 
ATOM     66  C   UNL A   1      42.328  33.784  29.687  1.00  0.00     0.037 A 
BRANCH  53  67
ATOM     67  C   UNL A   1      36.362  33.226  30.981  1.00  0.00     0.064 A 
ATOM     68  C   UNL A   1      35.467  34.085  30.291  1.00  0.00     0.173 A 
ATOM     69  C   UNL A   1      35.998  32.957  32.312  1.00  0.00     0.173 A 
ATOM     70  F   UNL A   1      35.616  34.360  28.989  1.00  0.00    -0.203 F 
ATOM     71  C   UNL A   1      34.372  34.696  30.904  1.00  0.00     0.198 A 
ATOM     72  C   UNL A   1      34.903  33.582  32.931  1.00  0.00     0.198 A 
ATOM     73  F   UNL A   1      36.652  32.051  33.046  1.00  0.00    -0.203 F 
ATOM     74  F   UNL A   1      33.587  35.518  30.192  1.00  0.00    -0.200 F 
ATOM     75  C   UNL A   1      34.099  34.459  32.231  1.00  0.00     0.200 A 
ATOM     76  F   UNL A   1      34.628  33.319  34.217  1.00  0.00    -0.200 F 
ATOM     77  F   UNL A   1      33.054  35.053  32.824  1.00  0.00    -0.200 F 
ENDBRANCH  53  67
BRANCH  54  78
ATOM     78  C   UNL A   1      44.219  28.431  27.820  1.00  0.00     0.064 A 
ATOM     79  C   UNL A   1      44.763  27.140  28.010  1.00  0.00     0.173 A 
ATOM     80  C   UNL A   1      43.535  28.658  26.618  1.00  0.00     0.173 A 
ATOM     81  F   UNL A   1      45.431  26.857  29.141  1.00  0.00    -0.203 F 
ATOM     82  C   UNL A   1      44.522  26.100  27.113  1.00  0.00     0.198 A 
ATOM     83  C   UNL A   1      43.316  27.615  25.706  1.00  0.00     0.198 A 
ATOM     84  F   UNL A   1      42.993  29.854  26.357  1.00  0.00    -0.203 F 
ATOM     85  F   UNL A   1      44.943  24.859  27.398  1.00  0.00    -0.200 F 
ATOM     86  C   UNL A   1      43.778  26.334  25.971  1.00  0.00     0.200 A 
ATOM     87  F   UNL A   1      42.576  27.832  24.608  1.00  0.00    -0.200 F 
ATOM     88  F   UNL A   1      43.468  25.319  25.152  1.00  0.00    -0.200 F 
ENDBRANCH  54  78
BRANCH  66  89
ATOM     89  C   UNL A   1      42.512  35.273  29.526  1.00  0.00     0.064 A 
ATOM     90  C   UNL A   1      43.353  36.041  30.345  1.00  0.00     0.173 A 
ATOM     91  C   UNL A   1      41.966  35.957  28.408  1.00  0.00     0.173 A 
ATOM     92  F   UNL A   1      44.048  35.490  31.348  1.00  0.00    -0.203 F 
ATOM     93  C   UNL A   1      43.559  37.401  30.121  1.00  0.00     0.198 A 
ATOM     94  C   UNL A   1      42.241  37.294  28.142  1.00  0.00     0.198 A 
ATOM     95  F   UNL A   1      41.178  35.346  27.511  1.00  0.00    -0.203 F 
ATOM     96  F   UNL A   1      44.319  38.101  30.974  1.00  0.00    -0.200 F 
ATOM     97  C   UNL A   1      43.015  38.025  29.014  1.00  0.00     0.200 A 
ATOM     98  F   UNL A   1      41.765  37.859  27.023  1.00  0.00    -0.200 F 
ATOM     99  F   UNL A   1      43.259  39.320  28.777  1.00  0.00    -0.200 F 
ENDBRANCH  66  89
ENDBRANCH  40  41
ENDBRANCH  33  35
ENDBRANCH  32  33
ENDBRANCH  31  32
ENDBRANCH   1  31
TORSDOF 13
ENDMDL
MODEL 3
REMARK VINA RESULT:     -14.7      0.965      1.479
REMARK SMILES Cc1cccc(N2C(=O)/C(=C/c3ccc(C(=O)OCCOC(=O)c4ccc(-c5c6nc(c(-c7c(F)c(F)c(F)c(F)c7F)c7ccc([nH]7)c(-c7c(F)c(F)c(F)c(F)c7F)c7nc(c(-c8c(F)c(F)c(F)c(F)c8F)c8ccc5[nH]8)C=C7)C=C6)cc4)cc3)c3ccccc3C2=O)c1
REMARK SMILES IDX 19 1 18 2 16 3 17 4 15 5 12 6 13 7 88 8 14 9 87 10 11 11
REMARK SMILES IDX 7 12 8 13 95 14 9 15 10 16 94 17 96 18 89 19 93 20 90 21
REMARK SMILES IDX 92 22 91 23 6 24 1 25 2 26 3 27 97 28 4 29 5 30 20 31 21 32
REMARK SMILES IDX 22 33 23 34 24 35 25 36 86 37 26 38 85 39 27 40 28 41 29 42
REMARK SMILES IDX 79 43 30 44 84 45 78 46 80 47 31 48 83 49 77 50 76 51 32 53
REMARK SMILES IDX 64 54 44 55 63 56 45 57 48 58 62 59 81 60 46 61 47 62 61 64
REMARK SMILES IDX 82 65 49 66 33 67 34 68 42 69 35 70 36 71 40 72 43 73 37 74
REMARK SMILES IDX 38 75 41 76 39 77 65 78 66 79 74 80 67 81 68 82 72 83 75 84
REMARK SMILES IDX 69 85 70 86 73 87 71 88 50 89 51 90 59 91 52 92 53 93 57 94
REMARK SMILES IDX 60 95 54 96 55 97 58 98 56 99
REMARK H PARENT 80 52 48 63
REMARK Flexibility Score: inf
ROOT
ATOM      1  C   UNL A   1      33.014  28.341  26.313  1.00  0.00     0.275 C 
ENDROOT
BRANCH   1   2
ATOM      2  O   UNL A   1      31.594  28.331  26.134  1.00  0.00    -0.458 OA
BRANCH   2   3
ATOM      3  C   UNL A   1      31.251  28.295  24.818  1.00  0.00     0.338 C 
ATOM      4  O   UNL A   1      31.164  29.279  24.096  1.00  0.00    -0.246 OA
BRANCH   3   5
ATOM      5  C   UNL A   1      30.955  26.927  24.321  1.00  0.00     0.060 A 
ATOM      6  C   UNL A   1      30.843  24.219  23.686  1.00  0.00    -0.025 A 
ATOM      7  C   UNL A   1      31.138  25.152  22.687  1.00  0.00     0.009 A 
ATOM      8  C   UNL A   1      30.384  24.654  24.932  1.00  0.00     0.009 A 
ATOM      9  C   UNL A   1      31.201  26.512  23.008  1.00  0.00     0.016 A 
ATOM     10  C   UNL A   1      30.471  26.003  25.257  1.00  0.00     0.016 A 
BRANCH   6  11
ATOM     11  C   UNL A   1      31.253  22.820  23.510  1.00  0.00     0.022 C 
ATOM     12  N   UNL A   1      33.401  20.274  24.797  1.00  0.00    -0.242 N 
ATOM     13  C   UNL A   1      32.647  20.860  23.757  1.00  0.00     0.265 C 
ATOM     14  C   UNL A   1      33.867  21.054  25.882  1.00  0.00     0.265 C 
ATOM     15  O   UNL A   1      32.067  20.288  22.835  1.00  0.00    -0.268 OA
ATOM     16  C   UNL A   1      32.470  22.343  23.869  1.00  0.00     0.049 C 
ATOM     17  C   UNL A   1      34.145  22.485  25.612  1.00  0.00     0.048 A 
ATOM     18  O   UNL A   1      34.082  20.687  27.034  1.00  0.00    -0.268 OA
ATOM     19  C   UNL A   1      33.539  23.103  24.527  1.00  0.00    -0.000 A 
ATOM     20  C   UNL A   1      35.014  23.207  26.445  1.00  0.00     0.014 A 
ATOM     21  C   UNL A   1      33.925  24.409  24.189  1.00  0.00     0.010 A 
ATOM     22  C   UNL A   1      35.310  24.540  26.162  1.00  0.00     0.001 A 
ATOM     23  C   UNL A   1      34.783  25.134  25.020  1.00  0.00     0.001 A 
BRANCH  12  24
ATOM     24  C   UNL A   1      33.590  18.822  24.808  1.00  0.00     0.053 A 
ATOM     25  C   UNL A   1      31.778  15.701  26.123  1.00  0.00     0.044 C 
ATOM     26  C   UNL A   1      32.802  16.564  25.445  1.00  0.00    -0.049 A 
ATOM     27  C   UNL A   1      33.909  15.986  24.832  1.00  0.00     0.003 A 
ATOM     28  C   UNL A   1      32.645  17.962  25.405  1.00  0.00     0.030 A 
ATOM     29  C   UNL A   1      34.844  16.796  24.204  1.00  0.00     0.002 A 
ATOM     30  C   UNL A   1      34.686  18.189  24.195  1.00  0.00     0.027 A 
ENDBRANCH  12  24
ENDBRANCH   6  11
ENDBRANCH   3   5
ENDBRANCH   2   3
ENDBRANCH   1   2
BRANCH   1  31
ATOM     31  C   UNL A   1      33.629  29.742  26.446  1.00  0.00     0.275 C 
BRANCH  31  32
ATOM     32  O   UNL A   1      34.152  30.247  27.709  1.00  0.00    -0.458 OA
BRANCH  32  33
ATOM     33  C   UNL A   1      35.226  31.048  27.882  1.00  0.00     0.338 C 
ATOM     34  O   UNL A   1      35.180  32.262  27.722  1.00  0.00    -0.246 OA
BRANCH  33  35
ATOM     35  C   UNL A   1      36.487  30.369  28.216  1.00  0.00     0.060 A 
ATOM     36  C   UNL A   1      36.607  29.703  29.449  1.00  0.00     0.016 A 
ATOM     37  C   UNL A   1      37.478  30.276  27.246  1.00  0.00     0.016 A 
ATOM     38  C   UNL A   1      37.675  28.842  29.669  1.00  0.00     0.010 A 
ATOM     39  C   UNL A   1      38.444  29.320  27.397  1.00  0.00     0.010 A 
ATOM     40  C   UNL A   1      38.571  28.646  28.623  1.00  0.00    -0.014 A 
BRANCH  40  41
ATOM     41  C   UNL A   1      39.868  28.017  28.778  1.00  0.00     0.031 A 
ATOM     42  C   UNL A   1      40.096  26.596  28.489  1.00  0.00     0.074 A 
ATOM     43  C   UNL A   1      40.822  28.952  28.976  1.00  0.00     0.049 A 
ATOM     44  N   UNL A   1      41.063  25.908  28.986  1.00  0.00    -0.248 NA
ATOM     45  C   UNL A   1      39.225  25.793  27.639  1.00  0.00     0.031 C 
ATOM     46  C   UNL A   1      42.253  28.918  28.764  1.00  0.00     0.029 A 
ATOM     47  N   UNL A   1      40.591  30.237  29.505  1.00  0.00    -0.354 N 
ATOM     48  C   UNL A   1      41.157  24.746  28.239  1.00  0.00     0.074 A 
ATOM     49  C   UNL A   1      39.891  24.632  27.563  1.00  0.00     0.031 C 
ATOM     50  C   UNL A   1      42.807  29.960  29.418  1.00  0.00     0.029 A 
ATOM     51  C   UNL A   1      41.749  30.600  30.193  1.00  0.00     0.049 A 
ATOM     52  H   UNL A   1      39.772  30.774  29.409  1.00  0.00     0.167 HD
ATOM     53  C   UNL A   1      42.386  24.164  28.095  1.00  0.00     0.037 A 
ATOM     54  C   UNL A   1      41.683  30.672  31.555  1.00  0.00     0.037 A 
ATOM     55  C   UNL A   1      43.375  24.988  28.780  1.00  0.00     0.049 A 
ATOM     56  C   UNL A   1      42.549  29.602  32.162  1.00  0.00     0.074 A 
ATOM     57  C   UNL A   1      44.206  25.987  28.298  1.00  0.00     0.029 A 
ATOM     58  N   UNL A   1      43.327  25.130  30.158  1.00  0.00    -0.354 N 
ATOM     59  N   UNL A   1      42.699  28.407  31.655  1.00  0.00    -0.248 NA
ATOM     60  C   UNL A   1      43.404  29.853  33.313  1.00  0.00     0.031 C 
ATOM     61  C   UNL A   1      44.639  26.757  29.402  1.00  0.00     0.029 A 
ATOM     62  C   UNL A   1      44.060  26.233  30.545  1.00  0.00     0.049 A 
ATOM     63  H   UNL A   1      42.842  24.531  30.770  1.00  0.00     0.167 HD
ATOM     64  C   UNL A   1      43.712  27.773  32.327  1.00  0.00     0.074 A 
ATOM     65  C   UNL A   1      44.098  28.705  33.372  1.00  0.00     0.031 C 
ATOM     66  C   UNL A   1      44.219  26.564  31.946  1.00  0.00     0.037 A 
BRANCH  53  67
ATOM     67  C   UNL A   1      42.799  23.106  27.088  1.00  0.00     0.064 A 
ATOM     68  C   UNL A   1      42.362  21.766  27.250  1.00  0.00     0.173 A 
ATOM     69  C   UNL A   1      43.615  23.319  25.962  1.00  0.00     0.173 A 
ATOM     70  F   UNL A   1      41.501  21.415  28.213  1.00  0.00    -0.203 F 
ATOM     71  C   UNL A   1      42.783  20.722  26.424  1.00  0.00     0.198 A 
ATOM     72  C   UNL A   1      44.047  22.266  25.139  1.00  0.00     0.198 A 
ATOM     73  F   UNL A   1      43.982  24.549  25.588  1.00  0.00    -0.203 F 
ATOM     74  F   UNL A   1      42.348  19.475  26.657  1.00  0.00    -0.200 F 
ATOM     75  C   UNL A   1      43.642  20.968  25.378  1.00  0.00     0.200 A 
ATOM     76  F   UNL A   1      44.859  22.522  24.103  1.00  0.00    -0.200 F 
ATOM     77  F   UNL A   1      44.055  19.965  24.590  1.00  0.00    -0.200 F 
ENDBRANCH  53  67
BRANCH  54  78
ATOM     78  C   UNL A   1      40.334  31.104  32.054  1.00  0.00     0.064 A 
ATOM     79  C   UNL A   1      39.457  30.105  32.533  1.00  0.00     0.173 A 
ATOM     80  C   UNL A   1      40.043  32.427  32.415  1.00  0.00     0.173 A 
ATOM     81  F   UNL A   1      39.680  28.816  32.224  1.00  0.00    -0.203 F 
ATOM     82  C   UNL A   1      38.428  30.395  33.429  1.00  0.00     0.198 A 
ATOM     83  C   UNL A   1      38.992  32.718  33.297  1.00  0.00     0.198 A 
ATOM     84  F   UNL A   1      40.821  33.434  32.000  1.00  0.00    -0.203 F 
ATOM     85  F   UNL A   1      37.704  29.400  33.963  1.00  0.00    -0.200 F 
ATOM     86  C   UNL A   1      38.211  31.701  33.828  1.00  0.00     0.200 A 
ATOM     87  F   UNL A   1      38.791  33.980  33.704  1.00  0.00    -0.200 F 
ATOM     88  F   UNL A   1      37.283  31.974  34.756  1.00  0.00    -0.200 F 
ENDBRANCH  54  78
BRANCH  66  89
ATOM     89  C   UNL A   1      45.044  25.638  32.805  1.00  0.00     0.064 A 
ATOM     90  C   UNL A   1      46.445  25.592  32.767  1.00  0.00     0.173 A 
ATOM     91  C   UNL A   1      44.441  24.872  33.837  1.00  0.00     0.173 A 
ATOM     92  F   UNL A   1      47.151  26.376  31.941  1.00  0.00    -0.203 F 
ATOM     93  C   UNL A   1      47.180  24.779  33.628  1.00  0.00     0.198 A 
ATOM     94  C   UNL A   1      45.183  24.126  34.746  1.00  0.00     0.198 A 
ATOM     95  F   UNL A   1      43.114  24.848  34.027  1.00  0.00    -0.203 F 
ATOM     96  F   UNL A   1      48.514  24.724  33.503  1.00  0.00    -0.200 F 
ATOM     97  C   UNL A   1      46.553  24.057  34.625  1.00  0.00     0.200 A 
ATOM     98  F   UNL A   1      44.560  23.494  35.752  1.00  0.00    -0.200 F 
ATOM     99  F   UNL A   1      47.269  23.318  35.481  1.00  0.00    -0.200 F 
ENDBRANCH  66  89
ENDBRANCH  40  41
ENDBRANCH  33  35
ENDBRANCH  32  33
ENDBRANCH  31  32
ENDBRANCH   1  31
TORSDOF 13
ENDMDL
