MODEL 1
REMARK VINA RESULT:     -11.2      0.000      0.000
REMARK SMILES C[C@H]1CCC[C@H](Nc2ncc(C(=O)OCCOC(=O)c3ccc(-c4c5nc(c(-c6c(F)c(F)c(F)c(F)c6F)c6ccc([nH]6)c(-c6c(F)c(F)c(F)c(F)c6F)c6nc(c(-c7c(F)c(F)c(F)c(F)c7F)c7ccc4[nH]7)C=C6)C=C5)cc3)cc2Cl)C1
REMARK SMILES IDX 15 1 14 2 12 3 13 4 11 5 8 6 9 7 84 8 10 9 83 10 85 11 7 12
REMARK SMILES IDX 6 14 1 15 2 16 3 17 86 18 4 19 5 20 16 21 17 22 18 23 19 24
REMARK SMILES IDX 20 25 21 26 82 27 22 28 81 29 23 30 24 31 25 32 75 33 26 34
REMARK SMILES IDX 80 35 74 36 76 37 27 38 79 39 73 40 72 41 28 43 60 44 40 45
REMARK SMILES IDX 59 46 41 47 44 48 58 49 77 50 42 51 43 52 57 54 78 55 45 56
REMARK SMILES IDX 29 57 30 58 38 59 31 60 32 61 36 62 39 63 33 64 34 65 37 66
REMARK SMILES IDX 35 67 61 68 62 69 70 70 63 71 64 72 68 73 71 74 65 75 66 76
REMARK SMILES IDX 69 77 67 78 46 79 47 80 55 81 48 82 49 83 53 84 56 85 50 86
REMARK SMILES IDX 51 87 54 88 52 89
REMARK H PARENT 7 13 76 42 44 53
REMARK Flexibility Score: inf
ROOT
ATOM      1  C   UNL A   1      34.047  36.009  28.499  1.00  0.00     0.275 C 
ENDROOT
BRANCH   1   2
ATOM      2  O   UNL A   1      34.299  34.742  27.855  1.00  0.00    -0.458 OA
BRANCH   2   3
ATOM      3  C   UNL A   1      35.216  33.947  28.456  1.00  0.00     0.339 C 
ATOM      4  O   UNL A   1      36.070  34.286  29.252  1.00  0.00    -0.246 OA
BRANCH   3   5
ATOM      5  C   UNL A   1      35.003  32.538  28.083  1.00  0.00     0.080 A 
ATOM      6  C   UNL A   1      34.382  29.915  27.481  1.00  0.00     0.145 A 
ATOM      7  N   UNL A   1      33.397  30.833  27.477  1.00  0.00    -0.237 NA
ATOM      8  C   UNL A   1      35.710  30.266  27.778  1.00  0.00     0.084 A 
ATOM      9  C   UNL A   1      33.718  32.097  27.817  1.00  0.00     0.129 A 
ATOM     10  C   UNL A   1      36.025  31.600  28.055  1.00  0.00     0.041 A 
ATOM     11  Cl  UNL A   1      37.017  29.144  27.787  1.00  0.00    -0.080 Cl
BRANCH   6  12
ATOM     12  N   UNL A   1      33.902  28.659  27.193  1.00  0.00    -0.366 N 
ATOM     13  H   UNL A   1      33.441  28.136  27.889  1.00  0.00     0.162 HD
BRANCH  12  14
ATOM     14  C   UNL A   1      34.076  28.101  25.855  1.00  0.00     0.081 C 
ATOM     15  C   UNL A   1      30.753  29.307  24.267  1.00  0.00     0.008 C 
ATOM     16  C   UNL A   1      31.657  28.523  25.212  1.00  0.00    -0.012 C 
ATOM     17  C   UNL A   1      31.390  27.016  25.140  1.00  0.00     0.003 C 
ATOM     18  C   UNL A   1      33.127  28.809  24.888  1.00  0.00     0.028 C 
ATOM     19  C   UNL A   1      32.310  26.240  26.081  1.00  0.00     0.002 C 
ATOM     20  C   UNL A   1      33.789  26.585  25.876  1.00  0.00     0.025 C 
ENDBRANCH  12  14
ENDBRANCH   6  12
ENDBRANCH   3   5
ENDBRANCH   2   3
ENDBRANCH   1   2
BRANCH   1  21
ATOM     21  C   UNL A   1      32.909  35.912  29.518  1.00  0.00     0.275 C 
BRANCH  21  22
ATOM     22  O   UNL A   1      33.312  36.424  30.805  1.00  0.00    -0.458 OA
BRANCH  22  23
ATOM     23  C   UNL A   1      32.813  35.750  31.864  1.00  0.00     0.338 C 
ATOM     24  O   UNL A   1      31.640  35.617  32.174  1.00  0.00    -0.246 OA
BRANCH  23  25
ATOM     25  C   UNL A   1      33.881  35.025  32.568  1.00  0.00     0.060 A 
ATOM     26  C   UNL A   1      35.133  35.619  32.575  1.00  0.00     0.016 A 
ATOM     27  C   UNL A   1      33.736  33.710  32.995  1.00  0.00     0.016 A 
ATOM     28  C   UNL A   1      36.270  34.872  32.845  1.00  0.00     0.010 A 
ATOM     29  C   UNL A   1      34.870  33.002  33.428  1.00  0.00     0.010 A 
ATOM     30  C   UNL A   1      36.159  33.559  33.315  1.00  0.00    -0.014 A 
BRANCH  30  31
ATOM     31  C   UNL A   1      37.397  32.803  33.679  1.00  0.00     0.031 A 
ATOM     32  C   UNL A   1      38.085  33.035  35.000  1.00  0.00     0.074 A 
ATOM     33  C   UNL A   1      37.892  31.875  32.832  1.00  0.00     0.049 A 
ATOM     34  N   UNL A   1      39.238  32.576  35.427  1.00  0.00    -0.248 NA
ATOM     35  C   UNL A   1      37.401  33.909  35.963  1.00  0.00     0.031 C 
ATOM     36  C   UNL A   1      37.310  31.515  31.536  1.00  0.00     0.029 A 
ATOM     37  N   UNL A   1      38.988  31.052  32.934  1.00  0.00    -0.354 N 
ATOM     38  C   UNL A   1      39.439  33.149  36.678  1.00  0.00     0.074 A 
ATOM     39  C   UNL A   1      38.298  34.000  36.936  1.00  0.00     0.031 C 
ATOM     40  C   UNL A   1      38.014  30.511  30.996  1.00  0.00     0.029 A 
ATOM     41  C   UNL A   1      39.166  30.236  31.842  1.00  0.00     0.049 A 
ATOM     42  H   UNL A   1      39.588  31.048  33.714  1.00  0.00     0.167 HD
ATOM     43  C   UNL A   1      40.481  32.978  37.528  1.00  0.00     0.037 A 
ATOM     44  C   UNL A   1      40.168  29.396  31.520  1.00  0.00     0.037 A 
ATOM     45  C   UNL A   1      41.590  32.090  37.284  1.00  0.00     0.049 A 
ATOM     46  C   UNL A   1      41.333  29.263  32.457  1.00  0.00     0.074 A 
ATOM     47  C   UNL A   1      42.680  31.826  38.097  1.00  0.00     0.029 A 
ATOM     48  N   UNL A   1      41.752  31.316  36.143  1.00  0.00    -0.354 N 
ATOM     49  N   UNL A   1      41.528  29.836  33.619  1.00  0.00    -0.248 NA
ATOM     50  C   UNL A   1      42.425  28.380  32.029  1.00  0.00     0.031 C 
ATOM     51  C   UNL A   1      43.528  30.942  37.423  1.00  0.00     0.029 A 
ATOM     52  C   UNL A   1      42.937  30.599  36.219  1.00  0.00     0.049 A 
ATOM     53  H   UNL A   1      41.117  31.282  35.391  1.00  0.00     0.167 HD
ATOM     54  C   UNL A   1      42.755  29.371  34.070  1.00  0.00     0.074 A 
ATOM     55  C   UNL A   1      43.246  28.450  33.067  1.00  0.00     0.031 C 
ATOM     56  C   UNL A   1      43.417  29.687  35.211  1.00  0.00     0.037 A 
BRANCH  43  57
ATOM     57  C   UNL A   1      40.498  33.801  38.789  1.00  0.00     0.064 A 
ATOM     58  C   UNL A   1      39.866  33.382  39.969  1.00  0.00     0.173 A 
ATOM     59  C   UNL A   1      41.194  35.022  38.821  1.00  0.00     0.173 A 
ATOM     60  F   UNL A   1      39.180  32.229  39.995  1.00  0.00    -0.203 F 
ATOM     61  C   UNL A   1      39.897  34.167  41.119  1.00  0.00     0.198 A 
ATOM     62  C   UNL A   1      41.254  35.786  39.983  1.00  0.00     0.198 A 
ATOM     63  F   UNL A   1      41.827  35.469  37.726  1.00  0.00    -0.203 F 
ATOM     64  F   UNL A   1      39.238  33.773  42.217  1.00  0.00    -0.200 F 
ATOM     65  C   UNL A   1      40.598  35.365  41.127  1.00  0.00     0.200 A 
ATOM     66  F   UNL A   1      41.947  36.934  39.992  1.00  0.00    -0.200 F 
ATOM     67  F   UNL A   1      40.634  36.115  42.238  1.00  0.00    -0.200 F 
ENDBRANCH  43  57
BRANCH  44  68
ATOM     68  C   UNL A   1      40.130  28.662  30.227  1.00  0.00     0.064 A 
ATOM     69  C   UNL A   1      40.722  29.194  29.074  1.00  0.00     0.173 A 
ATOM     70  C   UNL A   1      39.513  27.404  30.120  1.00  0.00     0.173 A 
ATOM     71  F   UNL A   1      41.302  30.403  29.116  1.00  0.00    -0.203 F 
ATOM     72  C   UNL A   1      40.689  28.504  27.863  1.00  0.00     0.198 A 
ATOM     73  C   UNL A   1      39.515  26.698  28.920  1.00  0.00     0.198 A 
ATOM     74  F   UNL A   1      38.932  26.848  31.192  1.00  0.00    -0.203 F 
ATOM     75  F   UNL A   1      41.222  29.057  26.765  1.00  0.00    -0.200 F 
ATOM     76  C   UNL A   1      40.095  27.253  27.790  1.00  0.00     0.200 A 
ATOM     77  F   UNL A   1      38.959  25.482  28.860  1.00  0.00    -0.200 F 
ATOM     78  F   UNL A   1      40.076  26.583  26.629  1.00  0.00    -0.200 F 
ENDBRANCH  44  68
BRANCH  56  79
ATOM     79  C   UNL A   1      44.729  28.997  35.448  1.00  0.00     0.064 A 
ATOM     80  C   UNL A   1      44.808  27.765  36.114  1.00  0.00     0.173 A 
ATOM     81  C   UNL A   1      45.925  29.571  34.989  1.00  0.00     0.173 A 
ATOM     82  F   UNL A   1      43.696  27.182  36.590  1.00  0.00    -0.203 F 
ATOM     83  C   UNL A   1      46.036  27.150  36.342  1.00  0.00     0.198 A 
ATOM     84  C   UNL A   1      47.148  28.936  35.187  1.00  0.00     0.198 A 
ATOM     85  F   UNL A   1      45.906  30.746  34.343  1.00  0.00    -0.203 F 
ATOM     86  F   UNL A   1      46.092  26.004  37.035  1.00  0.00    -0.200 F 
ATOM     87  C   UNL A   1      47.204  27.732  35.872  1.00  0.00     0.200 A 
ATOM     88  F   UNL A   1      48.273  29.493  34.718  1.00  0.00    -0.200 F 
ATOM     89  F   UNL A   1      48.385  27.138  36.088  1.00  0.00    -0.200 F 
ENDBRANCH  56  79
ENDBRANCH  30  31
ENDBRANCH  23  25
ENDBRANCH  22  23
ENDBRANCH  21  22
ENDBRANCH   1  21
TORSDOF 13
ENDMDL
MODEL 2
REMARK VINA RESULT:     -11.1      3.221      9.001
REMARK SMILES C[C@H]1CCC[C@H](Nc2ncc(C(=O)OCCOC(=O)c3ccc(-c4c5nc(c(-c6c(F)c(F)c(F)c(F)c6F)c6ccc([nH]6)c(-c6c(F)c(F)c(F)c(F)c6F)c6nc(c(-c7c(F)c(F)c(F)c(F)c7F)c7ccc4[nH]7)C=C6)C=C5)cc3)cc2Cl)C1
REMARK SMILES IDX 15 1 14 2 12 3 13 4 11 5 8 6 9 7 84 8 10 9 83 10 85 11 7 12
REMARK SMILES IDX 6 14 1 15 2 16 3 17 86 18 4 19 5 20 16 21 17 22 18 23 19 24
REMARK SMILES IDX 20 25 21 26 82 27 22 28 81 29 23 30 24 31 25 32 75 33 26 34
REMARK SMILES IDX 80 35 74 36 76 37 27 38 79 39 73 40 72 41 28 43 60 44 40 45
REMARK SMILES IDX 59 46 41 47 44 48 58 49 77 50 42 51 43 52 57 54 78 55 45 56
REMARK SMILES IDX 29 57 30 58 38 59 31 60 32 61 36 62 39 63 33 64 34 65 37 66
REMARK SMILES IDX 35 67 61 68 62 69 70 70 63 71 64 72 68 73 71 74 65 75 66 76
REMARK SMILES IDX 69 77 67 78 46 79 47 80 55 81 48 82 49 83 53 84 56 85 50 86
REMARK SMILES IDX 51 87 54 88 52 89
REMARK H PARENT 7 13 76 42 44 53
REMARK Flexibility Score: inf
ROOT
ATOM      1  C   UNL A   1      32.107  29.107  25.122  1.00  0.00     0.275 C 
ENDROOT
BRANCH   1   2
ATOM      2  O   UNL A   1      31.142  28.079  25.425  1.00  0.00    -0.458 OA
BRANCH   2   3
ATOM      3  C   UNL A   1      31.446  27.272  26.469  1.00  0.00     0.339 C 
ATOM      4  O   UNL A   1      31.281  27.511  27.651  1.00  0.00    -0.246 OA
BRANCH   3   5
ATOM      5  C   UNL A   1      31.952  25.975  25.992  1.00  0.00     0.080 A 
ATOM      6  C   UNL A   1      32.753  23.435  25.260  1.00  0.00     0.145 A 
ATOM      7  N   UNL A   1      31.488  23.620  25.682  1.00  0.00    -0.237 NA
ATOM      8  C   UNL A   1      33.663  24.502  25.180  1.00  0.00     0.084 A 
ATOM      9  C   UNL A   1      31.135  24.860  26.076  1.00  0.00     0.129 A 
ATOM     10  C   UNL A   1      33.245  25.792  25.526  1.00  0.00     0.041 A 
ATOM     11  Cl  UNL A   1      35.289  24.335  24.636  1.00  0.00    -0.080 Cl
BRANCH   6  12
ATOM     12  N   UNL A   1      32.998  22.114  24.965  1.00  0.00    -0.366 N 
ATOM     13  H   UNL A   1      32.907  21.790  24.039  1.00  0.00     0.162 HD
BRANCH  12  14
ATOM     14  C   UNL A   1      33.395  21.191  26.025  1.00  0.00     0.081 C 
ATOM     15  C   UNL A   1      37.141  20.803  25.111  1.00  0.00     0.008 C 
ATOM     16  C   UNL A   1      35.631  20.681  24.938  1.00  0.00    -0.012 C 
ATOM     17  C   UNL A   1      35.201  19.234  24.679  1.00  0.00     0.003 C 
ATOM     18  C   UNL A   1      34.916  21.225  26.179  1.00  0.00     0.028 C 
ATOM     19  C   UNL A   1      33.685  19.122  24.520  1.00  0.00     0.002 C 
ATOM     20  C   UNL A   1      32.922  19.763  25.684  1.00  0.00     0.025 C 
ENDBRANCH  12  14
ENDBRANCH   6  12
ENDBRANCH   3   5
ENDBRANCH   2   3
ENDBRANCH   1   2
BRANCH   1  21
ATOM     21  C   UNL A   1      31.778  30.422  25.834  1.00  0.00     0.275 C 
BRANCH  21  22
ATOM     22  O   UNL A   1      32.456  30.514  27.104  1.00  0.00    -0.458 OA
BRANCH  22  23
ATOM     23  C   UNL A   1      33.160  31.653  27.288  1.00  0.00     0.338 C 
ATOM     24  O   UNL A   1      32.744  32.799  27.240  1.00  0.00    -0.246 OA
BRANCH  23  25
ATOM     25  C   UNL A   1      34.531  31.351  27.724  1.00  0.00     0.060 A 
ATOM     26  C   UNL A   1      34.791  30.039  28.088  1.00  0.00     0.016 A 
ATOM     27  C   UNL A   1      35.463  32.344  28.002  1.00  0.00     0.016 A 
ATOM     28  C   UNL A   1      35.892  29.726  28.871  1.00  0.00     0.010 A 
ATOM     29  C   UNL A   1      36.660  31.997  28.652  1.00  0.00     0.010 A 
ATOM     30  C   UNL A   1      36.870  30.691  29.136  1.00  0.00    -0.014 A 
BRANCH  30  31
ATOM     31  C   UNL A   1      38.088  30.306  29.912  1.00  0.00     0.031 A 
ATOM     32  C   UNL A   1      39.139  29.408  29.309  1.00  0.00     0.074 A 
ATOM     33  C   UNL A   1      38.274  30.792  31.158  1.00  0.00     0.049 A 
ATOM     34  N   UNL A   1      40.187  28.861  29.876  1.00  0.00    -0.248 NA
ATOM     35  C   UNL A   1      38.986  29.065  27.888  1.00  0.00     0.031 C 
ATOM     36  C   UNL A   1      37.363  31.703  31.856  1.00  0.00     0.029 A 
ATOM     37  N   UNL A   1      39.296  30.605  32.058  1.00  0.00    -0.354 N 
ATOM     38  C   UNL A   1      40.781  28.068  28.900  1.00  0.00     0.074 A 
ATOM     39  C   UNL A   1      39.970  28.195  27.709  1.00  0.00     0.031 C 
ATOM     40  C   UNL A   1      37.890  32.039  33.041  1.00  0.00     0.029 A 
ATOM     41  C   UNL A   1      39.114  31.277  33.244  1.00  0.00     0.049 A 
ATOM     42  H   UNL A   1      40.082  30.042  31.872  1.00  0.00     0.167 HD
ATOM     43  C   UNL A   1      41.900  27.308  28.994  1.00  0.00     0.037 A 
ATOM     44  C   UNL A   1      39.817  31.251  34.391  1.00  0.00     0.037 A 
ATOM     45  C   UNL A   1      42.730  27.226  30.170  1.00  0.00     0.049 A 
ATOM     46  C   UNL A   1      41.023  30.362  34.484  1.00  0.00     0.074 A 
ATOM     47  C   UNL A   1      43.899  26.506  30.354  1.00  0.00     0.029 A 
ATOM     48  N   UNL A   1      42.482  27.890  31.364  1.00  0.00    -0.354 N 
ATOM     49  N   UNL A   1      41.554  29.592  33.567  1.00  0.00    -0.248 NA
ATOM     50  C   UNL A   1      41.717  30.326  35.778  1.00  0.00     0.031 C 
ATOM     51  C   UNL A   1      44.322  26.686  31.674  1.00  0.00     0.029 A 
ATOM     52  C   UNL A   1      43.459  27.572  32.296  1.00  0.00     0.049 A 
ATOM     53  H   UNL A   1      41.724  28.498  31.524  1.00  0.00     0.167 HD
ATOM     54  C   UNL A   1      42.653  28.993  34.164  1.00  0.00     0.074 A 
ATOM     55  C   UNL A   1      42.727  29.509  35.515  1.00  0.00     0.031 C 
ATOM     56  C   UNL A   1      43.520  28.090  33.640  1.00  0.00     0.037 A 
BRANCH  43  57
ATOM     57  C   UNL A   1      42.274  26.463  27.805  1.00  0.00     0.064 A 
ATOM     58  C   UNL A   1      43.232  26.870  26.865  1.00  0.00     0.173 A 
ATOM     59  C   UNL A   1      41.680  25.202  27.625  1.00  0.00     0.173 A 
ATOM     60  F   UNL A   1      43.826  28.067  26.982  1.00  0.00    -0.203 F 
ATOM     61  C   UNL A   1      43.555  26.067  25.773  1.00  0.00     0.198 A 
ATOM     62  C   UNL A   1      42.031  24.386  26.553  1.00  0.00     0.198 A 
ATOM     63  F   UNL A   1      40.764  24.754  28.497  1.00  0.00    -0.203 F 
ATOM     64  F   UNL A   1      44.432  26.502  24.858  1.00  0.00    -0.200 F 
ATOM     65  C   UNL A   1      42.960  24.823  25.623  1.00  0.00     0.200 A 
ATOM     66  F   UNL A   1      41.468  23.177  26.420  1.00  0.00    -0.200 F 
ATOM     67  F   UNL A   1      43.278  24.048  24.576  1.00  0.00    -0.200 F 
ENDBRANCH  43  57
BRANCH  44  68
ATOM     68  C   UNL A   1      39.359  32.054  35.557  1.00  0.00     0.064 A 
ATOM     69  C   UNL A   1      38.495  31.510  36.517  1.00  0.00     0.173 A 
ATOM     70  C   UNL A   1      39.788  33.379  35.744  1.00  0.00     0.173 A 
ATOM     71  F   UNL A   1      38.036  30.258  36.372  1.00  0.00    -0.203 F 
ATOM     72  C   UNL A   1      38.068  32.262  37.610  1.00  0.00     0.198 A 
ATOM     73  C   UNL A   1      39.393  34.116  36.857  1.00  0.00     0.198 A 
ATOM     74  F   UNL A   1      40.616  33.948  34.857  1.00  0.00    -0.203 F 
ATOM     75  F   UNL A   1      37.205  31.734  38.489  1.00  0.00    -0.200 F 
ATOM     76  C   UNL A   1      38.526  33.560  37.785  1.00  0.00     0.200 A 
ATOM     77  F   UNL A   1      39.854  35.360  37.032  1.00  0.00    -0.200 F 
ATOM     78  F   UNL A   1      38.128  34.277  38.845  1.00  0.00    -0.200 F 
ENDBRANCH  44  68
BRANCH  56  79
ATOM     79  C   UNL A   1      44.643  27.633  34.524  1.00  0.00     0.064 A 
ATOM     80  C   UNL A   1      45.860  28.330  34.594  1.00  0.00     0.173 A 
ATOM     81  C   UNL A   1      44.496  26.491  35.325  1.00  0.00     0.173 A 
ATOM     82  F   UNL A   1      46.059  29.419  33.835  1.00  0.00    -0.203 F 
ATOM     83  C   UNL A   1      46.898  27.880  35.405  1.00  0.00     0.198 A 
ATOM     84  C   UNL A   1      45.523  26.065  36.163  1.00  0.00     0.198 A 
ATOM     85  F   UNL A   1      43.352  25.790  35.300  1.00  0.00    -0.203 F 
ATOM     86  F   UNL A   1      48.072  28.526  35.409  1.00  0.00    -0.200 F 
ATOM     87  C   UNL A   1      46.726  26.753  36.195  1.00  0.00     0.200 A 
ATOM     88  F   UNL A   1      45.349  24.983  36.936  1.00  0.00    -0.200 F 
ATOM     89  F   UNL A   1      47.724  26.322  36.978  1.00  0.00    -0.200 F 
ENDBRANCH  56  79
ENDBRANCH  30  31
ENDBRANCH  23  25
ENDBRANCH  22  23
ENDBRANCH  21  22
ENDBRANCH   1  21
TORSDOF 13
ENDMDL
MODEL 3
REMARK VINA RESULT:     -11.1      7.628     12.932
REMARK SMILES C[C@H]1CCC[C@H](Nc2ncc(C(=O)OCCOC(=O)c3ccc(-c4c5nc(c(-c6c(F)c(F)c(F)c(F)c6F)c6ccc([nH]6)c(-c6c(F)c(F)c(F)c(F)c6F)c6nc(c(-c7c(F)c(F)c(F)c(F)c7F)c7ccc4[nH]7)C=C6)C=C5)cc3)cc2Cl)C1
REMARK SMILES IDX 15 1 14 2 12 3 13 4 11 5 8 6 9 7 84 8 10 9 83 10 85 11 7 12
REMARK SMILES IDX 6 14 1 15 2 16 3 17 86 18 4 19 5 20 16 21 17 22 18 23 19 24
REMARK SMILES IDX 20 25 21 26 82 27 22 28 81 29 23 30 24 31 25 32 75 33 26 34
REMARK SMILES IDX 80 35 74 36 76 37 27 38 79 39 73 40 72 41 28 43 60 44 40 45
REMARK SMILES IDX 59 46 41 47 44 48 58 49 77 50 42 51 43 52 57 54 78 55 45 56
REMARK SMILES IDX 29 57 30 58 38 59 31 60 32 61 36 62 39 63 33 64 34 65 37 66
REMARK SMILES IDX 35 67 61 68 62 69 70 70 63 71 64 72 68 73 71 74 65 75 66 76
REMARK SMILES IDX 69 77 67 78 46 79 47 80 55 81 48 82 49 83 53 84 56 85 50 86
REMARK SMILES IDX 51 87 54 88 52 89
REMARK H PARENT 7 13 76 42 44 53
REMARK Flexibility Score: inf
ROOT
ATOM      1  C   UNL A   1      42.638  18.894  27.230  1.00  0.00     0.275 C 
ENDROOT
BRANCH   1   2
ATOM      2  O   UNL A   1      41.473  19.736  27.094  1.00  0.00    -0.458 OA
BRANCH   2   3
ATOM      3  C   UNL A   1      41.637  21.033  27.449  1.00  0.00     0.339 C 
ATOM      4  O   UNL A   1      42.624  21.533  27.956  1.00  0.00    -0.246 OA
BRANCH   3   5
ATOM      5  C   UNL A   1      40.462  21.829  27.060  1.00  0.00     0.080 A 
ATOM      6  C   UNL A   1      38.268  23.214  26.114  1.00  0.00     0.145 A 
ATOM      7  N   UNL A   1      38.486  21.962  25.670  1.00  0.00    -0.237 NA
ATOM      8  C   UNL A   1      39.125  23.821  27.047  1.00  0.00     0.084 A 
ATOM      9  C   UNL A   1      39.588  21.324  26.113  1.00  0.00     0.129 A 
ATOM     10  C   UNL A   1      40.220  23.106  27.544  1.00  0.00     0.041 A 
ATOM     11  Cl  UNL A   1      38.895  25.413  27.664  1.00  0.00    -0.080 Cl
BRANCH   6  12
ATOM     12  N   UNL A   1      37.158  23.772  25.524  1.00  0.00    -0.366 N 
ATOM     13  H   UNL A   1      37.059  24.752  25.486  1.00  0.00     0.162 HD
BRANCH  12  14
ATOM     14  C   UNL A   1      36.125  22.913  24.953  1.00  0.00     0.081 C 
ATOM     15  C   UNL A   1      33.736  25.655  23.613  1.00  0.00     0.008 C 
ATOM     16  C   UNL A   1      34.493  24.835  24.651  1.00  0.00    -0.012 C 
ATOM     17  C   UNL A   1      33.554  24.231  25.700  1.00  0.00     0.003 C 
ATOM     18  C   UNL A   1      35.289  23.721  23.960  1.00  0.00     0.028 C 
ATOM     19  C   UNL A   1      34.323  23.401  26.727  1.00  0.00     0.002 C 
ATOM     20  C   UNL A   1      35.229  22.350  26.075  1.00  0.00     0.025 C 
ENDBRANCH  12  14
ENDBRANCH   6  12
ENDBRANCH   3   5
ENDBRANCH   2   3
ENDBRANCH   1   2
BRANCH   1  21
ATOM     21  C   UNL A   1      43.071  18.305  25.885  1.00  0.00     0.275 C 
BRANCH  21  22
ATOM     22  O   UNL A   1      43.206  19.332  24.881  1.00  0.00    -0.458 OA
BRANCH  22  23
ATOM     23  C   UNL A   1      44.461  19.500  24.409  1.00  0.00     0.338 C 
ATOM     24  O   UNL A   1      45.138  18.691  23.797  1.00  0.00    -0.246 OA
BRANCH  23  25
ATOM     25  C   UNL A   1      44.900  20.891  24.587  1.00  0.00     0.060 A 
ATOM     26  C   UNL A   1      45.527  21.195  25.786  1.00  0.00     0.016 A 
ATOM     27  C   UNL A   1      44.508  21.916  23.733  1.00  0.00     0.016 A 
ATOM     28  C   UNL A   1      45.620  22.507  26.225  1.00  0.00     0.010 A 
ATOM     29  C   UNL A   1      44.753  23.249  24.104  1.00  0.00     0.010 A 
ATOM     30  C   UNL A   1      45.271  23.564  25.376  1.00  0.00    -0.014 A 
BRANCH  30  31
ATOM     31  C   UNL A   1      45.460  24.972  25.842  1.00  0.00     0.031 A 
ATOM     32  C   UNL A   1      46.794  25.660  25.703  1.00  0.00     0.074 A 
ATOM     33  C   UNL A   1      44.418  25.653  26.364  1.00  0.00     0.049 A 
ATOM     34  N   UNL A   1      47.181  26.823  26.173  1.00  0.00    -0.248 NA
ATOM     35  C   UNL A   1      47.839  24.946  24.955  1.00  0.00     0.031 C 
ATOM     36  C   UNL A   1      43.059  25.131  26.523  1.00  0.00     0.029 A 
ATOM     37  N   UNL A   1      44.329  26.938  26.845  1.00  0.00    -0.354 N 
ATOM     38  C   UNL A   1      48.522  26.950  25.826  1.00  0.00     0.074 A 
ATOM     39  C   UNL A   1      48.887  25.741  25.120  1.00  0.00     0.031 C 
ATOM     40  C   UNL A   1      42.264  26.095  27.005  1.00  0.00     0.029 A 
ATOM     41  C   UNL A   1      43.076  27.267  27.304  1.00  0.00     0.049 A 
ATOM     42  H   UNL A   1      45.090  27.562  26.860  1.00  0.00     0.167 HD
ATOM     43  C   UNL A   1      49.365  27.981  26.077  1.00  0.00     0.037 A 
ATOM     44  C   UNL A   1      42.629  28.363  27.946  1.00  0.00     0.037 A 
ATOM     45  C   UNL A   1      48.980  29.202  26.739  1.00  0.00     0.049 A 
ATOM     46  C   UNL A   1      43.596  29.468  28.254  1.00  0.00     0.074 A 
ATOM     47  C   UNL A   1      49.755  30.318  27.014  1.00  0.00     0.029 A 
ATOM     48  N   UNL A   1      47.709  29.473  27.228  1.00  0.00    -0.354 N 
ATOM     49  N   UNL A   1      44.867  29.562  27.952  1.00  0.00    -0.248 NA
ATOM     50  C   UNL A   1      43.069  30.613  29.008  1.00  0.00     0.031 C 
ATOM     51  C   UNL A   1      48.971  31.234  27.721  1.00  0.00     0.029 A 
ATOM     52  C   UNL A   1      47.688  30.724  27.828  1.00  0.00     0.049 A 
ATOM     53  H   UNL A   1      46.937  28.867  27.158  1.00  0.00     0.167 HD
ATOM     54  C   UNL A   1      45.290  30.780  28.462  1.00  0.00     0.074 A 
ATOM     55  C   UNL A   1      44.132  31.402  29.071  1.00  0.00     0.031 C 
ATOM     56  C   UNL A   1      46.529  31.331  28.434  1.00  0.00     0.037 A 
BRANCH  43  57
ATOM     57  C   UNL A   1      50.807  27.820  25.673  1.00  0.00     0.064 A 
ATOM     58  C   UNL A   1      51.253  28.063  24.366  1.00  0.00     0.173 A 
ATOM     59  C   UNL A   1      51.766  27.445  26.630  1.00  0.00     0.173 A 
ATOM     60  F   UNL A   1      50.381  28.415  23.409  1.00  0.00    -0.203 F 
ATOM     61  C   UNL A   1      52.594  27.903  24.022  1.00  0.00     0.198 A 
ATOM     62  C   UNL A   1      53.111  27.322  26.292  1.00  0.00     0.198 A 
ATOM     63  F   UNL A   1      51.401  27.210  27.899  1.00  0.00    -0.203 F 
ATOM     64  F   UNL A   1      52.987  28.085  22.754  1.00  0.00    -0.200 F 
ATOM     65  C   UNL A   1      53.523  27.540  24.987  1.00  0.00     0.200 A 
ATOM     66  F   UNL A   1      54.009  26.989  27.230  1.00  0.00    -0.200 F 
ATOM     67  F   UNL A   1      54.814  27.394  24.656  1.00  0.00    -0.200 F 
ENDBRANCH  43  57
BRANCH  44  68
ATOM     68  C   UNL A   1      41.209  28.436  28.383  1.00  0.00     0.064 A 
ATOM     69  C   UNL A   1      40.818  27.992  29.653  1.00  0.00     0.173 A 
ATOM     70  C   UNL A   1      40.213  28.964  27.544  1.00  0.00     0.173 A 
ATOM     71  F   UNL A   1      41.725  27.456  30.484  1.00  0.00    -0.203 F 
ATOM     72  C   UNL A   1      39.488  28.063  30.064  1.00  0.00     0.198 A 
ATOM     73  C   UNL A   1      38.892  29.071  27.969  1.00  0.00     0.198 A 
ATOM     74  F   UNL A   1      40.532  29.404  26.318  1.00  0.00    -0.203 F 
ATOM     75  F   UNL A   1      39.133  27.590  31.266  1.00  0.00    -0.200 F 
ATOM     76  C   UNL A   1      38.528  28.613  29.226  1.00  0.00     0.200 A 
ATOM     77  F   UNL A   1      37.974  29.621  27.164  1.00  0.00    -0.200 F 
ATOM     78  F   UNL A   1      37.252  28.695  29.626  1.00  0.00    -0.200 F 
ENDBRANCH  44  68
BRANCH  56  79
ATOM     79  C   UNL A   1      46.684  32.691  29.050  1.00  0.00     0.064 A 
ATOM     80  C   UNL A   1      46.484  33.866  28.308  1.00  0.00     0.173 A 
ATOM     81  C   UNL A   1      47.020  32.822  30.405  1.00  0.00     0.173 A 
ATOM     82  F   UNL A   1      46.178  33.797  27.003  1.00  0.00    -0.203 F 
ATOM     83  C   UNL A   1      46.650  35.119  28.891  1.00  0.00     0.198 A 
ATOM     84  C   UNL A   1      47.150  34.077  30.995  1.00  0.00     0.198 A 
ATOM     85  F   UNL A   1      47.218  31.731  31.162  1.00  0.00    -0.203 F 
ATOM     86  F   UNL A   1      46.516  36.226  28.148  1.00  0.00    -0.200 F 
ATOM     87  C   UNL A   1      46.976  35.223  30.236  1.00  0.00     0.200 A 
ATOM     88  F   UNL A   1      47.450  34.175  32.298  1.00  0.00    -0.200 F 
ATOM     89  F   UNL A   1      47.133  36.430  30.798  1.00  0.00    -0.200 F 
ENDBRANCH  56  79
ENDBRANCH  30  31
ENDBRANCH  23  25
ENDBRANCH  22  23
ENDBRANCH  21  22
ENDBRANCH   1  21
TORSDOF 13
ENDMDL
