MODEL 1
REMARK VINA RESULT:     -13.5      0.000      0.000
REMARK SMILES COc1ccc(-n2c(=O)[nH]c3cc(C(=O)OCCOC(=O)c4ccc(-c5c6nc(c(-c7c(F)c(F)c(F)c(F)c7F)c7ccc([nH]7)c(-c7c(F)c(F)c(F)c(F)c7F)c7nc(c(-c8c(F)c(F)c(F)c(F)c8F)c8ccc5[nH]8)C=C7)C=C6)cc4)ccc3c2=O)cc1
REMARK SMILES IDX 17 1 16 2 14 3 15 4 13 5 7 6 8 7 88 8 9 9 10 10 87 11 89 12
REMARK SMILES IDX 11 13 86 15 12 16 85 17 6 18 3 19 4 20 91 21 5 22 90 23 2 24
REMARK SMILES IDX 1 25 18 26 19 27 20 28 21 29 22 30 23 31 84 32 24 33 83 34
REMARK SMILES IDX 25 35 26 36 27 37 77 38 28 39 82 40 76 41 78 42 29 43 81 44
REMARK SMILES IDX 75 45 74 46 30 48 62 49 42 50 61 51 43 52 46 53 60 54 79 55
REMARK SMILES IDX 44 56 45 57 59 59 80 60 47 61 31 62 32 63 40 64 33 65 34 66
REMARK SMILES IDX 38 67 41 68 35 69 36 70 39 71 37 72 63 73 64 74 72 75 65 76
REMARK SMILES IDX 66 77 70 78 73 79 67 80 68 81 71 82 69 83 48 84 49 85 57 86
REMARK SMILES IDX 50 87 51 88 55 89 58 90 52 91 53 92 56 93 54 94
REMARK H PARENT 10 14 78 47 46 58
REMARK Flexibility Score: inf
ROOT
ATOM      1  C   UNL A   1      35.254  20.622  25.387  1.00  0.00     0.275 C 
ENDROOT
BRANCH   1   2
ATOM      2  O   UNL A   1      34.311  19.933  24.537  1.00  0.00    -0.458 OA
BRANCH   2   3
ATOM      3  C   UNL A   1      33.034  20.365  24.641  1.00  0.00     0.338 C 
ATOM      4  O   UNL A   1      32.087  19.749  25.108  1.00  0.00    -0.246 OA
BRANCH   3   5
ATOM      5  C   UNL A   1      32.898  21.775  24.223  1.00  0.00     0.062 A 
ATOM      6  N   UNL A   1      30.928  26.398  24.114  1.00  0.00    -0.228 N 
ATOM      7  C   UNL A   1      31.013  26.052  25.466  1.00  0.00     0.333 A 
ATOM      8  C   UNL A   1      31.706  25.731  23.142  1.00  0.00     0.268 A 
ATOM      9  O   UNL A   1      30.653  26.703  26.446  1.00  0.00    -0.247 OA
ATOM     10  N   UNL A   1      31.511  24.812  25.742  1.00  0.00    -0.306 N 
ATOM     11  C   UNL A   1      32.231  24.394  23.500  1.00  0.00     0.064 A 
ATOM     12  O   UNL A   1      32.003  26.158  22.027  1.00  0.00    -0.268 OA
ATOM     13  C   UNL A   1      32.019  23.953  24.788  1.00  0.00     0.056 A 
ATOM     14  H   UNL A   1      31.510  24.512  26.679  1.00  0.00     0.171 HD
ATOM     15  C   UNL A   1      32.863  23.544  22.575  1.00  0.00     0.017 A 
ATOM     16  C   UNL A   1      32.313  22.648  25.142  1.00  0.00     0.042 A 
ATOM     17  C   UNL A   1      33.214  22.232  22.943  1.00  0.00     0.016 A 
BRANCH   6  18
ATOM     18  C   UNL A   1      30.042  27.471  23.699  1.00  0.00     0.054 A 
ATOM     19  C   UNL A   1      28.225  29.563  23.065  1.00  0.00     0.119 A 
ATOM     20  C   UNL A   1      27.773  28.257  23.199  1.00  0.00     0.048 A 
ATOM     21  C   UNL A   1      29.567  29.843  23.284  1.00  0.00     0.048 A 
ATOM     22  C   UNL A   1      28.671  27.225  23.501  1.00  0.00     0.031 A 
ATOM     23  C   UNL A   1      30.462  28.808  23.588  1.00  0.00     0.031 A 
BRANCH  19  24
ATOM     24  O   UNL A   1      27.286  30.509  22.764  1.00  0.00    -0.497 OA
ATOM     25  C   UNL A   1      27.653  31.821  23.187  1.00  0.00     0.278 C 
ENDBRANCH  19  24
ENDBRANCH   6  18
ENDBRANCH   3   5
ENDBRANCH   2   3
ENDBRANCH   1   2
BRANCH   1  26
ATOM     26  C   UNL A   1      36.696  20.341  24.959  1.00  0.00     0.275 C 
BRANCH  26  27
ATOM     27  O   UNL A   1      37.535  21.479  25.242  1.00  0.00    -0.458 OA
BRANCH  27  28
ATOM     28  C   UNL A   1      38.733  21.202  25.803  1.00  0.00     0.338 C 
ATOM     29  O   UNL A   1      39.353  20.152  25.752  1.00  0.00    -0.246 OA
BRANCH  28  30
ATOM     30  C   UNL A   1      39.275  22.395  26.481  1.00  0.00     0.060 A 
ATOM     31  C   UNL A   1      38.752  23.645  26.174  1.00  0.00     0.016 A 
ATOM     32  C   UNL A   1      40.417  22.302  27.272  1.00  0.00     0.016 A 
ATOM     33  C   UNL A   1      39.461  24.801  26.501  1.00  0.00     0.010 A 
ATOM     34  C   UNL A   1      41.034  23.471  27.739  1.00  0.00     0.010 A 
ATOM     35  C   UNL A   1      40.604  24.742  27.313  1.00  0.00    -0.014 A 
BRANCH  35  36
ATOM     36  C   UNL A   1      41.353  25.986  27.689  1.00  0.00     0.031 A 
ATOM     37  C   UNL A   1      40.693  27.057  28.530  1.00  0.00     0.074 A 
ATOM     38  C   UNL A   1      42.628  26.181  27.286  1.00  0.00     0.049 A 
ATOM     39  N   UNL A   1      41.076  28.290  28.761  1.00  0.00    -0.248 NA
ATOM     40  C   UNL A   1      39.419  26.704  29.180  1.00  0.00     0.031 C 
ATOM     41  C   UNL A   1      43.428  25.239  26.502  1.00  0.00     0.029 A 
ATOM     42  N   UNL A   1      43.482  27.243  27.485  1.00  0.00    -0.354 N 
ATOM     43  C   UNL A   1      40.059  28.877  29.505  1.00  0.00     0.074 A 
ATOM     44  C   UNL A   1      39.043  27.864  29.698  1.00  0.00     0.031 C 
ATOM     45  C   UNL A   1      44.664  25.734  26.337  1.00  0.00     0.029 A 
ATOM     46  C   UNL A   1      44.712  27.079  26.894  1.00  0.00     0.049 A 
ATOM     47  H   UNL A   1      43.235  28.043  28.003  1.00  0.00     0.167 HD
ATOM     48  C   UNL A   1      39.976  30.144  29.980  1.00  0.00     0.037 A 
ATOM     49  C   UNL A   1      45.749  27.929  26.753  1.00  0.00     0.037 A 
ATOM     50  C   UNL A   1      41.028  31.124  29.876  1.00  0.00     0.049 A 
ATOM     51  C   UNL A   1      45.632  29.329  27.284  1.00  0.00     0.074 A 
ATOM     52  C   UNL A   1      41.054  32.417  30.373  1.00  0.00     0.029 A 
ATOM     53  N   UNL A   1      42.248  30.912  29.254  1.00  0.00    -0.354 N 
ATOM     54  N   UNL A   1      44.640  29.888  27.932  1.00  0.00    -0.248 NA
ATOM     55  C   UNL A   1      46.770  30.227  27.039  1.00  0.00     0.031 C 
ATOM     56  C   UNL A   1      42.274  33.000  30.017  1.00  0.00     0.029 A 
ATOM     57  C   UNL A   1      43.027  32.056  29.339  1.00  0.00     0.049 A 
ATOM     58  H   UNL A   1      42.522  30.073  28.818  1.00  0.00     0.167 HD
ATOM     59  C   UNL A   1      45.039  31.193  28.184  1.00  0.00     0.074 A 
ATOM     60  C   UNL A   1      46.371  31.338  27.638  1.00  0.00     0.031 C 
ATOM     61  C   UNL A   1      44.356  32.185  28.803  1.00  0.00     0.037 A 
BRANCH  48  62
ATOM     62  C   UNL A   1      38.692  30.574  30.630  1.00  0.00     0.064 A 
ATOM     63  C   UNL A   1      38.525  30.595  32.021  1.00  0.00     0.173 A 
ATOM     64  C   UNL A   1      37.630  31.038  29.836  1.00  0.00     0.173 A 
ATOM     65  F   UNL A   1      39.504  30.156  32.825  1.00  0.00    -0.203 F 
ATOM     66  C   UNL A   1      37.336  31.046  32.593  1.00  0.00     0.198 A 
ATOM     67  C   UNL A   1      36.455  31.514  30.410  1.00  0.00     0.198 A 
ATOM     68  F   UNL A   1      37.741  31.049  28.498  1.00  0.00    -0.203 F 
ATOM     69  F   UNL A   1      37.184  31.023  33.924  1.00  0.00    -0.200 F 
ATOM     70  C   UNL A   1      36.306  31.512  31.788  1.00  0.00     0.200 A 
ATOM     71  F   UNL A   1      35.468  31.978  29.630  1.00  0.00    -0.200 F 
ATOM     72  F   UNL A   1      35.169  31.956  32.341  1.00  0.00    -0.200 F 
ENDBRANCH  48  62
BRANCH  49  73
ATOM     73  C   UNL A   1      46.970  27.498  26.018  1.00  0.00     0.064 A 
ATOM     74  C   UNL A   1      48.074  26.968  26.698  1.00  0.00     0.173 A 
ATOM     75  C   UNL A   1      47.061  27.619  24.623  1.00  0.00     0.173 A 
ATOM     76  F   UNL A   1      48.048  26.860  28.035  1.00  0.00    -0.203 F 
ATOM     77  C   UNL A   1      49.228  26.590  26.014  1.00  0.00     0.198 A 
ATOM     78  C   UNL A   1      48.200  27.207  23.936  1.00  0.00     0.198 A 
ATOM     79  F   UNL A   1      46.034  28.122  23.923  1.00  0.00    -0.203 F 
ATOM     80  F   UNL A   1      50.289  26.135  26.695  1.00  0.00    -0.200 F 
ATOM     81  C   UNL A   1      49.287  26.702  24.633  1.00  0.00     0.200 A 
ATOM     82  F   UNL A   1      48.246  27.302  22.600  1.00  0.00    -0.200 F 
ATOM     83  F   UNL A   1      50.393  26.331  23.974  1.00  0.00    -0.200 F 
ENDBRANCH  49  73
BRANCH  61  84
ATOM     84  C   UNL A   1      45.054  33.504  28.958  1.00  0.00     0.064 A 
ATOM     85  C   UNL A   1      45.904  33.762  30.042  1.00  0.00     0.173 A 
ATOM     86  C   UNL A   1      44.890  34.511  27.995  1.00  0.00     0.173 A 
ATOM     87  F   UNL A   1      46.079  32.837  30.998  1.00  0.00    -0.203 F 
ATOM     88  C   UNL A   1      46.544  34.991  30.172  1.00  0.00     0.198 A 
ATOM     89  C   UNL A   1      45.553  35.729  28.113  1.00  0.00     0.198 A 
ATOM     90  F   UNL A   1      44.090  34.310  26.936  1.00  0.00    -0.203 F 
ATOM     91  F   UNL A   1      47.313  35.235  31.241  1.00  0.00    -0.200 F 
ATOM     92  C   UNL A   1      46.373  35.971  29.205  1.00  0.00     0.200 A 
ATOM     93  F   UNL A   1      45.394  36.670  27.173  1.00  0.00    -0.200 F 
ATOM     94  F   UNL A   1      46.993  37.152  29.329  1.00  0.00    -0.200 F 
ENDBRANCH  61  84
ENDBRANCH  35  36
ENDBRANCH  28  30
ENDBRANCH  27  28
ENDBRANCH  26  27
ENDBRANCH   1  26
TORSDOF 13
ENDMDL
MODEL 2
REMARK VINA RESULT:     -13.5      4.166     10.122
REMARK SMILES COc1ccc(-n2c(=O)[nH]c3cc(C(=O)OCCOC(=O)c4ccc(-c5c6nc(c(-c7c(F)c(F)c(F)c(F)c7F)c7ccc([nH]7)c(-c7c(F)c(F)c(F)c(F)c7F)c7nc(c(-c8c(F)c(F)c(F)c(F)c8F)c8ccc5[nH]8)C=C7)C=C6)cc4)ccc3c2=O)cc1
REMARK SMILES IDX 17 1 16 2 14 3 15 4 13 5 7 6 8 7 88 8 9 9 10 10 87 11 89 12
REMARK SMILES IDX 11 13 86 15 12 16 85 17 6 18 3 19 4 20 91 21 5 22 90 23 2 24
REMARK SMILES IDX 1 25 18 26 19 27 20 28 21 29 22 30 23 31 84 32 24 33 83 34
REMARK SMILES IDX 25 35 26 36 27 37 77 38 28 39 82 40 76 41 78 42 29 43 81 44
REMARK SMILES IDX 75 45 74 46 30 48 62 49 42 50 61 51 43 52 46 53 60 54 79 55
REMARK SMILES IDX 44 56 45 57 59 59 80 60 47 61 31 62 32 63 40 64 33 65 34 66
REMARK SMILES IDX 38 67 41 68 35 69 36 70 39 71 37 72 63 73 64 74 72 75 65 76
REMARK SMILES IDX 66 77 70 78 73 79 67 80 68 81 71 82 69 83 48 84 49 85 57 86
REMARK SMILES IDX 50 87 51 88 55 89 58 90 52 91 53 92 56 93 54 94
REMARK H PARENT 10 14 78 47 46 58
REMARK Flexibility Score: inf
ROOT
ATOM      1  C   UNL A   1      31.239  28.693  24.972  1.00  0.00     0.275 C 
ENDROOT
BRANCH   1   2
ATOM      2  O   UNL A   1      32.152  27.577  25.063  1.00  0.00    -0.458 OA
BRANCH   2   3
ATOM      3  C   UNL A   1      31.703  26.536  25.799  1.00  0.00     0.338 C 
ATOM      4  O   UNL A   1      30.699  26.510  26.496  1.00  0.00    -0.246 OA
BRANCH   3   5
ATOM      5  C   UNL A   1      32.516  25.322  25.585  1.00  0.00     0.062 A 
ATOM      6  N   UNL A   1      33.435  20.499  24.508  1.00  0.00    -0.228 N 
ATOM      7  C   UNL A   1      32.528  20.940  23.538  1.00  0.00     0.333 A 
ATOM      8  C   UNL A   1      34.212  21.417  25.248  1.00  0.00     0.268 A 
ATOM      9  O   UNL A   1      32.014  20.297  22.624  1.00  0.00    -0.247 OA
ATOM     10  N   UNL A   1      32.116  22.236  23.642  1.00  0.00    -0.306 N 
ATOM     11  C   UNL A   1      33.724  22.812  25.317  1.00  0.00     0.064 A 
ATOM     12  O   UNL A   1      35.266  21.173  25.833  1.00  0.00    -0.268 OA
ATOM     13  C   UNL A   1      32.616  23.135  24.563  1.00  0.00     0.056 A 
ATOM     14  H   UNL A   1      31.421  22.551  23.021  1.00  0.00     0.171 HD
ATOM     15  C   UNL A   1      34.292  23.784  26.159  1.00  0.00     0.017 A 
ATOM     16  C   UNL A   1      31.993  24.361  24.719  1.00  0.00     0.042 A 
ATOM     17  C   UNL A   1      33.696  25.052  26.282  1.00  0.00     0.016 A 
BRANCH   6  18
ATOM     18  C   UNL A   1      33.595  19.076  24.748  1.00  0.00     0.054 A 
ATOM     19  C   UNL A   1      33.773  16.259  25.085  1.00  0.00     0.119 A 
ATOM     20  C   UNL A   1      32.656  16.950  25.533  1.00  0.00     0.048 A 
ATOM     21  C   UNL A   1      34.785  16.952  24.435  1.00  0.00     0.048 A 
ATOM     22  C   UNL A   1      32.573  18.340  25.376  1.00  0.00     0.031 A 
ATOM     23  C   UNL A   1      34.699  18.342  24.278  1.00  0.00     0.031 A 
BRANCH  19  24
ATOM     24  O   UNL A   1      33.777  14.907  25.281  1.00  0.00    -0.497 OA
ATOM     25  C   UNL A   1      32.557  14.414  25.831  1.00  0.00     0.278 C 
ENDBRANCH  19  24
ENDBRANCH   6  18
ENDBRANCH   3   5
ENDBRANCH   2   3
ENDBRANCH   1   2
BRANCH   1  26
ATOM     26  C   UNL A   1      31.940  30.012  25.301  1.00  0.00     0.275 C 
BRANCH  26  27
ATOM     27  O   UNL A   1      32.430  29.997  26.656  1.00  0.00    -0.458 OA
BRANCH  27  28
ATOM     28  C   UNL A   1      32.985  31.150  27.095  1.00  0.00     0.338 C 
ATOM     29  O   UNL A   1      32.454  32.245  27.179  1.00  0.00    -0.246 OA
BRANCH  28  30
ATOM     30  C   UNL A   1      34.372  30.918  27.541  1.00  0.00     0.060 A 
ATOM     31  C   UNL A   1      34.799  29.619  27.783  1.00  0.00     0.016 A 
ATOM     32  C   UNL A   1      35.188  31.989  27.898  1.00  0.00     0.016 A 
ATOM     33  C   UNL A   1      35.948  29.389  28.539  1.00  0.00     0.010 A 
ATOM     34  C   UNL A   1      36.425  31.744  28.511  1.00  0.00     0.010 A 
ATOM     35  C   UNL A   1      36.801  30.443  28.898  1.00  0.00    -0.014 A 
BRANCH  35  36
ATOM     36  C   UNL A   1      38.052  30.196  29.687  1.00  0.00     0.031 A 
ATOM     37  C   UNL A   1      39.159  29.332  29.123  1.00  0.00     0.074 A 
ATOM     38  C   UNL A   1      38.220  30.732  30.915  1.00  0.00     0.049 A 
ATOM     39  N   UNL A   1      40.198  28.808  29.728  1.00  0.00    -0.248 NA
ATOM     40  C   UNL A   1      39.075  28.990  27.693  1.00  0.00     0.031 C 
ATOM     41  C   UNL A   1      37.272  31.617  31.597  1.00  0.00     0.029 A 
ATOM     42  N   UNL A   1      39.256  30.616  31.815  1.00  0.00    -0.354 N 
ATOM     43  C   UNL A   1      40.837  28.015  28.781  1.00  0.00     0.074 A 
ATOM     44  C   UNL A   1      40.077  28.133  27.555  1.00  0.00     0.031 C 
ATOM     45  C   UNL A   1      37.791  32.006  32.771  1.00  0.00     0.029 A 
ATOM     46  C   UNL A   1      39.049  31.305  32.987  1.00  0.00     0.049 A 
ATOM     47  H   UNL A   1      40.067  30.088  31.636  1.00  0.00     0.167 HD
ATOM     48  C   UNL A   1      41.951  27.257  28.921  1.00  0.00     0.037 A 
ATOM     49  C   UNL A   1      39.752  31.331  34.136  1.00  0.00     0.037 A 
ATOM     50  C   UNL A   1      42.767  27.215  30.108  1.00  0.00     0.049 A 
ATOM     51  C   UNL A   1      40.982  30.479  34.269  1.00  0.00     0.074 A 
ATOM     52  C   UNL A   1      43.943  26.515  30.323  1.00  0.00     0.029 A 
ATOM     53  N   UNL A   1      42.505  27.922  31.272  1.00  0.00    -0.354 N 
ATOM     54  N   UNL A   1      41.539  29.689  33.384  1.00  0.00    -0.248 NA
ATOM     55  C   UNL A   1      41.665  30.500  35.570  1.00  0.00     0.031 C 
ATOM     56  C   UNL A   1      44.371  26.767  31.630  1.00  0.00     0.029 A 
ATOM     57  C   UNL A   1      43.488  27.660  32.214  1.00  0.00     0.049 A 
ATOM     58  H   UNL A   1      41.737  28.521  31.409  1.00  0.00     0.167 HD
ATOM     59  C   UNL A   1      42.643  29.132  34.016  1.00  0.00     0.074 A 
ATOM     60  C   UNL A   1      42.690  29.690  35.350  1.00  0.00     0.031 C 
ATOM     61  C   UNL A   1      43.531  28.231  33.535  1.00  0.00     0.037 A 
BRANCH  48  62
ATOM     62  C   UNL A   1      42.351  26.369  27.776  1.00  0.00     0.064 A 
ATOM     63  C   UNL A   1      41.761  25.117  27.555  1.00  0.00     0.173 A 
ATOM     64  C   UNL A   1      43.300  26.820  26.843  1.00  0.00     0.173 A 
ATOM     65  F   UNL A   1      40.856  24.636  28.419  1.00  0.00    -0.203 F 
ATOM     66  C   UNL A   1      42.121  24.341  26.455  1.00  0.00     0.198 A 
ATOM     67  C   UNL A   1      43.636  26.054  25.730  1.00  0.00     0.198 A 
ATOM     68  F   UNL A   1      43.888  28.016  27.001  1.00  0.00    -0.203 F 
ATOM     69  F   UNL A   1      41.573  23.130  26.283  1.00  0.00    -0.200 F 
ATOM     70  C   UNL A   1      43.051  24.813  25.540  1.00  0.00     0.200 A 
ATOM     71  F   UNL A   1      44.524  26.520  24.840  1.00  0.00    -0.200 F 
ATOM     72  F   UNL A   1      43.386  24.069  24.477  1.00  0.00    -0.200 F 
ENDBRANCH  48  62
BRANCH  49  73
ATOM     73  C   UNL A   1      39.272  32.149  35.284  1.00  0.00     0.064 A 
ATOM     74  C   UNL A   1      39.607  33.505  35.396  1.00  0.00     0.173 A 
ATOM     75  C   UNL A   1      38.481  31.588  36.298  1.00  0.00     0.173 A 
ATOM     76  F   UNL A   1      40.386  34.081  34.469  1.00  0.00    -0.203 F 
ATOM     77  C   UNL A   1      39.180  34.264  36.484  1.00  0.00     0.198 A 
ATOM     78  C   UNL A   1      38.024  32.356  37.366  1.00  0.00     0.198 A 
ATOM     79  F   UNL A   1      38.133  30.294  36.241  1.00  0.00    -0.203 F 
ATOM     80  F   UNL A   1      39.558  35.546  36.593  1.00  0.00    -0.200 F 
ATOM     81  C   UNL A   1      38.383  33.691  37.463  1.00  0.00     0.200 A 
ATOM     82  F   UNL A   1      37.240  31.802  38.300  1.00  0.00    -0.200 F 
ATOM     83  F   UNL A   1      37.967  34.424  38.506  1.00  0.00    -0.200 F 
ENDBRANCH  49  73
BRANCH  61  84
ATOM     84  C   UNL A   1      44.653  27.821  34.443  1.00  0.00     0.064 A 
ATOM     85  C   UNL A   1      44.552  26.695  35.272  1.00  0.00     0.173 A 
ATOM     86  C   UNL A   1      45.851  28.552  34.465  1.00  0.00     0.173 A 
ATOM     87  F   UNL A   1      43.421  25.976  35.301  1.00  0.00    -0.203 F 
ATOM     88  C   UNL A   1      45.602  26.329  36.110  1.00  0.00     0.198 A 
ATOM     89  C   UNL A   1      46.908  28.167  35.283  1.00  0.00     0.198 A 
ATOM     90  F   UNL A   1      45.997  29.634  33.686  1.00  0.00    -0.203 F 
ATOM     91  F   UNL A   1      45.467  25.278  36.930  1.00  0.00    -0.200 F 
ATOM     92  C   UNL A   1      46.780  27.061  36.111  1.00  0.00     0.200 A 
ATOM     93  F   UNL A   1      48.049  28.869  35.275  1.00  0.00    -0.200 F 
ATOM     94  F   UNL A   1      47.791  26.705  36.915  1.00  0.00    -0.200 F 
ENDBRANCH  61  84
ENDBRANCH  35  36
ENDBRANCH  28  30
ENDBRANCH  27  28
ENDBRANCH  26  27
ENDBRANCH   1  26
TORSDOF 13
ENDMDL
MODEL 3
REMARK VINA RESULT:     -13.5      4.121     10.023
REMARK SMILES COc1ccc(-n2c(=O)[nH]c3cc(C(=O)OCCOC(=O)c4ccc(-c5c6nc(c(-c7c(F)c(F)c(F)c(F)c7F)c7ccc([nH]7)c(-c7c(F)c(F)c(F)c(F)c7F)c7nc(c(-c8c(F)c(F)c(F)c(F)c8F)c8ccc5[nH]8)C=C7)C=C6)cc4)ccc3c2=O)cc1
REMARK SMILES IDX 17 1 16 2 14 3 15 4 13 5 7 6 8 7 88 8 9 9 10 10 87 11 89 12
REMARK SMILES IDX 11 13 86 15 12 16 85 17 6 18 3 19 4 20 91 21 5 22 90 23 2 24
REMARK SMILES IDX 1 25 18 26 19 27 20 28 21 29 22 30 23 31 84 32 24 33 83 34
REMARK SMILES IDX 25 35 26 36 27 37 77 38 28 39 82 40 76 41 78 42 29 43 81 44
REMARK SMILES IDX 75 45 74 46 30 48 62 49 42 50 61 51 43 52 46 53 60 54 79 55
REMARK SMILES IDX 44 56 45 57 59 59 80 60 47 61 31 62 32 63 40 64 33 65 34 66
REMARK SMILES IDX 38 67 41 68 35 69 36 70 39 71 37 72 63 73 64 74 72 75 65 76
REMARK SMILES IDX 66 77 70 78 73 79 67 80 68 81 71 82 69 83 48 84 49 85 57 86
REMARK SMILES IDX 50 87 51 88 55 89 58 90 52 91 53 92 56 93 54 94
REMARK H PARENT 10 14 78 47 46 58
REMARK Flexibility Score: inf
ROOT
ATOM      1  C   UNL A   1      31.579  29.565  24.659  1.00  0.00     0.275 C 
ENDROOT
BRANCH   1   2
ATOM      2  O   UNL A   1      30.293  29.227  24.094  1.00  0.00    -0.458 OA
BRANCH   2   3
ATOM      3  C   UNL A   1      30.320  28.227  23.185  1.00  0.00     0.338 C 
ATOM      4  O   UNL A   1      30.118  28.324  21.983  1.00  0.00    -0.246 OA
BRANCH   3   5
ATOM      5  C   UNL A   1      30.754  26.951  23.787  1.00  0.00     0.062 A 
ATOM      6  N   UNL A   1      32.920  22.418  23.963  1.00  0.00    -0.228 N 
ATOM      7  C   UNL A   1      33.830  23.250  23.303  1.00  0.00     0.333 A 
ATOM      8  C   UNL A   1      31.899  22.957  24.777  1.00  0.00     0.268 A 
ATOM      9  O   UNL A   1      34.923  22.957  22.820  1.00  0.00    -0.247 OA
ATOM     10  N   UNL A   1      33.443  24.546  23.122  1.00  0.00    -0.306 N 
ATOM     11  C   UNL A   1      31.528  24.371  24.545  1.00  0.00     0.064 A 
ATOM     12  O   UNL A   1      31.295  22.369  25.673  1.00  0.00    -0.268 OA
ATOM     13  C   UNL A   1      32.281  25.084  23.637  1.00  0.00     0.056 A 
ATOM     14  H   UNL A   1      34.029  25.134  22.594  1.00  0.00     0.171 HD
ATOM     15  C   UNL A   1      30.417  24.983  25.151  1.00  0.00     0.017 A 
ATOM     16  C   UNL A   1      31.881  26.345  23.230  1.00  0.00     0.042 A 
ATOM     17  C   UNL A   1      30.036  26.286  24.783  1.00  0.00     0.016 A 
BRANCH   6  18
ATOM     18  C   UNL A   1      33.032  20.977  23.826  1.00  0.00     0.054 A 
ATOM     19  C   UNL A   1      33.165  18.140  23.731  1.00  0.00     0.119 A 
ATOM     20  C   UNL A   1      33.971  18.851  24.609  1.00  0.00     0.048 A 
ATOM     21  C   UNL A   1      32.264  18.825  22.928  1.00  0.00     0.048 A 
ATOM     22  C   UNL A   1      33.913  20.250  24.648  1.00  0.00     0.031 A 
ATOM     23  C   UNL A   1      32.207  20.225  22.971  1.00  0.00     0.031 A 
BRANCH  19  24
ATOM     24  O   UNL A   1      33.287  16.779  23.752  1.00  0.00    -0.497 OA
ATOM     25  C   UNL A   1      33.031  16.210  25.035  1.00  0.00     0.278 C 
ENDBRANCH  19  24
ENDBRANCH   6  18
ENDBRANCH   3   5
ENDBRANCH   2   3
ENDBRANCH   1   2
BRANCH   1  26
ATOM     26  C   UNL A   1      31.441  30.605  25.772  1.00  0.00     0.275 C 
BRANCH  26  27
ATOM     27  O   UNL A   1      32.462  30.411  26.772  1.00  0.00    -0.458 OA
BRANCH  27  28
ATOM     28  C   UNL A   1      33.083  31.531  27.204  1.00  0.00     0.338 C 
ATOM     29  O   UNL A   1      32.615  32.653  27.293  1.00  0.00    -0.246 OA
BRANCH  28  30
ATOM     30  C   UNL A   1      34.460  31.223  27.637  1.00  0.00     0.060 A 
ATOM     31  C   UNL A   1      34.807  29.906  27.909  1.00  0.00     0.016 A 
ATOM     32  C   UNL A   1      35.349  32.248  27.952  1.00  0.00     0.016 A 
ATOM     33  C   UNL A   1      35.951  29.622  28.655  1.00  0.00     0.010 A 
ATOM     34  C   UNL A   1      36.577  31.941  28.554  1.00  0.00     0.010 A 
ATOM     35  C   UNL A   1      36.875  30.629  28.972  1.00  0.00    -0.014 A 
BRANCH  35  36
ATOM     36  C   UNL A   1      38.120  30.323  29.750  1.00  0.00     0.031 A 
ATOM     37  C   UNL A   1      39.204  29.450  29.154  1.00  0.00     0.074 A 
ATOM     38  C   UNL A   1      38.303  30.813  30.995  1.00  0.00     0.049 A 
ATOM     39  N   UNL A   1      40.230  28.880  29.739  1.00  0.00    -0.248 NA
ATOM     40  C   UNL A   1      39.110  29.160  27.714  1.00  0.00     0.031 C 
ATOM     41  C   UNL A   1      37.379  31.698  31.708  1.00  0.00     0.029 A 
ATOM     42  N   UNL A   1      39.336  30.639  31.888  1.00  0.00    -0.354 N 
ATOM     43  C   UNL A   1      40.847  28.104  28.764  1.00  0.00     0.074 A 
ATOM     44  C   UNL A   1      40.089  28.283  27.544  1.00  0.00     0.031 C 
ATOM     45  C   UNL A   1      37.909  32.033  32.894  1.00  0.00     0.029 A 
ATOM     46  C   UNL A   1      39.149  31.293  33.083  1.00  0.00     0.049 A 
ATOM     47  H   UNL A   1      40.134  30.097  31.690  1.00  0.00     0.167 HD
ATOM     48  C   UNL A   1      41.942  27.313  28.876  1.00  0.00     0.037 A 
ATOM     49  C   UNL A   1      39.854  31.262  34.231  1.00  0.00     0.037 A 
ATOM     50  C   UNL A   1      42.758  27.210  30.060  1.00  0.00     0.049 A 
ATOM     51  C   UNL A   1      41.061  30.375  34.332  1.00  0.00     0.074 A 
ATOM     52  C   UNL A   1      43.916  26.474  30.249  1.00  0.00     0.029 A 
ATOM     53  N   UNL A   1      42.516  27.883  31.248  1.00  0.00    -0.354 N 
ATOM     54  N   UNL A   1      41.597  29.601  33.421  1.00  0.00    -0.248 NA
ATOM     55  C   UNL A   1      41.746  30.334  35.632  1.00  0.00     0.031 C 
ATOM     56  C   UNL A   1      44.352  26.670  31.563  1.00  0.00     0.029 A 
ATOM     57  C   UNL A   1      43.493  27.565  32.178  1.00  0.00     0.049 A 
ATOM     58  H   UNL A   1      41.763  28.497  31.406  1.00  0.00     0.167 HD
ATOM     59  C   UNL A   1      42.687  28.996  34.031  1.00  0.00     0.074 A 
ATOM     60  C   UNL A   1      42.750  29.507  35.383  1.00  0.00     0.031 C 
ATOM     61  C   UNL A   1      43.551  28.089  33.517  1.00  0.00     0.037 A 
BRANCH  48  62
ATOM     62  C   UNL A   1      42.318  26.455  27.701  1.00  0.00     0.064 A 
ATOM     63  C   UNL A   1      43.317  26.827  26.790  1.00  0.00     0.173 A 
ATOM     64  C   UNL A   1      41.707  25.203  27.528  1.00  0.00     0.173 A 
ATOM     65  F   UNL A   1      43.927  28.016  26.904  1.00  0.00    -0.203 F 
ATOM     66  C   UNL A   1      43.674  25.985  25.738  1.00  0.00     0.198 A 
ATOM     67  C   UNL A   1      42.087  24.352  26.493  1.00  0.00     0.198 A 
ATOM     68  F   UNL A   1      40.752  24.793  28.378  1.00  0.00    -0.203 F 
ATOM     69  F   UNL A   1      44.605  26.375  24.856  1.00  0.00    -0.200 F 
ATOM     70  C   UNL A   1      43.066  24.746  25.596  1.00  0.00     0.200 A 
ATOM     71  F   UNL A   1      41.507  23.149  26.368  1.00  0.00    -0.200 F 
ATOM     72  F   UNL A   1      43.420  23.934  24.591  1.00  0.00    -0.200 F 
ENDBRANCH  48  62
BRANCH  49  73
ATOM     73  C   UNL A   1      39.396  32.053  35.407  1.00  0.00     0.064 A 
ATOM     74  C   UNL A   1      38.534  31.497  36.361  1.00  0.00     0.173 A 
ATOM     75  C   UNL A   1      39.801  33.384  35.593  1.00  0.00     0.173 A 
ATOM     76  F   UNL A   1      38.093  30.239  36.212  1.00  0.00    -0.203 F 
ATOM     77  C   UNL A   1      38.083  32.245  37.447  1.00  0.00     0.198 A 
ATOM     78  C   UNL A   1      39.380  34.119  36.698  1.00  0.00     0.198 A 
ATOM     79  F   UNL A   1      40.625  33.966  34.709  1.00  0.00    -0.203 F 
ATOM     80  F   UNL A   1      37.217  31.705  38.316  1.00  0.00    -0.200 F 
ATOM     81  C   UNL A   1      38.513  33.552  37.619  1.00  0.00     0.200 A 
ATOM     82  F   UNL A   1      39.812  35.375  36.869  1.00  0.00    -0.200 F 
ATOM     83  F   UNL A   1      38.086  34.268  38.668  1.00  0.00    -0.200 F 
ENDBRANCH  49  73
BRANCH  61  84
ATOM     84  C   UNL A   1      44.663  27.620  34.410  1.00  0.00     0.064 A 
ATOM     85  C   UNL A   1      45.881  28.310  34.489  1.00  0.00     0.173 A 
ATOM     86  C   UNL A   1      44.496  26.482  35.213  1.00  0.00     0.173 A 
ATOM     87  F   UNL A   1      46.095  29.392  33.727  1.00  0.00    -0.203 F 
ATOM     88  C   UNL A   1      46.903  27.862  35.322  1.00  0.00     0.198 A 
ATOM     89  C   UNL A   1      45.509  26.053  36.065  1.00  0.00     0.198 A 
ATOM     90  F   UNL A   1      43.347  25.791  35.176  1.00  0.00    -0.203 F 
ATOM     91  F   UNL A   1      48.076  28.507  35.347  1.00  0.00    -0.200 F 
ATOM     92  C   UNL A   1      46.713  26.738  36.113  1.00  0.00     0.200 A 
ATOM     93  F   UNL A   1      45.321  24.974  36.836  1.00  0.00    -0.200 F 
ATOM     94  F   UNL A   1      47.697  26.311  36.917  1.00  0.00    -0.200 F 
ENDBRANCH  61  84
ENDBRANCH  35  36
ENDBRANCH  28  30
ENDBRANCH  27  28
ENDBRANCH  26  27
ENDBRANCH   1  26
TORSDOF 13
ENDMDL
