MODEL 1
REMARK VINA RESULT:     -13.0      0.000      0.000
REMARK SMILES O=C(C[C@H]1C(=O)NCC[N@H+]1[C@H]1CCO[C@@]2(CCSC2)C1)OCCOC(=O)c1ccc(-c2c3nc(c(-c4c(F)c(F)c(F)c(F)c4F)c4ccc([nH]4)c(-c4c(F)c(F)c(F)c(F)c4F)c4nc(c(-c5c(F)c(F)c(F)c(F)c5F)c5ccc2[nH]5)C=C4)C=C3)cc1
REMARK SMILES IDX 22 1 21 2 2 3 1 4 3 5 4 6 5 7 10 8 6 9 7 10 9 11 8 13 11 15
REMARK SMILES IDX 12 16 20 17 13 18 15 19 14 20 16 21 19 22 17 23 18 24 23 25
REMARK SMILES IDX 24 26 25 27 26 28 27 29 28 30 89 31 29 32 88 33 30 34 31 35
REMARK SMILES IDX 32 36 82 37 33 38 87 39 81 40 83 41 34 42 86 43 80 44 79 45
REMARK SMILES IDX 35 47 67 48 47 49 66 50 48 51 51 52 65 53 84 54 49 55 50 56
REMARK SMILES IDX 64 58 85 59 52 60 36 61 37 62 45 63 38 64 39 65 43 66 46 67
REMARK SMILES IDX 40 68 41 69 44 70 42 71 68 72 69 73 77 74 70 75 71 76 75 77
REMARK SMILES IDX 78 78 72 79 73 80 76 81 74 82 53 83 54 84 62 85 55 86 56 87
REMARK SMILES IDX 60 88 63 89 57 90 58 91 61 92 59 93
REMARK H PARENT 10 12 7 14 83 46 51 57
REMARK Flexibility Score: inf
ROOT
ATOM      1  C   UNL A   1      31.108  31.524  26.128  1.00  0.00     0.274 C 
ENDROOT
BRANCH   1   2
ATOM      2  O   UNL A   1      31.996  30.422  25.880  1.00  0.00    -0.462 OA
BRANCH   2   3
ATOM      3  C   UNL A   1      31.760  29.166  26.342  1.00  0.00     0.312 C 
ATOM      4  O   UNL A   1      31.855  28.945  27.545  1.00  0.00    -0.252 OA
BRANCH   3   5
ATOM      5  C   UNL A   1      31.602  28.048  25.323  1.00  0.00     0.198 C 
BRANCH   5   6
ATOM      6  C   UNL A   1      31.955  28.309  23.847  1.00  0.00     0.285 C 
ATOM      7  C   UNL A   1      33.390  27.800  23.598  1.00  0.00     0.279 C 
ATOM      8  N   UNL A   1      31.022  27.882  22.768  1.00  0.00    -0.320 N 
ATOM      9  O   UNL A   1      34.377  28.415  23.998  1.00  0.00    -0.268 OA
ATOM     10  N   UNL A   1      33.529  26.570  23.017  1.00  0.00    -0.345 N 
ATOM     11  C   UNL A   1      31.079  26.442  22.504  1.00  0.00     0.284 C 
ATOM     12  H   UNL A   1      31.441  28.373  21.979  1.00  0.00     0.349 HD
ATOM     13  C   UNL A   1      32.508  25.963  22.199  1.00  0.00     0.177 C 
ATOM     14  H   UNL A   1      34.366  26.073  23.164  1.00  0.00     0.163 HD
BRANCH   8  15
ATOM     15  C   UNL A   1      29.685  28.507  22.614  1.00  0.00     0.189 C 
ATOM     16  C   UNL A   1      28.522  27.747  23.264  1.00  0.00     0.093 C 
ATOM     17  C   UNL A   1      29.634  30.006  22.993  1.00  0.00     0.101 C 
ATOM     18  C   UNL A   1      27.189  28.468  23.215  1.00  0.00     0.167 C 
ATOM     19  C   UNL A   1      28.208  30.601  22.874  1.00  0.00     0.084 C 
ATOM     20  O   UNL A   1      27.323  29.805  23.681  1.00  0.00    -0.374 OA
ATOM     21  C   UNL A   1      28.138  32.030  23.440  1.00  0.00     0.047 C 
ATOM     22  C   UNL A   1      27.662  30.733  21.438  1.00  0.00     0.105 C 
ATOM     23  C   UNL A   1      28.695  32.998  22.411  1.00  0.00     0.072 C 
ATOM     24  S   UNL A   1      28.193  32.341  20.802  1.00  0.00    -0.159 SA
ENDBRANCH   8  15
ENDBRANCH   5   6
ENDBRANCH   3   5
ENDBRANCH   2   3
ENDBRANCH   1   2
BRANCH   1  25
ATOM     25  C   UNL A   1      31.792  32.687  26.851  1.00  0.00     0.275 C 
BRANCH  25  26
ATOM     26  O   UNL A   1      32.922  32.209  27.597  1.00  0.00    -0.458 OA
BRANCH  26  27
ATOM     27  C   UNL A   1      33.765  33.190  28.013  1.00  0.00     0.338 C 
ATOM     28  O   UNL A   1      33.465  34.335  28.272  1.00  0.00    -0.246 OA
BRANCH  27  29
ATOM     29  C   UNL A   1      35.109  32.624  28.279  1.00  0.00     0.060 A 
ATOM     30  C   UNL A   1      35.173  31.245  28.509  1.00  0.00     0.016 A 
ATOM     31  C   UNL A   1      36.277  33.395  28.310  1.00  0.00     0.016 A 
ATOM     32  C   UNL A   1      36.381  30.649  28.859  1.00  0.00     0.010 A 
ATOM     33  C   UNL A   1      37.495  32.794  28.657  1.00  0.00     0.010 A 
ATOM     34  C   UNL A   1      37.538  31.429  28.988  1.00  0.00    -0.014 A 
BRANCH  34  35
ATOM     35  C   UNL A   1      38.700  30.837  29.693  1.00  0.00     0.031 A 
ATOM     36  C   UNL A   1      38.919  31.201  31.137  1.00  0.00     0.074 A 
ATOM     37  C   UNL A   1      39.480  29.909  29.111  1.00  0.00     0.049 A 
ATOM     38  N   UNL A   1      39.749  30.690  32.010  1.00  0.00    -0.248 NA
ATOM     39  C   UNL A   1      38.077  32.285  31.672  1.00  0.00     0.031 C 
ATOM     40  C   UNL A   1      39.361  29.445  27.731  1.00  0.00     0.029 A 
ATOM     41  N   UNL A   1      40.520  29.174  29.628  1.00  0.00    -0.354 N 
ATOM     42  C   UNL A   1      39.508  31.367  33.198  1.00  0.00     0.074 A 
ATOM     43  C   UNL A   1      38.498  32.365  32.924  1.00  0.00     0.031 C 
ATOM     44  C   UNL A   1      40.288  28.493  27.513  1.00  0.00     0.029 A 
ATOM     45  C   UNL A   1      41.063  28.284  28.736  1.00  0.00     0.049 A 
ATOM     46  H   UNL A   1      40.844  29.277  30.552  1.00  0.00     0.167 HD
ATOM     47  C   UNL A   1      40.055  31.159  34.418  1.00  0.00     0.037 A 
ATOM     48  C   UNL A   1      42.061  27.393  28.897  1.00  0.00     0.037 A 
ATOM     49  C   UNL A   1      41.068  30.179  34.700  1.00  0.00     0.049 A 
ATOM     50  C   UNL A   1      42.714  27.239  30.247  1.00  0.00     0.074 A 
ATOM     51  C   UNL A   1      41.673  29.885  35.909  1.00  0.00     0.029 A 
ATOM     52  N   UNL A   1      41.633  29.340  33.753  1.00  0.00    -0.354 N 
ATOM     53  N   UNL A   1      42.431  27.833  31.382  1.00  0.00    -0.248 NA
ATOM     54  C   UNL A   1      43.820  26.273  30.341  1.00  0.00     0.031 C 
ATOM     55  C   UNL A   1      42.640  28.900  35.684  1.00  0.00     0.029 A 
ATOM     56  C   UNL A   1      42.604  28.549  34.344  1.00  0.00     0.049 A 
ATOM     57  H   UNL A   1      41.382  29.310  32.802  1.00  0.00     0.167 HD
ATOM     58  C   UNL A   1      43.294  27.288  32.325  1.00  0.00     0.074 A 
ATOM     59  C   UNL A   1      44.107  26.311  31.635  1.00  0.00     0.031 C 
ATOM     60  C   UNL A   1      43.397  27.570  33.648  1.00  0.00     0.037 A 
BRANCH  47  61
ATOM     61  C   UNL A   1      39.569  32.024  35.540  1.00  0.00     0.064 A 
ATOM     62  C   UNL A   1      40.111  33.299  35.766  1.00  0.00     0.173 A 
ATOM     63  C   UNL A   1      38.545  31.583  36.389  1.00  0.00     0.173 A 
ATOM     64  F   UNL A   1      41.106  33.757  34.992  1.00  0.00    -0.203 F 
ATOM     65  C   UNL A   1      39.661  34.091  36.820  1.00  0.00     0.198 A 
ATOM     66  C   UNL A   1      38.080  32.387  37.426  1.00  0.00     0.198 A 
ATOM     67  F   UNL A   1      37.996  30.372  36.214  1.00  0.00    -0.203 F 
ATOM     68  F   UNL A   1      40.225  35.284  37.046  1.00  0.00    -0.200 F 
ATOM     69  C   UNL A   1      38.643  33.637  37.645  1.00  0.00     0.200 A 
ATOM     70  F   UNL A   1      37.093  31.951  38.220  1.00  0.00    -0.200 F 
ATOM     71  F   UNL A   1      38.211  34.399  38.658  1.00  0.00    -0.200 F 
ENDBRANCH  47  61
BRANCH  48  72
ATOM     72  C   UNL A   1      42.500  26.552  27.754  1.00  0.00     0.064 A 
ATOM     73  C   UNL A   1      43.500  26.988  26.875  1.00  0.00     0.173 A 
ATOM     74  C   UNL A   1      41.893  25.315  27.493  1.00  0.00     0.173 A 
ATOM     75  F   UNL A   1      44.087  28.180  27.067  1.00  0.00    -0.203 F 
ATOM     76  C   UNL A   1      43.863  26.229  25.764  1.00  0.00     0.198 A 
ATOM     77  C   UNL A   1      42.273  24.545  26.395  1.00  0.00     0.198 A 
ATOM     78  F   UNL A   1      40.924  24.859  28.299  1.00  0.00    -0.203 F 
ATOM     79  F   UNL A   1      44.784  26.694  24.910  1.00  0.00    -0.200 F 
ATOM     80  C   UNL A   1      43.251  25.007  25.528  1.00  0.00     0.200 A 
ATOM     81  F   UNL A   1      41.678  23.366  26.169  1.00  0.00    -0.200 F 
ATOM     82  F   UNL A   1      43.591  24.282  24.452  1.00  0.00    -0.200 F 
ENDBRANCH  48  72
BRANCH  60  83
ATOM     83  C   UNL A   1      44.401  26.790  34.448  1.00  0.00     0.064 A 
ATOM     84  C   UNL A   1      45.704  27.267  34.657  1.00  0.00     0.173 A 
ATOM     85  C   UNL A   1      44.039  25.578  35.054  1.00  0.00     0.173 A 
ATOM     86  F   UNL A   1      46.103  28.415  34.090  1.00  0.00    -0.203 F 
ATOM     87  C   UNL A   1      46.613  26.546  35.428  1.00  0.00     0.198 A 
ATOM     88  C   UNL A   1      44.942  24.873  35.845  1.00  0.00     0.198 A 
ATOM     89  F   UNL A   1      42.802  25.084  34.891  1.00  0.00    -0.203 F 
ATOM     90  F   UNL A   1      47.864  26.999  35.581  1.00  0.00    -0.200 F 
ATOM     91  C   UNL A   1      46.230  25.354  36.026  1.00  0.00     0.200 A 
ATOM     92  F   UNL A   1      44.565  23.731  36.434  1.00  0.00    -0.200 F 
ATOM     93  F   UNL A   1      47.104  24.667  36.774  1.00  0.00    -0.200 F 
ENDBRANCH  60  83
ENDBRANCH  34  35
ENDBRANCH  27  29
ENDBRANCH  26  27
ENDBRANCH  25  26
ENDBRANCH   1  25
TORSDOF 13
ENDMDL
MODEL 2
REMARK VINA RESULT:     -12.7      2.012      3.545
REMARK SMILES O=C(C[C@H]1C(=O)NCC[N@H+]1[C@H]1CCO[C@@]2(CCSC2)C1)OCCOC(=O)c1ccc(-c2c3nc(c(-c4c(F)c(F)c(F)c(F)c4F)c4ccc([nH]4)c(-c4c(F)c(F)c(F)c(F)c4F)c4nc(c(-c5c(F)c(F)c(F)c(F)c5F)c5ccc2[nH]5)C=C4)C=C3)cc1
REMARK SMILES IDX 22 1 21 2 2 3 1 4 3 5 4 6 5 7 10 8 6 9 7 10 9 11 8 13 11 15
REMARK SMILES IDX 12 16 20 17 13 18 15 19 14 20 16 21 19 22 17 23 18 24 23 25
REMARK SMILES IDX 24 26 25 27 26 28 27 29 28 30 89 31 29 32 88 33 30 34 31 35
REMARK SMILES IDX 32 36 82 37 33 38 87 39 81 40 83 41 34 42 86 43 80 44 79 45
REMARK SMILES IDX 35 47 67 48 47 49 66 50 48 51 51 52 65 53 84 54 49 55 50 56
REMARK SMILES IDX 64 58 85 59 52 60 36 61 37 62 45 63 38 64 39 65 43 66 46 67
REMARK SMILES IDX 40 68 41 69 44 70 42 71 68 72 69 73 77 74 70 75 71 76 75 77
REMARK SMILES IDX 78 78 72 79 73 80 76 81 74 82 53 83 54 84 62 85 55 86 56 87
REMARK SMILES IDX 60 88 63 89 57 90 58 91 61 92 59 93
REMARK H PARENT 10 12 7 14 83 46 51 57
REMARK Flexibility Score: inf
ROOT
ATOM      1  C   UNL A   1      31.207  30.713  25.538  1.00  0.00     0.274 C 
ENDROOT
BRANCH   1   2
ATOM      2  O   UNL A   1      32.044  29.546  25.502  1.00  0.00    -0.462 OA
BRANCH   2   3
ATOM      3  C   UNL A   1      31.574  28.293  25.740  1.00  0.00     0.312 C 
ATOM      4  O   UNL A   1      32.063  27.636  26.653  1.00  0.00    -0.252 OA
BRANCH   3   5
ATOM      5  C   UNL A   1      30.617  27.685  24.727  1.00  0.00     0.198 C 
BRANCH   5   6
ATOM      6  C   UNL A   1      31.126  27.328  23.318  1.00  0.00     0.285 C 
ATOM      7  C   UNL A   1      31.022  28.588  22.435  1.00  0.00     0.279 C 
ATOM      8  N   UNL A   1      32.437  26.641  23.149  1.00  0.00    -0.320 N 
ATOM      9  O   UNL A   1      29.943  28.991  22.001  1.00  0.00    -0.268 OA
ATOM     10  N   UNL A   1      32.162  29.320  22.246  1.00  0.00    -0.345 N 
ATOM     11  C   UNL A   1      33.577  27.546  23.308  1.00  0.00     0.284 C 
ATOM     12  H   UNL A   1      32.364  26.381  22.166  1.00  0.00     0.349 HD
ATOM     13  C   UNL A   1      33.487  28.766  22.376  1.00  0.00     0.177 C 
ATOM     14  H   UNL A   1      32.074  30.272  22.009  1.00  0.00     0.163 HD
BRANCH   8  15
ATOM     15  C   UNL A   1      32.649  25.255  23.635  1.00  0.00     0.189 C 
ATOM     16  C   UNL A   1      31.617  24.225  23.159  1.00  0.00     0.093 C 
ATOM     17  C   UNL A   1      34.086  24.720  23.430  1.00  0.00     0.101 C 
ATOM     18  C   UNL A   1      31.926  22.793  23.551  1.00  0.00     0.167 C 
ATOM     19  C   UNL A   1      34.245  23.250  23.897  1.00  0.00     0.084 C 
ATOM     20  O   UNL A   1      33.264  22.455  23.208  1.00  0.00    -0.374 OA
ATOM     21  C   UNL A   1      35.617  22.674  23.506  1.00  0.00     0.047 C 
ATOM     22  C   UNL A   1      34.155  23.024  25.419  1.00  0.00     0.105 C 
ATOM     23  C   UNL A   1      36.659  23.165  24.496  1.00  0.00     0.072 C 
ATOM     24  S   UNL A   1      35.820  23.231  26.096  1.00  0.00    -0.159 SA
ENDBRANCH   8  15
ENDBRANCH   5   6
ENDBRANCH   3   5
ENDBRANCH   2   3
ENDBRANCH   1   2
BRANCH   1  25
ATOM     25  C   UNL A   1      31.590  31.685  26.656  1.00  0.00     0.275 C 
BRANCH  25  26
ATOM     26  O   UNL A   1      32.842  31.295  27.242  1.00  0.00    -0.458 OA
BRANCH  26  27
ATOM     27  C   UNL A   1      33.580  32.335  27.712  1.00  0.00     0.338 C 
ATOM     28  O   UNL A   1      33.171  33.440  27.992  1.00  0.00    -0.246 OA
BRANCH  27  29
ATOM     29  C   UNL A   1      34.962  31.884  28.004  1.00  0.00     0.060 A 
ATOM     30  C   UNL A   1      35.145  30.509  28.188  1.00  0.00     0.016 A 
ATOM     31  C   UNL A   1      36.052  32.757  28.103  1.00  0.00     0.016 A 
ATOM     32  C   UNL A   1      36.392  30.012  28.558  1.00  0.00     0.010 A 
ATOM     33  C   UNL A   1      37.308  32.256  28.471  1.00  0.00     0.010 A 
ATOM     34  C   UNL A   1      37.466  30.889  28.755  1.00  0.00    -0.014 A 
BRANCH  34  35
ATOM     35  C   UNL A   1      38.656  30.378  29.479  1.00  0.00     0.031 A 
ATOM     36  C   UNL A   1      38.856  30.803  30.909  1.00  0.00     0.074 A 
ATOM     37  C   UNL A   1      39.481  29.470  28.929  1.00  0.00     0.049 A 
ATOM     38  N   UNL A   1      39.709  30.364  31.799  1.00  0.00    -0.248 NA
ATOM     39  C   UNL A   1      37.962  31.862  31.408  1.00  0.00     0.031 C 
ATOM     40  C   UNL A   1      39.385  28.953  27.566  1.00  0.00     0.029 A 
ATOM     41  N   UNL A   1      40.554  28.805  29.470  1.00  0.00    -0.354 N 
ATOM     42  C   UNL A   1      39.434  31.068  32.963  1.00  0.00     0.074 A 
ATOM     43  C   UNL A   1      38.377  32.006  32.655  1.00  0.00     0.031 C 
ATOM     44  C   UNL A   1      40.358  28.041  27.380  1.00  0.00     0.029 A 
ATOM     45  C   UNL A   1      41.140  27.912  28.609  1.00  0.00     0.049 A 
ATOM     46  H   UNL A   1      40.872  28.956  30.390  1.00  0.00     0.167 HD
ATOM     47  C   UNL A   1      39.990  30.929  34.189  1.00  0.00     0.037 A 
ATOM     48  C   UNL A   1      42.181  27.077  28.800  1.00  0.00     0.037 A 
ATOM     49  C   UNL A   1      41.049  30.010  34.504  1.00  0.00     0.049 A 
ATOM     50  C   UNL A   1      42.840  27.001  30.154  1.00  0.00     0.074 A 
ATOM     51  C   UNL A   1      41.667  29.788  35.722  1.00  0.00     0.029 A 
ATOM     52  N   UNL A   1      41.655  29.167  33.586  1.00  0.00    -0.354 N 
ATOM     53  N   UNL A   1      42.527  27.620  31.268  1.00  0.00    -0.248 NA
ATOM     54  C   UNL A   1      43.990  26.093  30.280  1.00  0.00     0.031 C 
ATOM     55  C   UNL A   1      42.681  28.844  35.530  1.00  0.00     0.029 A 
ATOM     56  C   UNL A   1      42.663  28.445  34.203  1.00  0.00     0.049 A 
ATOM     57  H   UNL A   1      41.406  29.092  32.636  1.00  0.00     0.167 HD
ATOM     58  C   UNL A   1      43.414  27.150  32.229  1.00  0.00     0.074 A 
ATOM     59  C   UNL A   1      44.275  26.190  31.571  1.00  0.00     0.031 C 
ATOM     60  C   UNL A   1      43.503  27.482  33.540  1.00  0.00     0.037 A 
BRANCH  47  61
ATOM     61  C   UNL A   1      39.462  31.808  35.281  1.00  0.00     0.064 A 
ATOM     62  C   UNL A   1      38.526  31.333  36.212  1.00  0.00     0.173 A 
ATOM     63  C   UNL A   1      39.902  33.133  35.406  1.00  0.00     0.173 A 
ATOM     64  F   UNL A   1      38.060  30.078  36.123  1.00  0.00    -0.203 F 
ATOM     65  C   UNL A   1      38.031  32.162  37.216  1.00  0.00     0.198 A 
ATOM     66  C   UNL A   1      39.424  33.952  36.424  1.00  0.00     0.198 A 
ATOM     67  F   UNL A   1      40.795  33.633  34.539  1.00  0.00    -0.203 F 
ATOM     68  F   UNL A   1      37.103  31.703  38.066  1.00  0.00    -0.200 F 
ATOM     69  C   UNL A   1      38.484  33.469  37.324  1.00  0.00     0.200 A 
ATOM     70  F   UNL A   1      39.866  35.212  36.533  1.00  0.00    -0.200 F 
ATOM     71  F   UNL A   1      38.008  34.266  38.289  1.00  0.00    -0.200 F 
ENDBRANCH  47  61
BRANCH  48  72
ATOM     72  C   UNL A   1      42.661  26.219  27.686  1.00  0.00     0.064 A 
ATOM     73  C   UNL A   1      43.660  26.660  26.809  1.00  0.00     0.173 A 
ATOM     74  C   UNL A   1      42.094  24.958  27.451  1.00  0.00     0.173 A 
ATOM     75  F   UNL A   1      44.208  27.874  26.976  1.00  0.00    -0.203 F 
ATOM     76  C   UNL A   1      44.061  25.883  25.725  1.00  0.00     0.198 A 
ATOM     77  C   UNL A   1      42.512  24.170  26.380  1.00  0.00     0.198 A 
ATOM     78  F   UNL A   1      41.128  24.494  28.256  1.00  0.00    -0.203 F 
ATOM     79  F   UNL A   1      44.980  26.353  24.870  1.00  0.00    -0.200 F 
ATOM     80  C   UNL A   1      43.489  24.637  25.513  1.00  0.00     0.200 A 
ATOM     81  F   UNL A   1      41.957  22.968  26.178  1.00  0.00    -0.200 F 
ATOM     82  F   UNL A   1      43.866  23.895  24.463  1.00  0.00    -0.200 F 
ENDBRANCH  48  72
BRANCH  60  83
ATOM     83  C   UNL A   1      44.543  26.781  34.366  1.00  0.00     0.064 A 
ATOM     84  C   UNL A   1      45.822  27.325  34.555  1.00  0.00     0.173 A 
ATOM     85  C   UNL A   1      44.239  25.576  35.017  1.00  0.00     0.173 A 
ATOM     86  F   UNL A   1      46.166  28.469  33.945  1.00  0.00    -0.203 F 
ATOM     87  C   UNL A   1      46.764  26.676  35.349  1.00  0.00     0.198 A 
ATOM     88  C   UNL A   1      45.174  24.944  35.831  1.00  0.00     0.198 A 
ATOM     89  F   UNL A   1      43.026  25.018  34.875  1.00  0.00    -0.203 F 
ATOM     90  F   UNL A   1      47.993  27.193  35.483  1.00  0.00    -0.200 F 
ATOM     91  C   UNL A   1      46.438  25.491  35.992  1.00  0.00     0.200 A 
ATOM     92  F   UNL A   1      44.852  23.807  36.462  1.00  0.00    -0.200 F 
ATOM     93  F   UNL A   1      47.344  24.873  36.762  1.00  0.00    -0.200 F 
ENDBRANCH  60  83
ENDBRANCH  34  35
ENDBRANCH  27  29
ENDBRANCH  26  27
ENDBRANCH  25  26
ENDBRANCH   1  25
TORSDOF 13
ENDMDL
MODEL 3
REMARK VINA RESULT:     -12.5      2.058      3.757
REMARK SMILES O=C(C[C@H]1C(=O)NCC[N@H+]1[C@H]1CCO[C@@]2(CCSC2)C1)OCCOC(=O)c1ccc(-c2c3nc(c(-c4c(F)c(F)c(F)c(F)c4F)c4ccc([nH]4)c(-c4c(F)c(F)c(F)c(F)c4F)c4nc(c(-c5c(F)c(F)c(F)c(F)c5F)c5ccc2[nH]5)C=C4)C=C3)cc1
REMARK SMILES IDX 22 1 21 2 2 3 1 4 3 5 4 6 5 7 10 8 6 9 7 10 9 11 8 13 11 15
REMARK SMILES IDX 12 16 20 17 13 18 15 19 14 20 16 21 19 22 17 23 18 24 23 25
REMARK SMILES IDX 24 26 25 27 26 28 27 29 28 30 89 31 29 32 88 33 30 34 31 35
REMARK SMILES IDX 32 36 82 37 33 38 87 39 81 40 83 41 34 42 86 43 80 44 79 45
REMARK SMILES IDX 35 47 67 48 47 49 66 50 48 51 51 52 65 53 84 54 49 55 50 56
REMARK SMILES IDX 64 58 85 59 52 60 36 61 37 62 45 63 38 64 39 65 43 66 46 67
REMARK SMILES IDX 40 68 41 69 44 70 42 71 68 72 69 73 77 74 70 75 71 76 75 77
REMARK SMILES IDX 78 78 72 79 73 80 76 81 74 82 53 83 54 84 62 85 55 86 56 87
REMARK SMILES IDX 60 88 63 89 57 90 58 91 61 92 59 93
REMARK H PARENT 10 12 7 14 83 46 51 57
REMARK Flexibility Score: inf
ROOT
ATOM      1  C   UNL A   1      31.439  31.257  26.219  1.00  0.00     0.274 C 
ENDROOT
BRANCH   1   2
ATOM      2  O   UNL A   1      32.566  30.370  26.133  1.00  0.00    -0.462 OA
BRANCH   2   3
ATOM      3  C   UNL A   1      32.532  29.088  26.582  1.00  0.00     0.312 C 
ATOM      4  O   UNL A   1      33.484  28.655  27.223  1.00  0.00    -0.252 OA
BRANCH   3   5
ATOM      5  C   UNL A   1      31.414  28.186  26.082  1.00  0.00     0.198 C 
BRANCH   5   6
ATOM      6  C   UNL A   1      31.485  27.605  24.659  1.00  0.00     0.285 C 
ATOM      7  C   UNL A   1      31.067  28.710  23.666  1.00  0.00     0.279 C 
ATOM      8  N   UNL A   1      32.708  26.887  24.203  1.00  0.00    -0.320 N 
ATOM      9  O   UNL A   1      29.892  29.049  23.527  1.00  0.00    -0.268 OA
ATOM     10  N   UNL A   1      32.065  29.391  23.026  1.00  0.00    -0.345 N 
ATOM     11  C   UNL A   1      33.806  27.794  23.863  1.00  0.00     0.284 C 
ATOM     12  H   UNL A   1      32.349  26.474  23.343  1.00  0.00     0.349 HD
ATOM     13  C   UNL A   1      33.388  28.852  22.828  1.00  0.00     0.177 C 
ATOM     14  H   UNL A   1      31.872  30.294  22.684  1.00  0.00     0.163 HD
BRANCH   8  15
ATOM     15  C   UNL A   1      33.111  25.594  24.808  1.00  0.00     0.189 C 
ATOM     16  C   UNL A   1      31.959  24.670  25.221  1.00  0.00     0.093 C 
ATOM     17  C   UNL A   1      34.170  24.811  23.994  1.00  0.00     0.101 C 
ATOM     18  C   UNL A   1      32.389  23.300  25.708  1.00  0.00     0.167 C 
ATOM     19  C   UNL A   1      34.516  23.441  24.632  1.00  0.00     0.084 C 
ATOM     20  O   UNL A   1      33.293  22.701  24.790  1.00  0.00    -0.374 OA
ATOM     21  C   UNL A   1      35.414  22.596  23.712  1.00  0.00     0.047 C 
ATOM     22  C   UNL A   1      35.288  23.506  25.964  1.00  0.00     0.105 C 
ATOM     23  C   UNL A   1      36.847  23.086  23.835  1.00  0.00     0.072 C 
ATOM     24  S   UNL A   1      37.052  23.566  25.567  1.00  0.00    -0.159 SA
ENDBRANCH   8  15
ENDBRANCH   5   6
ENDBRANCH   3   5
ENDBRANCH   2   3
ENDBRANCH   1   2
BRANCH   1  25
ATOM     25  C   UNL A   1      31.792  32.606  26.849  1.00  0.00     0.275 C 
BRANCH  25  26
ATOM     26  O   UNL A   1      32.692  32.417  27.952  1.00  0.00    -0.458 OA
BRANCH  26  27
ATOM     27  C   UNL A   1      33.632  33.391  28.072  1.00  0.00     0.338 C 
ATOM     28  O   UNL A   1      33.429  34.584  28.125  1.00  0.00    -0.246 OA
BRANCH  27  29
ATOM     29  C   UNL A   1      34.964  32.783  28.304  1.00  0.00     0.060 A 
ATOM     30  C   UNL A   1      34.985  31.416  28.602  1.00  0.00     0.016 A 
ATOM     31  C   UNL A   1      36.162  33.506  28.241  1.00  0.00     0.016 A 
ATOM     32  C   UNL A   1      36.185  30.789  28.926  1.00  0.00     0.010 A 
ATOM     33  C   UNL A   1      37.370  32.873  28.562  1.00  0.00     0.010 A 
ATOM     34  C   UNL A   1      37.376  31.526  28.961  1.00  0.00    -0.014 A 
BRANCH  34  35
ATOM     35  C   UNL A   1      38.547  30.921  29.641  1.00  0.00     0.031 A 
ATOM     36  C   UNL A   1      38.796  31.278  31.082  1.00  0.00     0.074 A 
ATOM     37  C   UNL A   1      39.309  29.990  29.040  1.00  0.00     0.049 A 
ATOM     38  N   UNL A   1      39.638  30.757  31.937  1.00  0.00    -0.248 NA
ATOM     39  C   UNL A   1      37.973  32.365  31.638  1.00  0.00     0.031 C 
ATOM     40  C   UNL A   1      39.160  29.534  27.661  1.00  0.00     0.029 A 
ATOM     41  N   UNL A   1      40.352  29.246  29.535  1.00  0.00    -0.354 N 
ATOM     42  C   UNL A   1      39.425  31.430  33.132  1.00  0.00     0.074 A 
ATOM     43  C   UNL A   1      38.418  32.436  32.882  1.00  0.00     0.031 C 
ATOM     44  C   UNL A   1      40.076  28.576  27.421  1.00  0.00     0.029 A 
ATOM     45  C   UNL A   1      40.871  28.355  28.628  1.00  0.00     0.049 A 
ATOM     46  H   UNL A   1      40.695  29.342  30.452  1.00  0.00     0.167 HD
ATOM     47  C   UNL A   1      39.994  31.212  34.341  1.00  0.00     0.037 A 
ATOM     48  C   UNL A   1      41.866  27.456  28.766  1.00  0.00     0.037 A 
ATOM     49  C   UNL A   1      41.004  30.224  34.599  1.00  0.00     0.049 A 
ATOM     50  C   UNL A   1      42.543  27.291  30.103  1.00  0.00     0.074 A 
ATOM     51  C   UNL A   1      41.630  29.920  35.795  1.00  0.00     0.029 A 
ATOM     52  N   UNL A   1      41.545  29.384  33.638  1.00  0.00    -0.354 N 
ATOM     53  N   UNL A   1      42.286  27.882  31.246  1.00  0.00    -0.248 NA
ATOM     54  C   UNL A   1      43.643  26.316  30.172  1.00  0.00     0.031 C 
ATOM     55  C   UNL A   1      42.586  28.928  35.547  1.00  0.00     0.029 A 
ATOM     56  C   UNL A   1      42.521  28.584  34.207  1.00  0.00     0.049 A 
ATOM     57  H   UNL A   1      41.275  29.361  32.692  1.00  0.00     0.167 HD
ATOM     58  C   UNL A   1      43.162  27.327  32.170  1.00  0.00     0.074 A 
ATOM     59  C   UNL A   1      43.955  26.347  31.460  1.00  0.00     0.031 C 
ATOM     60  C   UNL A   1      43.293  27.601  33.492  1.00  0.00     0.037 A 
BRANCH  47  61
ATOM     61  C   UNL A   1      39.535  32.076  35.475  1.00  0.00     0.064 A 
ATOM     62  C   UNL A   1      40.074  33.356  35.682  1.00  0.00     0.173 A 
ATOM     63  C   UNL A   1      38.542  31.629  36.357  1.00  0.00     0.173 A 
ATOM     64  F   UNL A   1      41.040  33.821  34.875  1.00  0.00    -0.203 F 
ATOM     65  C   UNL A   1      39.650  34.147  36.747  1.00  0.00     0.198 A 
ATOM     66  C   UNL A   1      38.103  32.431  37.406  1.00  0.00     0.198 A 
ATOM     67  F   UNL A   1      37.998  30.412  36.202  1.00  0.00    -0.203 F 
ATOM     68  F   UNL A   1      40.210  35.346  36.953  1.00  0.00    -0.200 F 
ATOM     69  C   UNL A   1      38.662  33.686  37.605  1.00  0.00     0.200 A 
ATOM     70  F   UNL A   1      37.146  31.988  38.232  1.00  0.00    -0.200 F 
ATOM     71  F   UNL A   1      38.256  34.447  38.629  1.00  0.00    -0.200 F 
ENDBRANCH  47  61
BRANCH  48  72
ATOM     72  C   UNL A   1      42.277  26.617  27.612  1.00  0.00     0.064 A 
ATOM     73  C   UNL A   1      41.679  25.373  27.370  1.00  0.00     0.173 A 
ATOM     74  C   UNL A   1      43.309  27.025  26.754  1.00  0.00     0.173 A 
ATOM     75  F   UNL A   1      40.709  24.927  28.184  1.00  0.00    -0.203 F 
ATOM     76  C   UNL A   1      42.112  24.557  26.327  1.00  0.00     0.198 A 
ATOM     77  C   UNL A   1      43.726  26.218  25.697  1.00  0.00     0.198 A 
ATOM     78  F   UNL A   1      43.919  28.202  26.950  1.00  0.00    -0.203 F 
ATOM     79  F   UNL A   1      41.560  23.349  26.152  1.00  0.00    -0.200 F 
ATOM     80  C   UNL A   1      43.133  24.982  25.490  1.00  0.00     0.200 A 
ATOM     81  F   UNL A   1      44.713  26.631  24.891  1.00  0.00    -0.200 F 
ATOM     82  F   UNL A   1      43.558  24.191  24.495  1.00  0.00    -0.200 F 
ENDBRANCH  48  72
BRANCH  60  83
ATOM     83  C   UNL A   1      44.307  26.811  34.269  1.00  0.00     0.064 A 
ATOM     84  C   UNL A   1      43.985  25.578  34.854  1.00  0.00     0.173 A 
ATOM     85  C   UNL A   1      45.628  27.270  34.384  1.00  0.00     0.173 A 
ATOM     86  F   UNL A   1      42.734  25.100  34.781  1.00  0.00    -0.203 F 
ATOM     87  C   UNL A   1      44.946  24.843  35.545  1.00  0.00     0.198 A 
ATOM     88  C   UNL A   1      46.592  26.521  35.053  1.00  0.00     0.198 A 
ATOM     89  F   UNL A   1      45.987  28.440  33.835  1.00  0.00    -0.203 F 
ATOM     90  F   UNL A   1      44.608  23.687  36.131  1.00  0.00    -0.200 F 
ATOM     91  C   UNL A   1      46.249  25.311  35.638  1.00  0.00     0.200 A 
ATOM     92  F   UNL A   1      47.852  26.968  35.129  1.00  0.00    -0.200 F 
ATOM     93  F   UNL A   1      47.173  24.598  36.296  1.00  0.00    -0.200 F 
ENDBRANCH  60  83
ENDBRANCH  34  35
ENDBRANCH  27  29
ENDBRANCH  26  27
ENDBRANCH  25  26
ENDBRANCH   1  25
TORSDOF 13
ENDMDL
