MODEL 1
REMARK VINA RESULT:     -12.5      0.000      0.000
REMARK SMILES Cc1ccc(Cl)cc1NC(=O)N[C@@](C)(C(=O)OCCOC(=O)c1ccc(-c2c3nc(c(-c4c(F)c(F)c(F)c(F)c4F)c4ccc([nH]4)c(-c4c(F)c(F)c(F)c(F)c4F)c4nc(c(-c5c(F)c(F)c(F)c(F)c5F)c5ccc2[nH]5)C=C4)C=C3)cc1)C(F)(F)F
REMARK SMILES IDX 18 1 17 2 15 3 16 4 13 5 14 6 12 7 9 8 10 9 11 11 8 13 1 14
REMARK SMILES IDX 2 15 3 16 4 17 7 18 5 19 6 20 86 21 87 22 88 23 89 24 19 25
REMARK SMILES IDX 20 26 21 27 22 28 23 29 24 30 85 31 25 32 84 33 26 34 27 35
REMARK SMILES IDX 28 36 78 37 29 38 83 39 77 40 79 41 30 42 82 43 76 44 75 45
REMARK SMILES IDX 31 47 63 48 43 49 62 50 44 51 47 52 61 53 80 54 45 55 46 56
REMARK SMILES IDX 60 58 81 59 48 60 32 61 33 62 41 63 34 64 35 65 39 66 42 67
REMARK SMILES IDX 36 68 37 69 40 70 38 71 64 72 65 73 73 74 66 75 67 76 71 77
REMARK SMILES IDX 74 78 68 79 69 80 72 81 70 82 49 83 50 84 58 85 51 86 52 87
REMARK SMILES IDX 56 88 59 89 53 90 54 91 57 92 55 93
REMARK H PARENT 9 10 12 12 79 46 47 57
REMARK Flexibility Score: inf
ROOT
ATOM      1  C   UNL A   1      31.136  28.923  24.661  1.00  0.00     0.274 C 
ENDROOT
BRANCH   1   2
ATOM      2  O   UNL A   1      31.257  27.542  25.071  1.00  0.00    -0.460 OA
BRANCH   2   3
ATOM      3  C   UNL A   1      31.489  26.706  24.012  1.00  0.00     0.341 C 
ATOM      4  O   UNL A   1      31.190  26.995  22.857  1.00  0.00    -0.249 OA
BRANCH   3   5
ATOM      5  C   UNL A   1      32.357  25.491  24.392  1.00  0.00     0.232 C 
ATOM      6  C   UNL A   1      32.102  24.440  23.299  1.00  0.00     0.058 C 
BRANCH   5   7
ATOM      7  N   UNL A   1      31.892  24.932  25.701  1.00  0.00    -0.314 N 
ATOM      8  N   UNL A   1      33.216  23.167  26.678  1.00  0.00    -0.308 N 
ATOM      9  C   UNL A   1      32.133  23.936  26.547  1.00  0.00     0.320 C 
ATOM     10  H   UNL A   1      33.136  22.597  27.478  1.00  0.00     0.171 HD
ATOM     11  O   UNL A   1      31.260  23.778  27.413  1.00  0.00    -0.248 OA
ATOM     12  H   UNL A   1      31.161  25.489  26.053  1.00  0.00     0.166 HD
BRANCH   8  13
ATOM     13  C   UNL A   1      34.432  22.922  26.027  1.00  0.00     0.047 A 
ATOM     14  C   UNL A   1      33.241  21.368  24.342  1.00  0.00     0.046 C 
ATOM     15  C   UNL A   1      34.460  22.025  24.933  1.00  0.00    -0.027 A 
ATOM     16  C   UNL A   1      35.693  21.711  24.326  1.00  0.00     0.007 A 
ATOM     17  C   UNL A   1      36.869  22.321  24.745  1.00  0.00     0.021 A 
ATOM     18  C   UNL A   1      35.597  23.604  26.359  1.00  0.00     0.047 A 
ATOM     19  C   UNL A   1      36.808  23.296  25.731  1.00  0.00     0.043 A 
ATOM     20  Cl  UNL A   1      38.246  24.126  26.192  1.00  0.00    -0.084 Cl
ENDBRANCH   8  13
ENDBRANCH   5   7
BRANCH   5  21
ATOM     21  C   UNL A   1      33.762  26.113  24.327  1.00  0.00     0.422 C 
ATOM     22  F   UNL A   1      34.184  26.503  25.549  1.00  0.00    -0.168 F 
ATOM     23  F   UNL A   1      34.679  25.254  23.835  1.00  0.00    -0.168 F 
ATOM     24  F   UNL A   1      33.852  27.216  23.543  1.00  0.00    -0.168 F 
ENDBRANCH   5  21
ENDBRANCH   3   5
ENDBRANCH   2   3
ENDBRANCH   1   2
BRANCH   1  25
ATOM     25  C   UNL A   1      32.357  29.729  25.098  1.00  0.00     0.275 C 
BRANCH  25  26
ATOM     26  O   UNL A   1      32.343  29.875  26.531  1.00  0.00    -0.458 OA
BRANCH  26  27
ATOM     27  C   UNL A   1      32.897  31.019  27.003  1.00  0.00     0.338 C 
ATOM     28  O   UNL A   1      32.351  32.105  27.098  1.00  0.00    -0.246 OA
BRANCH  27  29
ATOM     29  C   UNL A   1      34.292  30.792  27.449  1.00  0.00     0.060 A 
ATOM     30  C   UNL A   1      34.786  29.508  27.649  1.00  0.00     0.016 A 
ATOM     31  C   UNL A   1      35.081  31.884  27.807  1.00  0.00     0.016 A 
ATOM     32  C   UNL A   1      35.979  29.310  28.351  1.00  0.00     0.010 A 
ATOM     33  C   UNL A   1      36.342  31.681  28.382  1.00  0.00     0.010 A 
ATOM     34  C   UNL A   1      36.790  30.391  28.724  1.00  0.00    -0.014 A 
BRANCH  34  35
ATOM     35  C   UNL A   1      38.051  30.211  29.519  1.00  0.00     0.031 A 
ATOM     36  C   UNL A   1      39.188  29.390  28.951  1.00  0.00     0.074 A 
ATOM     37  C   UNL A   1      38.223  30.759  30.741  1.00  0.00     0.049 A 
ATOM     38  N   UNL A   1      40.206  28.837  29.564  1.00  0.00    -0.248 NA
ATOM     39  C   UNL A   1      39.167  29.144  27.500  1.00  0.00     0.031 C 
ATOM     40  C   UNL A   1      37.279  31.636  31.431  1.00  0.00     0.029 A 
ATOM     41  N   UNL A   1      39.272  30.649  31.630  1.00  0.00    -0.354 N 
ATOM     42  C   UNL A   1      40.876  28.094  28.598  1.00  0.00     0.074 A 
ATOM     43  C   UNL A   1      40.174  28.296  27.349  1.00  0.00     0.031 C 
ATOM     44  C   UNL A   1      37.807  32.028  32.600  1.00  0.00     0.029 A 
ATOM     45  C   UNL A   1      39.070  31.328  32.808  1.00  0.00     0.049 A 
ATOM     46  H   UNL A   1      40.087  30.134  31.438  1.00  0.00     0.167 HD
ATOM     47  C   UNL A   1      41.967  27.304  28.744  1.00  0.00     0.037 A 
ATOM     48  C   UNL A   1      39.772  31.339  33.958  1.00  0.00     0.037 A 
ATOM     49  C   UNL A   1      42.734  27.183  29.957  1.00  0.00     0.049 A 
ATOM     50  C   UNL A   1      40.980  30.457  34.104  1.00  0.00     0.074 A 
ATOM     51  C   UNL A   1      43.865  26.418  30.192  1.00  0.00     0.029 A 
ATOM     52  N   UNL A   1      42.469  27.873  31.129  1.00  0.00    -0.354 N 
ATOM     53  N   UNL A   1      41.528  29.654  33.227  1.00  0.00    -0.248 NA
ATOM     54  C   UNL A   1      41.640  30.452  35.419  1.00  0.00     0.031 C 
ATOM     55  C   UNL A   1      44.273  26.631  31.515  1.00  0.00     0.029 A 
ATOM     56  C   UNL A   1      43.416  27.555  32.089  1.00  0.00     0.049 A 
ATOM     57  H   UNL A   1      41.720  28.498  31.260  1.00  0.00     0.167 HD
ATOM     58  C   UNL A   1      42.593  29.049  33.881  1.00  0.00     0.074 A 
ATOM     59  C   UNL A   1      42.634  29.597  35.220  1.00  0.00     0.031 C 
ATOM     60  C   UNL A   1      43.451  28.108  33.417  1.00  0.00     0.037 A 
BRANCH  47  61
ATOM     61  C   UNL A   1      42.385  26.461  27.573  1.00  0.00     0.064 A 
ATOM     62  C   UNL A   1      43.414  26.844  26.704  1.00  0.00     0.173 A 
ATOM     63  C   UNL A   1      41.771  25.216  27.359  1.00  0.00     0.173 A 
ATOM     64  F   UNL A   1      44.021  28.030  26.859  1.00  0.00    -0.203 F 
ATOM     65  C   UNL A   1      43.804  26.018  25.652  1.00  0.00     0.198 A 
ATOM     66  C   UNL A   1      42.181  24.382  26.323  1.00  0.00     0.198 A 
ATOM     67  F   UNL A   1      40.785  24.800  28.168  1.00  0.00    -0.203 F 
ATOM     68  F   UNL A   1      44.767  26.418  24.811  1.00  0.00    -0.200 F 
ATOM     69  C   UNL A   1      43.194  24.785  25.467  1.00  0.00     0.200 A 
ATOM     70  F   UNL A   1      41.600  23.185  26.157  1.00  0.00    -0.200 F 
ATOM     71  F   UNL A   1      43.581  23.987  24.463  1.00  0.00    -0.200 F 
ENDBRANCH  47  61
BRANCH  48  72
ATOM     72  C   UNL A   1      39.302  32.165  35.103  1.00  0.00     0.064 A 
ATOM     73  C   UNL A   1      38.515  31.605  36.119  1.00  0.00     0.173 A 
ATOM     74  C   UNL A   1      39.628  33.526  35.205  1.00  0.00     0.173 A 
ATOM     75  F   UNL A   1      38.149  30.317  36.047  1.00  0.00    -0.203 F 
ATOM     76  C   UNL A   1      38.069  32.376  37.191  1.00  0.00     0.198 A 
ATOM     77  C   UNL A   1      39.211  34.286  36.295  1.00  0.00     0.198 A 
ATOM     78  F   UNL A   1      40.372  34.112  34.256  1.00  0.00    -0.203 F 
ATOM     79  F   UNL A   1      37.284  31.826  38.127  1.00  0.00    -0.200 F 
ATOM     80  C   UNL A   1      38.426  33.713  37.283  1.00  0.00     0.200 A 
ATOM     81  F   UNL A   1      39.571  35.573  36.387  1.00  0.00    -0.200 F 
ATOM     82  F   UNL A   1      38.009  34.449  38.321  1.00  0.00    -0.200 F 
ENDBRANCH  48  72
BRANCH  60  83
ATOM     83  C   UNL A   1      44.522  27.633  34.351  1.00  0.00     0.064 A 
ATOM     84  C   UNL A   1      44.333  26.508  35.166  1.00  0.00     0.173 A 
ATOM     85  C   UNL A   1      45.758  28.292  34.412  1.00  0.00     0.173 A 
ATOM     86  F   UNL A   1      43.162  25.854  35.154  1.00  0.00    -0.203 F 
ATOM     87  C   UNL A   1      45.339  26.072  36.025  1.00  0.00     0.198 A 
ATOM     88  C   UNL A   1      46.768  27.840  35.256  1.00  0.00     0.198 A 
ATOM     89  F   UNL A   1      45.986  29.372  33.650  1.00  0.00    -0.203 F 
ATOM     90  F   UNL A   1      45.124  25.019  36.826  1.00  0.00    -0.200 F 
ATOM     91  C   UNL A   1      46.556  26.734  36.066  1.00  0.00     0.200 A 
ATOM     92  F   UNL A   1      47.947  28.477  35.289  1.00  0.00    -0.200 F 
ATOM     93  F   UNL A   1      47.523  26.313  36.893  1.00  0.00    -0.200 F 
ENDBRANCH  60  83
ENDBRANCH  34  35
ENDBRANCH  27  29
ENDBRANCH  26  27
ENDBRANCH  25  26
ENDBRANCH   1  25
TORSDOF 14
ENDMDL
MODEL 2
REMARK VINA RESULT:     -12.5      0.101      1.595
REMARK SMILES Cc1ccc(Cl)cc1NC(=O)N[C@@](C)(C(=O)OCCOC(=O)c1ccc(-c2c3nc(c(-c4c(F)c(F)c(F)c(F)c4F)c4ccc([nH]4)c(-c4c(F)c(F)c(F)c(F)c4F)c4nc(c(-c5c(F)c(F)c(F)c(F)c5F)c5ccc2[nH]5)C=C4)C=C3)cc1)C(F)(F)F
REMARK SMILES IDX 18 1 17 2 15 3 16 4 13 5 14 6 12 7 9 8 10 9 11 11 8 13 1 14
REMARK SMILES IDX 2 15 3 16 4 17 7 18 5 19 6 20 86 21 87 22 88 23 89 24 19 25
REMARK SMILES IDX 20 26 21 27 22 28 23 29 24 30 85 31 25 32 84 33 26 34 27 35
REMARK SMILES IDX 28 36 78 37 29 38 83 39 77 40 79 41 30 42 82 43 76 44 75 45
REMARK SMILES IDX 31 47 63 48 43 49 62 50 44 51 47 52 61 53 80 54 45 55 46 56
REMARK SMILES IDX 60 58 81 59 48 60 32 61 33 62 41 63 34 64 35 65 39 66 42 67
REMARK SMILES IDX 36 68 37 69 40 70 38 71 64 72 65 73 73 74 66 75 67 76 71 77
REMARK SMILES IDX 74 78 68 79 69 80 72 81 70 82 49 83 50 84 58 85 51 86 52 87
REMARK SMILES IDX 56 88 59 89 53 90 54 91 57 92 55 93
REMARK H PARENT 9 10 12 12 79 46 47 57
REMARK Flexibility Score: inf
ROOT
ATOM      1  C   UNL A   1      31.043  28.818  24.676  1.00  0.00     0.274 C 
ENDROOT
BRANCH   1   2
ATOM      2  O   UNL A   1      31.262  27.466  25.139  1.00  0.00    -0.460 OA
BRANCH   2   3
ATOM      3  C   UNL A   1      31.477  26.593  24.107  1.00  0.00     0.341 C 
ATOM      4  O   UNL A   1      31.136  26.830  22.951  1.00  0.00    -0.249 OA
BRANCH   3   5
ATOM      5  C   UNL A   1      32.382  25.412  24.506  1.00  0.00     0.232 C 
ATOM      6  C   UNL A   1      32.199  24.356  23.403  1.00  0.00     0.058 C 
BRANCH   5   7
ATOM      7  N   UNL A   1      31.905  24.829  25.800  1.00  0.00    -0.314 N 
ATOM      8  N   UNL A   1      33.226  23.053  26.763  1.00  0.00    -0.308 N 
ATOM      9  C   UNL A   1      32.141  23.820  26.632  1.00  0.00     0.320 C 
ATOM     10  H   UNL A   1      33.140  22.471  27.552  1.00  0.00     0.171 HD
ATOM     11  O   UNL A   1      31.259  23.644  27.485  1.00  0.00    -0.248 OA
ATOM     12  H   UNL A   1      31.167  25.377  26.153  1.00  0.00     0.166 HD
BRANCH   8  13
ATOM     13  C   UNL A   1      34.450  22.825  26.122  1.00  0.00     0.047 A 
ATOM     14  C   UNL A   1      33.316  21.163  24.502  1.00  0.00     0.046 C 
ATOM     15  C   UNL A   1      34.511  21.886  25.066  1.00  0.00    -0.027 A 
ATOM     16  C   UNL A   1      35.754  21.590  24.471  1.00  0.00     0.007 A 
ATOM     17  C   UNL A   1      36.908  22.258  24.864  1.00  0.00     0.021 A 
ATOM     18  C   UNL A   1      35.591  23.561  26.425  1.00  0.00     0.047 A 
ATOM     19  C   UNL A   1      36.812  23.270  25.810  1.00  0.00     0.043 A 
ATOM     20  Cl  UNL A   1      38.220  24.167  26.235  1.00  0.00    -0.084 Cl
ENDBRANCH   8  13
ENDBRANCH   5   7
BRANCH   5  21
ATOM     21  C   UNL A   1      33.762  26.090  24.481  1.00  0.00     0.422 C 
ATOM     22  F   UNL A   1      34.121  26.521  25.709  1.00  0.00    -0.168 F 
ATOM     23  F   UNL A   1      34.733  25.259  24.044  1.00  0.00    -0.168 F 
ATOM     24  F   UNL A   1      33.839  27.178  23.676  1.00  0.00    -0.168 F 
ENDBRANCH   5  21
ENDBRANCH   3   5
ENDBRANCH   2   3
ENDBRANCH   1   2
BRANCH   1  25
ATOM     25  C   UNL A   1      32.219  29.718  25.049  1.00  0.00     0.275 C 
BRANCH  25  26
ATOM     26  O   UNL A   1      32.355  29.754  26.482  1.00  0.00    -0.458 OA
BRANCH  26  27
ATOM     27  C   UNL A   1      32.880  30.897  26.987  1.00  0.00     0.338 C 
ATOM     28  O   UNL A   1      32.309  31.968  27.108  1.00  0.00    -0.246 OA
BRANCH  27  29
ATOM     29  C   UNL A   1      34.278  30.691  27.432  1.00  0.00     0.060 A 
ATOM     30  C   UNL A   1      34.795  29.414  27.619  1.00  0.00     0.016 A 
ATOM     31  C   UNL A   1      35.046  31.793  27.804  1.00  0.00     0.016 A 
ATOM     32  C   UNL A   1      35.991  29.229  28.320  1.00  0.00     0.010 A 
ATOM     33  C   UNL A   1      36.310  31.607  28.379  1.00  0.00     0.010 A 
ATOM     34  C   UNL A   1      36.781  30.321  28.707  1.00  0.00    -0.014 A 
BRANCH  34  35
ATOM     35  C   UNL A   1      38.044  30.155  29.502  1.00  0.00     0.031 A 
ATOM     36  C   UNL A   1      39.191  29.349  28.933  1.00  0.00     0.074 A 
ATOM     37  C   UNL A   1      38.209  30.703  30.726  1.00  0.00     0.049 A 
ATOM     38  N   UNL A   1      40.216  28.807  29.546  1.00  0.00    -0.248 NA
ATOM     39  C   UNL A   1      39.173  29.105  27.482  1.00  0.00     0.031 C 
ATOM     40  C   UNL A   1      37.255  31.568  31.416  1.00  0.00     0.029 A 
ATOM     41  N   UNL A   1      39.259  30.605  31.614  1.00  0.00    -0.354 N 
ATOM     42  C   UNL A   1      40.895  28.073  28.579  1.00  0.00     0.074 A 
ATOM     43  C   UNL A   1      40.190  28.269  27.330  1.00  0.00     0.031 C 
ATOM     44  C   UNL A   1      37.777  31.964  32.586  1.00  0.00     0.029 A 
ATOM     45  C   UNL A   1      39.048  31.280  32.793  1.00  0.00     0.049 A 
ATOM     46  H   UNL A   1      40.081  30.099  31.422  1.00  0.00     0.167 HD
ATOM     47  C   UNL A   1      41.995  27.296  28.724  1.00  0.00     0.037 A 
ATOM     48  C   UNL A   1      39.750  31.297  33.944  1.00  0.00     0.037 A 
ATOM     49  C   UNL A   1      42.762  27.182  29.937  1.00  0.00     0.049 A 
ATOM     50  C   UNL A   1      40.968  30.429  34.089  1.00  0.00     0.074 A 
ATOM     51  C   UNL A   1      43.903  26.431  30.172  1.00  0.00     0.029 A 
ATOM     52  N   UNL A   1      42.490  27.867  31.109  1.00  0.00    -0.354 N 
ATOM     53  N   UNL A   1      41.526  29.634  33.211  1.00  0.00    -0.248 NA
ATOM     54  C   UNL A   1      41.629  30.430  35.403  1.00  0.00     0.031 C 
ATOM     55  C   UNL A   1      44.308  26.646  31.494  1.00  0.00     0.029 A 
ATOM     56  C   UNL A   1      43.440  27.559  32.070  1.00  0.00     0.049 A 
ATOM     57  H   UNL A   1      41.733  28.484  31.241  1.00  0.00     0.167 HD
ATOM     58  C   UNL A   1      42.599  29.040  33.864  1.00  0.00     0.074 A 
ATOM     59  C   UNL A   1      42.632  29.587  35.203  1.00  0.00     0.031 C 
ATOM     60  C   UNL A   1      43.467  28.111  33.398  1.00  0.00     0.037 A 
BRANCH  47  61
ATOM     61  C   UNL A   1      42.423  26.460  27.552  1.00  0.00     0.064 A 
ATOM     62  C   UNL A   1      43.450  26.855  26.686  1.00  0.00     0.173 A 
ATOM     63  C   UNL A   1      41.822  25.210  27.334  1.00  0.00     0.173 A 
ATOM     64  F   UNL A   1      44.044  28.047  26.844  1.00  0.00    -0.203 F 
ATOM     65  C   UNL A   1      43.850  26.035  25.632  1.00  0.00     0.198 A 
ATOM     66  C   UNL A   1      42.242  24.381  26.297  1.00  0.00     0.198 A 
ATOM     67  F   UNL A   1      40.838  24.782  28.140  1.00  0.00    -0.203 F 
ATOM     68  F   UNL A   1      44.810  26.447  24.793  1.00  0.00    -0.200 F 
ATOM     69  C   UNL A   1      43.252  24.797  25.444  1.00  0.00     0.200 A 
ATOM     70  F   UNL A   1      41.672  23.180  26.127  1.00  0.00    -0.200 F 
ATOM     71  F   UNL A   1      43.649  24.005  24.438  1.00  0.00    -0.200 F 
ENDBRANCH  47  61
BRANCH  48  72
ATOM     72  C   UNL A   1      39.270  32.115  35.090  1.00  0.00     0.064 A 
ATOM     73  C   UNL A   1      39.560  33.484  35.168  1.00  0.00     0.173 A 
ATOM     74  C   UNL A   1      38.514  31.548  36.127  1.00  0.00     0.173 A 
ATOM     75  F   UNL A   1      40.308  34.064  34.218  1.00  0.00    -0.203 F 
ATOM     76  C   UNL A   1      39.116  34.253  36.242  1.00  0.00     0.198 A 
ATOM     77  C   UNL A   1      38.041  32.325  37.182  1.00  0.00     0.198 A 
ATOM     78  F   UNL A   1      38.215  30.241  36.103  1.00  0.00    -0.203 F 
ATOM     79  F   UNL A   1      39.442  35.551  36.314  1.00  0.00    -0.200 F 
ATOM     80  C   UNL A   1      38.348  33.675  37.241  1.00  0.00     0.200 A 
ATOM     81  F   UNL A   1      37.287  31.764  38.137  1.00  0.00    -0.200 F 
ATOM     82  F   UNL A   1      37.909  34.418  38.266  1.00  0.00    -0.200 F 
ENDBRANCH  48  72
BRANCH  60  83
ATOM     83  C   UNL A   1      44.544  27.647  34.332  1.00  0.00     0.064 A 
ATOM     84  C   UNL A   1      45.764  28.330  34.438  1.00  0.00     0.173 A 
ATOM     85  C   UNL A   1      44.344  26.524  35.148  1.00  0.00     0.173 A 
ATOM     86  F   UNL A   1      46.008  29.400  33.666  1.00  0.00    -0.203 F 
ATOM     87  C   UNL A   1      46.753  27.893  35.314  1.00  0.00     0.198 A 
ATOM     88  C   UNL A   1      45.327  26.103  36.038  1.00  0.00     0.198 A 
ATOM     89  F   UNL A   1      43.192  25.839  35.084  1.00  0.00    -0.203 F 
ATOM     90  F   UNL A   1      47.928  28.536  35.371  1.00  0.00    -0.200 F 
ATOM     91  C   UNL A   1      46.533  26.784  36.117  1.00  0.00     0.200 A 
ATOM     92  F   UNL A   1      45.110  25.035  36.819  1.00  0.00    -0.200 F 
ATOM     93  F   UNL A   1      47.487  26.364  36.960  1.00  0.00    -0.200 F 
ENDBRANCH  60  83
ENDBRANCH  34  35
ENDBRANCH  27  29
ENDBRANCH  26  27
ENDBRANCH  25  26
ENDBRANCH   1  25
TORSDOF 14
ENDMDL
MODEL 3
REMARK VINA RESULT:     -12.4      0.139      1.598
REMARK SMILES Cc1ccc(Cl)cc1NC(=O)N[C@@](C)(C(=O)OCCOC(=O)c1ccc(-c2c3nc(c(-c4c(F)c(F)c(F)c(F)c4F)c4ccc([nH]4)c(-c4c(F)c(F)c(F)c(F)c4F)c4nc(c(-c5c(F)c(F)c(F)c(F)c5F)c5ccc2[nH]5)C=C4)C=C3)cc1)C(F)(F)F
REMARK SMILES IDX 18 1 17 2 15 3 16 4 13 5 14 6 12 7 9 8 10 9 11 11 8 13 1 14
REMARK SMILES IDX 2 15 3 16 4 17 7 18 5 19 6 20 86 21 87 22 88 23 89 24 19 25
REMARK SMILES IDX 20 26 21 27 22 28 23 29 24 30 85 31 25 32 84 33 26 34 27 35
REMARK SMILES IDX 28 36 78 37 29 38 83 39 77 40 79 41 30 42 82 43 76 44 75 45
REMARK SMILES IDX 31 47 63 48 43 49 62 50 44 51 47 52 61 53 80 54 45 55 46 56
REMARK SMILES IDX 60 58 81 59 48 60 32 61 33 62 41 63 34 64 35 65 39 66 42 67
REMARK SMILES IDX 36 68 37 69 40 70 38 71 64 72 65 73 73 74 66 75 67 76 71 77
REMARK SMILES IDX 74 78 68 79 69 80 72 81 70 82 49 83 50 84 58 85 51 86 52 87
REMARK SMILES IDX 56 88 59 89 53 90 54 91 57 92 55 93
REMARK H PARENT 9 10 12 12 79 46 47 57
REMARK Flexibility Score: inf
ROOT
ATOM      1  C   UNL A   1      31.204  28.966  24.743  1.00  0.00     0.274 C 
ENDROOT
BRANCH   1   2
ATOM      2  O   UNL A   1      31.291  27.578  25.139  1.00  0.00    -0.460 OA
BRANCH   2   3
ATOM      3  C   UNL A   1      31.459  26.743  24.067  1.00  0.00     0.341 C 
ATOM      4  O   UNL A   1      31.132  27.052  22.924  1.00  0.00    -0.249 OA
BRANCH   3   5
ATOM      5  C   UNL A   1      32.297  25.496  24.409  1.00  0.00     0.232 C 
ATOM      6  C   UNL A   1      32.016  24.485  23.285  1.00  0.00     0.058 C 
BRANCH   5   7
ATOM      7  N   UNL A   1      31.818  24.909  25.701  1.00  0.00    -0.314 N 
ATOM      8  N   UNL A   1      33.151  23.147  26.671  1.00  0.00    -0.308 N 
ATOM      9  C   UNL A   1      32.059  23.903  26.534  1.00  0.00     0.320 C 
ATOM     10  H   UNL A   1      33.066  22.564  27.460  1.00  0.00     0.171 HD
ATOM     11  O   UNL A   1      31.175  23.719  27.383  1.00  0.00    -0.248 OA
ATOM     12  H   UNL A   1      31.073  25.450  26.050  1.00  0.00     0.166 HD
BRANCH   8  13
ATOM     13  C   UNL A   1      34.381  22.930  26.037  1.00  0.00     0.047 A 
ATOM     14  C   UNL A   1      33.239  21.393  24.303  1.00  0.00     0.046 C 
ATOM     15  C   UNL A   1      34.440  22.054  24.928  1.00  0.00    -0.027 A 
ATOM     16  C   UNL A   1      35.686  21.768  24.336  1.00  0.00     0.007 A 
ATOM     17  C   UNL A   1      36.847  22.385  24.786  1.00  0.00     0.021 A 
ATOM     18  C   UNL A   1      35.531  23.622  26.402  1.00  0.00     0.047 A 
ATOM     19  C   UNL A   1      36.757  23.341  25.789  1.00  0.00     0.043 A 
ATOM     20  Cl  UNL A   1      38.175  24.180  26.290  1.00  0.00    -0.084 Cl
ENDBRANCH   8  13
ENDBRANCH   5   7
BRANCH   5  21
ATOM     21  C   UNL A   1      33.716  26.086  24.362  1.00  0.00     0.422 C 
ATOM     22  F   UNL A   1      34.143  26.442  25.593  1.00  0.00    -0.168 F 
ATOM     23  F   UNL A   1      34.615  25.214  23.857  1.00  0.00    -0.168 F 
ATOM     24  F   UNL A   1      33.837  27.200  23.599  1.00  0.00    -0.168 F 
ENDBRANCH   5  21
ENDBRANCH   3   5
ENDBRANCH   2   3
ENDBRANCH   1   2
BRANCH   1  25
ATOM     25  C   UNL A   1      32.447  29.736  25.180  1.00  0.00     0.275 C 
BRANCH  25  26
ATOM     26  O   UNL A   1      32.402  29.946  26.604  1.00  0.00    -0.458 OA
BRANCH  26  27
ATOM     27  C   UNL A   1      32.980  31.092  27.040  1.00  0.00     0.338 C 
ATOM     28  O   UNL A   1      32.460  32.193  27.096  1.00  0.00    -0.246 OA
BRANCH  27  29
ATOM     29  C   UNL A   1      34.368  30.847  27.500  1.00  0.00     0.060 A 
ATOM     30  C   UNL A   1      34.841  29.558  27.714  1.00  0.00     0.016 A 
ATOM     31  C   UNL A   1      35.169  31.931  27.858  1.00  0.00     0.016 A 
ATOM     32  C   UNL A   1      36.025  29.347  28.428  1.00  0.00     0.010 A 
ATOM     33  C   UNL A   1      36.422  31.714  28.446  1.00  0.00     0.010 A 
ATOM     34  C   UNL A   1      36.848  30.420  28.801  1.00  0.00    -0.014 A 
BRANCH  34  35
ATOM     35  C   UNL A   1      38.099  30.227  29.609  1.00  0.00     0.031 A 
ATOM     36  C   UNL A   1      39.232  29.392  29.053  1.00  0.00     0.074 A 
ATOM     37  C   UNL A   1      38.265  30.775  30.832  1.00  0.00     0.049 A 
ATOM     38  N   UNL A   1      40.238  28.829  29.677  1.00  0.00    -0.248 NA
ATOM     39  C   UNL A   1      39.223  29.144  27.603  1.00  0.00     0.031 C 
ATOM     40  C   UNL A   1      37.325  31.664  31.510  1.00  0.00     0.029 A 
ATOM     41  N   UNL A   1      39.304  30.655  31.731  1.00  0.00    -0.354 N 
ATOM     42  C   UNL A   1      40.909  28.076  28.719  1.00  0.00     0.074 A 
ATOM     43  C   UNL A   1      40.221  28.284  27.463  1.00  0.00     0.031 C 
ATOM     44  C   UNL A   1      37.845  32.052  32.684  1.00  0.00     0.029 A 
ATOM     45  C   UNL A   1      39.098  31.339  32.905  1.00  0.00     0.049 A 
ATOM     46  H   UNL A   1      40.116  30.130  31.548  1.00  0.00     0.167 HD
ATOM     47  C   UNL A   1      41.990  27.274  28.878  1.00  0.00     0.037 A 
ATOM     48  C   UNL A   1      39.789  31.344  34.063  1.00  0.00     0.037 A 
ATOM     49  C   UNL A   1      42.743  27.146  30.098  1.00  0.00     0.049 A 
ATOM     50  C   UNL A   1      40.985  30.448  34.222  1.00  0.00     0.074 A 
ATOM     51  C   UNL A   1      43.863  26.369  30.346  1.00  0.00     0.029 A 
ATOM     52  N   UNL A   1      42.475  27.842  31.266  1.00  0.00    -0.354 N 
ATOM     53  N   UNL A   1      41.533  29.637  33.352  1.00  0.00    -0.248 NA
ATOM     54  C   UNL A   1      41.633  30.438  35.543  1.00  0.00     0.031 C 
ATOM     55  C   UNL A   1      44.260  26.580  31.672  1.00  0.00     0.029 A 
ATOM     56  C   UNL A   1      43.408  27.515  32.236  1.00  0.00     0.049 A 
ATOM     57  H   UNL A   1      41.731  28.476  31.388  1.00  0.00     0.167 HD
ATOM     58  C   UNL A   1      42.585  29.021  34.017  1.00  0.00     0.074 A 
ATOM     59  C   UNL A   1      42.618  29.571  35.355  1.00  0.00     0.031 C 
ATOM     60  C   UNL A   1      43.436  28.070  33.563  1.00  0.00     0.037 A 
BRANCH  47  61
ATOM     61  C   UNL A   1      42.409  26.425  27.712  1.00  0.00     0.064 A 
ATOM     62  C   UNL A   1      41.809  25.191  27.430  1.00  0.00     0.173 A 
ATOM     63  C   UNL A   1      43.395  26.894  26.829  1.00  0.00     0.173 A 
ATOM     64  F   UNL A   1      40.873  24.693  28.252  1.00  0.00    -0.203 F 
ATOM     65  C   UNL A   1      42.194  24.449  26.316  1.00  0.00     0.198 A 
ATOM     66  C   UNL A   1      43.758  26.163  25.702  1.00  0.00     0.198 A 
ATOM     67  F   UNL A   1      43.995  28.074  27.050  1.00  0.00    -0.203 F 
ATOM     68  F   UNL A   1      41.633  23.254  26.083  1.00  0.00    -0.200 F 
ATOM     69  C   UNL A   1      43.160  24.938  25.449  1.00  0.00     0.200 A 
ATOM     70  F   UNL A   1      44.682  26.645  24.858  1.00  0.00    -0.200 F 
ATOM     71  F   UNL A   1      43.518  24.227  24.370  1.00  0.00    -0.200 F 
ENDBRANCH  47  61
BRANCH  48  72
ATOM     72  C   UNL A   1      39.317  32.177  35.202  1.00  0.00     0.064 A 
ATOM     73  C   UNL A   1      38.517  31.627  36.212  1.00  0.00     0.173 A 
ATOM     74  C   UNL A   1      39.655  33.535  35.303  1.00  0.00     0.173 A 
ATOM     75  F   UNL A   1      38.139  30.342  36.140  1.00  0.00    -0.203 F 
ATOM     76  C   UNL A   1      38.069  32.404  37.278  1.00  0.00     0.198 A 
ATOM     77  C   UNL A   1      39.235  34.302  36.387  1.00  0.00     0.198 A 
ATOM     78  F   UNL A   1      40.412  34.111  34.358  1.00  0.00    -0.203 F 
ATOM     79  F   UNL A   1      37.271  31.865  38.209  1.00  0.00    -0.200 F 
ATOM     80  C   UNL A   1      38.438  33.738  37.369  1.00  0.00     0.200 A 
ATOM     81  F   UNL A   1      39.607  35.586  36.478  1.00  0.00    -0.200 F 
ATOM     82  F   UNL A   1      38.018  34.482  38.403  1.00  0.00    -0.200 F 
ENDBRANCH  48  72
BRANCH  60  83
ATOM     83  C   UNL A   1      44.493  27.584  34.509  1.00  0.00     0.064 A 
ATOM     84  C   UNL A   1      45.734  28.228  34.610  1.00  0.00     0.173 A 
ATOM     85  C   UNL A   1      44.251  26.481  35.340  1.00  0.00     0.173 A 
ATOM     86  F   UNL A   1      46.017  29.277  33.823  1.00  0.00    -0.203 F 
ATOM     87  C   UNL A   1      46.705  27.771  35.497  1.00  0.00     0.198 A 
ATOM     88  C   UNL A   1      45.217  26.041  36.241  1.00  0.00     0.198 A 
ATOM     89  F   UNL A   1      43.078  25.834  35.281  1.00  0.00    -0.203 F 
ATOM     90  F   UNL A   1      47.900  28.375  35.550  1.00  0.00    -0.200 F 
ATOM     91  C   UNL A   1      46.444  26.682  36.315  1.00  0.00     0.200 A 
ATOM     92  F   UNL A   1      44.960  24.992  37.037  1.00  0.00    -0.200 F 
ATOM     93  F   UNL A   1      47.380  26.243  37.169  1.00  0.00    -0.200 F 
ENDBRANCH  60  83
ENDBRANCH  34  35
ENDBRANCH  27  29
ENDBRANCH  26  27
ENDBRANCH  25  26
ENDBRANCH   1  25
TORSDOF 14
ENDMDL
