MODEL 1
REMARK VINA RESULT:     -11.9      0.000      0.000
REMARK SMILES CC1(C)C[C@](CC(=O)OCCOC(=O)c2ccc(-c3c4nc(c(-c5c(F)c(F)c(F)c(F)c5F)c5ccc([nH]5)c(-c5c(F)c(F)c(F)c(F)c5F)c5nc(c(-c6c(F)c(F)c(F)c(F)c6F)c6ccc3[nH]6)C=C5)C=C4)cc2)([NH+]2CCCC2)C(C)(C)O1
REMARK SMILES IDX 10 1 9 2 7 3 8 4 6 5 5 6 1 7 2 8 3 9 4 10 86 11 83 12 84 13
REMARK SMILES IDX 85 14 78 15 79 16 82 17 80 19 81 20 11 21 12 22 13 23 14 24
REMARK SMILES IDX 15 25 16 26 77 27 17 28 76 29 18 30 19 31 20 32 70 33 21 34
REMARK SMILES IDX 75 35 69 36 71 37 22 38 74 39 68 40 67 41 23 43 55 44 35 45
REMARK SMILES IDX 54 46 36 47 39 48 53 49 72 50 37 51 38 52 52 54 73 55 40 56
REMARK SMILES IDX 24 57 25 58 33 59 26 60 27 61 31 62 34 63 28 64 29 65 32 66
REMARK SMILES IDX 30 67 56 68 57 69 65 70 58 71 59 72 63 73 66 74 60 75 61 76
REMARK SMILES IDX 64 77 62 78 41 79 42 80 50 81 43 82 44 83 48 84 51 85 45 86
REMARK SMILES IDX 46 87 49 88 47 89
REMARK H PARENT 78 18 71 42 39 53
REMARK Flexibility Score: inf
ROOT
ATOM      1  C   UNL A   1      31.745  30.490  26.044  1.00  0.00     0.274 C 
ENDROOT
BRANCH   1   2
ATOM      2  O   UNL A   1      31.796  29.670  27.224  1.00  0.00    -0.462 OA
BRANCH   2   3
ATOM      3  C   UNL A   1      31.710  28.334  27.061  1.00  0.00     0.312 C 
ATOM      4  O   UNL A   1      31.058  27.584  27.778  1.00  0.00    -0.252 OA
BRANCH   3   5
ATOM      5  C   UNL A   1      32.419  27.863  25.806  1.00  0.00     0.194 C 
BRANCH   5   6
ATOM      6  C   UNL A   1      32.025  26.530  25.079  1.00  0.00     0.140 C 
ATOM      7  C   UNL A   1      33.132  26.450  21.588  1.00  0.00     0.042 C 
ATOM      8  C   UNL A   1      32.619  25.662  22.803  1.00  0.00     0.070 C 
ATOM      9  C   UNL A   1      32.941  24.188  22.509  1.00  0.00     0.042 C 
ATOM     10  C   UNL A   1      33.219  26.210  24.106  1.00  0.00     0.107 C 
ATOM     11  O   UNL A   1      31.194  25.817  22.909  1.00  0.00    -0.363 OA
ATOM     12  C   UNL A   1      30.865  26.702  24.016  1.00  0.00     0.118 C 
ATOM     13  C   UNL A   1      30.754  28.117  23.403  1.00  0.00     0.049 C 
ATOM     14  C   UNL A   1      29.457  26.327  24.491  1.00  0.00     0.049 C 
BRANCH   6  15
ATOM     15  N   UNL A   1      31.987  25.370  26.044  1.00  0.00    -0.327 N 
ATOM     16  C   UNL A   1      30.923  24.382  25.943  1.00  0.00     0.263 C 
ATOM     17  C   UNL A   1      33.216  24.609  26.256  1.00  0.00     0.263 C 
ATOM     18  H   UNL A   1      31.794  25.978  26.841  1.00  0.00     0.348 HD
ATOM     19  C   UNL A   1      31.334  23.251  26.868  1.00  0.00     0.067 C 
ATOM     20  C   UNL A   1      32.838  23.230  26.771  1.00  0.00     0.067 C 
ENDBRANCH   6  15
ENDBRANCH   5   6
ENDBRANCH   3   5
ENDBRANCH   2   3
ENDBRANCH   1   2
BRANCH   1  21
ATOM     21  C   UNL A   1      31.815  31.958  26.509  1.00  0.00     0.275 C 
BRANCH  21  22
ATOM     22  O   UNL A   1      32.454  32.249  27.787  1.00  0.00    -0.458 OA
BRANCH  22  23
ATOM     23  C   UNL A   1      33.568  33.007  27.824  1.00  0.00     0.338 C 
ATOM     24  O   UNL A   1      33.646  34.208  27.610  1.00  0.00    -0.246 OA
BRANCH  23  25
ATOM     25  C   UNL A   1      34.798  32.216  28.036  1.00  0.00     0.060 A 
ATOM     26  C   UNL A   1      35.987  32.953  28.124  1.00  0.00     0.016 A 
ATOM     27  C   UNL A   1      34.810  30.839  28.275  1.00  0.00     0.016 A 
ATOM     28  C   UNL A   1      37.167  32.349  28.524  1.00  0.00     0.010 A 
ATOM     29  C   UNL A   1      35.984  30.245  28.760  1.00  0.00     0.010 A 
ATOM     30  C   UNL A   1      37.145  31.018  28.946  1.00  0.00    -0.014 A 
BRANCH  30  31
ATOM     31  C   UNL A   1      38.289  30.531  29.753  1.00  0.00     0.031 A 
ATOM     32  C   UNL A   1      39.284  29.581  29.176  1.00  0.00     0.074 A 
ATOM     33  C   UNL A   1      38.420  31.005  31.011  1.00  0.00     0.049 A 
ATOM     34  N   UNL A   1      40.284  28.980  29.765  1.00  0.00    -0.248 NA
ATOM     35  C   UNL A   1      39.138  29.260  27.749  1.00  0.00     0.031 C 
ATOM     36  C   UNL A   1      37.523  31.982  31.640  1.00  0.00     0.029 A 
ATOM     37  N   UNL A   1      39.352  30.751  31.983  1.00  0.00    -0.354 N 
ATOM     38  C   UNL A   1      40.882  28.199  28.788  1.00  0.00     0.074 A 
ATOM     39  C   UNL A   1      40.120  28.385  27.571  1.00  0.00     0.031 C 
ATOM     40  C   UNL A   1      37.959  32.257  32.877  1.00  0.00     0.029 A 
ATOM     41  C   UNL A   1      39.110  31.415  33.163  1.00  0.00     0.049 A 
ATOM     42  H   UNL A   1      40.122  30.150  31.849  1.00  0.00     0.167 HD
ATOM     43  C   UNL A   1      41.970  27.405  28.912  1.00  0.00     0.037 A 
ATOM     44  C   UNL A   1      39.719  31.314  34.357  1.00  0.00     0.037 A 
ATOM     45  C   UNL A   1      42.706  27.243  30.142  1.00  0.00     0.049 A 
ATOM     46  C   UNL A   1      40.867  30.353  34.482  1.00  0.00     0.074 A 
ATOM     47  C   UNL A   1      43.807  26.444  30.392  1.00  0.00     0.029 A 
ATOM     48  N   UNL A   1      42.410  27.900  31.329  1.00  0.00    -0.354 N 
ATOM     49  N   UNL A   1      41.411  29.594  33.561  1.00  0.00    -0.248 NA
ATOM     50  C   UNL A   1      41.480  30.224  35.808  1.00  0.00     0.031 C 
ATOM     51  C   UNL A   1      44.147  26.582  31.741  1.00  0.00     0.029 A 
ATOM     52  C   UNL A   1      43.299  27.513  32.319  1.00  0.00     0.049 A 
ATOM     53  H   UNL A   1      41.676  28.547  31.450  1.00  0.00     0.167 HD
ATOM     54  C   UNL A   1      42.450  28.924  34.185  1.00  0.00     0.074 A 
ATOM     55  C   UNL A   1      42.472  29.382  35.561  1.00  0.00     0.031 C 
ATOM     56  C   UNL A   1      43.307  28.008  33.673  1.00  0.00     0.037 A 
BRANCH  43  57
ATOM     57  C   UNL A   1      42.414  26.631  27.706  1.00  0.00     0.064 A 
ATOM     58  C   UNL A   1      43.372  27.137  26.815  1.00  0.00     0.173 A 
ATOM     59  C   UNL A   1      41.914  25.341  27.465  1.00  0.00     0.173 A 
ATOM     60  F   UNL A   1      43.870  28.371  26.989  1.00  0.00    -0.203 F 
ATOM     61  C   UNL A   1      43.803  26.389  25.722  1.00  0.00     0.198 A 
ATOM     62  C   UNL A   1      42.367  24.585  26.388  1.00  0.00     0.198 A 
ATOM     63  F   UNL A   1      40.996  24.809  28.285  1.00  0.00    -0.203 F 
ATOM     64  F   UNL A   1      44.690  26.909  24.863  1.00  0.00    -0.200 F 
ATOM     65  C   UNL A   1      43.307  25.110  25.515  1.00  0.00     0.200 A 
ATOM     66  F   UNL A   1      41.896  23.344  26.197  1.00  0.00    -0.200 F 
ATOM     67  F   UNL A   1      43.733  24.385  24.471  1.00  0.00    -0.200 F 
ENDBRANCH  43  57
BRANCH  44  68
ATOM     68  C   UNL A   1      39.231  32.092  35.530  1.00  0.00     0.064 A 
ATOM     69  C   UNL A   1      39.643  33.415  35.746  1.00  0.00     0.173 A 
ATOM     70  C   UNL A   1      38.373  31.518  36.481  1.00  0.00     0.173 A 
ATOM     71  F   UNL A   1      40.476  34.007  34.877  1.00  0.00    -0.203 F 
ATOM     72  C   UNL A   1      39.250  34.116  36.885  1.00  0.00     0.198 A 
ATOM     73  C   UNL A   1      37.947  32.234  37.599  1.00  0.00     0.198 A 
ATOM     74  F   UNL A   1      37.941  30.258  36.325  1.00  0.00    -0.203 F 
ATOM     75  F   UNL A   1      39.717  35.353  37.101  1.00  0.00    -0.200 F 
ATOM     76  C   UNL A   1      38.399  33.526  37.809  1.00  0.00     0.200 A 
ATOM     77  F   UNL A   1      37.110  31.665  38.477  1.00  0.00    -0.200 F 
ATOM     78  F   UNL A   1      38.028  34.199  38.907  1.00  0.00    -0.200 F 
ENDBRANCH  44  68
BRANCH  56  79
ATOM     79  C   UNL A   1      44.375  27.495  34.593  1.00  0.00     0.064 A 
ATOM     80  C   UNL A   1      45.606  28.153  34.737  1.00  0.00     0.173 A 
ATOM     81  C   UNL A   1      44.151  26.340  35.357  1.00  0.00     0.173 A 
ATOM     82  F   UNL A   1      45.875  29.249  34.012  1.00  0.00    -0.203 F 
ATOM     83  C   UNL A   1      46.586  27.652  35.590  1.00  0.00     0.198 A 
ATOM     84  C   UNL A   1      45.118  25.865  36.237  1.00  0.00     0.198 A 
ATOM     85  F   UNL A   1      42.988  25.680  35.258  1.00  0.00    -0.203 F 
ATOM     86  F   UNL A   1      47.777  28.261  35.666  1.00  0.00    -0.200 F 
ATOM     87  C   UNL A   1      46.337  26.516  36.345  1.00  0.00     0.200 A 
ATOM     88  F   UNL A   1      44.869  24.777  36.977  1.00  0.00    -0.200 F 
ATOM     89  F   UNL A   1      47.279  26.041  37.171  1.00  0.00    -0.200 F 
ENDBRANCH  56  79
ENDBRANCH  30  31
ENDBRANCH  23  25
ENDBRANCH  22  23
ENDBRANCH  21  22
ENDBRANCH   1  21
TORSDOF 13
ENDMDL
MODEL 2
REMARK VINA RESULT:     -11.7      4.542      9.952
REMARK SMILES CC1(C)C[C@](CC(=O)OCCOC(=O)c2ccc(-c3c4nc(c(-c5c(F)c(F)c(F)c(F)c5F)c5ccc([nH]5)c(-c5c(F)c(F)c(F)c(F)c5F)c5nc(c(-c6c(F)c(F)c(F)c(F)c6F)c6ccc3[nH]6)C=C5)C=C4)cc2)([NH+]2CCCC2)C(C)(C)O1
REMARK SMILES IDX 10 1 9 2 7 3 8 4 6 5 5 6 1 7 2 8 3 9 4 10 86 11 83 12 84 13
REMARK SMILES IDX 85 14 78 15 79 16 82 17 80 19 81 20 11 21 12 22 13 23 14 24
REMARK SMILES IDX 15 25 16 26 77 27 17 28 76 29 18 30 19 31 20 32 70 33 21 34
REMARK SMILES IDX 75 35 69 36 71 37 22 38 74 39 68 40 67 41 23 43 55 44 35 45
REMARK SMILES IDX 54 46 36 47 39 48 53 49 72 50 37 51 38 52 52 54 73 55 40 56
REMARK SMILES IDX 24 57 25 58 33 59 26 60 27 61 31 62 34 63 28 64 29 65 32 66
REMARK SMILES IDX 30 67 56 68 57 69 65 70 58 71 59 72 63 73 66 74 60 75 61 76
REMARK SMILES IDX 64 77 62 78 41 79 42 80 50 81 43 82 44 83 48 84 51 85 45 86
REMARK SMILES IDX 46 87 49 88 47 89
REMARK H PARENT 78 18 71 42 39 53
REMARK Flexibility Score: inf
ROOT
ATOM      1  C   UNL A   1      36.335  20.591  24.995  1.00  0.00     0.274 C 
ENDROOT
BRANCH   1   2
ATOM      2  O   UNL A   1      36.158  21.631  25.972  1.00  0.00    -0.462 OA
BRANCH   2   3
ATOM      3  C   UNL A   1      35.665  22.811  25.547  1.00  0.00     0.312 C 
ATOM      4  O   UNL A   1      36.155  23.491  24.651  1.00  0.00    -0.252 OA
BRANCH   3   5
ATOM      5  C   UNL A   1      34.352  23.161  26.221  1.00  0.00     0.194 C 
BRANCH   5   6
ATOM      6  C   UNL A   1      33.191  23.886  25.456  1.00  0.00     0.140 C 
ATOM      7  C   UNL A   1      29.896  23.152  26.877  1.00  0.00     0.042 C 
ATOM      8  C   UNL A   1      30.741  24.052  25.963  1.00  0.00     0.070 C 
ATOM      9  C   UNL A   1      29.911  25.328  25.750  1.00  0.00     0.042 C 
ATOM     10  C   UNL A   1      32.139  24.279  26.557  1.00  0.00     0.107 C 
ATOM     11  O   UNL A   1      30.934  23.403  24.695  1.00  0.00    -0.363 OA
ATOM     12  C   UNL A   1      32.299  22.913  24.582  1.00  0.00     0.118 C 
ATOM     13  C   UNL A   1      32.261  21.449  25.078  1.00  0.00     0.049 C 
ATOM     14  C   UNL A   1      32.635  22.851  23.088  1.00  0.00     0.049 C 
BRANCH   6  15
ATOM     15  N   UNL A   1      33.654  25.199  24.872  1.00  0.00    -0.327 N 
ATOM     16  C   UNL A   1      33.070  25.682  23.631  1.00  0.00     0.263 C 
ATOM     17  C   UNL A   1      33.724  26.359  25.757  1.00  0.00     0.263 C 
ATOM     18  H   UNL A   1      34.588  24.836  24.675  1.00  0.00     0.348 HD
ATOM     19  C   UNL A   1      33.563  27.111  23.483  1.00  0.00     0.067 C 
ATOM     20  C   UNL A   1      33.650  27.613  24.902  1.00  0.00     0.067 C 
ENDBRANCH   6  15
ENDBRANCH   5   6
ENDBRANCH   3   5
ENDBRANCH   2   3
ENDBRANCH   1   2
BRANCH   1  21
ATOM     21  C   UNL A   1      37.783  20.082  25.132  1.00  0.00     0.275 C 
BRANCH  21  22
ATOM     22  O   UNL A   1      38.864  21.060  25.124  1.00  0.00    -0.458 OA
BRANCH  22  23
ATOM     23  C   UNL A   1      39.755  21.086  26.134  1.00  0.00     0.338 C 
ATOM     24  O   UNL A   1      40.355  20.132  26.608  1.00  0.00    -0.246 OA
BRANCH  23  25
ATOM     25  C   UNL A   1      39.881  22.419  26.760  1.00  0.00     0.060 A 
ATOM     26  C   UNL A   1      40.875  22.539  27.741  1.00  0.00     0.016 A 
ATOM     27  C   UNL A   1      39.173  23.549  26.339  1.00  0.00     0.016 A 
ATOM     28  C   UNL A   1      41.224  23.779  28.247  1.00  0.00     0.010 A 
ATOM     29  C   UNL A   1      39.583  24.812  26.790  1.00  0.00     0.010 A 
ATOM     30  C   UNL A   1      40.655  24.928  27.695  1.00  0.00    -0.014 A 
BRANCH  30  31
ATOM     31  C   UNL A   1      41.335  26.222  27.941  1.00  0.00     0.031 A 
ATOM     32  C   UNL A   1      40.646  27.322  28.677  1.00  0.00     0.074 A 
ATOM     33  C   UNL A   1      42.609  26.356  27.512  1.00  0.00     0.049 A 
ATOM     34  N   UNL A   1      41.053  28.545  28.895  1.00  0.00    -0.248 NA
ATOM     35  C   UNL A   1      39.327  27.011  29.243  1.00  0.00     0.031 C 
ATOM     36  C   UNL A   1      43.381  25.310  26.830  1.00  0.00     0.029 A 
ATOM     37  N   UNL A   1      43.485  27.406  27.588  1.00  0.00    -0.354 N 
ATOM     38  C   UNL A   1      40.037  29.157  29.612  1.00  0.00     0.074 A 
ATOM     39  C   UNL A   1      38.983  28.177  29.775  1.00  0.00     0.031 C 
ATOM     40  C   UNL A   1      44.616  25.763  26.572  1.00  0.00     0.029 A 
ATOM     41  C   UNL A   1      44.696  27.155  26.986  1.00  0.00     0.049 A 
ATOM     42  H   UNL A   1      43.269  28.259  28.031  1.00  0.00     0.167 HD
ATOM     43  C   UNL A   1      40.002  30.424  30.085  1.00  0.00     0.037 A 
ATOM     44  C   UNL A   1      45.736  27.974  26.749  1.00  0.00     0.037 A 
ATOM     45  C   UNL A   1      41.071  31.375  29.904  1.00  0.00     0.049 A 
ATOM     46  C   UNL A   1      45.624  29.401  27.208  1.00  0.00     0.074 A 
ATOM     47  C   UNL A   1      41.135  32.694  30.314  1.00  0.00     0.029 A 
ATOM     48  N   UNL A   1      42.268  31.100  29.254  1.00  0.00    -0.354 N 
ATOM     49  N   UNL A   1      44.648  29.983  27.862  1.00  0.00    -0.248 NA
ATOM     50  C   UNL A   1      46.750  30.287  26.892  1.00  0.00     0.031 C 
ATOM     51  C   UNL A   1      42.348  33.230  29.873  1.00  0.00     0.029 A 
ATOM     52  C   UNL A   1      43.071  32.229  29.241  1.00  0.00     0.049 A 
ATOM     53  H   UNL A   1      42.512  30.230  28.861  1.00  0.00     0.167 HD
ATOM     54  C   UNL A   1      45.053  31.292  28.065  1.00  0.00     0.074 A 
ATOM     55  C   UNL A   1      46.375  31.412  27.481  1.00  0.00     0.031 C 
ATOM     56  C   UNL A   1      44.393  32.308  28.673  1.00  0.00     0.037 A 
BRANCH  43  57
ATOM     57  C   UNL A   1      38.768  30.867  30.815  1.00  0.00     0.064 A 
ATOM     58  C   UNL A   1      37.640  31.346  30.134  1.00  0.00     0.173 A 
ATOM     59  C   UNL A   1      38.693  30.760  32.213  1.00  0.00     0.173 A 
ATOM     60  F   UNL A   1      37.664  31.484  28.799  1.00  0.00    -0.203 F 
ATOM     61  C   UNL A   1      36.488  31.715  30.824  1.00  0.00     0.198 A 
ATOM     62  C   UNL A   1      37.530  31.103  32.898  1.00  0.00     0.198 A 
ATOM     63  F   UNL A   1      39.744  30.309  32.914  1.00  0.00    -0.203 F 
ATOM     64  F   UNL A   1      35.435  32.206  30.156  1.00  0.00    -0.200 F 
ATOM     65  C   UNL A   1      36.430  31.585  32.204  1.00  0.00     0.200 A 
ATOM     66  F   UNL A   1      37.473  30.965  34.230  1.00  0.00    -0.200 F 
ATOM     67  F   UNL A   1      35.316  31.927  32.866  1.00  0.00    -0.200 F 
ENDBRANCH  43  57
BRANCH  44  68
ATOM     68  C   UNL A   1      46.933  27.492  26.006  1.00  0.00     0.064 A 
ATOM     69  C   UNL A   1      48.015  26.904  26.676  1.00  0.00     0.173 A 
ATOM     70  C   UNL A   1      47.039  27.646  24.614  1.00  0.00     0.173 A 
ATOM     71  F   UNL A   1      47.974  26.748  28.007  1.00  0.00    -0.203 F 
ATOM     72  C   UNL A   1      49.168  26.525  25.990  1.00  0.00     0.198 A 
ATOM     73  C   UNL A   1      48.177  27.230  23.924  1.00  0.00     0.198 A 
ATOM     74  F   UNL A   1      46.034  28.198  23.919  1.00  0.00    -0.203 F 
ATOM     75  F   UNL A   1      50.214  26.031  26.667  1.00  0.00    -0.200 F 
ATOM     76  C   UNL A   1      49.247  26.685  24.615  1.00  0.00     0.200 A 
ATOM     77  F   UNL A   1      48.238  27.370  22.593  1.00  0.00    -0.200 F 
ATOM     78  F   UNL A   1      50.360  26.328  23.958  1.00  0.00    -0.200 F 
ENDBRANCH  44  68
BRANCH  56  79
ATOM     79  C   UNL A   1      45.123  33.612  28.790  1.00  0.00     0.064 A 
ATOM     80  C   UNL A   1      45.003  34.618  27.819  1.00  0.00     0.173 A 
ATOM     81  C   UNL A   1      45.936  33.865  29.904  1.00  0.00     0.173 A 
ATOM     82  F   UNL A   1      44.253  34.414  26.725  1.00  0.00    -0.203 F 
ATOM     83  C   UNL A   1      45.699  35.817  27.945  1.00  0.00     0.198 A 
ATOM     84  C   UNL A   1      46.599  35.080  30.046  1.00  0.00     0.198 A 
ATOM     85  F   UNL A   1      46.078  32.938  30.863  1.00  0.00    -0.203 F 
ATOM     86  F   UNL A   1      45.619  36.738  26.975  1.00  0.00    -0.200 F 
ATOM     87  C   UNL A   1      46.487  36.050  29.061  1.00  0.00     0.200 A 
ATOM     88  F   UNL A   1      47.347  35.310  31.133  1.00  0.00    -0.200 F 
ATOM     89  F   UNL A   1      47.149  37.208  29.184  1.00  0.00    -0.200 F 
ENDBRANCH  56  79
ENDBRANCH  30  31
ENDBRANCH  23  25
ENDBRANCH  22  23
ENDBRANCH  21  22
ENDBRANCH   1  21
TORSDOF 13
ENDMDL
MODEL 3
REMARK VINA RESULT:     -11.7      4.512      9.808
REMARK SMILES CC1(C)C[C@](CC(=O)OCCOC(=O)c2ccc(-c3c4nc(c(-c5c(F)c(F)c(F)c(F)c5F)c5ccc([nH]5)c(-c5c(F)c(F)c(F)c(F)c5F)c5nc(c(-c6c(F)c(F)c(F)c(F)c6F)c6ccc3[nH]6)C=C5)C=C4)cc2)([NH+]2CCCC2)C(C)(C)O1
REMARK SMILES IDX 10 1 9 2 7 3 8 4 6 5 5 6 1 7 2 8 3 9 4 10 86 11 83 12 84 13
REMARK SMILES IDX 85 14 78 15 79 16 82 17 80 19 81 20 11 21 12 22 13 23 14 24
REMARK SMILES IDX 15 25 16 26 77 27 17 28 76 29 18 30 19 31 20 32 70 33 21 34
REMARK SMILES IDX 75 35 69 36 71 37 22 38 74 39 68 40 67 41 23 43 55 44 35 45
REMARK SMILES IDX 54 46 36 47 39 48 53 49 72 50 37 51 38 52 52 54 73 55 40 56
REMARK SMILES IDX 24 57 25 58 33 59 26 60 27 61 31 62 34 63 28 64 29 65 32 66
REMARK SMILES IDX 30 67 56 68 57 69 65 70 58 71 59 72 63 73 66 74 60 75 61 76
REMARK SMILES IDX 64 77 62 78 41 79 42 80 50 81 43 82 44 83 48 84 51 85 45 86
REMARK SMILES IDX 46 87 49 88 47 89
REMARK H PARENT 78 18 71 42 39 53
REMARK Flexibility Score: inf
ROOT
ATOM      1  C   UNL A   1      36.044  21.112  25.416  1.00  0.00     0.274 C 
ENDROOT
BRANCH   1   2
ATOM      2  O   UNL A   1      35.781  21.788  24.175  1.00  0.00    -0.462 OA
BRANCH   2   3
ATOM      3  C   UNL A   1      35.967  23.123  24.139  1.00  0.00     0.312 C 
ATOM      4  O   UNL A   1      36.808  23.693  23.452  1.00  0.00    -0.252 OA
BRANCH   3   5
ATOM      5  C   UNL A   1      34.932  23.869  24.960  1.00  0.00     0.194 C 
BRANCH   5   6
ATOM      6  C   UNL A   1      33.533  24.267  24.372  1.00  0.00     0.140 C 
ATOM      7  C   UNL A   1      33.633  27.422  22.515  1.00  0.00     0.042 C 
ATOM      8  C   UNL A   1      32.868  26.127  22.829  1.00  0.00     0.070 C 
ATOM      9  C   UNL A   1      31.830  25.974  21.706  1.00  0.00     0.042 C 
ATOM     10  C   UNL A   1      33.834  24.943  22.985  1.00  0.00     0.107 C 
ATOM     11  O   UNL A   1      32.183  26.267  24.084  1.00  0.00    -0.363 OA
ATOM     12  C   UNL A   1      32.854  25.489  25.114  1.00  0.00     0.118 C 
ATOM     13  C   UNL A   1      33.843  26.463  25.796  1.00  0.00     0.049 C 
ATOM     14  C   UNL A   1      31.802  25.135  26.171  1.00  0.00     0.049 C 
BRANCH   6  15
ATOM     15  N   UNL A   1      32.710  23.045  24.041  1.00  0.00    -0.327 N 
ATOM     16  C   UNL A   1      32.873  22.394  22.750  1.00  0.00     0.263 C 
ATOM     17  C   UNL A   1      32.651  21.967  25.025  1.00  0.00     0.263 C 
ATOM     18  H   UNL A   1      31.839  23.577  24.032  1.00  0.00     0.348 HD
ATOM     19  C   UNL A   1      32.109  21.087  22.858  1.00  0.00     0.067 C 
ATOM     20  C   UNL A   1      32.283  20.683  24.300  1.00  0.00     0.067 C 
ENDBRANCH   6  15
ENDBRANCH   5   6
ENDBRANCH   3   5
ENDBRANCH   2   3
ENDBRANCH   1   2
BRANCH   1  21
ATOM     21  C   UNL A   1      37.425  20.440  25.282  1.00  0.00     0.275 C 
BRANCH  21  22
ATOM     22  O   UNL A   1      38.601  21.294  25.160  1.00  0.00    -0.458 OA
BRANCH  22  23
ATOM     23  C   UNL A   1      39.567  21.244  26.098  1.00  0.00     0.338 C 
ATOM     24  O   UNL A   1      40.185  20.254  26.464  1.00  0.00    -0.246 OA
BRANCH  23  25
ATOM     25  C   UNL A   1      39.765  22.532  26.794  1.00  0.00     0.060 A 
ATOM     26  C   UNL A   1      40.858  22.589  27.669  1.00  0.00     0.016 A 
ATOM     27  C   UNL A   1      39.023  23.686  26.526  1.00  0.00     0.016 A 
ATOM     28  C   UNL A   1      41.265  23.793  28.217  1.00  0.00     0.010 A 
ATOM     29  C   UNL A   1      39.485  24.917  27.013  1.00  0.00     0.010 A 
ATOM     30  C   UNL A   1      40.646  24.976  27.805  1.00  0.00    -0.014 A 
BRANCH  30  31
ATOM     31  C   UNL A   1      41.356  26.252  28.063  1.00  0.00     0.031 A 
ATOM     32  C   UNL A   1      40.696  27.355  28.820  1.00  0.00     0.074 A 
ATOM     33  C   UNL A   1      42.628  26.365  27.624  1.00  0.00     0.049 A 
ATOM     34  N   UNL A   1      41.130  28.566  29.051  1.00  0.00    -0.248 NA
ATOM     35  C   UNL A   1      39.375  27.063  29.394  1.00  0.00     0.031 C 
ATOM     36  C   UNL A   1      43.372  25.313  26.920  1.00  0.00     0.029 A 
ATOM     37  N   UNL A   1      43.526  27.396  27.706  1.00  0.00    -0.354 N 
ATOM     38  C   UNL A   1      40.133  29.189  29.786  1.00  0.00     0.074 A 
ATOM     39  C   UNL A   1      39.060  28.228  29.945  1.00  0.00     0.031 C 
ATOM     40  C   UNL A   1      44.614  25.744  26.657  1.00  0.00     0.029 A 
ATOM     41  C   UNL A   1      44.727  27.129  27.090  1.00  0.00     0.049 A 
ATOM     42  H   UNL A   1      43.332  28.247  28.163  1.00  0.00     0.167 HD
ATOM     43  C   UNL A   1      40.129  30.450  30.277  1.00  0.00     0.037 A 
ATOM     44  C   UNL A   1      45.781  27.930  26.855  1.00  0.00     0.037 A 
ATOM     45  C   UNL A   1      41.215  31.381  30.098  1.00  0.00     0.049 A 
ATOM     46  C   UNL A   1      45.703  29.352  27.334  1.00  0.00     0.074 A 
ATOM     47  C   UNL A   1      41.309  32.692  30.527  1.00  0.00     0.029 A 
ATOM     48  N   UNL A   1      42.401  31.090  29.434  1.00  0.00    -0.354 N 
ATOM     49  N   UNL A   1      44.744  29.945  28.005  1.00  0.00    -0.248 NA
ATOM     50  C   UNL A   1      46.843  30.219  27.020  1.00  0.00     0.031 C 
ATOM     51  C   UNL A   1      42.530  33.209  30.082  1.00  0.00     0.029 A 
ATOM     52  C   UNL A   1      43.226  32.204  29.430  1.00  0.00     0.049 A 
ATOM     53  H   UNL A   1      42.622  30.221  29.027  1.00  0.00     0.167 HD
ATOM     54  C   UNL A   1      45.178  31.243  28.222  1.00  0.00     0.074 A 
ATOM     55  C   UNL A   1      46.497  31.343  27.629  1.00  0.00     0.031 C 
ATOM     56  C   UNL A   1      44.544  32.263  28.850  1.00  0.00     0.037 A 
BRANCH  43  57
ATOM     57  C   UNL A   1      38.910  30.907  31.024  1.00  0.00     0.064 A 
ATOM     58  C   UNL A   1      37.795  31.440  30.361  1.00  0.00     0.173 A 
ATOM     59  C   UNL A   1      38.836  30.762  32.418  1.00  0.00     0.173 A 
ATOM     60  F   UNL A   1      37.820  31.617  29.031  1.00  0.00    -0.203 F 
ATOM     61  C   UNL A   1      36.657  31.823  31.067  1.00  0.00     0.198 A 
ATOM     62  C   UNL A   1      37.686  31.119  33.117  1.00  0.00     0.198 A 
ATOM     63  F   UNL A   1      39.874  30.259  33.102  1.00  0.00    -0.203 F 
ATOM     64  F   UNL A   1      35.617  32.365  30.416  1.00  0.00    -0.200 F 
ATOM     65  C   UNL A   1      36.599  31.654  32.442  1.00  0.00     0.200 A 
ATOM     66  F   UNL A   1      37.629  30.943  34.445  1.00  0.00    -0.200 F 
ATOM     67  F   UNL A   1      35.497  32.009  33.118  1.00  0.00    -0.200 F 
ENDBRANCH  43  57
BRANCH  44  68
ATOM     68  C   UNL A   1      46.961  27.434  26.094  1.00  0.00     0.064 A 
ATOM     69  C   UNL A   1      48.043  26.827  26.747  1.00  0.00     0.173 A 
ATOM     70  C   UNL A   1      47.052  27.592  24.702  1.00  0.00     0.173 A 
ATOM     71  F   UNL A   1      48.016  26.665  28.079  1.00  0.00    -0.203 F 
ATOM     72  C   UNL A   1      49.182  26.434  26.046  1.00  0.00     0.198 A 
ATOM     73  C   UNL A   1      48.174  27.163  23.995  1.00  0.00     0.198 A 
ATOM     74  F   UNL A   1      46.046  28.162  24.022  1.00  0.00    -0.203 F 
ATOM     75  F   UNL A   1      50.229  25.922  26.707  1.00  0.00    -0.200 F 
ATOM     76  C   UNL A   1      49.244  26.599  24.670  1.00  0.00     0.200 A 
ATOM     77  F   UNL A   1      48.220  27.308  22.665  1.00  0.00    -0.200 F 
ATOM     78  F   UNL A   1      50.343  26.229  23.998  1.00  0.00    -0.200 F 
ENDBRANCH  44  68
BRANCH  56  79
ATOM     79  C   UNL A   1      45.302  33.550  28.978  1.00  0.00     0.064 A 
ATOM     80  C   UNL A   1      45.194  34.571  28.023  1.00  0.00     0.173 A 
ATOM     81  C   UNL A   1      46.131  33.771  30.089  1.00  0.00     0.173 A 
ATOM     82  F   UNL A   1      44.430  34.399  26.933  1.00  0.00    -0.203 F 
ATOM     83  C   UNL A   1      45.915  35.754  28.159  1.00  0.00     0.198 A 
ATOM     84  C   UNL A   1      46.819  34.970  30.241  1.00  0.00     0.198 A 
ATOM     85  F   UNL A   1      46.262  32.827  31.033  1.00  0.00    -0.203 F 
ATOM     86  F   UNL A   1      45.846  36.691  27.203  1.00  0.00    -0.200 F 
ATOM     87  C   UNL A   1      46.719  35.956  29.271  1.00  0.00     0.200 A 
ATOM     88  F   UNL A   1      47.582  35.169  31.324  1.00  0.00    -0.200 F 
ATOM     89  F   UNL A   1      47.406  37.098  29.403  1.00  0.00    -0.200 F 
ENDBRANCH  56  79
ENDBRANCH  30  31
ENDBRANCH  23  25
ENDBRANCH  22  23
ENDBRANCH  21  22
ENDBRANCH   1  21
TORSDOF 13
ENDMDL
