MODEL 1
REMARK VINA RESULT:     -13.0      0.000      0.000
REMARK SMILES O=C(CSc1ccc(NC(=O)c2cccc3ccccc23)cc1)OCCOC(=O)c1ccc(-c2c3nc(c(-c4c(F)c(F)c(F)c(F)c4F)c4ccc([nH]4)c(-c4c(F)c(F)c(F)c(F)c4F)c4nc(c(-c5c(F)c(F)c(F)c(F)c5F)c5ccc2[nH]5)C=C4)C=C3)cc1
REMARK SMILES IDX 25 1 24 2 2 3 1 4 3 5 4 6 5 7 6 8 23 9 7 10 22 11 8 12 9 13
REMARK SMILES IDX 10 14 11 16 12 17 13 18 21 19 14 20 16 21 20 22 15 23 17 24
REMARK SMILES IDX 19 25 18 26 26 27 27 28 28 29 29 30 30 31 31 32 92 33 32 34
REMARK SMILES IDX 91 35 33 36 34 37 35 38 85 39 36 40 90 41 84 42 86 43 37 44
REMARK SMILES IDX 89 45 83 46 82 47 38 49 70 50 50 51 69 52 51 53 54 54 68 55
REMARK SMILES IDX 87 56 52 57 53 58 67 60 88 61 55 62 39 63 40 64 48 65 41 66
REMARK SMILES IDX 42 67 46 68 49 69 43 70 44 71 47 72 45 73 71 74 72 75 80 76
REMARK SMILES IDX 73 77 74 78 78 79 81 80 75 81 76 82 79 83 77 84 56 85 57 86
REMARK SMILES IDX 65 87 58 88 59 89 63 90 66 91 60 92 61 93 64 94 62 95
REMARK H PARENT 9 15 86 48 54 59
REMARK Flexibility Score: inf
ROOT
ATOM      1  C   UNL A   1      41.715  19.933  26.137  1.00  0.00     0.274 C 
ENDROOT
BRANCH   1   2
ATOM      2  O   UNL A   1      40.507  20.612  26.537  1.00  0.00    -0.461 OA
BRANCH   2   3
ATOM      3  C   UNL A   1      39.336  20.566  25.858  1.00  0.00     0.316 C 
ATOM      4  O   UNL A   1      38.977  19.515  25.326  1.00  0.00    -0.251 OA
BRANCH   3   5
ATOM      5  C   UNL A   1      38.486  21.811  25.754  1.00  0.00     0.197 C 
BRANCH   5   6
ATOM      6  S   UNL A   1      37.180  21.671  24.485  1.00  0.00    -0.114 SA
BRANCH   6   7
ATOM      7  C   UNL A   1      35.732  21.836  25.497  1.00  0.00     0.008 A 
ATOM      8  C   UNL A   1      35.534  23.020  26.207  1.00  0.00     0.017 A 
ATOM      9  C   UNL A   1      34.781  20.822  25.588  1.00  0.00     0.017 A 
ATOM     10  C   UNL A   1      34.342  23.231  26.906  1.00  0.00     0.027 A 
ATOM     11  C   UNL A   1      33.576  21.050  26.255  1.00  0.00     0.027 A 
ATOM     12  C   UNL A   1      33.317  22.292  26.839  1.00  0.00     0.041 A 
BRANCH  12  13
ATOM     13  N   UNL A   1      31.991  22.525  27.240  1.00  0.00    -0.322 N 
ATOM     14  C   UNL A   1      30.992  23.343  26.758  1.00  0.00     0.256 C 
ATOM     15  H   UNL A   1      31.719  21.995  28.023  1.00  0.00     0.170 HD
ATOM     16  O   UNL A   1      29.921  23.376  27.368  1.00  0.00    -0.269 OA
BRANCH  14  17
ATOM     17  C   UNL A   1      31.114  24.180  25.539  1.00  0.00     0.048 A 
ATOM     18  C   UNL A   1      30.899  23.495  24.332  1.00  0.00     0.014 A 
ATOM     19  C   UNL A   1      31.401  25.571  25.534  1.00  0.00    -0.006 A 
ATOM     20  C   UNL A   1      30.946  24.169  23.118  1.00  0.00     0.001 A 
ATOM     21  C   UNL A   1      31.346  26.254  24.292  1.00  0.00    -0.018 A 
ATOM     22  C   UNL A   1      31.670  26.340  26.689  1.00  0.00     0.009 A 
ATOM     23  C   UNL A   1      31.168  25.542  23.100  1.00  0.00     0.009 A 
ATOM     24  C   UNL A   1      31.408  27.653  24.256  1.00  0.00     0.009 A 
ATOM     25  C   UNL A   1      31.645  27.731  26.645  1.00  0.00     0.001 A 
ATOM     26  C   UNL A   1      31.487  28.388  25.431  1.00  0.00     0.001 A 
ENDBRANCH  14  17
ENDBRANCH  12  13
ENDBRANCH   6   7
ENDBRANCH   5   6
ENDBRANCH   3   5
ENDBRANCH   2   3
ENDBRANCH   1   2
BRANCH   1  27
ATOM     27  C   UNL A   1      42.823  20.923  25.779  1.00  0.00     0.275 C 
BRANCH  27  28
ATOM     28  O   UNL A   1      42.270  22.105  25.167  1.00  0.00    -0.458 OA
BRANCH  28  29
ATOM     29  C   UNL A   1      43.124  23.154  25.043  1.00  0.00     0.338 C 
ATOM     30  O   UNL A   1      43.982  23.297  24.189  1.00  0.00    -0.246 OA
BRANCH  29  31
ATOM     31  C   UNL A   1      42.760  24.208  26.018  1.00  0.00     0.060 A 
ATOM     32  C   UNL A   1      43.527  25.379  26.051  1.00  0.00     0.016 A 
ATOM     33  C   UNL A   1      41.689  24.053  26.902  1.00  0.00     0.016 A 
ATOM     34  C   UNL A   1      43.236  26.389  26.977  1.00  0.00     0.010 A 
ATOM     35  C   UNL A   1      41.402  25.065  27.828  1.00  0.00     0.010 A 
ATOM     36  C   UNL A   1      42.179  26.238  27.885  1.00  0.00    -0.014 A 
BRANCH  36  37
ATOM     37  C   UNL A   1      41.897  27.257  28.932  1.00  0.00     0.031 A 
ATOM     38  C   UNL A   1      42.641  27.235  30.233  1.00  0.00     0.074 A 
ATOM     39  C   UNL A   1      40.979  28.225  28.755  1.00  0.00     0.049 A 
ATOM     40  N   UNL A   1      42.454  27.980  31.295  1.00  0.00    -0.248 NA
ATOM     41  C   UNL A   1      43.760  26.292  30.340  1.00  0.00     0.031 C 
ATOM     42  C   UNL A   1      40.287  28.502  27.507  1.00  0.00     0.029 A 
ATOM     43  N   UNL A   1      40.462  29.149  29.637  1.00  0.00    -0.354 N 
ATOM     44  C   UNL A   1      43.458  27.630  32.180  1.00  0.00     0.074 A 
ATOM     45  C   UNL A   1      44.217  26.564  31.556  1.00  0.00     0.031 C 
ATOM     46  C   UNL A   1      39.394  29.483  27.719  1.00  0.00     0.029 A 
ATOM     47  C   UNL A   1      39.392  29.839  29.124  1.00  0.00     0.049 A 
ATOM     48  H   UNL A   1      40.823  29.298  30.541  1.00  0.00     0.167 HD
ATOM     49  C   UNL A   1      43.740  28.177  33.386  1.00  0.00     0.037 A 
ATOM     50  C   UNL A   1      38.471  30.628  29.707  1.00  0.00     0.037 A 
ATOM     51  C   UNL A   1      42.999  29.239  34.015  1.00  0.00     0.049 A 
ATOM     52  C   UNL A   1      38.642  31.024  31.139  1.00  0.00     0.074 A 
ATOM     53  C   UNL A   1      43.272  29.886  35.209  1.00  0.00     0.029 A 
ATOM     54  N   UNL A   1      41.830  29.796  33.524  1.00  0.00    -0.354 N 
ATOM     55  N   UNL A   1      39.611  30.714  31.958  1.00  0.00    -0.248 NA
ATOM     56  C   UNL A   1      37.623  31.913  31.715  1.00  0.00     0.031 C 
ATOM     57  C   UNL A   1      42.231  30.782  35.477  1.00  0.00     0.029 A 
ATOM     58  C   UNL A   1      41.335  30.731  34.425  1.00  0.00     0.049 A 
ATOM     59  H   UNL A   1      41.411  29.563  32.664  1.00  0.00     0.167 HD
ATOM     60  C   UNL A   1      39.358  31.417  33.123  1.00  0.00     0.074 A 
ATOM     61  C   UNL A   1      38.131  32.155  32.914  1.00  0.00     0.031 C 
ATOM     62  C   UNL A   1      40.108  31.462  34.248  1.00  0.00     0.037 A 
BRANCH  49  63
ATOM     63  C   UNL A   1      44.914  27.623  34.128  1.00  0.00     0.064 A 
ATOM     64  C   UNL A   1      46.193  28.182  33.997  1.00  0.00     0.173 A 
ATOM     65  C   UNL A   1      44.737  26.572  35.036  1.00  0.00     0.173 A 
ATOM     66  F   UNL A   1      46.408  29.182  33.130  1.00  0.00    -0.203 F 
ATOM     67  C   UNL A   1      47.259  27.701  34.751  1.00  0.00     0.198 A 
ATOM     68  C   UNL A   1      45.800  26.108  35.803  1.00  0.00     0.198 A 
ATOM     69  F   UNL A   1      43.529  26.009  35.192  1.00  0.00    -0.203 F 
ATOM     70  F   UNL A   1      48.479  28.233  34.599  1.00  0.00    -0.200 F 
ATOM     71  C   UNL A   1      47.060  26.672  35.660  1.00  0.00     0.200 A 
ATOM     72  F   UNL A   1      45.604  25.120  36.688  1.00  0.00    -0.200 F 
ATOM     73  F   UNL A   1      48.083  26.221  36.397  1.00  0.00    -0.200 F 
ENDBRANCH  49  63
BRANCH  50  74
ATOM     74  C   UNL A   1      37.246  31.033  28.971  1.00  0.00     0.064 A 
ATOM     75  C   UNL A   1      37.025  32.356  28.572  1.00  0.00     0.173 A 
ATOM     76  C   UNL A   1      36.222  30.100  28.748  1.00  0.00     0.173 A 
ATOM     77  F   UNL A   1      37.960  33.289  28.803  1.00  0.00    -0.203 F 
ATOM     78  C   UNL A   1      35.812  32.738  27.999  1.00  0.00     0.198 A 
ATOM     79  C   UNL A   1      35.016  30.482  28.167  1.00  0.00     0.198 A 
ATOM     80  F   UNL A   1      36.385  28.820  29.116  1.00  0.00    -0.203 F 
ATOM     81  F   UNL A   1      35.599  34.022  27.680  1.00  0.00    -0.200 F 
ATOM     82  C   UNL A   1      34.808  31.802  27.799  1.00  0.00     0.200 A 
ATOM     83  F   UNL A   1      34.053  29.571  27.966  1.00  0.00    -0.200 F 
ATOM     84  F   UNL A   1      33.638  32.172  27.263  1.00  0.00    -0.200 F 
ENDBRANCH  50  74
BRANCH  62  85
ATOM     85  C   UNL A   1      39.641  32.373  35.342  1.00  0.00     0.064 A 
ATOM     86  C   UNL A   1      38.791  31.921  36.362  1.00  0.00     0.173 A 
ATOM     87  C   UNL A   1      40.046  33.716  35.371  1.00  0.00     0.173 A 
ATOM     88  F   UNL A   1      38.351  30.653  36.361  1.00  0.00    -0.203 F 
ATOM     89  C   UNL A   1      38.346  32.786  37.357  1.00  0.00     0.198 A 
ATOM     90  C   UNL A   1      39.624  34.571  36.384  1.00  0.00     0.198 A 
ATOM     91  F   UNL A   1      40.853  34.200  34.414  1.00  0.00    -0.203 F 
ATOM     92  F   UNL A   1      37.491  32.346  38.290  1.00  0.00    -0.200 F 
ATOM     93  C   UNL A   1      38.769  34.107  37.373  1.00  0.00     0.200 A 
ATOM     94  F   UNL A   1      40.038  35.845  36.402  1.00  0.00    -0.200 F 
ATOM     95  F   UNL A   1      38.340  34.937  38.334  1.00  0.00    -0.200 F 
ENDBRANCH  62  85
ENDBRANCH  36  37
ENDBRANCH  29  31
ENDBRANCH  28  29
ENDBRANCH  27  28
ENDBRANCH   1  27
TORSDOF 15
ENDMDL
MODEL 2
REMARK VINA RESULT:     -12.7      1.058      1.755
REMARK SMILES O=C(CSc1ccc(NC(=O)c2cccc3ccccc23)cc1)OCCOC(=O)c1ccc(-c2c3nc(c(-c4c(F)c(F)c(F)c(F)c4F)c4ccc([nH]4)c(-c4c(F)c(F)c(F)c(F)c4F)c4nc(c(-c5c(F)c(F)c(F)c(F)c5F)c5ccc2[nH]5)C=C4)C=C3)cc1
REMARK SMILES IDX 25 1 24 2 2 3 1 4 3 5 4 6 5 7 6 8 23 9 7 10 22 11 8 12 9 13
REMARK SMILES IDX 10 14 11 16 12 17 13 18 21 19 14 20 16 21 20 22 15 23 17 24
REMARK SMILES IDX 19 25 18 26 26 27 27 28 28 29 29 30 30 31 31 32 92 33 32 34
REMARK SMILES IDX 91 35 33 36 34 37 35 38 85 39 36 40 90 41 84 42 86 43 37 44
REMARK SMILES IDX 89 45 83 46 82 47 38 49 70 50 50 51 69 52 51 53 54 54 68 55
REMARK SMILES IDX 87 56 52 57 53 58 67 60 88 61 55 62 39 63 40 64 48 65 41 66
REMARK SMILES IDX 42 67 46 68 49 69 43 70 44 71 47 72 45 73 71 74 72 75 80 76
REMARK SMILES IDX 73 77 74 78 78 79 81 80 75 81 76 82 79 83 77 84 56 85 57 86
REMARK SMILES IDX 65 87 58 88 59 89 63 90 66 91 60 92 61 93 64 94 62 95
REMARK H PARENT 9 15 86 48 54 59
REMARK Flexibility Score: inf
ROOT
ATOM      1  C   UNL A   1      42.266  20.576  26.283  1.00  0.00     0.274 C 
ENDROOT
BRANCH   1   2
ATOM      2  O   UNL A   1      40.976  20.908  25.729  1.00  0.00    -0.461 OA
BRANCH   2   3
ATOM      3  C   UNL A   1      39.948  21.440  26.433  1.00  0.00     0.316 C 
ATOM      4  O   UNL A   1      40.101  21.723  27.621  1.00  0.00    -0.251 OA
BRANCH   3   5
ATOM      5  C   UNL A   1      38.621  21.674  25.750  1.00  0.00     0.197 C 
BRANCH   5   6
ATOM      6  S   UNL A   1      37.990  23.371  25.994  1.00  0.00    -0.114 SA
BRANCH   6   7
ATOM      7  C   UNL A   1      36.292  23.151  25.527  1.00  0.00     0.008 A 
ATOM      8  C   UNL A   1      35.291  23.620  26.377  1.00  0.00     0.017 A 
ATOM      9  C   UNL A   1      35.934  22.539  24.327  1.00  0.00     0.017 A 
ATOM     10  C   UNL A   1      33.952  23.580  25.976  1.00  0.00     0.027 A 
ATOM     11  C   UNL A   1      34.602  22.534  23.914  1.00  0.00     0.027 A 
ATOM     12  C   UNL A   1      33.617  23.139  24.699  1.00  0.00     0.041 A 
BRANCH  12  13
ATOM     13  N   UNL A   1      32.368  23.334  24.087  1.00  0.00    -0.322 N 
ATOM     14  C   UNL A   1      31.742  24.440  23.556  1.00  0.00     0.256 C 
ATOM     15  H   UNL A   1      31.830  22.512  24.024  1.00  0.00     0.170 HD
ATOM     16  O   UNL A   1      30.593  24.311  23.128  1.00  0.00    -0.269 OA
BRANCH  14  17
ATOM     17  C   UNL A   1      32.367  25.782  23.450  1.00  0.00     0.048 A 
ATOM     18  C   UNL A   1      33.056  26.015  22.248  1.00  0.00     0.014 A 
ATOM     19  C   UNL A   1      32.288  26.796  24.441  1.00  0.00    -0.006 A 
ATOM     20  C   UNL A   1      33.657  27.245  22.005  1.00  0.00     0.001 A 
ATOM     21  C   UNL A   1      32.822  28.072  24.127  1.00  0.00    -0.018 A 
ATOM     22  C   UNL A   1      31.653  26.647  25.694  1.00  0.00     0.009 A 
ATOM     23  C   UNL A   1      33.538  28.267  22.940  1.00  0.00     0.009 A 
ATOM     24  C   UNL A   1      32.585  29.162  24.975  1.00  0.00     0.009 A 
ATOM     25  C   UNL A   1      31.353  27.754  26.483  1.00  0.00     0.001 A 
ATOM     26  C   UNL A   1      31.796  29.016  26.109  1.00  0.00     0.001 A 
ENDBRANCH  14  17
ENDBRANCH  12  13
ENDBRANCH   6   7
ENDBRANCH   5   6
ENDBRANCH   3   5
ENDBRANCH   2   3
ENDBRANCH   1   2
BRANCH   1  27
ATOM     27  C   UNL A   1      43.400  21.243  25.507  1.00  0.00     0.275 C 
BRANCH  27  28
ATOM     28  O   UNL A   1      42.949  22.475  24.907  1.00  0.00    -0.458 OA
BRANCH  28  29
ATOM     29  C   UNL A   1      43.822  23.513  24.976  1.00  0.00     0.338 C 
ATOM     30  O   UNL A   1      44.781  23.708  24.248  1.00  0.00    -0.246 OA
BRANCH  29  31
ATOM     31  C   UNL A   1      43.351  24.491  25.984  1.00  0.00     0.060 A 
ATOM     32  C   UNL A   1      44.036  25.706  26.104  1.00  0.00     0.016 A 
ATOM     33  C   UNL A   1      42.260  24.223  26.813  1.00  0.00     0.016 A 
ATOM     34  C   UNL A   1      43.643  26.648  27.064  1.00  0.00     0.010 A 
ATOM     35  C   UNL A   1      41.869  25.167  27.774  1.00  0.00     0.010 A 
ATOM     36  C   UNL A   1      42.564  26.383  27.919  1.00  0.00    -0.014 A 
BRANCH  36  37
ATOM     37  C   UNL A   1      42.174  27.328  29.000  1.00  0.00     0.031 A 
ATOM     38  C   UNL A   1      42.855  27.279  30.334  1.00  0.00     0.074 A 
ATOM     39  C   UNL A   1      41.210  28.252  28.826  1.00  0.00     0.049 A 
ATOM     40  N   UNL A   1      42.576  27.955  31.421  1.00  0.00    -0.248 NA
ATOM     41  C   UNL A   1      44.021  26.396  30.449  1.00  0.00     0.031 C 
ATOM     42  C   UNL A   1      40.563  28.556  27.560  1.00  0.00     0.029 A 
ATOM     43  N   UNL A   1      40.599  29.098  29.727  1.00  0.00    -0.354 N 
ATOM     44  C   UNL A   1      43.556  27.615  32.337  1.00  0.00     0.074 A 
ATOM     45  C   UNL A   1      44.404  26.627  31.699  1.00  0.00     0.031 C 
ATOM     46  C   UNL A   1      39.606  29.473  27.777  1.00  0.00     0.029 A 
ATOM     47  C   UNL A   1      39.517  29.753  29.196  1.00  0.00     0.049 A 
ATOM     48  H   UNL A   1      40.908  29.218  30.653  1.00  0.00     0.167 HD
ATOM     49  C   UNL A   1      43.749  28.112  33.581  1.00  0.00     0.037 A 
ATOM     50  C   UNL A   1      38.525  30.458  29.771  1.00  0.00     0.037 A 
ATOM     51  C   UNL A   1      42.918  29.097  34.225  1.00  0.00     0.049 A 
ATOM     52  C   UNL A   1      38.605  30.786  31.228  1.00  0.00     0.074 A 
ATOM     53  C   UNL A   1      43.097  29.694  35.462  1.00  0.00     0.029 A 
ATOM     54  N   UNL A   1      41.743  29.614  33.705  1.00  0.00    -0.354 N 
ATOM     55  N   UNL A   1      39.551  30.488  32.077  1.00  0.00    -0.248 NA
ATOM     56  C   UNL A   1      37.510  31.586  31.795  1.00  0.00     0.031 C 
ATOM     57  C   UNL A   1      41.993  30.516  35.722  1.00  0.00     0.029 A 
ATOM     58  C   UNL A   1      41.153  30.470  34.625  1.00  0.00     0.049 A 
ATOM     59  H   UNL A   1      41.379  29.404  32.814  1.00  0.00     0.167 HD
ATOM     60  C   UNL A   1      39.202  31.113  33.262  1.00  0.00     0.074 A 
ATOM     61  C   UNL A   1      37.946  31.792  33.029  1.00  0.00     0.031 C 
ATOM     62  C   UNL A   1      39.895  31.141  34.424  1.00  0.00     0.037 A 
BRANCH  49  63
ATOM     63  C   UNL A   1      44.917  27.586  34.352  1.00  0.00     0.064 A 
ATOM     64  C   UNL A   1      46.164  28.225  34.318  1.00  0.00     0.173 A 
ATOM     65  C   UNL A   1      44.759  26.477  35.192  1.00  0.00     0.173 A 
ATOM     66  F   UNL A   1      46.360  29.284  33.518  1.00  0.00    -0.203 F 
ATOM     67  C   UNL A   1      47.219  27.765  35.099  1.00  0.00     0.198 A 
ATOM     68  C   UNL A   1      45.810  26.033  35.988  1.00  0.00     0.198 A 
ATOM     69  F   UNL A   1      43.582  25.837  35.255  1.00  0.00    -0.203 F 
ATOM     70  F   UNL A   1      48.411  28.374  35.040  1.00  0.00    -0.200 F 
ATOM     71  C   UNL A   1      47.039  26.676  35.941  1.00  0.00     0.200 A 
ATOM     72  F   UNL A   1      45.631  24.986  36.806  1.00  0.00    -0.200 F 
ATOM     73  F   UNL A   1      48.050  26.243  36.704  1.00  0.00    -0.200 F 
ENDBRANCH  49  63
BRANCH  50  74
ATOM     74  C   UNL A   1      37.315  30.833  28.996  1.00  0.00     0.064 A 
ATOM     75  C   UNL A   1      37.059  32.155  28.614  1.00  0.00     0.173 A 
ATOM     76  C   UNL A   1      36.335  29.867  28.715  1.00  0.00     0.173 A 
ATOM     77  F   UNL A   1      37.949  33.116  28.899  1.00  0.00    -0.203 F 
ATOM     78  C   UNL A   1      35.856  32.503  28.001  1.00  0.00     0.198 A 
ATOM     79  C   UNL A   1      35.139  30.216  28.095  1.00  0.00     0.198 A 
ATOM     80  F   UNL A   1      36.532  28.587  29.065  1.00  0.00    -0.203 F 
ATOM     81  F   UNL A   1      35.607  33.784  27.698  1.00  0.00    -0.200 F 
ATOM     82  C   UNL A   1      34.896  31.535  27.744  1.00  0.00     0.200 A 
ATOM     83  F   UNL A   1      34.219  29.275  27.840  1.00  0.00    -0.200 F 
ATOM     84  F   UNL A   1      33.734  31.872  27.171  1.00  0.00    -0.200 F 
ENDBRANCH  50  74
BRANCH  62  85
ATOM     85  C   UNL A   1      39.324  31.964  35.538  1.00  0.00     0.064 A 
ATOM     86  C   UNL A   1      39.626  33.327  35.674  1.00  0.00     0.173 A 
ATOM     87  C   UNL A   1      38.467  31.383  36.484  1.00  0.00     0.173 A 
ATOM     88  F   UNL A   1      40.465  33.921  34.811  1.00  0.00    -0.203 F 
ATOM     89  C   UNL A   1      39.107  34.072  36.729  1.00  0.00     0.198 A 
ATOM     90  C   UNL A   1      37.926  32.138  37.521  1.00  0.00     0.198 A 
ATOM     91  F   UNL A   1      38.154  30.081  36.404  1.00  0.00    -0.203 F 
ATOM     92  F   UNL A   1      39.453  35.359  36.869  1.00  0.00    -0.200 F 
ATOM     93  C   UNL A   1      38.252  33.480  37.646  1.00  0.00     0.200 A 
ATOM     94  F   UNL A   1      37.096  31.566  38.403  1.00  0.00    -0.200 F 
ATOM     95  F   UNL A   1      37.753  34.200  38.660  1.00  0.00    -0.200 F 
ENDBRANCH  62  85
ENDBRANCH  36  37
ENDBRANCH  29  31
ENDBRANCH  28  29
ENDBRANCH  27  28
ENDBRANCH   1  27
TORSDOF 15
ENDMDL
MODEL 3
REMARK VINA RESULT:     -12.7      5.628     11.207
REMARK SMILES O=C(CSc1ccc(NC(=O)c2cccc3ccccc23)cc1)OCCOC(=O)c1ccc(-c2c3nc(c(-c4c(F)c(F)c(F)c(F)c4F)c4ccc([nH]4)c(-c4c(F)c(F)c(F)c(F)c4F)c4nc(c(-c5c(F)c(F)c(F)c(F)c5F)c5ccc2[nH]5)C=C4)C=C3)cc1
REMARK SMILES IDX 25 1 24 2 2 3 1 4 3 5 4 6 5 7 6 8 23 9 7 10 22 11 8 12 9 13
REMARK SMILES IDX 10 14 11 16 12 17 13 18 21 19 14 20 16 21 20 22 15 23 17 24
REMARK SMILES IDX 19 25 18 26 26 27 27 28 28 29 29 30 30 31 31 32 92 33 32 34
REMARK SMILES IDX 91 35 33 36 34 37 35 38 85 39 36 40 90 41 84 42 86 43 37 44
REMARK SMILES IDX 89 45 83 46 82 47 38 49 70 50 50 51 69 52 51 53 54 54 68 55
REMARK SMILES IDX 87 56 52 57 53 58 67 60 88 61 55 62 39 63 40 64 48 65 41 66
REMARK SMILES IDX 42 67 46 68 49 69 43 70 44 71 47 72 45 73 71 74 72 75 80 76
REMARK SMILES IDX 73 77 74 78 78 79 81 80 75 81 76 82 79 83 77 84 56 85 57 86
REMARK SMILES IDX 65 87 58 88 59 89 63 90 66 91 60 92 61 93 64 94 62 95
REMARK H PARENT 9 15 86 48 54 59
REMARK Flexibility Score: inf
ROOT
ATOM      1  C   UNL A   1      33.704  33.865  28.292  1.00  0.00     0.274 C 
ENDROOT
BRANCH   1   2
ATOM      2  O   UNL A   1      34.088  34.948  29.165  1.00  0.00    -0.461 OA
BRANCH   2   3
ATOM      3  C   UNL A   1      33.299  36.004  29.475  1.00  0.00     0.316 C 
ATOM      4  O   UNL A   1      33.230  36.964  28.708  1.00  0.00    -0.251 OA
BRANCH   3   5
ATOM      5  C   UNL A   1      32.518  35.995  30.769  1.00  0.00     0.197 C 
BRANCH   5   6
ATOM      6  S   UNL A   1      33.461  36.691  32.169  1.00  0.00    -0.114 SA
BRANCH   6   7
ATOM      7  C   UNL A   1      34.201  35.216  32.822  1.00  0.00     0.008 A 
ATOM      8  C   UNL A   1      33.819  33.980  32.300  1.00  0.00     0.017 A 
ATOM      9  C   UNL A   1      35.163  35.262  33.828  1.00  0.00     0.017 A 
ATOM     10  C   UNL A   1      34.478  32.814  32.699  1.00  0.00     0.027 A 
ATOM     11  C   UNL A   1      35.845  34.102  34.197  1.00  0.00     0.027 A 
ATOM     12  C   UNL A   1      35.565  32.887  33.566  1.00  0.00     0.041 A 
BRANCH  12  13
ATOM     13  N   UNL A   1      36.477  31.843  33.795  1.00  0.00    -0.322 N 
ATOM     14  C   UNL A   1      37.830  31.708  33.572  1.00  0.00     0.256 C 
ATOM     15  H   UNL A   1      36.065  31.045  34.198  1.00  0.00     0.170 HD
ATOM     16  O   UNL A   1      38.358  30.625  33.832  1.00  0.00    -0.269 OA
BRANCH  14  17
ATOM     17  C   UNL A   1      38.702  32.791  33.053  1.00  0.00     0.048 A 
ATOM     18  C   UNL A   1      39.692  33.228  33.949  1.00  0.00     0.014 A 
ATOM     19  C   UNL A   1      38.604  33.361  31.756  1.00  0.00    -0.006 A 
ATOM     20  C   UNL A   1      40.600  34.211  33.574  1.00  0.00     0.001 A 
ATOM     21  C   UNL A   1      39.602  34.290  31.364  1.00  0.00    -0.018 A 
ATOM     22  C   UNL A   1      37.622  33.018  30.800  1.00  0.00     0.009 A 
ATOM     23  C   UNL A   1      40.555  34.738  32.288  1.00  0.00     0.009 A 
ATOM     24  C   UNL A   1      39.679  34.719  30.033  1.00  0.00     0.009 A 
ATOM     25  C   UNL A   1      37.762  33.387  29.465  1.00  0.00     0.001 A 
ATOM     26  C   UNL A   1      38.807  34.216  29.077  1.00  0.00     0.001 A 
ENDBRANCH  14  17
ENDBRANCH  12  13
ENDBRANCH   6   7
ENDBRANCH   5   6
ENDBRANCH   3   5
ENDBRANCH   2   3
ENDBRANCH   1   2
BRANCH   1  27
ATOM     27  C   UNL A   1      34.243  32.524  28.789  1.00  0.00     0.275 C 
BRANCH  27  28
ATOM     28  O   UNL A   1      34.851  31.789  27.707  1.00  0.00    -0.458 OA
BRANCH  28  29
ATOM     29  C   UNL A   1      34.927  30.445  27.883  1.00  0.00     0.338 C 
ATOM     30  O   UNL A   1      34.061  29.626  27.624  1.00  0.00    -0.246 OA
BRANCH  29  31
ATOM     31  C   UNL A   1      36.301  30.076  28.298  1.00  0.00     0.060 A 
ATOM     32  C   UNL A   1      37.319  30.112  27.337  1.00  0.00     0.016 A 
ATOM     33  C   UNL A   1      36.593  29.688  29.608  1.00  0.00     0.016 A 
ATOM     34  C   UNL A   1      38.626  29.743  27.680  1.00  0.00     0.010 A 
ATOM     35  C   UNL A   1      37.902  29.318  29.946  1.00  0.00     0.010 A 
ATOM     36  C   UNL A   1      38.930  29.329  28.984  1.00  0.00    -0.014 A 
BRANCH  36  37
ATOM     37  C   UNL A   1      40.291  28.855  29.356  1.00  0.00     0.031 A 
ATOM     38  C   UNL A   1      41.259  29.779  30.032  1.00  0.00     0.074 A 
ATOM     39  C   UNL A   1      40.700  27.597  29.108  1.00  0.00     0.049 A 
ATOM     40  N   UNL A   1      42.515  29.568  30.335  1.00  0.00    -0.248 NA
ATOM     41  C   UNL A   1      40.740  31.084  30.459  1.00  0.00     0.031 C 
ATOM     42  C   UNL A   1      39.850  26.524  28.619  1.00  0.00     0.029 A 
ATOM     43  N   UNL A   1      41.943  27.014  29.224  1.00  0.00    -0.354 N 
ATOM     44  C   UNL A   1      42.928  30.692  31.028  1.00  0.00     0.074 A 
ATOM     45  C   UNL A   1      41.805  31.609  31.050  1.00  0.00     0.031 C 
ATOM     46  C   UNL A   1      40.609  25.433  28.418  1.00  0.00     0.029 A 
ATOM     47  C   UNL A   1      41.997  25.755  28.681  1.00  0.00     0.049 A 
ATOM     48  H   UNL A   1      42.711  27.455  29.652  1.00  0.00     0.167 HD
ATOM     49  C   UNL A   1      44.123  30.918  31.623  1.00  0.00     0.037 A 
ATOM     50  C   UNL A   1      43.035  24.956  28.370  1.00  0.00     0.037 A 
ATOM     51  C   UNL A   1      45.244  30.014  31.614  1.00  0.00     0.049 A 
ATOM     52  C   UNL A   1      44.414  25.341  28.801  1.00  0.00     0.074 A 
ATOM     53  C   UNL A   1      46.464  30.153  32.256  1.00  0.00     0.029 A 
ATOM     54  N   UNL A   1      45.301  28.819  30.916  1.00  0.00    -0.354 N 
ATOM     55  N   UNL A   1      44.790  26.390  29.484  1.00  0.00    -0.248 NA
ATOM     56  C   UNL A   1      45.504  24.415  28.463  1.00  0.00     0.031 C 
ATOM     57  C   UNL A   1      47.284  29.081  31.888  1.00  0.00     0.029 A 
ATOM     58  C   UNL A   1      46.559  28.246  31.058  1.00  0.00     0.049 A 
ATOM     59  H   UNL A   1      44.560  28.433  30.396  1.00  0.00     0.167 HD
ATOM     60  C   UNL A   1      46.144  26.222  29.714  1.00  0.00     0.074 A 
ATOM     61  C   UNL A   1      46.532  24.981  29.080  1.00  0.00     0.031 C 
ATOM     62  C   UNL A   1      46.973  27.023  30.422  1.00  0.00     0.037 A 
BRANCH  49  63
ATOM     63  C   UNL A   1      44.293  32.219  32.340  1.00  0.00     0.064 A 
ATOM     64  C   UNL A   1      44.771  33.360  31.681  1.00  0.00     0.173 A 
ATOM     65  C   UNL A   1      43.897  32.339  33.678  1.00  0.00     0.173 A 
ATOM     66  F   UNL A   1      45.171  33.286  30.403  1.00  0.00    -0.203 F 
ATOM     67  C   UNL A   1      44.853  34.580  32.344  1.00  0.00     0.198 A 
ATOM     68  C   UNL A   1      43.960  33.565  34.331  1.00  0.00     0.198 A 
ATOM     69  F   UNL A   1      43.433  31.272  34.345  1.00  0.00    -0.203 F 
ATOM     70  F   UNL A   1      45.332  35.657  31.706  1.00  0.00    -0.200 F 
ATOM     71  C   UNL A   1      44.439  34.685  33.664  1.00  0.00     0.200 A 
ATOM     72  F   UNL A   1      43.551  33.666  35.603  1.00  0.00    -0.200 F 
ATOM     73  F   UNL A   1      44.502  35.863  34.296  1.00  0.00    -0.200 F 
ENDBRANCH  49  63
BRANCH  50  74
ATOM     74  C   UNL A   1      42.835  23.748  27.530  1.00  0.00     0.064 A 
ATOM     75  C   UNL A   1      42.476  22.513  28.082  1.00  0.00     0.173 A 
ATOM     76  C   UNL A   1      43.107  23.798  26.154  1.00  0.00     0.173 A 
ATOM     77  F   UNL A   1      42.247  22.411  29.399  1.00  0.00    -0.203 F 
ATOM     78  C   UNL A   1      42.421  21.364  27.293  1.00  0.00     0.198 A 
ATOM     79  C   UNL A   1      43.042  22.652  25.366  1.00  0.00     0.198 A 
ATOM     80  F   UNL A   1      43.458  24.958  25.579  1.00  0.00    -0.203 F 
ATOM     81  F   UNL A   1      42.134  20.182  27.853  1.00  0.00    -0.200 F 
ATOM     82  C   UNL A   1      42.706  21.434  25.937  1.00  0.00     0.200 A 
ATOM     83  F   UNL A   1      43.308  22.727  24.055  1.00  0.00    -0.200 F 
ATOM     84  F   UNL A   1      42.668  20.329  25.181  1.00  0.00    -0.200 F 
ENDBRANCH  50  74
BRANCH  62  85
ATOM     85  C   UNL A   1      48.390  26.565  30.583  1.00  0.00     0.064 A 
ATOM     86  C   UNL A   1      48.774  25.714  31.630  1.00  0.00     0.173 A 
ATOM     87  C   UNL A   1      49.379  26.983  29.680  1.00  0.00     0.173 A 
ATOM     88  F   UNL A   1      47.870  25.312  32.537  1.00  0.00    -0.203 F 
ATOM     89  C   UNL A   1      50.099  25.318  31.780  1.00  0.00     0.198 A 
ATOM     90  C   UNL A   1      50.698  26.561  29.815  1.00  0.00     0.198 A 
ATOM     91  F   UNL A   1      49.066  27.803  28.665  1.00  0.00    -0.203 F 
ATOM     92  F   UNL A   1      50.452  24.549  32.819  1.00  0.00    -0.200 F 
ATOM     93  C   UNL A   1      51.059  25.734  30.868  1.00  0.00     0.200 A 
ATOM     94  F   UNL A   1      51.623  26.959  28.930  1.00  0.00    -0.200 F 
ATOM     95  F   UNL A   1      52.334  25.349  31.014  1.00  0.00    -0.200 F 
ENDBRANCH  62  85
ENDBRANCH  36  37
ENDBRANCH  29  31
ENDBRANCH  28  29
ENDBRANCH  27  28
ENDBRANCH   1  27
TORSDOF 15
ENDMDL
