MODEL 1
REMARK VINA RESULT:     -13.3      0.000      0.000
REMARK SMILES Cc1cc(C(=O)OCCOC(=O)c2ccc(-c3c4nc(c(-c5c(F)c(F)c(F)c(F)c5F)c5ccc([nH]5)c(-c5c(F)c(F)c(F)c(F)c5F)c5nc(c(-c6c(F)c(F)c(F)c(F)c6F)c6ccc3[nH]6)C=C5)C=C4)cc2)ccc1-c1ccc(/C=N/NC(=O)c2cccc(N(C)C)c2)o1
REMARK SMILES IDX 7 1 5 2 6 3 4 4 1 5 2 6 3 7 78 8 77 9 76 10 79 11 80 12
REMARK SMILES IDX 97 13 81 14 82 15 83 16 84 17 85 18 86 19 87 21 88 22 89 23
REMARK SMILES IDX 96 24 90 25 92 26 91 27 93 28 94 29 95 30 8 31 9 32 10 33
REMARK SMILES IDX 11 34 12 35 13 36 14 37 75 38 15 39 74 40 16 41 17 42 18 43
REMARK SMILES IDX 68 44 19 45 73 46 67 47 69 48 20 49 72 50 66 51 65 52 21 54
REMARK SMILES IDX 53 55 33 56 52 57 34 58 37 59 51 60 70 61 35 62 36 63 50 65
REMARK SMILES IDX 71 66 38 67 22 68 23 69 31 70 24 71 25 72 29 73 32 74 26 75
REMARK SMILES IDX 27 76 30 77 28 78 54 79 55 80 63 81 56 82 57 83 61 84 64 85
REMARK SMILES IDX 58 86 59 87 62 88 60 89 39 90 40 91 48 92 41 93 42 94 46 95
REMARK SMILES IDX 49 96 43 97 44 98 47 99 45 100
REMARK H PARENT 85 20 69 53 37 64
REMARK Flexibility Score: inf
ROOT
ATOM      1  O   UNL A   1      32.758  36.713  30.821  1.00  0.00    -0.458 OA
ENDROOT
BRANCH   1   2
ATOM      2  C   UNL A   1      33.250  36.628  29.554  1.00  0.00     0.338 C 
ATOM      3  O   UNL A   1      33.353  37.569  28.776  1.00  0.00    -0.246 OA
BRANCH   2   4
ATOM      4  C   UNL A   1      33.611  35.255  29.127  1.00  0.00     0.060 A 
ATOM      5  C   UNL A   1      36.631  32.992  28.729  1.00  0.00     0.045 C 
ATOM      6  C   UNL A   1      35.182  33.419  28.736  1.00  0.00    -0.039 A 
ATOM      7  C   UNL A   1      34.863  34.666  29.323  1.00  0.00     0.019 A 
ATOM      8  C   UNL A   1      34.164  32.691  28.089  1.00  0.00     0.020 A 
ATOM      9  C   UNL A   1      32.913  33.298  27.898  1.00  0.00     0.013 A 
ATOM     10  C   UNL A   1      32.649  34.576  28.380  1.00  0.00     0.016 A 
BRANCH   8  11
ATOM     11  C   UNL A   1      34.302  31.296  27.692  1.00  0.00     0.135 A 
ATOM     12  C   UNL A   1      35.377  30.501  27.350  1.00  0.00     0.051 A 
ATOM     13  O   UNL A   1      33.168  30.538  27.755  1.00  0.00    -0.455 OA
ATOM     14  C   UNL A   1      34.871  29.190  27.190  1.00  0.00     0.053 A 
ATOM     15  C   UNL A   1      33.517  29.256  27.448  1.00  0.00     0.147 A 
BRANCH  15  16
ATOM     16  C   UNL A   1      32.489  28.257  27.444  1.00  0.00     0.180 C 
ATOM     17  N   UNL A   1      32.727  27.101  26.907  1.00  0.00    -0.177 NA
BRANCH  17  18
ATOM     18  N   UNL A   1      31.723  26.182  26.880  1.00  0.00    -0.243 N 
ATOM     19  C   UNL A   1      30.739  25.926  25.943  1.00  0.00     0.271 C 
ATOM     20  H   UNL A   1      31.693  25.594  27.670  1.00  0.00     0.194 HD
ATOM     21  O   UNL A   1      29.834  25.144  26.245  1.00  0.00    -0.267 OA
BRANCH  19  22
ATOM     22  C   UNL A   1      30.735  26.525  24.580  1.00  0.00     0.043 A 
ATOM     23  C   UNL A   1      31.638  26.006  23.649  1.00  0.00     0.014 A 
ATOM     24  C   UNL A   1      29.930  27.618  24.214  1.00  0.00     0.039 A 
ATOM     25  C   UNL A   1      31.702  26.547  22.373  1.00  0.00     0.003 A 
ATOM     26  C   UNL A   1      29.921  28.155  22.908  1.00  0.00     0.037 A 
ATOM     27  C   UNL A   1      30.844  27.594  22.012  1.00  0.00     0.026 A 
BRANCH  26  28
ATOM     28  N   UNL A   1      29.061  29.188  22.553  1.00  0.00    -0.378 N 
ATOM     29  C   UNL A   1      29.461  30.317  21.717  1.00  0.00     0.143 C 
ATOM     30  C   UNL A   1      27.617  29.034  22.728  1.00  0.00     0.143 C 
ENDBRANCH  26  28
ENDBRANCH  19  22
ENDBRANCH  17  18
ENDBRANCH  15  16
ENDBRANCH   8  11
ENDBRANCH   2   4
ENDBRANCH   1   2
BRANCH   1  31
ATOM     31  C   UNL A   1      33.609  37.515  31.656  1.00  0.00     0.275 C 
BRANCH  31  32
ATOM     32  C   UNL A   1      33.706  37.066  33.124  1.00  0.00     0.275 C 
BRANCH  32  33
ATOM     33  O   UNL A   1      34.502  35.915  33.526  1.00  0.00    -0.458 OA
BRANCH  33  34
ATOM     34  C   UNL A   1      34.389  34.647  33.081  1.00  0.00     0.338 C 
ATOM     35  O   UNL A   1      33.304  34.101  32.898  1.00  0.00    -0.246 OA
BRANCH  34  36
ATOM     36  C   UNL A   1      35.643  33.923  32.848  1.00  0.00     0.060 A 
ATOM     37  C   UNL A   1      36.709  34.594  32.224  1.00  0.00     0.016 A 
ATOM     38  C   UNL A   1      35.794  32.642  33.364  1.00  0.00     0.016 A 
ATOM     39  C   UNL A   1      37.974  34.033  32.222  1.00  0.00     0.010 A 
ATOM     40  C   UNL A   1      37.061  32.148  33.501  1.00  0.00     0.010 A 
ATOM     41  C   UNL A   1      38.124  32.812  32.869  1.00  0.00    -0.014 A 
BRANCH  41  42
ATOM     42  C   UNL A   1      39.230  31.920  32.599  1.00  0.00     0.031 A 
ATOM     43  C   UNL A   1      39.057  30.735  31.759  1.00  0.00     0.074 A 
ATOM     44  C   UNL A   1      40.381  32.481  33.037  1.00  0.00     0.049 A 
ATOM     45  N   UNL A   1      39.912  29.783  31.694  1.00  0.00    -0.248 NA
ATOM     46  C   UNL A   1      37.873  30.478  30.943  1.00  0.00     0.031 C 
ATOM     47  C   UNL A   1      41.773  32.233  32.727  1.00  0.00     0.029 A 
ATOM     48  N   UNL A   1      40.439  33.464  34.051  1.00  0.00    -0.354 N 
ATOM     49  C   UNL A   1      39.591  29.007  30.596  1.00  0.00     0.074 A 
ATOM     50  C   UNL A   1      38.239  29.377  30.273  1.00  0.00     0.031 C 
ATOM     51  C   UNL A   1      42.523  32.750  33.725  1.00  0.00     0.029 A 
ATOM     52  C   UNL A   1      41.610  33.221  34.764  1.00  0.00     0.049 A 
ATOM     53  H   UNL A   1      39.782  34.179  34.219  1.00  0.00     0.167 HD
ATOM     54  C   UNL A   1      40.605  28.296  30.017  1.00  0.00     0.037 A 
ATOM     55  C   UNL A   1      41.469  32.685  36.013  1.00  0.00     0.037 A 
ATOM     56  C   UNL A   1      41.810  28.459  30.838  1.00  0.00     0.049 A 
ATOM     57  C   UNL A   1      41.989  31.269  36.003  1.00  0.00     0.074 A 
ATOM     58  C   UNL A   1      42.871  29.344  30.744  1.00  0.00     0.029 A 
ATOM     59  N   UNL A   1      41.808  27.973  32.141  1.00  0.00    -0.354 N 
ATOM     60  N   UNL A   1      41.865  30.442  34.998  1.00  0.00    -0.248 NA
ATOM     61  C   UNL A   1      42.817  30.751  37.082  1.00  0.00     0.031 C 
ATOM     62  C   UNL A   1      43.436  29.471  32.043  1.00  0.00     0.029 A 
ATOM     63  C   UNL A   1      42.722  28.664  32.916  1.00  0.00     0.049 A 
ATOM     64  H   UNL A   1      41.235  27.242  32.466  1.00  0.00     0.167 HD
ATOM     65  C   UNL A   1      42.662  29.351  35.229  1.00  0.00     0.074 A 
ATOM     66  C   UNL A   1      43.212  29.582  36.557  1.00  0.00     0.031 C 
ATOM     67  C   UNL A   1      42.883  28.349  34.327  1.00  0.00     0.037 A 
BRANCH  54  68
ATOM     68  C   UNL A   1      40.652  27.707  28.617  1.00  0.00     0.064 A 
ATOM     69  C   UNL A   1      40.004  26.473  28.355  1.00  0.00     0.173 A 
ATOM     70  C   UNL A   1      41.342  28.239  27.511  1.00  0.00     0.173 A 
ATOM     71  F   UNL A   1      39.258  25.864  29.287  1.00  0.00    -0.203 F 
ATOM     72  C   UNL A   1      40.096  25.809  27.128  1.00  0.00     0.198 A 
ATOM     73  C   UNL A   1      41.437  27.571  26.282  1.00  0.00     0.198 A 
ATOM     74  F   UNL A   1      41.936  29.433  27.554  1.00  0.00    -0.203 F 
ATOM     75  F   UNL A   1      39.480  24.629  26.962  1.00  0.00    -0.200 F 
ATOM     76  C   UNL A   1      40.823  26.352  26.092  1.00  0.00     0.200 A 
ATOM     77  F   UNL A   1      42.134  28.124  25.279  1.00  0.00    -0.200 F 
ATOM     78  F   UNL A   1      40.919  25.714  24.918  1.00  0.00    -0.200 F 
ENDBRANCH  54  68
BRANCH  55  79
ATOM     79  C   UNL A   1      40.268  33.194  36.767  1.00  0.00     0.064 A 
ATOM     80  C   UNL A   1      39.154  32.330  36.915  1.00  0.00     0.173 A 
ATOM     81  C   UNL A   1      40.270  34.345  37.563  1.00  0.00     0.173 A 
ATOM     82  F   UNL A   1      39.072  31.212  36.175  1.00  0.00    -0.203 F 
ATOM     83  C   UNL A   1      38.168  32.542  37.880  1.00  0.00     0.198 A 
ATOM     84  C   UNL A   1      39.261  34.572  38.513  1.00  0.00     0.198 A 
ATOM     85  F   UNL A   1      41.281  35.222  37.492  1.00  0.00    -0.203 F 
ATOM     86  F   UNL A   1      37.204  31.629  38.064  1.00  0.00    -0.200 F 
ATOM     87  C   UNL A   1      38.230  33.659  38.689  1.00  0.00     0.200 A 
ATOM     88  F   UNL A   1      39.336  35.636  39.329  1.00  0.00    -0.200 F 
ATOM     89  F   UNL A   1      37.332  33.835  39.669  1.00  0.00    -0.200 F 
ENDBRANCH  55  79
BRANCH  67  90
ATOM     90  C   UNL A   1      43.381  26.979  34.706  1.00  0.00     0.064 A 
ATOM     91  C   UNL A   1      42.521  25.905  34.992  1.00  0.00     0.173 A 
ATOM     92  C   UNL A   1      44.756  26.653  34.613  1.00  0.00     0.173 A 
ATOM     93  F   UNL A   1      41.190  26.042  34.950  1.00  0.00    -0.203 F 
ATOM     94  C   UNL A   1      43.004  24.629  35.270  1.00  0.00     0.198 A 
ATOM     95  C   UNL A   1      45.224  25.356  34.802  1.00  0.00     0.198 A 
ATOM     96  F   UNL A   1      45.682  27.568  34.298  1.00  0.00    -0.203 F 
ATOM     97  F   UNL A   1      42.144  23.660  35.611  1.00  0.00    -0.200 F 
ATOM     98  C   UNL A   1      44.352  24.350  35.161  1.00  0.00     0.200 A 
ATOM     99  F   UNL A   1      46.523  25.085  34.610  1.00  0.00    -0.200 F 
ATOM    100  F   UNL A   1      44.805  23.109  35.374  1.00  0.00    -0.200 F 
ENDBRANCH  67  90
ENDBRANCH  41  42
ENDBRANCH  34  36
ENDBRANCH  33  34
ENDBRANCH  32  33
ENDBRANCH  31  32
ENDBRANCH   1  31
TORSDOF 16
ENDMDL
MODEL 2
REMARK VINA RESULT:     -13.2      1.180      2.136
REMARK SMILES Cc1cc(C(=O)OCCOC(=O)c2ccc(-c3c4nc(c(-c5c(F)c(F)c(F)c(F)c5F)c5ccc([nH]5)c(-c5c(F)c(F)c(F)c(F)c5F)c5nc(c(-c6c(F)c(F)c(F)c(F)c6F)c6ccc3[nH]6)C=C5)C=C4)cc2)ccc1-c1ccc(/C=N/NC(=O)c2cccc(N(C)C)c2)o1
REMARK SMILES IDX 7 1 5 2 6 3 4 4 1 5 2 6 3 7 78 8 77 9 76 10 79 11 80 12
REMARK SMILES IDX 97 13 81 14 82 15 83 16 84 17 85 18 86 19 87 21 88 22 89 23
REMARK SMILES IDX 96 24 90 25 92 26 91 27 93 28 94 29 95 30 8 31 9 32 10 33
REMARK SMILES IDX 11 34 12 35 13 36 14 37 75 38 15 39 74 40 16 41 17 42 18 43
REMARK SMILES IDX 68 44 19 45 73 46 67 47 69 48 20 49 72 50 66 51 65 52 21 54
REMARK SMILES IDX 53 55 33 56 52 57 34 58 37 59 51 60 70 61 35 62 36 63 50 65
REMARK SMILES IDX 71 66 38 67 22 68 23 69 31 70 24 71 25 72 29 73 32 74 26 75
REMARK SMILES IDX 27 76 30 77 28 78 54 79 55 80 63 81 56 82 57 83 61 84 64 85
REMARK SMILES IDX 58 86 59 87 62 88 60 89 39 90 40 91 48 92 41 93 42 94 46 95
REMARK SMILES IDX 49 96 43 97 44 98 47 99 45 100
REMARK H PARENT 85 20 69 53 37 64
REMARK Flexibility Score: inf
ROOT
ATOM      1  O   UNL A   1      32.693  36.702  30.786  1.00  0.00    -0.458 OA
ENDROOT
BRANCH   1   2
ATOM      2  C   UNL A   1      33.224  36.629  29.535  1.00  0.00     0.338 C 
ATOM      3  O   UNL A   1      33.324  37.571  28.758  1.00  0.00    -0.246 OA
BRANCH   2   4
ATOM      4  C   UNL A   1      33.636  35.267  29.122  1.00  0.00     0.060 A 
ATOM      5  C   UNL A   1      36.745  33.132  28.693  1.00  0.00     0.045 C 
ATOM      6  C   UNL A   1      35.279  33.495  28.724  1.00  0.00    -0.039 A 
ATOM      7  C   UNL A   1      34.917  34.736  29.299  1.00  0.00     0.019 A 
ATOM      8  C   UNL A   1      34.280  32.712  28.111  1.00  0.00     0.020 A 
ATOM      9  C   UNL A   1      32.999  33.260  27.938  1.00  0.00     0.013 A 
ATOM     10  C   UNL A   1      32.690  34.534  28.406  1.00  0.00     0.016 A 
BRANCH   8  11
ATOM     11  C   UNL A   1      34.471  31.318  27.733  1.00  0.00     0.135 A 
ATOM     12  C   UNL A   1      35.579  30.505  27.604  1.00  0.00     0.051 A 
ATOM     13  O   UNL A   1      33.335  30.581  27.558  1.00  0.00    -0.455 OA
ATOM     14  C   UNL A   1      35.094  29.206  27.330  1.00  0.00     0.053 A 
ATOM     15  C   UNL A   1      33.717  29.296  27.312  1.00  0.00     0.147 A 
BRANCH  15  16
ATOM     16  C   UNL A   1      32.694  28.317  27.090  1.00  0.00     0.180 C 
ATOM     17  N   UNL A   1      32.076  28.288  25.950  1.00  0.00    -0.177 NA
BRANCH  17  18
ATOM     18  N   UNL A   1      31.082  27.375  25.776  1.00  0.00    -0.243 N 
ATOM     19  C   UNL A   1      31.087  26.106  25.227  1.00  0.00     0.271 C 
ATOM     20  H   UNL A   1      30.200  27.672  26.099  1.00  0.00     0.194 HD
ATOM     21  O   UNL A   1      30.004  25.552  25.026  1.00  0.00    -0.267 OA
BRANCH  19  22
ATOM     22  C   UNL A   1      32.336  25.367  24.894  1.00  0.00     0.043 A 
ATOM     23  C   UNL A   1      32.957  25.672  23.680  1.00  0.00     0.014 A 
ATOM     24  C   UNL A   1      32.870  24.343  25.695  1.00  0.00     0.039 A 
ATOM     25  C   UNL A   1      34.106  24.993  23.302  1.00  0.00     0.003 A 
ATOM     26  C   UNL A   1      34.071  23.672  25.376  1.00  0.00     0.037 A 
ATOM     27  C   UNL A   1      34.656  24.020  24.148  1.00  0.00     0.026 A 
BRANCH  26  28
ATOM     28  N   UNL A   1      34.616  22.714  26.223  1.00  0.00    -0.378 N 
ATOM     29  C   UNL A   1      35.880  22.032  25.959  1.00  0.00     0.143 C 
ATOM     30  C   UNL A   1      34.115  22.572  27.589  1.00  0.00     0.143 C 
ENDBRANCH  26  28
ENDBRANCH  19  22
ENDBRANCH  17  18
ENDBRANCH  15  16
ENDBRANCH   8  11
ENDBRANCH   2   4
ENDBRANCH   1   2
BRANCH   1  31
ATOM     31  C   UNL A   1      33.466  37.570  31.630  1.00  0.00     0.275 C 
BRANCH  31  32
ATOM     32  C   UNL A   1      33.659  37.086  33.077  1.00  0.00     0.275 C 
BRANCH  32  33
ATOM     33  O   UNL A   1      34.543  35.976  33.405  1.00  0.00    -0.458 OA
BRANCH  33  34
ATOM     34  C   UNL A   1      34.421  34.691  33.017  1.00  0.00     0.338 C 
ATOM     35  O   UNL A   1      33.332  34.137  32.883  1.00  0.00    -0.246 OA
BRANCH  34  36
ATOM     36  C   UNL A   1      35.670  33.958  32.784  1.00  0.00     0.060 A 
ATOM     37  C   UNL A   1      36.716  34.599  32.100  1.00  0.00     0.016 A 
ATOM     38  C   UNL A   1      35.839  32.703  33.356  1.00  0.00     0.016 A 
ATOM     39  C   UNL A   1      37.982  34.041  32.089  1.00  0.00     0.010 A 
ATOM     40  C   UNL A   1      37.110  32.218  33.482  1.00  0.00     0.010 A 
ATOM     41  C   UNL A   1      38.154  32.853  32.789  1.00  0.00    -0.014 A 
BRANCH  41  42
ATOM     42  C   UNL A   1      39.254  31.950  32.532  1.00  0.00     0.031 A 
ATOM     43  C   UNL A   1      39.077  30.763  31.695  1.00  0.00     0.074 A 
ATOM     44  C   UNL A   1      40.406  32.503  32.977  1.00  0.00     0.049 A 
ATOM     45  N   UNL A   1      39.925  29.804  31.641  1.00  0.00    -0.248 NA
ATOM     46  C   UNL A   1      37.899  30.513  30.871  1.00  0.00     0.031 C 
ATOM     47  C   UNL A   1      41.798  32.242  32.680  1.00  0.00     0.029 A 
ATOM     48  N   UNL A   1      40.464  33.490  33.988  1.00  0.00    -0.354 N 
ATOM     49  C   UNL A   1      39.607  29.027  30.544  1.00  0.00     0.074 A 
ATOM     50  C   UNL A   1      38.260  29.407  30.208  1.00  0.00     0.031 C 
ATOM     51  C   UNL A   1      42.545  32.757  33.682  1.00  0.00     0.029 A 
ATOM     52  C   UNL A   1      41.627  33.239  34.711  1.00  0.00     0.049 A 
ATOM     53  H   UNL A   1      39.812  34.211  34.148  1.00  0.00     0.167 HD
ATOM     54  C   UNL A   1      40.619  28.305  29.975  1.00  0.00     0.037 A 
ATOM     55  C   UNL A   1      41.471  32.709  35.961  1.00  0.00     0.037 A 
ATOM     56  C   UNL A   1      41.819  28.460  30.805  1.00  0.00     0.049 A 
ATOM     57  C   UNL A   1      41.979  31.289  35.961  1.00  0.00     0.074 A 
ATOM     58  C   UNL A   1      42.888  29.337  30.717  1.00  0.00     0.029 A 
ATOM     59  N   UNL A   1      41.802  27.980  32.110  1.00  0.00    -0.354 N 
ATOM     60  N   UNL A   1      41.857  30.459  34.958  1.00  0.00    -0.248 NA
ATOM     61  C   UNL A   1      42.794  30.768  37.049  1.00  0.00     0.031 C 
ATOM     62  C   UNL A   1      43.444  29.464  32.020  1.00  0.00     0.029 A 
ATOM     63  C   UNL A   1      42.715  28.666  32.890  1.00  0.00     0.049 A 
ATOM     64  H   UNL A   1      41.220  27.255  32.433  1.00  0.00     0.167 HD
ATOM     65  C   UNL A   1      42.643  29.363  35.200  1.00  0.00     0.074 A 
ATOM     66  C   UNL A   1      43.184  29.594  36.531  1.00  0.00     0.031 C 
ATOM     67  C   UNL A   1      42.862  28.355  34.303  1.00  0.00     0.037 A 
BRANCH  54  68
ATOM     68  C   UNL A   1      40.672  27.710  28.578  1.00  0.00     0.064 A 
ATOM     69  C   UNL A   1      40.039  26.467  28.322  1.00  0.00     0.173 A 
ATOM     70  C   UNL A   1      41.355  28.245  27.469  1.00  0.00     0.173 A 
ATOM     71  F   UNL A   1      39.300  25.854  29.257  1.00  0.00    -0.203 F 
ATOM     72  C   UNL A   1      40.139  25.799  27.098  1.00  0.00     0.198 A 
ATOM     73  C   UNL A   1      41.458  27.573  26.243  1.00  0.00     0.198 A 
ATOM     74  F   UNL A   1      41.935  29.447  27.506  1.00  0.00    -0.203 F 
ATOM     75  F   UNL A   1      39.536  24.611  26.938  1.00  0.00    -0.200 F 
ATOM     76  C   UNL A   1      40.858  26.345  26.059  1.00  0.00     0.200 A 
ATOM     77  F   UNL A   1      42.148  28.130  25.237  1.00  0.00    -0.200 F 
ATOM     78  F   UNL A   1      40.962  25.704  24.888  1.00  0.00    -0.200 F 
ENDBRANCH  54  68
BRANCH  55  79
ATOM     79  C   UNL A   1      40.269  33.232  36.703  1.00  0.00     0.064 A 
ATOM     80  C   UNL A   1      39.149  32.376  36.852  1.00  0.00     0.173 A 
ATOM     81  C   UNL A   1      40.273  34.390  37.489  1.00  0.00     0.173 A 
ATOM     82  F   UNL A   1      39.066  31.251  36.121  1.00  0.00    -0.203 F 
ATOM     83  C   UNL A   1      38.159  32.601  37.809  1.00  0.00     0.198 A 
ATOM     84  C   UNL A   1      39.259  34.630  38.431  1.00  0.00     0.198 A 
ATOM     85  F   UNL A   1      41.289  35.261  37.417  1.00  0.00    -0.203 F 
ATOM     86  F   UNL A   1      37.188  31.695  37.995  1.00  0.00    -0.200 F 
ATOM     87  C   UNL A   1      38.221  33.725  38.609  1.00  0.00     0.200 A 
ATOM     88  F   UNL A   1      39.335  35.701  39.238  1.00  0.00    -0.200 F 
ATOM     89  F   UNL A   1      37.319  33.914  39.582  1.00  0.00    -0.200 F 
ENDBRANCH  55  79
BRANCH  67  90
ATOM     90  C   UNL A   1      43.346  26.982  34.691  1.00  0.00     0.064 A 
ATOM     91  C   UNL A   1      42.475  25.933  35.030  1.00  0.00     0.173 A 
ATOM     92  C   UNL A   1      44.709  26.625  34.556  1.00  0.00     0.173 A 
ATOM     93  F   UNL A   1      41.146  26.097  35.033  1.00  0.00    -0.203 F 
ATOM     94  C   UNL A   1      42.941  24.652  35.316  1.00  0.00     0.198 A 
ATOM     95  C   UNL A   1      45.157  25.323  34.754  1.00  0.00     0.198 A 
ATOM     96  F   UNL A   1      45.642  27.515  34.189  1.00  0.00    -0.203 F 
ATOM     97  F   UNL A   1      42.075  23.709  35.706  1.00  0.00    -0.200 F 
ATOM     98  C   UNL A   1      44.279  24.343  35.164  1.00  0.00     0.200 A 
ATOM     99  F   UNL A   1      46.442  25.021  34.521  1.00  0.00    -0.200 F 
ATOM    100  F   UNL A   1      44.714  23.097  35.386  1.00  0.00    -0.200 F 
ENDBRANCH  67  90
ENDBRANCH  41  42
ENDBRANCH  34  36
ENDBRANCH  33  34
ENDBRANCH  32  33
ENDBRANCH  31  32
ENDBRANCH   1  31
TORSDOF 16
ENDMDL
MODEL 3
REMARK VINA RESULT:     -13.1      2.047      3.060
REMARK SMILES Cc1cc(C(=O)OCCOC(=O)c2ccc(-c3c4nc(c(-c5c(F)c(F)c(F)c(F)c5F)c5ccc([nH]5)c(-c5c(F)c(F)c(F)c(F)c5F)c5nc(c(-c6c(F)c(F)c(F)c(F)c6F)c6ccc3[nH]6)C=C5)C=C4)cc2)ccc1-c1ccc(/C=N/NC(=O)c2cccc(N(C)C)c2)o1
REMARK SMILES IDX 7 1 5 2 6 3 4 4 1 5 2 6 3 7 78 8 77 9 76 10 79 11 80 12
REMARK SMILES IDX 97 13 81 14 82 15 83 16 84 17 85 18 86 19 87 21 88 22 89 23
REMARK SMILES IDX 96 24 90 25 92 26 91 27 93 28 94 29 95 30 8 31 9 32 10 33
REMARK SMILES IDX 11 34 12 35 13 36 14 37 75 38 15 39 74 40 16 41 17 42 18 43
REMARK SMILES IDX 68 44 19 45 73 46 67 47 69 48 20 49 72 50 66 51 65 52 21 54
REMARK SMILES IDX 53 55 33 56 52 57 34 58 37 59 51 60 70 61 35 62 36 63 50 65
REMARK SMILES IDX 71 66 38 67 22 68 23 69 31 70 24 71 25 72 29 73 32 74 26 75
REMARK SMILES IDX 27 76 30 77 28 78 54 79 55 80 63 81 56 82 57 83 61 84 64 85
REMARK SMILES IDX 58 86 59 87 62 88 60 89 39 90 40 91 48 92 41 93 42 94 46 95
REMARK SMILES IDX 49 96 43 97 44 98 47 99 45 100
REMARK H PARENT 85 20 69 53 37 64
REMARK Flexibility Score: inf
ROOT
ATOM      1  O   UNL A   1      32.720  35.119  29.055  1.00  0.00    -0.458 OA
ENDROOT
BRANCH   1   2
ATOM      2  C   UNL A   1      33.683  34.523  28.299  1.00  0.00     0.338 C 
ATOM      3  O   UNL A   1      34.685  35.081  27.869  1.00  0.00    -0.246 OA
BRANCH   2   4
ATOM      4  C   UNL A   1      33.403  33.109  27.955  1.00  0.00     0.060 A 
ATOM      5  C   UNL A   1      35.152  29.757  27.621  1.00  0.00     0.045 C 
ATOM      6  C   UNL A   1      34.024  30.761  27.641  1.00  0.00    -0.039 A 
ATOM      7  C   UNL A   1      34.296  32.051  28.153  1.00  0.00     0.019 A 
ATOM      8  C   UNL A   1      32.759  30.506  27.075  1.00  0.00     0.020 A 
ATOM      9  C   UNL A   1      31.875  31.579  26.880  1.00  0.00     0.013 A 
ATOM     10  C   UNL A   1      32.205  32.869  27.283  1.00  0.00     0.016 A 
BRANCH   8  11
ATOM     11  C   UNL A   1      32.270  29.169  26.768  1.00  0.00     0.135 A 
ATOM     12  C   UNL A   1      31.565  28.221  27.482  1.00  0.00     0.051 A 
ATOM     13  O   UNL A   1      32.424  28.754  25.476  1.00  0.00    -0.455 OA
ATOM     14  C   UNL A   1      31.279  27.170  26.580  1.00  0.00     0.053 A 
ATOM     15  C   UNL A   1      31.820  27.537  25.364  1.00  0.00     0.147 A 
BRANCH  15  16
ATOM     16  C   UNL A   1      31.847  26.882  24.089  1.00  0.00     0.180 C 
ATOM     17  N   UNL A   1      32.498  25.769  23.958  1.00  0.00    -0.177 NA
BRANCH  17  18
ATOM     18  N   UNL A   1      32.542  25.186  22.729  1.00  0.00    -0.243 N 
ATOM     19  C   UNL A   1      33.309  24.149  22.232  1.00  0.00     0.271 C 
ATOM     20  H   UNL A   1      31.915  25.574  22.076  1.00  0.00     0.194 HD
ATOM     21  O   UNL A   1      33.279  23.928  21.020  1.00  0.00    -0.267 OA
BRANCH  19  22
ATOM     22  C   UNL A   1      34.145  23.267  23.094  1.00  0.00     0.043 A 
ATOM     23  C   UNL A   1      35.529  23.330  22.922  1.00  0.00     0.014 A 
ATOM     24  C   UNL A   1      33.611  22.339  24.005  1.00  0.00     0.039 A 
ATOM     25  C   UNL A   1      36.357  22.509  23.675  1.00  0.00     0.003 A 
ATOM     26  C   UNL A   1      34.421  21.532  24.833  1.00  0.00     0.037 A 
ATOM     27  C   UNL A   1      35.805  21.638  24.623  1.00  0.00     0.026 A 
BRANCH  26  28
ATOM     28  N   UNL A   1      33.868  20.675  25.779  1.00  0.00    -0.378 N 
ATOM     29  C   UNL A   1      33.510  21.092  27.132  1.00  0.00     0.143 C 
ATOM     30  C   UNL A   1      33.313  19.387  25.366  1.00  0.00     0.143 C 
ENDBRANCH  26  28
ENDBRANCH  19  22
ENDBRANCH  17  18
ENDBRANCH  15  16
ENDBRANCH   8  11
ENDBRANCH   2   4
ENDBRANCH   1   2
BRANCH   1  31
ATOM     31  C   UNL A   1      33.289  35.773  30.202  1.00  0.00     0.275 C 
BRANCH  31  32
ATOM     32  C   UNL A   1      32.679  35.379  31.557  1.00  0.00     0.275 C 
BRANCH  32  33
ATOM     33  O   UNL A   1      33.408  34.572  32.524  1.00  0.00    -0.458 OA
BRANCH  33  34
ATOM     34  C   UNL A   1      34.519  34.917  33.205  1.00  0.00     0.338 C 
ATOM     35  O   UNL A   1      34.551  35.857  33.995  1.00  0.00    -0.246 OA
BRANCH  34  36
ATOM     36  C   UNL A   1      35.723  34.122  32.936  1.00  0.00     0.060 A 
ATOM     37  C   UNL A   1      36.658  34.602  32.003  1.00  0.00     0.016 A 
ATOM     38  C   UNL A   1      35.974  32.989  33.699  1.00  0.00     0.016 A 
ATOM     39  C   UNL A   1      37.910  34.019  31.916  1.00  0.00     0.010 A 
ATOM     40  C   UNL A   1      37.251  32.503  33.730  1.00  0.00     0.010 A 
ATOM     41  C   UNL A   1      38.183  32.974  32.790  1.00  0.00    -0.014 A 
BRANCH  41  42
ATOM     42  C   UNL A   1      39.235  32.012  32.549  1.00  0.00     0.031 A 
ATOM     43  C   UNL A   1      38.998  30.822  31.732  1.00  0.00     0.074 A 
ATOM     44  C   UNL A   1      40.414  32.513  32.986  1.00  0.00     0.049 A 
ATOM     45  N   UNL A   1      39.795  29.819  31.695  1.00  0.00    -0.248 NA
ATOM     46  C   UNL A   1      37.808  30.618  30.911  1.00  0.00     0.031 C 
ATOM     47  C   UNL A   1      41.791  32.176  32.694  1.00  0.00     0.029 A 
ATOM     48  N   UNL A   1      40.522  33.512  33.980  1.00  0.00    -0.354 N 
ATOM     49  C   UNL A   1      39.438  29.041  30.611  1.00  0.00     0.074 A 
ATOM     50  C   UNL A   1      38.112  29.484  30.267  1.00  0.00     0.031 C 
ATOM     51  C   UNL A   1      42.563  32.668  33.688  1.00  0.00     0.029 A 
ATOM     52  C   UNL A   1      41.671  33.215  34.708  1.00  0.00     0.049 A 
ATOM     53  H   UNL A   1      39.908  34.268  34.127  1.00  0.00     0.167 HD
ATOM     54  C   UNL A   1      40.412  28.259  30.056  1.00  0.00     0.037 A 
ATOM     55  C   UNL A   1      41.488  32.715  35.967  1.00  0.00     0.037 A 
ATOM     56  C   UNL A   1      41.618  28.367  30.884  1.00  0.00     0.049 A 
ATOM     57  C   UNL A   1      41.923  31.270  35.991  1.00  0.00     0.074 A 
ATOM     58  C   UNL A   1      42.730  29.186  30.781  1.00  0.00     0.029 A 
ATOM     59  N   UNL A   1      41.576  27.910  32.197  1.00  0.00    -0.354 N 
ATOM     60  N   UNL A   1      41.758  30.431  35.002  1.00  0.00    -0.248 NA
ATOM     61  C   UNL A   1      42.710  30.727  37.088  1.00  0.00     0.031 C 
ATOM     62  C   UNL A   1      43.292  29.306  32.083  1.00  0.00     0.029 A 
ATOM     63  C   UNL A   1      42.524  28.561  32.966  1.00  0.00     0.049 A 
ATOM     64  H   UNL A   1      40.959  27.221  32.532  1.00  0.00     0.167 HD
ATOM     65  C   UNL A   1      42.487  29.300  35.263  1.00  0.00     0.074 A 
ATOM     66  C   UNL A   1      43.039  29.525  36.591  1.00  0.00     0.031 C 
ATOM     67  C   UNL A   1      42.654  28.268  34.384  1.00  0.00     0.037 A 
BRANCH  54  68
ATOM     68  C   UNL A   1      40.435  27.639  28.668  1.00  0.00     0.064 A 
ATOM     69  C   UNL A   1      39.777  26.403  28.444  1.00  0.00     0.173 A 
ATOM     70  C   UNL A   1      41.110  28.143  27.541  1.00  0.00     0.173 A 
ATOM     71  F   UNL A   1      39.042  25.818  29.401  1.00  0.00    -0.203 F 
ATOM     72  C   UNL A   1      39.848  25.711  27.231  1.00  0.00     0.198 A 
ATOM     73  C   UNL A   1      41.183  27.447  26.325  1.00  0.00     0.198 A 
ATOM     74  F   UNL A   1      41.710  29.335  27.548  1.00  0.00    -0.203 F 
ATOM     75  F   UNL A   1      39.223  24.530  27.101  1.00  0.00    -0.200 F 
ATOM     76  C   UNL A   1      40.561  26.227  26.172  1.00  0.00     0.200 A 
ATOM     77  F   UNL A   1      41.867  27.974  25.299  1.00  0.00    -0.200 F 
ATOM     78  F   UNL A   1      40.636  25.563  25.011  1.00  0.00    -0.200 F 
ENDBRANCH  54  68
BRANCH  55  79
ATOM     79  C   UNL A   1      40.315  33.310  36.699  1.00  0.00     0.064 A 
ATOM     80  C   UNL A   1      39.174  32.495  36.913  1.00  0.00     0.173 A 
ATOM     81  C   UNL A   1      40.364  34.508  37.421  1.00  0.00     0.173 A 
ATOM     82  F   UNL A   1      39.047  31.336  36.246  1.00  0.00    -0.203 F 
ATOM     83  C   UNL A   1      38.208  32.800  37.872  1.00  0.00     0.198 A 
ATOM     84  C   UNL A   1      39.375  34.828  38.365  1.00  0.00     0.198 A 
ATOM     85  F   UNL A   1      41.402  35.345  37.284  1.00  0.00    -0.203 F 
ATOM     86  F   UNL A   1      37.216  31.934  38.123  1.00  0.00    -0.200 F 
ATOM     87  C   UNL A   1      38.316  33.964  38.608  1.00  0.00     0.200 A 
ATOM     88  F   UNL A   1      39.494  35.938  39.111  1.00  0.00    -0.200 F 
ATOM     89  F   UNL A   1      37.436  34.230  39.584  1.00  0.00    -0.200 F 
ENDBRANCH  55  79
BRANCH  67  90
ATOM     90  C   UNL A   1      43.067  26.878  34.796  1.00  0.00     0.064 A 
ATOM     91  C   UNL A   1      42.144  25.877  35.140  1.00  0.00     0.173 A 
ATOM     92  C   UNL A   1      44.413  26.454  34.678  1.00  0.00     0.173 A 
ATOM     93  F   UNL A   1      40.824  26.106  35.128  1.00  0.00    -0.203 F 
ATOM     94  C   UNL A   1      42.544  24.580  35.449  1.00  0.00     0.198 A 
ATOM     95  C   UNL A   1      44.795  25.135  34.899  1.00  0.00     0.198 A 
ATOM     96  F   UNL A   1      45.391  27.292  34.308  1.00  0.00    -0.203 F 
ATOM     97  F   UNL A   1      41.629  23.685  35.844  1.00  0.00    -0.200 F 
ATOM     98  C   UNL A   1      43.866  24.204  35.314  1.00  0.00     0.200 A 
ATOM     99  F   UNL A   1      46.066  24.767  34.682  1.00  0.00    -0.200 F 
ATOM    100  F   UNL A   1      44.238  22.942  35.557  1.00  0.00    -0.200 F 
ENDBRANCH  67  90
ENDBRANCH  41  42
ENDBRANCH  34  36
ENDBRANCH  33  34
ENDBRANCH  32  33
ENDBRANCH  31  32
ENDBRANCH   1  31
TORSDOF 16
ENDMDL
