MODEL 1
REMARK VINA RESULT:     -11.9      0.000      0.000
REMARK SMILES CC1(C)O[C@](C)(C(C)(C)O)CC[C@H]1C(=O)OCCOC(=O)c1ccc(-c2c3nc(c(-c4c(F)c(F)c(F)c(F)c4F)c4ccc([nH]4)c(-c4c(F)c(F)c(F)c(F)c4F)c4nc(c(-c5c(F)c(F)c(F)c(F)c5F)c5ccc2[nH]5)C=C4)C=C3)cc1
REMARK SMILES IDX 17 1 16 2 14 3 15 4 13 5 1 6 2 7 3 8 4 9 5 10 12 11 6 12
REMARK SMILES IDX 11 13 7 14 8 15 9 16 10 17 18 19 19 20 20 21 21 22 22 23
REMARK SMILES IDX 23 24 84 25 24 26 83 27 25 28 26 29 27 30 77 31 28 32 82 33
REMARK SMILES IDX 76 34 78 35 29 36 81 37 75 38 74 39 30 41 62 42 42 43 61 44
REMARK SMILES IDX 43 45 46 46 60 47 79 48 44 49 45 50 59 52 80 53 47 54 31 55
REMARK SMILES IDX 32 56 40 57 33 58 34 59 38 60 41 61 35 62 36 63 39 64 37 65
REMARK SMILES IDX 63 66 64 67 72 68 65 69 66 70 70 71 73 72 67 73 68 74 71 75
REMARK SMILES IDX 69 76 48 77 49 78 57 79 50 80 51 81 55 82 58 83 52 84 53 85
REMARK SMILES IDX 56 86 54 87
REMARK H PARENT 10 18 78 40 46 51
REMARK Flexibility Score: inf
ROOT
ATOM      1  C   UNL A   1      31.651  28.543  26.748  1.00  0.00     0.274 C 
ENDROOT
BRANCH   1   2
ATOM      2  O   UNL A   1      32.164  27.380  26.066  1.00  0.00    -0.462 OA
BRANCH   2   3
ATOM      3  C   UNL A   1      31.487  26.228  26.271  1.00  0.00     0.311 C 
ATOM      4  O   UNL A   1      30.284  26.167  26.506  1.00  0.00    -0.252 OA
BRANCH   3   5
ATOM      5  C   UNL A   1      32.351  24.980  26.258  1.00  0.00     0.131 C 
ATOM      6  C   UNL A   1      31.091  23.655  24.381  1.00  0.00     0.043 C 
ATOM      7  C   UNL A   1      31.762  23.639  25.762  1.00  0.00     0.077 C 
ATOM      8  C   UNL A   1      30.712  23.123  26.768  1.00  0.00     0.043 C 
ATOM      9  O   UNL A   1      32.773  22.605  25.793  1.00  0.00    -0.366 OA
ATOM     10  C   UNL A   1      34.081  22.837  25.237  1.00  0.00     0.094 C 
ATOM     11  C   UNL A   1      33.674  25.329  25.576  1.00  0.00     0.021 C 
ATOM     12  C   UNL A   1      34.034  22.862  23.692  1.00  0.00     0.045 C 
ATOM     13  C   UNL A   1      34.655  24.177  25.745  1.00  0.00     0.039 C 
BRANCH  10  14
ATOM     14  C   UNL A   1      34.988  21.620  25.704  1.00  0.00     0.088 C 
ATOM     15  C   UNL A   1      34.625  20.297  25.002  1.00  0.00     0.045 C 
ATOM     16  C   UNL A   1      36.483  21.888  25.448  1.00  0.00     0.045 C 
BRANCH  14  17
ATOM     17  O   UNL A   1      34.818  21.409  27.115  1.00  0.00    -0.387 OA
ATOM     18  H   UNL A   1      35.687  21.328  27.538  1.00  0.00     0.211 HD
ENDBRANCH  14  17
ENDBRANCH  10  14
ENDBRANCH   3   5
ENDBRANCH   2   3
ENDBRANCH   1   2
BRANCH   1  19
ATOM     19  C   UNL A   1      31.775  29.794  25.882  1.00  0.00     0.275 C 
BRANCH  19  20
ATOM     20  O   UNL A   1      33.110  30.321  25.967  1.00  0.00    -0.458 OA
BRANCH  20  21
ATOM     21  C   UNL A   1      33.323  31.243  26.932  1.00  0.00     0.338 C 
ATOM     22  O   UNL A   1      32.610  32.178  27.247  1.00  0.00    -0.246 OA
BRANCH  21  23
ATOM     23  C   UNL A   1      34.586  30.936  27.615  1.00  0.00     0.060 A 
ATOM     24  C   UNL A   1      34.884  29.612  27.944  1.00  0.00     0.016 A 
ATOM     25  C   UNL A   1      35.429  31.972  28.015  1.00  0.00     0.016 A 
ATOM     26  C   UNL A   1      36.018  29.316  28.695  1.00  0.00     0.010 A 
ATOM     27  C   UNL A   1      36.590  31.671  28.733  1.00  0.00     0.010 A 
ATOM     28  C   UNL A   1      36.883  30.342  29.091  1.00  0.00    -0.014 A 
BRANCH  28  29
ATOM     29  C   UNL A   1      38.083  30.025  29.901  1.00  0.00     0.031 A 
ATOM     30  C   UNL A   1      39.150  29.127  29.347  1.00  0.00     0.074 A 
ATOM     31  C   UNL A   1      38.216  30.555  31.131  1.00  0.00     0.049 A 
ATOM     32  N   UNL A   1      40.220  28.652  29.933  1.00  0.00    -0.248 NA
ATOM     33  C   UNL A   1      38.990  28.702  27.948  1.00  0.00     0.031 C 
ATOM     34  C   UNL A   1      37.265  31.472  31.760  1.00  0.00     0.029 A 
ATOM     35  N   UNL A   1      39.204  30.398  32.069  1.00  0.00    -0.354 N 
ATOM     36  C   UNL A   1      40.847  27.854  28.985  1.00  0.00     0.074 A 
ATOM     37  C   UNL A   1      40.033  27.898  27.789  1.00  0.00     0.031 C 
ATOM     38  C   UNL A   1      37.721  31.804  32.979  1.00  0.00     0.029 A 
ATOM     39  C   UNL A   1      38.966  31.084  33.234  1.00  0.00     0.049 A 
ATOM     40  H   UNL A   1      40.006  29.846  31.922  1.00  0.00     0.167 HD
ATOM     41  C   UNL A   1      41.997  27.149  29.107  1.00  0.00     0.037 A 
ATOM     42  C   UNL A   1      39.659  31.108  34.387  1.00  0.00     0.037 A 
ATOM     43  C   UNL A   1      42.815  27.126  30.292  1.00  0.00     0.049 A 
ATOM     44  C   UNL A   1      40.911  30.285  34.508  1.00  0.00     0.074 A 
ATOM     45  C   UNL A   1      44.007  26.455  30.506  1.00  0.00     0.029 A 
ATOM     46  N   UNL A   1      42.526  27.812  31.462  1.00  0.00    -0.354 N 
ATOM     47  N   UNL A   1      41.486  29.518  33.615  1.00  0.00    -0.248 NA
ATOM     48  C   UNL A   1      41.605  30.326  35.803  1.00  0.00     0.031 C 
ATOM     49  C   UNL A   1      44.421  26.707  31.820  1.00  0.00     0.029 A 
ATOM     50  C   UNL A   1      43.507  27.566  32.410  1.00  0.00     0.049 A 
ATOM     51  H   UNL A   1      41.740  28.389  31.601  1.00  0.00     0.167 HD
ATOM     52  C   UNL A   1      42.610  28.989  34.233  1.00  0.00     0.074 A 
ATOM     53  C   UNL A   1      42.650  29.543  35.572  1.00  0.00     0.031 C 
ATOM     54  C   UNL A   1      43.524  28.119  33.739  1.00  0.00     0.037 A 
BRANCH  41  55
ATOM     55  C   UNL A   1      42.426  26.319  27.935  1.00  0.00     0.064 A 
ATOM     56  C   UNL A   1      41.913  25.032  27.715  1.00  0.00     0.173 A 
ATOM     57  C   UNL A   1      43.340  26.832  27.002  1.00  0.00     0.173 A 
ATOM     58  F   UNL A   1      41.049  24.492  28.587  1.00  0.00    -0.203 F 
ATOM     59  C   UNL A   1      42.314  24.282  26.612  1.00  0.00     0.198 A 
ATOM     60  C   UNL A   1      43.720  26.088  25.889  1.00  0.00     0.198 A 
ATOM     61  F   UNL A   1      43.857  28.059  27.167  1.00  0.00    -0.203 F 
ATOM     62  F   UNL A   1      41.840  23.040  26.440  1.00  0.00    -0.200 F 
ATOM     63  C   UNL A   1      43.212  24.813  25.697  1.00  0.00     0.200 A 
ATOM     64  F   UNL A   1      44.581  26.606  25.002  1.00  0.00    -0.200 F 
ATOM     65  F   UNL A   1      43.592  24.092  24.634  1.00  0.00    -0.200 F 
ENDBRANCH  41  55
BRANCH  42  66
ATOM     66  C   UNL A   1      39.167  31.924  35.526  1.00  0.00     0.064 A 
ATOM     67  C   UNL A   1      39.509  33.278  35.642  1.00  0.00     0.173 A 
ATOM     68  C   UNL A   1      38.343  31.369  36.516  1.00  0.00     0.173 A 
ATOM     69  F   UNL A   1      40.317  33.844  34.734  1.00  0.00    -0.203 F 
ATOM     70  C   UNL A   1      39.052  34.045  36.711  1.00  0.00     0.198 A 
ATOM     71  C   UNL A   1      37.865  32.143  37.570  1.00  0.00     0.198 A 
ATOM     72  F   UNL A   1      37.991  30.076  36.450  1.00  0.00    -0.203 F 
ATOM     73  F   UNL A   1      39.423  35.327  36.821  1.00  0.00    -0.200 F 
ATOM     74  C   UNL A   1      38.223  33.478  37.670  1.00  0.00     0.200 A 
ATOM     75  F   UNL A   1      37.058  31.595  38.488  1.00  0.00    -0.200 F 
ATOM     76  F   UNL A   1      37.779  34.218  38.695  1.00  0.00    -0.200 F 
ENDBRANCH  42  66
BRANCH  54  77
ATOM     77  C   UNL A   1      44.646  27.725  34.651  1.00  0.00     0.064 A 
ATOM     78  C   UNL A   1      44.556  26.591  35.472  1.00  0.00     0.173 A 
ATOM     79  C   UNL A   1      45.830  28.475  34.692  1.00  0.00     0.173 A 
ATOM     80  F   UNL A   1      43.436  25.852  35.480  1.00  0.00    -0.203 F 
ATOM     81  C   UNL A   1      45.601  26.238  36.321  1.00  0.00     0.198 A 
ATOM     82  C   UNL A   1      46.883  28.106  35.524  1.00  0.00     0.198 A 
ATOM     83  F   UNL A   1      45.967  29.566  33.923  1.00  0.00    -0.203 F 
ATOM     84  F   UNL A   1      45.475  25.178  37.131  1.00  0.00    -0.200 F 
ATOM     85  C   UNL A   1      46.765  26.992  36.343  1.00  0.00     0.200 A 
ATOM     86  F   UNL A   1      48.010  28.831  35.539  1.00  0.00    -0.200 F 
ATOM     87  F   UNL A   1      47.770  26.652  37.161  1.00  0.00    -0.200 F 
ENDBRANCH  54  77
ENDBRANCH  28  29
ENDBRANCH  21  23
ENDBRANCH  20  21
ENDBRANCH  19  20
ENDBRANCH   1  19
TORSDOF 13
ENDMDL
MODEL 2
REMARK VINA RESULT:     -11.8      1.047      1.929
REMARK SMILES CC1(C)O[C@](C)(C(C)(C)O)CC[C@H]1C(=O)OCCOC(=O)c1ccc(-c2c3nc(c(-c4c(F)c(F)c(F)c(F)c4F)c4ccc([nH]4)c(-c4c(F)c(F)c(F)c(F)c4F)c4nc(c(-c5c(F)c(F)c(F)c(F)c5F)c5ccc2[nH]5)C=C4)C=C3)cc1
REMARK SMILES IDX 17 1 16 2 14 3 15 4 13 5 1 6 2 7 3 8 4 9 5 10 12 11 6 12
REMARK SMILES IDX 11 13 7 14 8 15 9 16 10 17 18 19 19 20 20 21 21 22 22 23
REMARK SMILES IDX 23 24 84 25 24 26 83 27 25 28 26 29 27 30 77 31 28 32 82 33
REMARK SMILES IDX 76 34 78 35 29 36 81 37 75 38 74 39 30 41 62 42 42 43 61 44
REMARK SMILES IDX 43 45 46 46 60 47 79 48 44 49 45 50 59 52 80 53 47 54 31 55
REMARK SMILES IDX 32 56 40 57 33 58 34 59 38 60 41 61 35 62 36 63 39 64 37 65
REMARK SMILES IDX 63 66 64 67 72 68 65 69 66 70 70 71 73 72 67 73 68 74 71 75
REMARK SMILES IDX 69 76 48 77 49 78 57 79 50 80 51 81 55 82 58 83 52 84 53 85
REMARK SMILES IDX 56 86 54 87
REMARK H PARENT 10 18 78 40 46 51
REMARK Flexibility Score: inf
ROOT
ATOM      1  C   UNL A   1      31.299  29.252  24.680  1.00  0.00     0.274 C 
ENDROOT
BRANCH   1   2
ATOM      2  O   UNL A   1      32.219  29.281  23.569  1.00  0.00    -0.462 OA
BRANCH   2   3
ATOM      3  C   UNL A   1      33.149  28.299  23.547  1.00  0.00     0.311 C 
ATOM      4  O   UNL A   1      34.212  28.368  22.937  1.00  0.00    -0.252 OA
BRANCH   3   5
ATOM      5  C   UNL A   1      32.751  27.039  24.295  1.00  0.00     0.131 C 
ATOM      6  C   UNL A   1      33.290  25.290  22.421  1.00  0.00     0.043 C 
ATOM      7  C   UNL A   1      32.323  25.778  23.509  1.00  0.00     0.077 C 
ATOM      8  C   UNL A   1      30.961  26.023  22.825  1.00  0.00     0.043 C 
ATOM      9  O   UNL A   1      32.035  24.693  24.419  1.00  0.00    -0.366 OA
ATOM     10  C   UNL A   1      32.951  24.359  25.480  1.00  0.00     0.094 C 
ATOM     11  C   UNL A   1      33.832  26.745  25.334  1.00  0.00     0.021 C 
ATOM     12  C   UNL A   1      34.220  23.672  24.927  1.00  0.00     0.045 C 
ATOM     13  C   UNL A   1      33.363  25.629  26.256  1.00  0.00     0.039 C 
BRANCH  10  14
ATOM     14  C   UNL A   1      32.185  23.341  26.429  1.00  0.00     0.088 C 
ATOM     15  C   UNL A   1      31.323  22.329  25.650  1.00  0.00     0.045 C 
ATOM     16  C   UNL A   1      33.158  22.539  27.313  1.00  0.00     0.045 C 
BRANCH  14  17
ATOM     17  O   UNL A   1      31.302  24.067  27.299  1.00  0.00    -0.387 OA
ATOM     18  H   UNL A   1      30.926  23.462  27.957  1.00  0.00     0.211 HD
ENDBRANCH  14  17
ENDBRANCH  10  14
ENDBRANCH   3   5
ENDBRANCH   2   3
ENDBRANCH   1   2
BRANCH   1  19
ATOM     19  C   UNL A   1      31.526  30.435  25.619  1.00  0.00     0.275 C 
BRANCH  19  20
ATOM     20  O   UNL A   1      32.815  30.325  26.247  1.00  0.00    -0.458 OA
BRANCH  20  21
ATOM     21  C   UNL A   1      33.208  31.387  26.984  1.00  0.00     0.338 C 
ATOM     22  O   UNL A   1      32.628  32.445  27.143  1.00  0.00    -0.246 OA
BRANCH  21  23
ATOM     23  C   UNL A   1      34.486  31.069  27.633  1.00  0.00     0.060 A 
ATOM     24  C   UNL A   1      34.760  29.751  28.002  1.00  0.00     0.016 A 
ATOM     25  C   UNL A   1      35.371  32.095  27.964  1.00  0.00     0.016 A 
ATOM     26  C   UNL A   1      35.912  29.451  28.722  1.00  0.00     0.010 A 
ATOM     27  C   UNL A   1      36.548  31.789  28.652  1.00  0.00     0.010 A 
ATOM     28  C   UNL A   1      36.819  30.466  29.049  1.00  0.00    -0.014 A 
BRANCH  28  29
ATOM     29  C   UNL A   1      38.038  30.146  29.828  1.00  0.00     0.031 A 
ATOM     30  C   UNL A   1      39.088  29.244  29.246  1.00  0.00     0.074 A 
ATOM     31  C   UNL A   1      38.204  30.676  31.054  1.00  0.00     0.049 A 
ATOM     32  N   UNL A   1      40.171  28.767  29.804  1.00  0.00    -0.248 NA
ATOM     33  C   UNL A   1      38.891  28.820  27.852  1.00  0.00     0.031 C 
ATOM     34  C   UNL A   1      37.273  31.595  31.708  1.00  0.00     0.029 A 
ATOM     35  N   UNL A   1      39.216  30.516  31.966  1.00  0.00    -0.354 N 
ATOM     36  C   UNL A   1      40.770  27.967  28.841  1.00  0.00     0.074 A 
ATOM     37  C   UNL A   1      39.926  28.013  27.666  1.00  0.00     0.031 C 
ATOM     38  C   UNL A   1      37.761  31.926  32.914  1.00  0.00     0.029 A 
ATOM     39  C   UNL A   1      39.009  31.202  33.137  1.00  0.00     0.049 A 
ATOM     40  H   UNL A   1      40.012  29.961  31.798  1.00  0.00     0.167 HD
ATOM     41  C   UNL A   1      41.922  27.259  28.933  1.00  0.00     0.037 A 
ATOM     42  C   UNL A   1      39.732  31.224  34.272  1.00  0.00     0.037 A 
ATOM     43  C   UNL A   1      42.770  27.233  30.096  1.00  0.00     0.049 A 
ATOM     44  C   UNL A   1      40.984  30.398  34.360  1.00  0.00     0.074 A 
ATOM     45  C   UNL A   1      43.965  26.559  30.280  1.00  0.00     0.029 A 
ATOM     46  N   UNL A   1      42.513  27.920  31.274  1.00  0.00    -0.354 N 
ATOM     47  N   UNL A   1      41.534  29.628  33.453  1.00  0.00    -0.248 NA
ATOM     48  C   UNL A   1      41.712  30.436  35.637  1.00  0.00     0.031 C 
ATOM     49  C   UNL A   1      44.413  26.810  31.583  1.00  0.00     0.029 A 
ATOM     50  C   UNL A   1      43.518  27.671  32.196  1.00  0.00     0.049 A 
ATOM     51  H   UNL A   1      41.732  28.499  31.432  1.00  0.00     0.167 HD
ATOM     52  C   UNL A   1      42.673  29.097  34.041  1.00  0.00     0.074 A 
ATOM     53  C   UNL A   1      42.749  29.651  35.378  1.00  0.00     0.031 C 
ATOM     54  C   UNL A   1      43.571  28.224  33.524  1.00  0.00     0.037 A 
BRANCH  41  55
ATOM     55  C   UNL A   1      42.318  26.427  27.750  1.00  0.00     0.064 A 
ATOM     56  C   UNL A   1      43.234  26.891  26.795  1.00  0.00     0.173 A 
ATOM     57  C   UNL A   1      41.794  25.135  27.588  1.00  0.00     0.173 A 
ATOM     58  F   UNL A   1      43.750  28.124  26.899  1.00  0.00    -0.203 F 
ATOM     59  C   UNL A   1      43.600  26.097  25.711  1.00  0.00     0.198 A 
ATOM     60  C   UNL A   1      42.180  24.336  26.515  1.00  0.00     0.198 A 
ATOM     61  F   UNL A   1      40.916  24.645  28.475  1.00  0.00    -0.203 F 
ATOM     62  F   UNL A   1      44.449  26.573  24.791  1.00  0.00    -0.200 F 
ATOM     63  C   UNL A   1      43.077  24.819  25.575  1.00  0.00     0.200 A 
ATOM     64  F   UNL A   1      41.680  23.099  26.391  1.00  0.00    -0.200 F 
ATOM     65  F   UNL A   1      43.434  24.055  24.534  1.00  0.00    -0.200 F 
ENDBRANCH  41  55
BRANCH  42  66
ATOM     66  C   UNL A   1      39.273  32.041  35.423  1.00  0.00     0.064 A 
ATOM     67  C   UNL A   1      39.633  33.391  35.537  1.00  0.00     0.173 A 
ATOM     68  C   UNL A   1      38.462  31.492  36.427  1.00  0.00     0.173 A 
ATOM     69  F   UNL A   1      40.429  33.951  34.615  1.00  0.00    -0.203 F 
ATOM     70  C   UNL A   1      39.205  34.159  36.618  1.00  0.00     0.198 A 
ATOM     71  C   UNL A   1      38.013  32.268  37.492  1.00  0.00     0.198 A 
ATOM     72  F   UNL A   1      38.092  30.204  36.363  1.00  0.00    -0.203 F 
ATOM     73  F   UNL A   1      39.594  35.436  36.724  1.00  0.00    -0.200 F 
ATOM     74  C   UNL A   1      38.389  33.599  37.590  1.00  0.00     0.200 A 
ATOM     75  F   UNL A   1      37.218  31.726  38.424  1.00  0.00    -0.200 F 
ATOM     76  F   UNL A   1      37.973  34.339  38.627  1.00  0.00    -0.200 F 
ENDBRANCH  42  66
BRANCH  54  77
ATOM     77  C   UNL A   1      44.715  27.827  34.407  1.00  0.00     0.064 A 
ATOM     78  C   UNL A   1      44.639  26.697  35.236  1.00  0.00     0.173 A 
ATOM     79  C   UNL A   1      45.905  28.569  34.411  1.00  0.00     0.173 A 
ATOM     80  F   UNL A   1      43.515  25.967  35.279  1.00  0.00    -0.203 F 
ATOM     81  C   UNL A   1      45.705  26.341  36.058  1.00  0.00     0.198 A 
ATOM     82  C   UNL A   1      46.977  28.196  35.216  1.00  0.00     0.198 A 
ATOM     83  F   UNL A   1      46.027  29.655  33.633  1.00  0.00    -0.203 F 
ATOM     84  F   UNL A   1      45.594  25.286  36.877  1.00  0.00    -0.200 F 
ATOM     85  C   UNL A   1      46.874  27.088  36.044  1.00  0.00     0.200 A 
ATOM     86  F   UNL A   1      48.109  28.913  35.196  1.00  0.00    -0.200 F 
ATOM     87  F   UNL A   1      47.899  26.744  36.835  1.00  0.00    -0.200 F 
ENDBRANCH  54  77
ENDBRANCH  28  29
ENDBRANCH  21  23
ENDBRANCH  20  21
ENDBRANCH  19  20
ENDBRANCH   1  19
TORSDOF 13
ENDMDL
MODEL 3
REMARK VINA RESULT:     -11.7      0.999      1.867
REMARK SMILES CC1(C)O[C@](C)(C(C)(C)O)CC[C@H]1C(=O)OCCOC(=O)c1ccc(-c2c3nc(c(-c4c(F)c(F)c(F)c(F)c4F)c4ccc([nH]4)c(-c4c(F)c(F)c(F)c(F)c4F)c4nc(c(-c5c(F)c(F)c(F)c(F)c5F)c5ccc2[nH]5)C=C4)C=C3)cc1
REMARK SMILES IDX 17 1 16 2 14 3 15 4 13 5 1 6 2 7 3 8 4 9 5 10 12 11 6 12
REMARK SMILES IDX 11 13 7 14 8 15 9 16 10 17 18 19 19 20 20 21 21 22 22 23
REMARK SMILES IDX 23 24 84 25 24 26 83 27 25 28 26 29 27 30 77 31 28 32 82 33
REMARK SMILES IDX 76 34 78 35 29 36 81 37 75 38 74 39 30 41 62 42 42 43 61 44
REMARK SMILES IDX 43 45 46 46 60 47 79 48 44 49 45 50 59 52 80 53 47 54 31 55
REMARK SMILES IDX 32 56 40 57 33 58 34 59 38 60 41 61 35 62 36 63 39 64 37 65
REMARK SMILES IDX 63 66 64 67 72 68 65 69 66 70 70 71 73 72 67 73 68 74 71 75
REMARK SMILES IDX 69 76 48 77 49 78 57 79 50 80 51 81 55 82 58 83 52 84 53 85
REMARK SMILES IDX 56 86 54 87
REMARK H PARENT 10 18 78 40 46 51
REMARK Flexibility Score: inf
ROOT
ATOM      1  C   UNL A   1      31.585  29.254  24.539  1.00  0.00     0.274 C 
ENDROOT
BRANCH   1   2
ATOM      2  O   UNL A   1      30.765  28.081  24.719  1.00  0.00    -0.462 OA
BRANCH   2   3
ATOM      3  C   UNL A   1      30.642  27.275  23.641  1.00  0.00     0.311 C 
ATOM      4  O   UNL A   1      30.176  27.630  22.562  1.00  0.00    -0.252 OA
BRANCH   3   5
ATOM      5  C   UNL A   1      31.069  25.837  23.879  1.00  0.00     0.131 C 
ATOM      6  C   UNL A   1      33.643  26.239  24.154  1.00  0.00     0.043 C 
ATOM      7  C   UNL A   1      32.513  25.397  23.545  1.00  0.00     0.077 C 
ATOM      8  C   UNL A   1      32.722  25.398  22.016  1.00  0.00     0.043 C 
ATOM      9  O   UNL A   1      32.707  24.007  23.895  1.00  0.00    -0.366 OA
ATOM     10  C   UNL A   1      32.294  23.507  25.181  1.00  0.00     0.094 C 
ATOM     11  C   UNL A   1      30.649  25.449  25.296  1.00  0.00     0.021 C 
ATOM     12  C   UNL A   1      33.232  24.007  26.302  1.00  0.00     0.045 C 
ATOM     13  C   UNL A   1      30.850  23.953  25.495  1.00  0.00     0.039 C 
BRANCH  10  14
ATOM     14  C   UNL A   1      32.391  21.923  25.097  1.00  0.00     0.088 C 
ATOM     15  C   UNL A   1      32.377  21.398  23.649  1.00  0.00     0.045 C 
ATOM     16  C   UNL A   1      33.667  21.391  25.773  1.00  0.00     0.045 C 
BRANCH  14  17
ATOM     17  O   UNL A   1      31.264  21.338  25.769  1.00  0.00    -0.387 OA
ATOM     18  H   UNL A   1      31.127  20.434  25.445  1.00  0.00     0.211 HD
ENDBRANCH  14  17
ENDBRANCH  10  14
ENDBRANCH   3   5
ENDBRANCH   2   3
ENDBRANCH   1   2
BRANCH   1  19
ATOM     19  C   UNL A   1      31.769  30.010  25.853  1.00  0.00     0.275 C 
BRANCH  19  20
ATOM     20  O   UNL A   1      33.155  30.343  26.039  1.00  0.00    -0.458 OA
BRANCH  20  21
ATOM     21  C   UNL A   1      33.416  31.310  26.946  1.00  0.00     0.338 C 
ATOM     22  O   UNL A   1      32.735  32.281  27.225  1.00  0.00    -0.246 OA
BRANCH  21  23
ATOM     23  C   UNL A   1      34.686  31.005  27.617  1.00  0.00     0.060 A 
ATOM     24  C   UNL A   1      34.977  29.685  27.968  1.00  0.00     0.016 A 
ATOM     25  C   UNL A   1      35.543  32.041  27.985  1.00  0.00     0.016 A 
ATOM     26  C   UNL A   1      36.119  29.393  28.708  1.00  0.00     0.010 A 
ATOM     27  C   UNL A   1      36.712  31.744  28.692  1.00  0.00     0.010 A 
ATOM     28  C   UNL A   1      36.999  30.419  29.071  1.00  0.00    -0.014 A 
BRANCH  28  29
ATOM     29  C   UNL A   1      38.207  30.107  29.870  1.00  0.00     0.031 A 
ATOM     30  C   UNL A   1      39.269  29.208  29.309  1.00  0.00     0.074 A 
ATOM     31  C   UNL A   1      38.352  30.644  31.096  1.00  0.00     0.049 A 
ATOM     32  N   UNL A   1      40.346  28.737  29.886  1.00  0.00    -0.248 NA
ATOM     33  C   UNL A   1      39.095  28.776  27.914  1.00  0.00     0.031 C 
ATOM     34  C   UNL A   1      37.408  31.563  31.731  1.00  0.00     0.029 A 
ATOM     35  N   UNL A   1      39.351  30.493  32.025  1.00  0.00    -0.354 N 
ATOM     36  C   UNL A   1      40.963  27.935  28.936  1.00  0.00     0.074 A 
ATOM     37  C   UNL A   1      40.137  27.972  27.748  1.00  0.00     0.031 C 
ATOM     38  C   UNL A   1      37.876  31.901  32.943  1.00  0.00     0.029 A 
ATOM     39  C   UNL A   1      39.124  31.184  33.189  1.00  0.00     0.049 A 
ATOM     40  H   UNL A   1      40.152  29.941  31.872  1.00  0.00     0.167 HD
ATOM     41  C   UNL A   1      42.116  27.232  29.049  1.00  0.00     0.037 A 
ATOM     42  C   UNL A   1      39.830  31.214  34.334  1.00  0.00     0.037 A 
ATOM     43  C   UNL A   1      42.946  27.215  30.225  1.00  0.00     0.049 A 
ATOM     44  C   UNL A   1      41.083  30.393  34.446  1.00  0.00     0.074 A 
ATOM     45  C   UNL A   1      44.141  26.547  30.430  1.00  0.00     0.029 A 
ATOM     46  N   UNL A   1      42.669  27.907  31.395  1.00  0.00    -0.354 N 
ATOM     47  N   UNL A   1      41.649  29.622  33.551  1.00  0.00    -0.248 NA
ATOM     48  C   UNL A   1      41.791  30.440  35.733  1.00  0.00     0.031 C 
ATOM     49  C   UNL A   1      44.568  26.806  31.739  1.00  0.00     0.029 A 
ATOM     50  C   UNL A   1      43.660  27.666  32.334  1.00  0.00     0.049 A 
ATOM     51  H   UNL A   1      41.883  28.483  31.539  1.00  0.00     0.167 HD
ATOM     52  C   UNL A   1      42.781  29.098  34.159  1.00  0.00     0.074 A 
ATOM     53  C   UNL A   1      42.835  29.658  35.494  1.00  0.00     0.031 C 
ATOM     54  C   UNL A   1      43.691  28.226  33.660  1.00  0.00     0.037 A 
BRANCH  41  55
ATOM     55  C   UNL A   1      42.533  26.396  27.876  1.00  0.00     0.064 A 
ATOM     56  C   UNL A   1      42.053  25.091  27.692  1.00  0.00     0.173 A 
ATOM     57  C   UNL A   1      43.402  26.922  26.908  1.00  0.00     0.173 A 
ATOM     58  F   UNL A   1      41.232  24.540  28.598  1.00  0.00    -0.203 F 
ATOM     59  C   UNL A   1      42.441  24.336  26.588  1.00  0.00     0.198 A 
ATOM     60  C   UNL A   1      43.770  26.172  25.794  1.00  0.00     0.198 A 
ATOM     61  F   UNL A   1      43.887  28.165  27.038  1.00  0.00    -0.203 F 
ATOM     62  F   UNL A   1      42.000  23.079  26.449  1.00  0.00    -0.200 F 
ATOM     63  C   UNL A   1      43.295  24.879  25.638  1.00  0.00     0.200 A 
ATOM     64  F   UNL A   1      44.587  26.701  24.873  1.00  0.00    -0.200 F 
ATOM     65  F   UNL A   1      43.663  24.153  24.574  1.00  0.00    -0.200 F 
ENDBRANCH  41  55
BRANCH  42  66
ATOM     66  C   UNL A   1      39.349  32.035  35.474  1.00  0.00     0.064 A 
ATOM     67  C   UNL A   1      38.492  31.491  36.441  1.00  0.00     0.173 A 
ATOM     68  C   UNL A   1      39.740  33.373  35.623  1.00  0.00     0.173 A 
ATOM     69  F   UNL A   1      38.070  30.224  36.325  1.00  0.00    -0.203 F 
ATOM     70  C   UNL A   1      38.037  32.260  37.510  1.00  0.00     0.198 A 
ATOM     71  C   UNL A   1      39.306  34.133  36.707  1.00  0.00     0.198 A 
ATOM     72  F   UNL A   1      40.557  33.939  34.722  1.00  0.00    -0.203 F 
ATOM     73  F   UNL A   1      37.189  31.730  38.401  1.00  0.00    -0.200 F 
ATOM     74  C   UNL A   1      38.451  33.577  37.646  1.00  0.00     0.200 A 
ATOM     75  F   UNL A   1      39.715  35.401  36.839  1.00  0.00    -0.200 F 
ATOM     76  F   UNL A   1      38.018  34.315  38.678  1.00  0.00    -0.200 F 
ENDBRANCH  42  66
BRANCH  54  77
ATOM     77  C   UNL A   1      44.823  27.837  34.562  1.00  0.00     0.064 A 
ATOM     78  C   UNL A   1      44.741  26.708  35.390  1.00  0.00     0.173 A 
ATOM     79  C   UNL A   1      46.007  28.588  34.586  1.00  0.00     0.173 A 
ATOM     80  F   UNL A   1      43.622  25.969  35.415  1.00  0.00    -0.203 F 
ATOM     81  C   UNL A   1      45.796  26.360  36.230  1.00  0.00     0.198 A 
ATOM     82  C   UNL A   1      47.068  28.223  35.408  1.00  0.00     0.198 A 
ATOM     83  F   UNL A   1      46.135  29.674  33.809  1.00  0.00    -0.203 F 
ATOM     84  F   UNL A   1      45.679  25.305  37.048  1.00  0.00    -0.200 F 
ATOM     85  C   UNL A   1      46.960  27.115  36.235  1.00  0.00     0.200 A 
ATOM     86  F   UNL A   1      48.195  28.949  35.407  1.00  0.00    -0.200 F 
ATOM     87  F   UNL A   1      47.974  26.779  37.044  1.00  0.00    -0.200 F 
ENDBRANCH  54  77
ENDBRANCH  28  29
ENDBRANCH  21  23
ENDBRANCH  20  21
ENDBRANCH  19  20
ENDBRANCH   1  19
TORSDOF 13
ENDMDL
