MODEL 1
REMARK VINA RESULT:     -11.7      0.000      0.000
REMARK SMILES Cc1cccc([C@@H](CC(=O)OCCOC(=O)c2ccc(-c3c4nc(c(-c5c(F)c(F)c(F)c(F)c5F)c5ccc([nH]5)c(-c5c(F)c(F)c(F)c(F)c5F)c5nc(c(-c6c(F)c(F)c(F)c(F)c6F)c6ccc3[nH]6)C=C5)C=C4)cc2)NC(=O)OC(C)(C)C)c1
REMARK SMILES IDX 12 1 11 2 9 3 10 4 8 5 7 6 6 7 1 8 2 9 3 10 88 11 4 12 5 13
REMARK SMILES IDX 80 14 81 15 82 17 83 18 84 19 85 20 86 21 87 22 13 23 14 24
REMARK SMILES IDX 15 25 16 26 17 27 18 28 79 29 19 30 78 31 20 32 21 33 22 34
REMARK SMILES IDX 72 35 23 36 77 37 71 38 73 39 24 40 76 41 70 42 69 43 25 45
REMARK SMILES IDX 57 46 37 47 56 48 38 49 41 50 55 51 74 52 39 53 40 54 54 56
REMARK SMILES IDX 75 57 42 58 26 59 27 60 35 61 28 62 29 63 33 64 36 65 30 66
REMARK SMILES IDX 31 67 34 68 32 69 58 70 59 71 67 72 60 73 61 74 65 75 68 76
REMARK SMILES IDX 62 77 63 78 66 79 64 80 43 81 44 82 52 83 45 84 46 85 50 86
REMARK SMILES IDX 53 87 47 88 48 89 51 90 49 91
REMARK H PARENT 80 16 73 44 41 55
REMARK Flexibility Score: inf
ROOT
ATOM      1  C   UNL A   1      31.231  30.304  25.278  1.00  0.00     0.274 C 
ENDROOT
BRANCH   1   2
ATOM      2  O   UNL A   1      31.889  29.154  24.702  1.00  0.00    -0.462 OA
BRANCH   2   3
ATOM      3  C   UNL A   1      31.109  28.076  24.552  1.00  0.00     0.308 C 
ATOM      4  O   UNL A   1      30.257  28.038  23.672  1.00  0.00    -0.252 OA
BRANCH   3   5
ATOM      5  C   UNL A   1      31.308  26.969  25.572  1.00  0.00     0.152 C 
BRANCH   5   6
ATOM      6  C   UNL A   1      31.940  25.741  24.850  1.00  0.00     0.127 C 
BRANCH   6   7
ATOM      7  C   UNL A   1      32.640  24.988  25.993  1.00  0.00    -0.025 A 
ATOM      8  C   UNL A   1      36.102  23.443  26.143  1.00  0.00     0.044 C 
ATOM      9  C   UNL A   1      34.627  23.638  26.285  1.00  0.00    -0.051 A 
ATOM     10  C   UNL A   1      33.827  22.593  26.765  1.00  0.00     0.003 A 
ATOM     11  C   UNL A   1      34.027  24.833  25.883  1.00  0.00     0.009 A 
ATOM     12  C   UNL A   1      32.484  22.815  27.038  1.00  0.00     0.001 A 
ATOM     13  C   UNL A   1      31.923  24.057  26.765  1.00  0.00     0.006 A 
ENDBRANCH   6   7
BRANCH   6  14
ATOM     14  N   UNL A   1      32.819  26.179  23.779  1.00  0.00    -0.314 N 
ATOM     15  C   UNL A   1      33.056  25.735  22.537  1.00  0.00     0.408 C 
ATOM     16  H   UNL A   1      33.352  26.972  24.016  1.00  0.00     0.167 HD
ATOM     17  O   UNL A   1      33.900  26.300  21.841  1.00  0.00    -0.225 OA
BRANCH  15  18
ATOM     18  O   UNL A   1      32.358  24.637  22.198  1.00  0.00    -0.444 OA
BRANCH  18  19
ATOM     19  C   UNL A   1      33.053  23.367  22.262  1.00  0.00     0.106 C 
ATOM     20  C   UNL A   1      34.523  23.511  22.686  1.00  0.00     0.056 C 
ATOM     21  C   UNL A   1      32.285  22.396  23.174  1.00  0.00     0.056 C 
ATOM     22  C   UNL A   1      33.014  22.828  20.828  1.00  0.00     0.056 C 
ENDBRANCH  18  19
ENDBRANCH  15  18
ENDBRANCH   6  14
ENDBRANCH   5   6
ENDBRANCH   3   5
ENDBRANCH   2   3
ENDBRANCH   1   2
BRANCH   1  23
ATOM     23  C   UNL A   1      31.844  31.122  26.489  1.00  0.00     0.275 C 
BRANCH  23  24
ATOM     24  O   UNL A   1      33.135  30.895  27.237  1.00  0.00    -0.458 OA
BRANCH  24  25
ATOM     25  C   UNL A   1      34.059  29.913  27.474  1.00  0.00     0.338 C 
ATOM     26  O   UNL A   1      33.794  28.722  27.439  1.00  0.00    -0.246 OA
BRANCH  25  27
ATOM     27  C   UNL A   1      35.418  30.338  27.818  1.00  0.00     0.060 A 
ATOM     28  C   UNL A   1      35.910  31.647  27.996  1.00  0.00     0.016 A 
ATOM     29  C   UNL A   1      36.239  29.290  28.071  1.00  0.00     0.016 A 
ATOM     30  C   UNL A   1      37.206  31.813  28.523  1.00  0.00     0.010 A 
ATOM     31  C   UNL A   1      37.141  29.482  29.058  1.00  0.00     0.010 A 
ATOM     32  C   UNL A   1      37.809  30.684  29.068  1.00  0.00    -0.014 A 
BRANCH  32  33
ATOM     33  C   UNL A   1      39.195  30.373  29.400  1.00  0.00     0.031 A 
ATOM     34  C   UNL A   1      39.881  29.286  28.707  1.00  0.00     0.074 A 
ATOM     35  C   UNL A   1      39.813  31.412  30.039  1.00  0.00     0.049 A 
ATOM     36  N   UNL A   1      40.574  28.371  29.285  1.00  0.00    -0.248 NA
ATOM     37  C   UNL A   1      39.841  29.147  27.245  1.00  0.00     0.031 C 
ATOM     38  C   UNL A   1      41.186  31.770  30.326  1.00  0.00     0.029 A 
ATOM     39  N   UNL A   1      39.123  32.522  30.592  1.00  0.00    -0.354 N 
ATOM     40  C   UNL A   1      41.409  27.889  28.297  1.00  0.00     0.074 A 
ATOM     41  C   UNL A   1      40.753  28.184  27.042  1.00  0.00     0.031 C 
ATOM     42  C   UNL A   1      41.181  32.670  31.342  1.00  0.00     0.029 A 
ATOM     43  C   UNL A   1      39.792  32.923  31.733  1.00  0.00     0.049 A 
ATOM     44  H   UNL A   1      38.307  32.934  30.228  1.00  0.00     0.167 HD
ATOM     45  C   UNL A   1      42.737  27.718  28.565  1.00  0.00     0.037 A 
ATOM     46  C   UNL A   1      39.126  32.635  32.886  1.00  0.00     0.037 A 
ATOM     47  C   UNL A   1      43.072  28.368  29.837  1.00  0.00     0.049 A 
ATOM     48  C   UNL A   1      39.776  31.435  33.518  1.00  0.00     0.074 A 
ATOM     49  C   UNL A   1      43.752  29.539  30.133  1.00  0.00     0.029 A 
ATOM     50  N   UNL A   1      42.379  28.029  30.994  1.00  0.00    -0.354 N 
ATOM     51  N   UNL A   1      40.496  30.568  32.859  1.00  0.00    -0.248 NA
ATOM     52  C   UNL A   1      39.750  31.179  34.945  1.00  0.00     0.031 C 
ATOM     53  C   UNL A   1      43.464  29.895  31.478  1.00  0.00     0.029 A 
ATOM     54  C   UNL A   1      42.575  28.965  31.989  1.00  0.00     0.049 A 
ATOM     55  H   UNL A   1      41.820  27.225  31.092  1.00  0.00     0.167 HD
ATOM     56  C   UNL A   1      41.106  29.716  33.732  1.00  0.00     0.074 A 
ATOM     57  C   UNL A   1      40.599  30.139  35.028  1.00  0.00     0.031 C 
ATOM     58  C   UNL A   1      41.993  28.764  33.312  1.00  0.00     0.037 A 
BRANCH  45  59
ATOM     59  C   UNL A   1      43.780  27.261  27.568  1.00  0.00     0.064 A 
ATOM     60  C   UNL A   1      44.014  25.891  27.310  1.00  0.00     0.173 A 
ATOM     61  C   UNL A   1      44.502  28.148  26.742  1.00  0.00     0.173 A 
ATOM     62  F   UNL A   1      43.362  24.927  27.969  1.00  0.00    -0.203 F 
ATOM     63  C   UNL A   1      44.915  25.446  26.341  1.00  0.00     0.198 A 
ATOM     64  C   UNL A   1      45.423  27.699  25.784  1.00  0.00     0.198 A 
ATOM     65  F   UNL A   1      44.304  29.472  26.811  1.00  0.00    -0.203 F 
ATOM     66  F   UNL A   1      45.077  24.129  26.143  1.00  0.00    -0.200 F 
ATOM     67  C   UNL A   1      45.625  26.348  25.581  1.00  0.00     0.200 A 
ATOM     68  F   UNL A   1      46.099  28.588  25.041  1.00  0.00    -0.200 F 
ATOM     69  F   UNL A   1      46.482  25.918  24.645  1.00  0.00    -0.200 F 
ENDBRANCH  45  59
BRANCH  46  70
ATOM     70  C   UNL A   1      37.641  32.934  32.799  1.00  0.00     0.064 A 
ATOM     71  C   UNL A   1      37.218  34.272  33.010  1.00  0.00     0.173 A 
ATOM     72  C   UNL A   1      36.682  32.070  32.251  1.00  0.00     0.173 A 
ATOM     73  F   UNL A   1      38.081  35.177  33.503  1.00  0.00    -0.203 F 
ATOM     74  C   UNL A   1      35.954  34.732  32.628  1.00  0.00     0.198 A 
ATOM     75  C   UNL A   1      35.398  32.527  31.899  1.00  0.00     0.198 A 
ATOM     76  F   UNL A   1      36.995  30.796  31.978  1.00  0.00    -0.203 F 
ATOM     77  F   UNL A   1      35.655  36.036  32.737  1.00  0.00    -0.200 F 
ATOM     78  C   UNL A   1      35.043  33.858  32.070  1.00  0.00     0.200 A 
ATOM     79  F   UNL A   1      34.526  31.689  31.316  1.00  0.00    -0.200 F 
ATOM     80  F   UNL A   1      33.851  34.308  31.654  1.00  0.00    -0.200 F 
ENDBRANCH  46  70
BRANCH  58  81
ATOM     81  C   UNL A   1      42.497  27.586  34.115  1.00  0.00     0.064 A 
ATOM     82  C   UNL A   1      43.808  27.460  34.589  1.00  0.00     0.173 A 
ATOM     83  C   UNL A   1      41.598  26.581  34.566  1.00  0.00     0.173 A 
ATOM     84  F   UNL A   1      44.729  28.409  34.386  1.00  0.00    -0.203 F 
ATOM     85  C   UNL A   1      44.214  26.373  35.363  1.00  0.00     0.198 A 
ATOM     86  C   UNL A   1      41.983  25.557  35.423  1.00  0.00     0.198 A 
ATOM     87  F   UNL A   1      40.302  26.565  34.222  1.00  0.00    -0.203 F 
ATOM     88  F   UNL A   1      45.502  26.263  35.716  1.00  0.00    -0.200 F 
ATOM     89  C   UNL A   1      43.300  25.433  35.796  1.00  0.00     0.200 A 
ATOM     90  F   UNL A   1      41.061  24.705  35.894  1.00  0.00    -0.200 F 
ATOM     91  F   UNL A   1      43.684  24.426  36.589  1.00  0.00    -0.200 F 
ENDBRANCH  58  81
ENDBRANCH  32  33
ENDBRANCH  25  27
ENDBRANCH  24  25
ENDBRANCH  23  24
ENDBRANCH   1  23
TORSDOF 16
ENDMDL
MODEL 2
REMARK VINA RESULT:     -11.5      1.284      2.970
REMARK SMILES Cc1cccc([C@@H](CC(=O)OCCOC(=O)c2ccc(-c3c4nc(c(-c5c(F)c(F)c(F)c(F)c5F)c5ccc([nH]5)c(-c5c(F)c(F)c(F)c(F)c5F)c5nc(c(-c6c(F)c(F)c(F)c(F)c6F)c6ccc3[nH]6)C=C5)C=C4)cc2)NC(=O)OC(C)(C)C)c1
REMARK SMILES IDX 12 1 11 2 9 3 10 4 8 5 7 6 6 7 1 8 2 9 3 10 88 11 4 12 5 13
REMARK SMILES IDX 80 14 81 15 82 17 83 18 84 19 85 20 86 21 87 22 13 23 14 24
REMARK SMILES IDX 15 25 16 26 17 27 18 28 79 29 19 30 78 31 20 32 21 33 22 34
REMARK SMILES IDX 72 35 23 36 77 37 71 38 73 39 24 40 76 41 70 42 69 43 25 45
REMARK SMILES IDX 57 46 37 47 56 48 38 49 41 50 55 51 74 52 39 53 40 54 54 56
REMARK SMILES IDX 75 57 42 58 26 59 27 60 35 61 28 62 29 63 33 64 36 65 30 66
REMARK SMILES IDX 31 67 34 68 32 69 58 70 59 71 67 72 60 73 61 74 65 75 68 76
REMARK SMILES IDX 62 77 63 78 66 79 64 80 43 81 44 82 52 83 45 84 46 85 50 86
REMARK SMILES IDX 53 87 47 88 48 89 51 90 49 91
REMARK H PARENT 80 16 73 44 41 55
REMARK Flexibility Score: inf
ROOT
ATOM      1  C   UNL A   1      33.184  26.354  25.950  1.00  0.00     0.274 C 
ENDROOT
BRANCH   1   2
ATOM      2  O   UNL A   1      32.105  25.394  25.971  1.00  0.00    -0.462 OA
BRANCH   2   3
ATOM      3  C   UNL A   1      30.877  25.929  25.928  1.00  0.00     0.308 C 
ATOM      4  O   UNL A   1      30.462  26.619  26.850  1.00  0.00    -0.252 OA
BRANCH   3   5
ATOM      5  C   UNL A   1      30.040  25.563  24.714  1.00  0.00     0.152 C 
BRANCH   5   6
ATOM      6  C   UNL A   1      30.203  26.686  23.646  1.00  0.00     0.127 C 
BRANCH   6   7
ATOM      7  C   UNL A   1      31.269  26.112  22.699  1.00  0.00    -0.025 A 
ATOM      8  C   UNL A   1      32.819  22.650  22.575  1.00  0.00     0.044 C 
ATOM      9  C   UNL A   1      32.662  24.137  22.572  1.00  0.00    -0.051 A 
ATOM     10  C   UNL A   1      33.796  24.959  22.530  1.00  0.00     0.003 A 
ATOM     11  C   UNL A   1      31.396  24.718  22.672  1.00  0.00     0.009 A 
ATOM     12  C   UNL A   1      33.654  26.332  22.378  1.00  0.00     0.001 A 
ATOM     13  C   UNL A   1      32.382  26.891  22.338  1.00  0.00     0.006 A 
ENDBRANCH   6   7
BRANCH   6  14
ATOM     14  N   UNL A   1      30.563  27.942  24.281  1.00  0.00    -0.314 N 
ATOM     15  C   UNL A   1      30.396  29.229  23.946  1.00  0.00     0.408 C 
ATOM     16  H   UNL A   1      31.027  27.823  25.141  1.00  0.00     0.167 HD
ATOM     17  O   UNL A   1      30.841  30.110  24.682  1.00  0.00    -0.225 OA
BRANCH  15  18
ATOM     18  O   UNL A   1      29.785  29.420  22.764  1.00  0.00    -0.444 OA
BRANCH  18  19
ATOM     19  C   UNL A   1      28.447  29.975  22.793  1.00  0.00     0.106 C 
ATOM     20  C   UNL A   1      27.379  28.940  23.180  1.00  0.00     0.056 C 
ATOM     21  C   UNL A   1      28.412  31.207  23.713  1.00  0.00     0.056 C 
ATOM     22  C   UNL A   1      28.181  30.430  21.354  1.00  0.00     0.056 C 
ENDBRANCH  18  19
ENDBRANCH  15  18
ENDBRANCH   6  14
ENDBRANCH   5   6
ENDBRANCH   3   5
ENDBRANCH   2   3
ENDBRANCH   1   2
BRANCH   1  23
ATOM     23  C   UNL A   1      33.186  27.657  26.852  1.00  0.00     0.275 C 
BRANCH  23  24
ATOM     24  O   UNL A   1      34.049  28.890  26.743  1.00  0.00    -0.458 OA
BRANCH  24  25
ATOM     25  C   UNL A   1      34.204  30.123  27.317  1.00  0.00     0.338 C 
ATOM     26  O   UNL A   1      33.285  30.913  27.466  1.00  0.00    -0.246 OA
BRANCH  25  27
ATOM     27  C   UNL A   1      35.555  30.505  27.735  1.00  0.00     0.060 A 
ATOM     28  C   UNL A   1      36.041  31.785  28.072  1.00  0.00     0.016 A 
ATOM     29  C   UNL A   1      36.372  29.434  27.885  1.00  0.00     0.016 A 
ATOM     30  C   UNL A   1      37.326  31.889  28.641  1.00  0.00     0.010 A 
ATOM     31  C   UNL A   1      37.253  29.512  28.906  1.00  0.00     0.010 A 
ATOM     32  C   UNL A   1      37.920  30.704  29.066  1.00  0.00    -0.014 A 
BRANCH  32  33
ATOM     33  C   UNL A   1      39.299  30.357  29.389  1.00  0.00     0.031 A 
ATOM     34  C   UNL A   1      39.966  29.283  28.659  1.00  0.00     0.074 A 
ATOM     35  C   UNL A   1      39.934  31.360  30.067  1.00  0.00     0.049 A 
ATOM     36  N   UNL A   1      40.641  28.335  29.204  1.00  0.00    -0.248 NA
ATOM     37  C   UNL A   1      39.928  29.198  27.192  1.00  0.00     0.031 C 
ATOM     38  C   UNL A   1      41.312  31.683  30.370  1.00  0.00     0.029 A 
ATOM     39  N   UNL A   1      39.262  32.461  30.659  1.00  0.00    -0.354 N 
ATOM     40  C   UNL A   1      41.470  27.875  28.201  1.00  0.00     0.074 A 
ATOM     41  C   UNL A   1      40.823  28.227  26.956  1.00  0.00     0.031 C 
ATOM     42  C   UNL A   1      41.320  32.545  31.418  1.00  0.00     0.029 A 
ATOM     43  C   UNL A   1      39.936  32.808  31.814  1.00  0.00     0.049 A 
ATOM     44  H   UNL A   1      38.455  32.901  30.308  1.00  0.00     0.167 HD
ATOM     45  C   UNL A   1      42.794  27.669  28.465  1.00  0.00     0.037 A 
ATOM     46  C   UNL A   1      39.261  32.491  32.955  1.00  0.00     0.037 A 
ATOM     47  C   UNL A   1      43.137  28.267  29.761  1.00  0.00     0.049 A 
ATOM     48  C   UNL A   1      39.887  31.258  33.544  1.00  0.00     0.074 A 
ATOM     49  C   UNL A   1      43.837  29.414  30.101  1.00  0.00     0.029 A 
ATOM     50  N   UNL A   1      42.436  27.899  30.904  1.00  0.00    -0.354 N 
ATOM     51  N   UNL A   1      40.593  30.401  32.856  1.00  0.00    -0.248 NA
ATOM     52  C   UNL A   1      39.854  30.950  34.961  1.00  0.00     0.031 C 
ATOM     53  C   UNL A   1      43.552  29.726  31.457  1.00  0.00     0.029 A 
ATOM     54  C   UNL A   1      42.646  28.794  31.932  1.00  0.00     0.049 A 
ATOM     55  H   UNL A   1      41.862  27.102  30.970  1.00  0.00     0.167 HD
ATOM     56  C   UNL A   1      41.186  29.508  33.699  1.00  0.00     0.074 A 
ATOM     57  C   UNL A   1      40.683  29.893  35.008  1.00  0.00     0.031 C 
ATOM     58  C   UNL A   1      42.057  28.555  33.245  1.00  0.00     0.037 A 
BRANCH  45  59
ATOM     59  C   UNL A   1      43.832  27.230  27.455  1.00  0.00     0.064 A 
ATOM     60  C   UNL A   1      44.517  28.159  26.640  1.00  0.00     0.173 A 
ATOM     61  C   UNL A   1      44.279  25.898  27.334  1.00  0.00     0.173 A 
ATOM     62  F   UNL A   1      44.249  29.469  26.681  1.00  0.00    -0.203 F 
ATOM     63  C   UNL A   1      45.531  27.787  25.755  1.00  0.00     0.198 A 
ATOM     64  C   UNL A   1      45.283  25.522  26.430  1.00  0.00     0.198 A 
ATOM     65  F   UNL A   1      43.785  24.929  28.120  1.00  0.00    -0.203 F 
ATOM     66  F   UNL A   1      46.146  28.726  25.020  1.00  0.00    -0.200 F 
ATOM     67  C   UNL A   1      45.912  26.468  25.644  1.00  0.00     0.200 A 
ATOM     68  F   UNL A   1      45.654  24.236  26.341  1.00  0.00    -0.200 F 
ATOM     69  F   UNL A   1      46.893  26.115  24.802  1.00  0.00    -0.200 F 
ENDBRANCH  45  59
BRANCH  46  70
ATOM     70  C   UNL A   1      37.782  32.820  32.876  1.00  0.00     0.064 A 
ATOM     71  C   UNL A   1      37.387  34.166  33.086  1.00  0.00     0.173 A 
ATOM     72  C   UNL A   1      36.803  31.974  32.336  1.00  0.00     0.173 A 
ATOM     73  F   UNL A   1      38.271  35.055  33.571  1.00  0.00    -0.203 F 
ATOM     74  C   UNL A   1      36.130  34.651  32.711  1.00  0.00     0.198 A 
ATOM     75  C   UNL A   1      35.526  32.456  31.990  1.00  0.00     0.198 A 
ATOM     76  F   UNL A   1      37.087  30.693  32.065  1.00  0.00    -0.203 F 
ATOM     77  F   UNL A   1      35.859  35.961  32.817  1.00  0.00    -0.200 F 
ATOM     78  C   UNL A   1      35.199  33.795  32.160  1.00  0.00     0.200 A 
ATOM     79  F   UNL A   1      34.633  31.635  31.415  1.00  0.00    -0.200 F 
ATOM     80  F   UNL A   1      34.014  34.267  31.750  1.00  0.00    -0.200 F 
ENDBRANCH  46  70
BRANCH  58  81
ATOM     81  C   UNL A   1      42.537  27.340  34.006  1.00  0.00     0.064 A 
ATOM     82  C   UNL A   1      43.878  27.090  34.323  1.00  0.00     0.173 A 
ATOM     83  C   UNL A   1      41.606  26.432  34.581  1.00  0.00     0.173 A 
ATOM     84  F   UNL A   1      44.855  27.942  33.994  1.00  0.00    -0.203 F 
ATOM     85  C   UNL A   1      44.267  25.974  35.065  1.00  0.00     0.198 A 
ATOM     86  C   UNL A   1      41.990  25.382  35.406  1.00  0.00     0.198 A 
ATOM     87  F   UNL A   1      40.283  26.541  34.393  1.00  0.00    -0.203 F 
ATOM     88  F   UNL A   1      45.570  25.741  35.265  1.00  0.00    -0.200 F 
ATOM     89  C   UNL A   1      43.324  25.133  35.622  1.00  0.00     0.200 A 
ATOM     90  F   UNL A   1      41.054  24.629  36.000  1.00  0.00    -0.200 F 
ATOM     91  F   UNL A   1      43.702  24.099  36.383  1.00  0.00    -0.200 F 
ENDBRANCH  58  81
ENDBRANCH  32  33
ENDBRANCH  25  27
ENDBRANCH  24  25
ENDBRANCH  23  24
ENDBRANCH   1  23
TORSDOF 16
ENDMDL
MODEL 3
REMARK VINA RESULT:     -11.5      2.972      5.047
REMARK SMILES Cc1cccc([C@@H](CC(=O)OCCOC(=O)c2ccc(-c3c4nc(c(-c5c(F)c(F)c(F)c(F)c5F)c5ccc([nH]5)c(-c5c(F)c(F)c(F)c(F)c5F)c5nc(c(-c6c(F)c(F)c(F)c(F)c6F)c6ccc3[nH]6)C=C5)C=C4)cc2)NC(=O)OC(C)(C)C)c1
REMARK SMILES IDX 12 1 11 2 9 3 10 4 8 5 7 6 6 7 1 8 2 9 3 10 88 11 4 12 5 13
REMARK SMILES IDX 80 14 81 15 82 17 83 18 84 19 85 20 86 21 87 22 13 23 14 24
REMARK SMILES IDX 15 25 16 26 17 27 18 28 79 29 19 30 78 31 20 32 21 33 22 34
REMARK SMILES IDX 72 35 23 36 77 37 71 38 73 39 24 40 76 41 70 42 69 43 25 45
REMARK SMILES IDX 57 46 37 47 56 48 38 49 41 50 55 51 74 52 39 53 40 54 54 56
REMARK SMILES IDX 75 57 42 58 26 59 27 60 35 61 28 62 29 63 33 64 36 65 30 66
REMARK SMILES IDX 31 67 34 68 32 69 58 70 59 71 67 72 60 73 61 74 65 75 68 76
REMARK SMILES IDX 62 77 63 78 66 79 64 80 43 81 44 82 52 83 45 84 46 85 50 86
REMARK SMILES IDX 53 87 47 88 48 89 51 90 49 91
REMARK H PARENT 80 16 73 44 41 55
REMARK Flexibility Score: inf
ROOT
ATOM      1  C   UNL A   1      33.375  30.437  26.681  1.00  0.00     0.274 C 
ENDROOT
BRANCH   1   2
ATOM      2  O   UNL A   1      32.133  29.779  27.014  1.00  0.00    -0.462 OA
BRANCH   2   3
ATOM      3  C   UNL A   1      32.231  28.457  27.205  1.00  0.00     0.308 C 
ATOM      4  O   UNL A   1      31.576  27.900  28.077  1.00  0.00    -0.252 OA
BRANCH   3   5
ATOM      5  C   UNL A   1      33.241  27.736  26.329  1.00  0.00     0.152 C 
BRANCH   5   6
ATOM      6  C   UNL A   1      32.725  26.288  26.071  1.00  0.00     0.127 C 
BRANCH   6   7
ATOM      7  C   UNL A   1      33.754  25.725  25.076  1.00  0.00    -0.025 A 
ATOM      8  C   UNL A   1      33.263  24.314  21.589  1.00  0.00     0.044 C 
ATOM      9  C   UNL A   1      33.731  24.486  22.998  1.00  0.00    -0.051 A 
ATOM     10  C   UNL A   1      34.524  23.498  23.596  1.00  0.00     0.003 A 
ATOM     11  C   UNL A   1      33.333  25.595  23.748  1.00  0.00     0.009 A 
ATOM     12  C   UNL A   1      35.082  23.719  24.848  1.00  0.00     0.001 A 
ATOM     13  C   UNL A   1      34.792  24.894  25.532  1.00  0.00     0.006 A 
ENDBRANCH   6   7
BRANCH   6  14
ATOM     14  N   UNL A   1      31.357  26.316  25.584  1.00  0.00    -0.314 N 
ATOM     15  C   UNL A   1      30.243  25.650  25.918  1.00  0.00     0.408 C 
ATOM     16  H   UNL A   1      31.218  26.963  24.855  1.00  0.00     0.167 HD
ATOM     17  O   UNL A   1      29.200  25.863  25.298  1.00  0.00    -0.225 OA
BRANCH  15  18
ATOM     18  O   UNL A   1      30.411  24.742  26.895  1.00  0.00    -0.444 OA
BRANCH  18  19
ATOM     19  C   UNL A   1      30.742  23.391  26.491  1.00  0.00     0.106 C 
ATOM     20  C   UNL A   1      30.840  23.231  24.966  1.00  0.00     0.056 C 
ATOM     21  C   UNL A   1      32.028  22.934  27.200  1.00  0.00     0.056 C 
ATOM     22  C   UNL A   1      29.574  22.536  26.993  1.00  0.00     0.056 C 
ENDBRANCH  18  19
ENDBRANCH  15  18
ENDBRANCH   6  14
ENDBRANCH   5   6
ENDBRANCH   3   5
ENDBRANCH   2   3
ENDBRANCH   1   2
BRANCH   1  23
ATOM     23  C   UNL A   1      34.533  30.659  27.739  1.00  0.00     0.275 C 
BRANCH  23  24
ATOM     24  O   UNL A   1      35.416  29.640  28.416  1.00  0.00    -0.458 OA
BRANCH  24  25
ATOM     25  C   UNL A   1      36.484  29.569  29.269  1.00  0.00     0.338 C 
ATOM     26  O   UNL A   1      36.426  29.898  30.443  1.00  0.00    -0.246 OA
BRANCH  25  27
ATOM     27  C   UNL A   1      37.758  29.105  28.714  1.00  0.00     0.060 A 
ATOM     28  C   UNL A   1      38.468  29.609  27.605  1.00  0.00     0.016 A 
ATOM     29  C   UNL A   1      38.319  28.122  29.458  1.00  0.00     0.016 A 
ATOM     30  C   UNL A   1      39.775  29.137  27.371  1.00  0.00     0.010 A 
ATOM     31  C   UNL A   1      39.666  28.158  29.552  1.00  0.00     0.010 A 
ATOM     32  C   UNL A   1      40.366  28.401  28.393  1.00  0.00    -0.014 A 
BRANCH  32  33
ATOM     33  C   UNL A   1      41.515  27.504  28.420  1.00  0.00     0.031 A 
ATOM     34  C   UNL A   1      41.336  26.085  28.125  1.00  0.00     0.074 A 
ATOM     35  C   UNL A   1      42.698  28.184  28.321  1.00  0.00     0.049 A 
ATOM     36  N   UNL A   1      41.818  25.124  28.828  1.00  0.00    -0.248 NA
ATOM     37  C   UNL A   1      40.570  25.623  26.959  1.00  0.00     0.031 C 
ATOM     38  C   UNL A   1      44.066  27.825  28.014  1.00  0.00     0.029 A 
ATOM     39  N   UNL A   1      42.817  29.588  28.489  1.00  0.00    -0.354 N 
ATOM     40  C   UNL A   1      41.847  24.043  27.969  1.00  0.00     0.074 A 
ATOM     41  C   UNL A   1      40.846  24.310  26.959  1.00  0.00     0.031 C 
ATOM     42  C   UNL A   1      44.872  28.816  28.474  1.00  0.00     0.029 A 
ATOM     43  C   UNL A   1      44.036  29.850  29.086  1.00  0.00     0.049 A 
ATOM     44  H   UNL A   1      42.147  30.259  28.227  1.00  0.00     0.167 HD
ATOM     45  C   UNL A   1      42.973  23.273  27.896  1.00  0.00     0.037 A 
ATOM     46  C   UNL A   1      43.931  30.258  30.382  1.00  0.00     0.037 A 
ATOM     47  C   UNL A   1      44.077  23.947  28.588  1.00  0.00     0.049 A 
ATOM     48  C   UNL A   1      44.298  29.102  31.270  1.00  0.00     0.074 A 
ATOM     49  C   UNL A   1      45.198  24.615  28.121  1.00  0.00     0.029 A 
ATOM     50  N   UNL A   1      43.935  24.328  29.917  1.00  0.00    -0.354 N 
ATOM     51  N   UNL A   1      44.244  27.852  30.896  1.00  0.00    -0.248 NA
ATOM     52  C   UNL A   1      44.847  29.268  32.603  1.00  0.00     0.031 C 
ATOM     53  C   UNL A   1      45.727  25.396  29.183  1.00  0.00     0.029 A 
ATOM     54  C   UNL A   1      44.906  25.237  30.286  1.00  0.00     0.049 A 
ATOM     55  H   UNL A   1      43.231  23.994  30.519  1.00  0.00     0.167 HD
ATOM     56  C   UNL A   1      44.822  27.061  31.844  1.00  0.00     0.074 A 
ATOM     57  C   UNL A   1      45.178  27.998  32.897  1.00  0.00     0.031 C 
ATOM     58  C   UNL A   1      44.981  25.714  31.662  1.00  0.00     0.037 A 
BRANCH  45  59
ATOM     59  C   UNL A   1      43.173  22.101  26.959  1.00  0.00     0.064 A 
ATOM     60  C   UNL A   1      44.176  22.107  25.964  1.00  0.00     0.173 A 
ATOM     61  C   UNL A   1      42.472  20.883  27.082  1.00  0.00     0.173 A 
ATOM     62  F   UNL A   1      44.966  23.167  25.762  1.00  0.00    -0.203 F 
ATOM     63  C   UNL A   1      44.431  21.010  25.138  1.00  0.00     0.198 A 
ATOM     64  C   UNL A   1      42.715  19.789  26.239  1.00  0.00     0.198 A 
ATOM     65  F   UNL A   1      41.562  20.705  28.051  1.00  0.00    -0.203 F 
ATOM     66  F   UNL A   1      45.407  21.084  24.221  1.00  0.00    -0.200 F 
ATOM     67  C   UNL A   1      43.698  19.852  25.270  1.00  0.00     0.200 A 
ATOM     68  F   UNL A   1      42.002  18.662  26.386  1.00  0.00    -0.200 F 
ATOM     69  F   UNL A   1      43.951  18.797  24.484  1.00  0.00    -0.200 F 
ENDBRANCH  45  59
BRANCH  46  70
ATOM     70  C   UNL A   1      42.812  31.260  30.596  1.00  0.00     0.064 A 
ATOM     71  C   UNL A   1      42.986  32.572  30.085  1.00  0.00     0.173 A 
ATOM     72  C   UNL A   1      41.511  30.930  31.000  1.00  0.00     0.173 A 
ATOM     73  F   UNL A   1      44.194  32.964  29.644  1.00  0.00    -0.203 F 
ATOM     74  C   UNL A   1      41.922  33.463  29.916  1.00  0.00     0.198 A 
ATOM     75  C   UNL A   1      40.446  31.841  30.862  1.00  0.00     0.198 A 
ATOM     76  F   UNL A   1      41.234  29.703  31.462  1.00  0.00    -0.203 F 
ATOM     77  F   UNL A   1      42.126  34.643  29.311  1.00  0.00    -0.200 F 
ATOM     78  C   UNL A   1      40.649  33.096  30.303  1.00  0.00     0.200 A 
ATOM     79  F   UNL A   1      39.200  31.471  31.198  1.00  0.00    -0.200 F 
ATOM     80  F   UNL A   1      39.619  33.927  30.094  1.00  0.00    -0.200 F 
ENDBRANCH  46  70
BRANCH  58  81
ATOM     81  C   UNL A   1      45.318  24.696  32.728  1.00  0.00     0.064 A 
ATOM     82  C   UNL A   1      44.485  23.629  33.088  1.00  0.00     0.173 A 
ATOM     83  C   UNL A   1      46.601  24.686  33.339  1.00  0.00     0.173 A 
ATOM     84  F   UNL A   1      43.314  23.408  32.481  1.00  0.00    -0.203 F 
ATOM     85  C   UNL A   1      44.860  22.689  34.049  1.00  0.00     0.198 A 
ATOM     86  C   UNL A   1      47.009  23.690  34.218  1.00  0.00     0.198 A 
ATOM     87  F   UNL A   1      47.526  25.625  33.089  1.00  0.00    -0.203 F 
ATOM     88  F   UNL A   1      43.988  21.740  34.413  1.00  0.00    -0.200 F 
ATOM     89  C   UNL A   1      46.126  22.708  34.599  1.00  0.00     0.200 A 
ATOM     90  F   UNL A   1      48.269  23.684  34.675  1.00  0.00    -0.200 F 
ATOM     91  F   UNL A   1      46.500  21.768  35.475  1.00  0.00    -0.200 F 
ENDBRANCH  58  81
ENDBRANCH  32  33
ENDBRANCH  25  27
ENDBRANCH  24  25
ENDBRANCH  23  24
ENDBRANCH   1  23
TORSDOF 16
ENDMDL
