MODEL 1
REMARK VINA RESULT:     -11.7      0.000      0.000
REMARK SMILES O=CN[C@H](C(=O)OCCOC(=O)c1ccc(-c2c3nc(c(-c4c(F)c(F)c(F)c(F)c4F)c4ccc([nH]4)c(-c4c(F)c(F)c(F)c(F)c4F)c4nc(c(-c5c(F)c(F)c(F)c(F)c5F)c5ccc2[nH]5)C=C4)C=C3)cc1)[C@@H]1CCO[C@@]2(CCOC2)C1
REMARK SMILES IDX 9 1 8 2 7 3 5 4 6 5 4 6 3 7 1 8 2 9 76 11 77 12 85 13 78 14
REMARK SMILES IDX 80 15 79 16 81 17 84 18 82 19 83 20 10 21 11 22 12 23 13 24
REMARK SMILES IDX 14 25 75 26 15 27 74 28 16 29 17 30 18 31 68 32 19 33 73 34
REMARK SMILES IDX 67 35 69 36 20 37 72 38 66 39 65 40 21 42 53 43 33 44 52 45
REMARK SMILES IDX 34 46 37 47 51 48 70 49 35 50 36 51 50 53 71 54 38 55 22 56
REMARK SMILES IDX 23 57 31 58 24 59 25 60 29 61 32 62 26 63 27 64 30 65 28 66
REMARK SMILES IDX 54 67 55 68 63 69 56 70 57 71 61 72 64 73 58 74 59 75 62 76
REMARK SMILES IDX 60 77 39 78 40 79 48 80 41 81 42 82 46 83 49 84 43 85 44 86
REMARK SMILES IDX 47 87 45 88
REMARK H PARENT 3 10 69 41 37 52
REMARK Flexibility Score: inf
ROOT
ATOM      1  C   UNL A   1      31.787  30.093  26.777  1.00  0.00     0.275 C 
ENDROOT
BRANCH   1   2
ATOM      2  C   UNL A   1      31.774  28.732  27.480  1.00  0.00     0.274 C 
BRANCH   2   3
ATOM      3  O   UNL A   1      32.344  27.718  26.632  1.00  0.00    -0.461 OA
BRANCH   3   4
ATOM      4  C   UNL A   1      31.484  26.904  25.967  1.00  0.00     0.329 C 
ATOM      5  O   UNL A   1      30.663  26.174  26.511  1.00  0.00    -0.250 OA
BRANCH   4   6
ATOM      6  C   UNL A   1      31.641  26.996  24.427  1.00  0.00     0.195 C 
BRANCH   6   7
ATOM      7  N   UNL A   1      30.806  28.056  23.853  1.00  0.00    -0.345 N 
ATOM      8  O   UNL A   1      29.074  28.824  22.605  1.00  0.00    -0.279 OA
ATOM      9  C   UNL A   1      29.673  27.889  23.117  1.00  0.00     0.337 C 
ATOM     10  H   UNL A   1      31.093  28.982  24.017  1.00  0.00     0.164 HD
ENDBRANCH   6   7
BRANCH   6  11
ATOM     11  C   UNL A   1      33.126  27.037  23.973  1.00  0.00     0.028 C 
ATOM     12  C   UNL A   1      33.285  27.314  22.465  1.00  0.00     0.035 C 
ATOM     13  C   UNL A   1      33.939  25.751  24.281  1.00  0.00     0.044 C 
ATOM     14  C   UNL A   1      32.898  26.099  21.639  1.00  0.00     0.161 C 
ATOM     15  C   UNL A   1      33.690  24.559  23.327  1.00  0.00     0.094 C 
ATOM     16  O   UNL A   1      33.739  24.997  21.962  1.00  0.00    -0.372 OA
ATOM     17  C   UNL A   1      34.788  23.500  23.471  1.00  0.00     0.066 C 
ATOM     18  C   UNL A   1      32.411  23.752  23.635  1.00  0.00     0.195 C 
ATOM     19  C   UNL A   1      34.153  22.414  24.303  1.00  0.00     0.163 C 
ATOM     20  O   UNL A   1      32.788  22.388  23.889  1.00  0.00    -0.378 OA
ENDBRANCH   6  11
ENDBRANCH   4   6
ENDBRANCH   3   4
ENDBRANCH   2   3
ENDBRANCH   1   2
BRANCH   1  21
ATOM     21  O   UNL A   1      33.127  30.529  26.467  1.00  0.00    -0.458 OA
BRANCH  21  22
ATOM     22  C   UNL A   1      33.628  31.461  27.310  1.00  0.00     0.338 C 
ATOM     23  O   UNL A   1      33.044  32.412  27.800  1.00  0.00    -0.246 OA
BRANCH  22  24
ATOM     24  C   UNL A   1      34.995  31.114  27.721  1.00  0.00     0.060 A 
ATOM     25  C   UNL A   1      35.251  29.766  27.982  1.00  0.00     0.016 A 
ATOM     26  C   UNL A   1      35.959  32.086  27.995  1.00  0.00     0.016 A 
ATOM     27  C   UNL A   1      36.456  29.377  28.549  1.00  0.00     0.010 A 
ATOM     28  C   UNL A   1      37.173  31.695  28.573  1.00  0.00     0.010 A 
ATOM     29  C   UNL A   1      37.412  30.343  28.879  1.00  0.00    -0.014 A 
BRANCH  29  30
ATOM     30  C   UNL A   1      38.598  29.917  29.652  1.00  0.00     0.031 A 
ATOM     31  C   UNL A   1      38.783  30.414  31.058  1.00  0.00     0.074 A 
ATOM     32  C   UNL A   1      39.447  29.012  29.135  1.00  0.00     0.049 A 
ATOM     33  N   UNL A   1      39.736  30.145  31.914  1.00  0.00    -0.248 NA
ATOM     34  C   UNL A   1      37.751  31.327  31.573  1.00  0.00     0.031 C 
ATOM     35  C   UNL A   1      39.329  28.408  27.809  1.00  0.00     0.029 A 
ATOM     36  N   UNL A   1      40.563  28.428  29.676  1.00  0.00    -0.354 N 
ATOM     37  C   UNL A   1      39.426  30.863  33.061  1.00  0.00     0.074 A 
ATOM     38  C   UNL A   1      38.205  31.591  32.790  1.00  0.00     0.031 C 
ATOM     39  C   UNL A   1      40.330  27.529  27.640  1.00  0.00     0.029 A 
ATOM     40  C   UNL A   1      41.171  27.531  28.834  1.00  0.00     0.049 A 
ATOM     41  H   UNL A   1      40.895  28.632  30.580  1.00  0.00     0.167 HD
ATOM     42  C   UNL A   1      40.098  30.906  34.235  1.00  0.00     0.037 A 
ATOM     43  C   UNL A   1      42.290  26.802  29.008  1.00  0.00     0.037 A 
ATOM     44  C   UNL A   1      41.303  30.170  34.511  1.00  0.00     0.049 A 
ATOM     45  C   UNL A   1      43.042  26.903  30.306  1.00  0.00     0.074 A 
ATOM     46  C   UNL A   1      42.064  30.156  35.667  1.00  0.00     0.029 A 
ATOM     47  N   UNL A   1      41.918  29.307  33.615  1.00  0.00    -0.354 N 
ATOM     48  N   UNL A   1      42.757  27.607  31.375  1.00  0.00    -0.248 NA
ATOM     49  C   UNL A   1      44.275  26.111  30.419  1.00  0.00     0.031 C 
ATOM     50  C   UNL A   1      43.157  29.305  35.461  1.00  0.00     0.029 A 
ATOM     51  C   UNL A   1      43.057  28.766  34.189  1.00  0.00     0.049 A 
ATOM     52  H   UNL A   1      41.595  29.109  32.708  1.00  0.00     0.167 HD
ATOM     53  C   UNL A   1      43.763  27.333  32.290  1.00  0.00     0.074 A 
ATOM     54  C   UNL A   1      44.658  26.387  31.658  1.00  0.00     0.031 C 
ATOM     55  C   UNL A   1      43.935  27.826  33.541  1.00  0.00     0.037 A 
BRANCH  42  56
ATOM     56  C   UNL A   1      39.555  31.805  35.302  1.00  0.00     0.064 A 
ATOM     57  C   UNL A   1      38.638  31.343  36.256  1.00  0.00     0.173 A 
ATOM     58  C   UNL A   1      39.976  33.141  35.383  1.00  0.00     0.173 A 
ATOM     59  F   UNL A   1      38.193  30.078  36.207  1.00  0.00    -0.203 F 
ATOM     60  C   UNL A   1      38.147  32.192  37.244  1.00  0.00     0.198 A 
ATOM     61  C   UNL A   1      39.496  33.981  36.384  1.00  0.00     0.198 A 
ATOM     62  F   UNL A   1      40.851  33.629  34.492  1.00  0.00    -0.203 F 
ATOM     63  F   UNL A   1      37.243  31.740  38.125  1.00  0.00    -0.200 F 
ATOM     64  C   UNL A   1      38.580  33.508  37.310  1.00  0.00     0.200 A 
ATOM     65  F   UNL A   1      39.919  35.252  36.448  1.00  0.00    -0.200 F 
ATOM     66  F   UNL A   1      38.107  34.323  38.262  1.00  0.00    -0.200 F 
ENDBRANCH  42  56
BRANCH  43  67
ATOM     67  C   UNL A   1      42.771  25.921  27.917  1.00  0.00     0.064 A 
ATOM     68  C   UNL A   1      42.354  24.588  27.827  1.00  0.00     0.173 A 
ATOM     69  C   UNL A   1      43.664  26.398  26.947  1.00  0.00     0.173 A 
ATOM     70  F   UNL A   1      41.522  24.082  28.750  1.00  0.00    -0.203 F 
ATOM     71  C   UNL A   1      42.821  23.757  26.810  1.00  0.00     0.198 A 
ATOM     72  C   UNL A   1      44.114  25.573  25.919  1.00  0.00     0.198 A 
ATOM     73  F   UNL A   1      44.095  27.666  26.996  1.00  0.00    -0.203 F 
ATOM     74  F   UNL A   1      42.438  22.474  26.766  1.00  0.00    -0.200 F 
ATOM     75  C   UNL A   1      43.697  24.252  25.854  1.00  0.00     0.200 A 
ATOM     76  F   UNL A   1      44.956  26.056  24.994  1.00  0.00    -0.200 F 
ATOM     77  F   UNL A   1      44.146  23.452  24.878  1.00  0.00    -0.200 F 
ENDBRANCH  43  67
BRANCH  55  78
ATOM     78  C   UNL A   1      45.126  27.339  34.306  1.00  0.00     0.064 A 
ATOM     79  C   UNL A   1      46.351  28.018  34.256  1.00  0.00     0.173 A 
ATOM     80  C   UNL A   1      45.036  26.198  35.116  1.00  0.00     0.173 A 
ATOM     81  F   UNL A   1      46.489  29.106  33.482  1.00  0.00    -0.203 F 
ATOM     82  C   UNL A   1      47.453  27.559  34.973  1.00  0.00     0.198 A 
ATOM     83  C   UNL A   1      46.133  25.753  35.848  1.00  0.00     0.198 A 
ATOM     84  F   UNL A   1      43.883  25.516  35.198  1.00  0.00    -0.203 F 
ATOM     85  F   UNL A   1      48.625  28.201  34.881  1.00  0.00    -0.200 F 
ATOM     86  C   UNL A   1      47.341  26.431  35.772  1.00  0.00     0.200 A 
ATOM     87  F   UNL A   1      46.023  24.666  36.624  1.00  0.00    -0.200 F 
ATOM     88  F   UNL A   1      48.402  25.989  36.461  1.00  0.00    -0.200 F 
ENDBRANCH  55  78
ENDBRANCH  29  30
ENDBRANCH  22  24
ENDBRANCH  21  22
ENDBRANCH   1  21
TORSDOF 13
ENDMDL
MODEL 2
REMARK VINA RESULT:     -11.7      4.364      9.822
REMARK SMILES O=CN[C@H](C(=O)OCCOC(=O)c1ccc(-c2c3nc(c(-c4c(F)c(F)c(F)c(F)c4F)c4ccc([nH]4)c(-c4c(F)c(F)c(F)c(F)c4F)c4nc(c(-c5c(F)c(F)c(F)c(F)c5F)c5ccc2[nH]5)C=C4)C=C3)cc1)[C@@H]1CCO[C@@]2(CCOC2)C1
REMARK SMILES IDX 9 1 8 2 7 3 5 4 6 5 4 6 3 7 1 8 2 9 76 11 77 12 85 13 78 14
REMARK SMILES IDX 80 15 79 16 81 17 84 18 82 19 83 20 10 21 11 22 12 23 13 24
REMARK SMILES IDX 14 25 75 26 15 27 74 28 16 29 17 30 18 31 68 32 19 33 73 34
REMARK SMILES IDX 67 35 69 36 20 37 72 38 66 39 65 40 21 42 53 43 33 44 52 45
REMARK SMILES IDX 34 46 37 47 51 48 70 49 35 50 36 51 50 53 71 54 38 55 22 56
REMARK SMILES IDX 23 57 31 58 24 59 25 60 29 61 32 62 26 63 27 64 30 65 28 66
REMARK SMILES IDX 54 67 55 68 63 69 56 70 57 71 61 72 64 73 58 74 59 75 62 76
REMARK SMILES IDX 60 77 39 78 40 79 48 80 41 81 42 82 46 83 49 84 43 85 44 86
REMARK SMILES IDX 47 87 45 88
REMARK H PARENT 3 10 69 41 37 52
REMARK Flexibility Score: inf
ROOT
ATOM      1  C   UNL A   1      37.780  20.004  24.984  1.00  0.00     0.275 C 
ENDROOT
BRANCH   1   2
ATOM      2  C   UNL A   1      36.249  20.060  25.001  1.00  0.00     0.274 C 
BRANCH   2   3
ATOM      3  O   UNL A   1      35.794  21.377  25.360  1.00  0.00    -0.461 OA
BRANCH   3   4
ATOM      4  C   UNL A   1      34.759  21.895  24.648  1.00  0.00     0.329 C 
ATOM      5  O   UNL A   1      34.854  22.325  23.504  1.00  0.00    -0.250 OA
BRANCH   4   6
ATOM      6  C   UNL A   1      33.424  21.885  25.437  1.00  0.00     0.195 C 
BRANCH   6   7
ATOM      7  N   UNL A   1      32.999  20.523  25.777  1.00  0.00    -0.345 N 
ATOM      8  O   UNL A   1      32.153  18.478  25.282  1.00  0.00    -0.279 OA
ATOM      9  C   UNL A   1      32.566  19.567  24.911  1.00  0.00     0.337 C 
ATOM     10  H   UNL A   1      33.030  20.276  26.729  1.00  0.00     0.164 HD
ENDBRANCH   6   7
BRANCH   6  11
ATOM     11  C   UNL A   1      33.423  22.872  26.637  1.00  0.00     0.028 C 
ATOM     12  C   UNL A   1      32.056  22.957  27.342  1.00  0.00     0.035 C 
ATOM     13  C   UNL A   1      33.839  24.326  26.285  1.00  0.00     0.044 C 
ATOM     14  C   UNL A   1      31.050  23.726  26.503  1.00  0.00     0.161 C 
ATOM     15  C   UNL A   1      32.752  25.182  25.593  1.00  0.00     0.094 C 
ATOM     16  O   UNL A   1      31.504  25.057  26.288  1.00  0.00    -0.372 OA
ATOM     17  C   UNL A   1      33.113  26.671  25.637  1.00  0.00     0.066 C 
ATOM     18  C   UNL A   1      32.606  24.923  24.079  1.00  0.00     0.195 C 
ATOM     19  C   UNL A   1      33.627  26.972  24.251  1.00  0.00     0.163 C 
ATOM     20  O   UNL A   1      32.837  26.160  23.384  1.00  0.00    -0.378 OA
ENDBRANCH   6  11
ENDBRANCH   4   6
ENDBRANCH   3   4
ENDBRANCH   2   3
ENDBRANCH   1   2
BRANCH   1  21
ATOM     21  O   UNL A   1      38.371  21.216  25.498  1.00  0.00    -0.458 OA
BRANCH  21  22
ATOM     22  C   UNL A   1      39.542  21.042  26.151  1.00  0.00     0.338 C 
ATOM     23  O   UNL A   1      40.267  20.061  26.133  1.00  0.00    -0.246 OA
BRANCH  22  24
ATOM     24  C   UNL A   1      39.961  22.284  26.815  1.00  0.00     0.060 A 
ATOM     25  C   UNL A   1      39.329  23.460  26.405  1.00  0.00     0.016 A 
ATOM     26  C   UNL A   1      41.041  22.329  27.698  1.00  0.00     0.016 A 
ATOM     27  C   UNL A   1      39.789  24.694  26.843  1.00  0.00     0.010 A 
ATOM     28  C   UNL A   1      41.510  23.573  28.136  1.00  0.00     0.010 A 
ATOM     29  C   UNL A   1      40.904  24.760  27.686  1.00  0.00    -0.014 A 
BRANCH  29  30
ATOM     30  C   UNL A   1      41.480  26.090  27.979  1.00  0.00     0.031 A 
ATOM     31  C   UNL A   1      42.848  26.433  27.462  1.00  0.00     0.074 A 
ATOM     32  C   UNL A   1      40.742  27.016  28.614  1.00  0.00     0.049 A 
ATOM     33  N   UNL A   1      43.526  27.546  27.585  1.00  0.00    -0.248 NA
ATOM     34  C   UNL A   1      43.542  25.387  26.694  1.00  0.00     0.031 C 
ATOM     35  C   UNL A   1      39.377  26.818  29.099  1.00  0.00     0.029 A 
ATOM     36  N   UNL A   1      41.032  28.316  28.938  1.00  0.00    -0.354 N 
ATOM     37  C   UNL A   1      44.727  27.331  26.923  1.00  0.00     0.074 A 
ATOM     38  C   UNL A   1      44.694  25.978  26.411  1.00  0.00     0.031 C 
ATOM     39  C   UNL A   1      38.942  27.961  29.654  1.00  0.00     0.029 A 
ATOM     40  C   UNL A   1      40.007  28.959  29.586  1.00  0.00     0.049 A 
ATOM     41  H   UNL A   1      41.892  28.746  28.727  1.00  0.00     0.167 HD
ATOM     42  C   UNL A   1      45.761  28.189  26.754  1.00  0.00     0.037 A 
ATOM     43  C   UNL A   1      39.944  30.210  30.078  1.00  0.00     0.037 A 
ATOM     44  C   UNL A   1      45.787  29.540  27.249  1.00  0.00     0.049 A 
ATOM     45  C   UNL A   1      41.124  31.127  29.916  1.00  0.00     0.074 A 
ATOM     46  C   UNL A   1      46.794  30.483  27.138  1.00  0.00     0.029 A 
ATOM     47  N   UNL A   1      44.749  30.141  27.944  1.00  0.00    -0.354 N 
ATOM     48  N   UNL A   1      42.268  30.906  29.313  1.00  0.00    -0.248 NA
ATOM     49  C   UNL A   1      41.006  32.467  30.507  1.00  0.00     0.031 C 
ATOM     50  C   UNL A   1      46.375  31.648  27.792  1.00  0.00     0.029 A 
ATOM     51  C   UNL A   1      45.096  31.440  28.280  1.00  0.00     0.049 A 
ATOM     52  H   UNL A   1      43.892  29.711  28.166  1.00  0.00     0.167 HD
ATOM     53  C   UNL A   1      42.998  32.079  29.440  1.00  0.00     0.074 A 
ATOM     54  C   UNL A   1      42.163  33.016  30.163  1.00  0.00     0.031 C 
ATOM     55  C   UNL A   1      44.250  32.355  29.002  1.00  0.00     0.037 A 
BRANCH  42  56
ATOM     56  C   UNL A   1      46.964  27.676  26.025  1.00  0.00     0.064 A 
ATOM     57  C   UNL A   1      47.051  27.724  24.627  1.00  0.00     0.173 A 
ATOM     58  C   UNL A   1      48.051  27.149  26.737  1.00  0.00     0.173 A 
ATOM     59  F   UNL A   1      46.028  28.203  23.903  1.00  0.00    -0.203 F 
ATOM     60  C   UNL A   1      48.179  27.247  23.965  1.00  0.00     0.198 A 
ATOM     61  C   UNL A   1      49.185  26.690  26.073  1.00  0.00     0.198 A 
ATOM     62  F   UNL A   1      48.013  27.081  28.076  1.00  0.00    -0.203 F 
ATOM     63  F   UNL A   1      48.229  27.270  22.626  1.00  0.00    -0.200 F 
ATOM     64  C   UNL A   1      49.247  26.734  24.689  1.00  0.00     0.200 A 
ATOM     65  F   UNL A   1      50.217  26.198  26.774  1.00  0.00    -0.200 F 
ATOM     66  F   UNL A   1      50.332  26.276  24.051  1.00  0.00    -0.200 F 
ENDBRANCH  42  56
BRANCH  43  67
ATOM     67  C   UNL A   1      38.719  30.663  30.781  1.00  0.00     0.064 A 
ATOM     68  C   UNL A   1      37.625  31.172  30.073  1.00  0.00     0.173 A 
ATOM     69  C   UNL A   1      38.627  30.600  32.179  1.00  0.00     0.173 A 
ATOM     70  F   UNL A   1      37.682  31.276  28.736  1.00  0.00    -0.203 F 
ATOM     71  C   UNL A   1      36.483  31.613  30.737  1.00  0.00     0.198 A 
ATOM     72  C   UNL A   1      37.476  31.022  32.840  1.00  0.00     0.198 A 
ATOM     73  F   UNL A   1      39.652  30.125  32.900  1.00  0.00    -0.203 F 
ATOM     74  F   UNL A   1      35.463  32.133  30.041  1.00  0.00    -0.200 F 
ATOM     75  C   UNL A   1      36.407  31.533  32.120  1.00  0.00     0.200 A 
ATOM     76  F   UNL A   1      37.405  30.938  34.176  1.00  0.00    -0.200 F 
ATOM     77  F   UNL A   1      35.309  31.958  32.759  1.00  0.00    -0.200 F 
ENDBRANCH  43  67
BRANCH  55  78
ATOM     78  C   UNL A   1      44.782  33.726  29.283  1.00  0.00     0.064 A 
ATOM     79  C   UNL A   1      45.523  33.996  30.443  1.00  0.00     0.173 A 
ATOM     80  C   UNL A   1      44.573  34.773  28.375  1.00  0.00     0.173 A 
ATOM     81  F   UNL A   1      45.735  33.028  31.349  1.00  0.00    -0.203 F 
ATOM     82  C   UNL A   1      46.016  35.273  30.694  1.00  0.00     0.198 A 
ATOM     83  C   UNL A   1      45.084  36.044  28.619  1.00  0.00     0.198 A 
ATOM     84  F   UNL A   1      43.873  34.562  27.250  1.00  0.00    -0.203 F 
ATOM     85  F   UNL A   1      46.687  35.519  31.828  1.00  0.00    -0.200 F 
ATOM     86  C   UNL A   1      45.800  36.294  29.781  1.00  0.00     0.200 A 
ATOM     87  F   UNL A   1      44.880  37.029  27.733  1.00  0.00    -0.200 F 
ATOM     88  F   UNL A   1      46.275  37.523  30.024  1.00  0.00    -0.200 F 
ENDBRANCH  55  78
ENDBRANCH  29  30
ENDBRANCH  22  24
ENDBRANCH  21  22
ENDBRANCH   1  21
TORSDOF 13
ENDMDL
MODEL 3
REMARK VINA RESULT:     -11.7      0.389      7.656
REMARK SMILES O=CN[C@H](C(=O)OCCOC(=O)c1ccc(-c2c3nc(c(-c4c(F)c(F)c(F)c(F)c4F)c4ccc([nH]4)c(-c4c(F)c(F)c(F)c(F)c4F)c4nc(c(-c5c(F)c(F)c(F)c(F)c5F)c5ccc2[nH]5)C=C4)C=C3)cc1)[C@@H]1CCO[C@@]2(CCOC2)C1
REMARK SMILES IDX 9 1 8 2 7 3 5 4 6 5 4 6 3 7 1 8 2 9 76 11 77 12 85 13 78 14
REMARK SMILES IDX 80 15 79 16 81 17 84 18 82 19 83 20 10 21 11 22 12 23 13 24
REMARK SMILES IDX 14 25 75 26 15 27 74 28 16 29 17 30 18 31 68 32 19 33 73 34
REMARK SMILES IDX 67 35 69 36 20 37 72 38 66 39 65 40 21 42 53 43 33 44 52 45
REMARK SMILES IDX 34 46 37 47 51 48 70 49 35 50 36 51 50 53 71 54 38 55 22 56
REMARK SMILES IDX 23 57 31 58 24 59 25 60 29 61 32 62 26 63 27 64 30 65 28 66
REMARK SMILES IDX 54 67 55 68 63 69 56 70 57 71 61 72 64 73 58 74 59 75 62 76
REMARK SMILES IDX 60 77 39 78 40 79 48 80 41 81 42 82 46 83 49 84 43 85 44 86
REMARK SMILES IDX 47 87 45 88
REMARK H PARENT 3 10 69 41 37 52
REMARK Flexibility Score: inf
ROOT
ATOM      1  C   UNL A   1      31.779  29.998  26.686  1.00  0.00     0.275 C 
ENDROOT
BRANCH   1   2
ATOM      2  C   UNL A   1      31.773  28.636  27.387  1.00  0.00     0.274 C 
BRANCH   2   3
ATOM      3  O   UNL A   1      32.344  27.625  26.535  1.00  0.00    -0.461 OA
BRANCH   3   4
ATOM      4  C   UNL A   1      31.484  26.805  25.878  1.00  0.00     0.329 C 
ATOM      5  O   UNL A   1      30.619  26.130  26.425  1.00  0.00    -0.250 OA
BRANCH   4   6
ATOM      6  C   UNL A   1      31.705  26.809  24.343  1.00  0.00     0.195 C 
BRANCH   6   7
ATOM      7  N   UNL A   1      31.005  27.921  23.692  1.00  0.00    -0.345 N 
ATOM      8  O   UNL A   1      29.473  28.800  22.268  1.00  0.00    -0.279 OA
ATOM      9  C   UNL A   1      29.954  27.828  22.832  1.00  0.00     0.337 C 
ATOM     10  H   UNL A   1      31.327  28.827  23.898  1.00  0.00     0.164 HD
ENDBRANCH   6   7
BRANCH   6  11
ATOM     11  C   UNL A   1      33.202  26.678  23.948  1.00  0.00     0.028 C 
ATOM     12  C   UNL A   1      33.451  26.940  22.450  1.00  0.00     0.035 C 
ATOM     13  C   UNL A   1      33.846  25.305  24.277  1.00  0.00     0.044 C 
ATOM     14  C   UNL A   1      32.959  25.782  21.599  1.00  0.00     0.161 C 
ATOM     15  C   UNL A   1      33.498  24.154  23.304  1.00  0.00     0.094 C 
ATOM     16  O   UNL A   1      33.652  24.589  21.946  1.00  0.00    -0.372 OA
ATOM     17  C   UNL A   1      34.459  22.973  23.481  1.00  0.00     0.066 C 
ATOM     18  C   UNL A   1      32.123  23.501  23.555  1.00  0.00     0.195 C 
ATOM     19  C   UNL A   1      33.668  21.965  24.279  1.00  0.00     0.163 C 
ATOM     20  O   UNL A   1      32.327  22.101  23.812  1.00  0.00    -0.378 OA
ENDBRANCH   6  11
ENDBRANCH   4   6
ENDBRANCH   3   4
ENDBRANCH   2   3
ENDBRANCH   1   2
BRANCH   1  21
ATOM     21  O   UNL A   1      33.116  30.435  26.365  1.00  0.00    -0.458 OA
BRANCH  21  22
ATOM     22  C   UNL A   1      33.598  31.416  27.161  1.00  0.00     0.338 C 
ATOM     23  O   UNL A   1      33.020  32.423  27.535  1.00  0.00    -0.246 OA
BRANCH  22  24
ATOM     24  C   UNL A   1      34.923  31.060  27.688  1.00  0.00     0.060 A 
ATOM     25  C   UNL A   1      35.130  29.718  28.013  1.00  0.00     0.016 A 
ATOM     26  C   UNL A   1      35.883  32.023  28.001  1.00  0.00     0.016 A 
ATOM     27  C   UNL A   1      36.280  29.328  28.684  1.00  0.00     0.010 A 
ATOM     28  C   UNL A   1      37.041  31.632  28.683  1.00  0.00     0.010 A 
ATOM     29  C   UNL A   1      37.228  30.288  29.053  1.00  0.00    -0.014 A 
BRANCH  29  30
ATOM     30  C   UNL A   1      38.344  29.869  29.929  1.00  0.00     0.031 A 
ATOM     31  C   UNL A   1      39.399  28.944  29.391  1.00  0.00     0.074 A 
ATOM     32  C   UNL A   1      38.464  30.394  31.160  1.00  0.00     0.049 A 
ATOM     33  N   UNL A   1      40.468  28.475  29.981  1.00  0.00    -0.248 NA
ATOM     34  C   UNL A   1      39.233  28.497  27.999  1.00  0.00     0.031 C 
ATOM     35  C   UNL A   1      37.539  31.353  31.761  1.00  0.00     0.029 A 
ATOM     36  N   UNL A   1      39.430  30.208  32.116  1.00  0.00    -0.354 N 
ATOM     37  C   UNL A   1      41.095  27.670  29.039  1.00  0.00     0.074 A 
ATOM     38  C   UNL A   1      40.281  27.701  27.843  1.00  0.00     0.031 C 
ATOM     39  C   UNL A   1      37.987  31.682  32.984  1.00  0.00     0.029 A 
ATOM     40  C   UNL A   1      39.212  30.935  33.259  1.00  0.00     0.049 A 
ATOM     41  H   UNL A   1      40.204  29.613  31.993  1.00  0.00     0.167 HD
ATOM     42  C   UNL A   1      42.249  26.972  29.162  1.00  0.00     0.037 A 
ATOM     43  C   UNL A   1      39.920  30.980  34.404  1.00  0.00     0.037 A 
ATOM     44  C   UNL A   1      43.067  26.953  30.345  1.00  0.00     0.049 A 
ATOM     45  C   UNL A   1      41.173  30.159  34.529  1.00  0.00     0.074 A 
ATOM     46  C   UNL A   1      44.248  26.267  30.571  1.00  0.00     0.029 A 
ATOM     47  N   UNL A   1      42.788  27.663  31.503  1.00  0.00    -0.354 N 
ATOM     48  N   UNL A   1      41.743  29.378  33.644  1.00  0.00    -0.248 NA
ATOM     49  C   UNL A   1      41.879  30.224  35.817  1.00  0.00     0.031 C 
ATOM     50  C   UNL A   1      44.670  26.541  31.877  1.00  0.00     0.029 A 
ATOM     51  C   UNL A   1      43.769  27.422  32.452  1.00  0.00     0.049 A 
ATOM     52  H   UNL A   1      42.010  28.251  31.633  1.00  0.00     0.167 HD
ATOM     53  C   UNL A   1      42.878  28.870  34.259  1.00  0.00     0.074 A 
ATOM     54  C   UNL A   1      42.926  29.444  35.588  1.00  0.00     0.031 C 
ATOM     55  C   UNL A   1      43.797  28.002  33.770  1.00  0.00     0.037 A 
BRANCH  42  56
ATOM     56  C   UNL A   1      42.677  26.146  27.989  1.00  0.00     0.064 A 
ATOM     57  C   UNL A   1      43.555  26.648  27.019  1.00  0.00     0.173 A 
ATOM     58  C   UNL A   1      42.219  24.828  27.847  1.00  0.00     0.173 A 
ATOM     59  F   UNL A   1      44.005  27.909  27.104  1.00  0.00    -0.203 F 
ATOM     60  C   UNL A   1      43.947  25.864  25.937  1.00  0.00     0.198 A 
ATOM     61  C   UNL A   1      42.627  24.042  26.773  1.00  0.00     0.198 A 
ATOM     62  F   UNL A   1      41.376  24.304  28.749  1.00  0.00    -0.203 F 
ATOM     63  F   UNL A   1      44.759  26.374  25.001  1.00  0.00    -0.200 F 
ATOM     64  C   UNL A   1      43.486  24.560  25.818  1.00  0.00     0.200 A 
ATOM     65  F   UNL A   1      42.184  22.781  26.662  1.00  0.00    -0.200 F 
ATOM     66  F   UNL A   1      43.865  23.808  24.776  1.00  0.00    -0.200 F 
ENDBRANCH  42  56
BRANCH  43  67
ATOM     67  C   UNL A   1      39.449  31.826  35.527  1.00  0.00     0.064 A 
ATOM     68  C   UNL A   1      39.908  33.139  35.685  1.00  0.00     0.173 A 
ATOM     69  C   UNL A   1      38.533  31.332  36.467  1.00  0.00     0.173 A 
ATOM     70  F   UNL A   1      40.805  33.643  34.824  1.00  0.00    -0.203 F 
ATOM     71  C   UNL A   1      39.477  33.926  36.750  1.00  0.00     0.198 A 
ATOM     72  C   UNL A   1      38.088  32.127  37.520  1.00  0.00     0.198 A 
ATOM     73  F   UNL A   1      38.070  30.078  36.360  1.00  0.00    -0.203 F 
ATOM     74  F   UNL A   1      39.960  35.167  36.903  1.00  0.00    -0.200 F 
ATOM     75  C   UNL A   1      38.564  33.421  37.664  1.00  0.00     0.200 A 
ATOM     76  F   UNL A   1      37.201  31.637  38.398  1.00  0.00    -0.200 F 
ATOM     77  F   UNL A   1      38.151  34.178  38.689  1.00  0.00    -0.200 F 
ENDBRANCH  43  67
BRANCH  55  78
ATOM     78  C   UNL A   1      44.933  27.634  34.673  1.00  0.00     0.064 A 
ATOM     79  C   UNL A   1      44.859  26.517  35.517  1.00  0.00     0.173 A 
ATOM     80  C   UNL A   1      46.114  28.388  34.676  1.00  0.00     0.173 A 
ATOM     81  F   UNL A   1      43.741  25.775  35.559  1.00  0.00    -0.203 F 
ATOM     82  C   UNL A   1      45.922  26.181  36.351  1.00  0.00     0.198 A 
ATOM     83  C   UNL A   1      47.183  28.038  35.496  1.00  0.00     0.198 A 
ATOM     84  F   UNL A   1      46.233  29.463  33.883  1.00  0.00    -0.203 F 
ATOM     85  F   UNL A   1      45.815  25.132  37.179  1.00  0.00    -0.200 F 
ATOM     86  C   UNL A   1      47.083  26.938  36.336  1.00  0.00     0.200 A 
ATOM     87  F   UNL A   1      48.308  28.766  35.478  1.00  0.00    -0.200 F 
ATOM     88  F   UNL A   1      48.106  26.614  37.140  1.00  0.00    -0.200 F 
ENDBRANCH  55  78
ENDBRANCH  29  30
ENDBRANCH  22  24
ENDBRANCH  21  22
ENDBRANCH   1  21
TORSDOF 13
ENDMDL
