MODEL 1
REMARK VINA RESULT:     -12.8      0.000      0.000
REMARK SMILES O=C(CSc1nnnn1-c1ccc(C(=O)OCCOC(=O)c2ccc(-c3c4nc(c(-c5c(F)c(F)c(F)c(F)c5F)c5ccc([nH]5)c(-c5c(F)c(F)c(F)c(F)c5F)c5nc(c(-c6c(F)c(F)c(F)c(F)c6F)c6ccc3[nH]6)C=C5)C=C4)cc2)cc1)Nc1nc(-c2ccccc2)cs1
REMARK SMILES IDX 14 1 15 2 13 3 10 4 11 5 86 6 12 7 85 8 9 9 5 10 6 11 7 12
REMARK SMILES IDX 8 13 4 14 3 15 2 16 1 17 87 18 88 20 89 21 98 22 90 23 97 24
REMARK SMILES IDX 91 25 92 26 96 27 93 28 95 29 94 30 16 31 17 32 18 33 19 34
REMARK SMILES IDX 20 35 21 36 22 37 23 38 84 39 24 40 83 41 25 42 26 43 27 44
REMARK SMILES IDX 77 45 28 46 82 47 76 48 78 49 29 50 81 51 75 52 74 53 30 55
REMARK SMILES IDX 62 56 42 57 61 58 43 59 46 60 60 61 79 62 44 63 45 64 59 66
REMARK SMILES IDX 80 67 47 68 31 69 32 70 40 71 33 72 34 73 38 74 41 75 35 76
REMARK SMILES IDX 36 77 39 78 37 79 63 80 64 81 72 82 65 83 66 84 70 85 73 86
REMARK SMILES IDX 67 87 68 88 71 89 69 90 48 91 49 92 57 93 50 94 51 95 55 96
REMARK SMILES IDX 58 97 52 98 53 99 56 100 54 101
REMARK H PARENT 87 19 78 54 46 65
REMARK Flexibility Score: inf
ROOT
ATOM      1  C   UNL A   1      34.055  33.673  28.419  1.00  0.00     0.338 C 
ATOM      2  O   UNL A   1      35.195  33.921  28.734  1.00  0.00    -0.246 OA
ENDROOT
BRANCH   1   3
ATOM      3  C   UNL A   1      33.653  32.403  27.747  1.00  0.00     0.060 A 
ATOM      4  C   UNL A   1      32.673  29.974  26.838  1.00  0.00     0.069 A 
ATOM      5  C   UNL A   1      31.889  31.122  26.686  1.00  0.00     0.029 A 
ATOM      6  C   UNL A   1      34.006  30.067  27.235  1.00  0.00     0.029 A 
ATOM      7  C   UNL A   1      32.380  32.338  27.163  1.00  0.00     0.018 A 
ATOM      8  C   UNL A   1      34.495  31.287  27.695  1.00  0.00     0.018 A 
BRANCH   4   9
ATOM      9  N   UNL A   1      32.082  28.718  26.656  1.00  0.00    -0.187 N 
ATOM     10  C   UNL A   1      31.765  28.005  25.509  1.00  0.00     0.214 A 
ATOM     11  N   UNL A   1      31.042  26.964  25.876  1.00  0.00    -0.101 NA
ATOM     12  N   UNL A   1      31.021  26.963  27.244  1.00  0.00    -0.022 NA
ATOM     13  N   UNL A   1      31.718  27.977  27.729  1.00  0.00    -0.039 NA
BRANCH  10  14
ATOM     14  S   UNL A   1      32.390  28.082  23.887  1.00  0.00    -0.074 SA
BRANCH  14  15
ATOM     15  C   UNL A   1      33.654  26.830  23.570  1.00  0.00     0.178 C 
BRANCH  15  16
ATOM     16  C   UNL A   1      33.560  25.601  24.478  1.00  0.00     0.236 C 
ATOM     17  O   UNL A   1      34.352  25.464  25.407  1.00  0.00    -0.274 OA
ATOM     18  N   UNL A   1      32.546  24.733  24.157  1.00  0.00    -0.301 N 
ATOM     19  H   UNL A   1      31.787  25.079  23.636  1.00  0.00     0.172 HD
BRANCH  18  20
ATOM     20  C   UNL A   1      32.531  23.419  24.519  1.00  0.00     0.189 A 
ATOM     21  N   UNL A   1      32.975  22.365  23.886  1.00  0.00    -0.220 NA
ATOM     22  S   UNL A   1      31.659  23.141  25.962  1.00  0.00    -0.105 S 
ATOM     23  C   UNL A   1      32.565  21.227  24.564  1.00  0.00     0.084 A 
ATOM     24  C   UNL A   1      31.843  21.455  25.721  1.00  0.00     0.097 A 
BRANCH  23  25
ATOM     25  C   UNL A   1      32.884  19.890  24.098  1.00  0.00     0.001 A 
ATOM     26  C   UNL A   1      32.191  19.344  23.012  1.00  0.00     0.010 A 
ATOM     27  C   UNL A   1      33.901  19.143  24.710  1.00  0.00     0.010 A 
ATOM     28  C   UNL A   1      32.531  18.081  22.525  1.00  0.00     0.001 A 
ATOM     29  C   UNL A   1      34.230  17.874  24.229  1.00  0.00     0.001 A 
ATOM     30  C   UNL A   1      33.550  17.347  23.132  1.00  0.00     0.000 A 
ENDBRANCH  23  25
ENDBRANCH  18  20
ENDBRANCH  15  16
ENDBRANCH  14  15
ENDBRANCH  10  14
ENDBRANCH   4   9
ENDBRANCH   1   3
BRANCH   1  31
ATOM     31  O   UNL A   1      32.961  34.447  28.656  1.00  0.00    -0.458 OA
BRANCH  31  32
ATOM     32  C   UNL A   1      33.191  35.861  28.761  1.00  0.00     0.275 C 
BRANCH  32  33
ATOM     33  C   UNL A   1      32.940  36.344  30.185  1.00  0.00     0.275 C 
BRANCH  33  34
ATOM     34  O   UNL A   1      33.914  35.799  31.077  1.00  0.00    -0.458 OA
BRANCH  34  35
ATOM     35  C   UNL A   1      33.416  35.006  32.051  1.00  0.00     0.338 C 
ATOM     36  O   UNL A   1      32.282  35.011  32.503  1.00  0.00    -0.246 OA
BRANCH  35  37
ATOM     37  C   UNL A   1      34.498  34.211  32.638  1.00  0.00     0.060 A 
ATOM     38  C   UNL A   1      35.613  34.921  33.095  1.00  0.00     0.016 A 
ATOM     39  C   UNL A   1      34.535  32.829  32.412  1.00  0.00     0.016 A 
ATOM     40  C   UNL A   1      36.837  34.291  33.074  1.00  0.00     0.010 A 
ATOM     41  C   UNL A   1      35.758  32.205  32.385  1.00  0.00     0.010 A 
ATOM     42  C   UNL A   1      36.897  32.976  32.610  1.00  0.00    -0.014 A 
BRANCH  42  43
ATOM     43  C   UNL A   1      38.204  32.429  32.313  1.00  0.00     0.031 A 
ATOM     44  C   UNL A   1      39.127  32.353  33.468  1.00  0.00     0.074 A 
ATOM     45  C   UNL A   1      38.476  31.923  31.095  1.00  0.00     0.049 A 
ATOM     46  N   UNL A   1      40.328  32.815  33.573  1.00  0.00    -0.248 NA
ATOM     47  C   UNL A   1      38.596  31.751  34.701  1.00  0.00     0.031 C 
ATOM     48  C   UNL A   1      37.550  31.688  29.981  1.00  0.00     0.029 A 
ATOM     49  N   UNL A   1      39.642  31.395  30.640  1.00  0.00    -0.354 N 
ATOM     50  C   UNL A   1      40.765  32.435  34.839  1.00  0.00     0.074 A 
ATOM     51  C   UNL A   1      39.625  31.894  35.532  1.00  0.00     0.031 C 
ATOM     52  C   UNL A   1      38.136  30.865  29.084  1.00  0.00     0.029 A 
ATOM     53  C   UNL A   1      39.506  30.620  29.501  1.00  0.00     0.049 A 
ATOM     54  H   UNL A   1      40.509  31.549  31.082  1.00  0.00     0.167 HD
ATOM     55  C   UNL A   1      42.082  32.404  35.167  1.00  0.00     0.037 A 
ATOM     56  C   UNL A   1      40.430  29.764  29.004  1.00  0.00     0.037 A 
ATOM     57  C   UNL A   1      42.871  33.244  34.310  1.00  0.00     0.049 A 
ATOM     58  C   UNL A   1      41.741  30.115  29.607  1.00  0.00     0.074 A 
ATOM     59  C   UNL A   1      42.904  34.601  34.061  1.00  0.00     0.029 A 
ATOM     60  N   UNL A   1      43.581  32.663  33.290  1.00  0.00    -0.354 N 
ATOM     61  N   UNL A   1      42.398  31.212  29.346  1.00  0.00    -0.248 NA
ATOM     62  C   UNL A   1      42.120  29.442  30.842  1.00  0.00     0.031 C 
ATOM     63  C   UNL A   1      43.214  34.720  32.675  1.00  0.00     0.029 A 
ATOM     64  C   UNL A   1      43.374  33.429  32.170  1.00  0.00     0.049 A 
ATOM     65  H   UNL A   1      44.134  31.850  33.349  1.00  0.00     0.167 HD
ATOM     66  C   UNL A   1      42.972  31.580  30.554  1.00  0.00     0.074 A 
ATOM     67  C   UNL A   1      42.847  30.406  31.411  1.00  0.00     0.031 C 
ATOM     68  C   UNL A   1      43.240  32.889  30.838  1.00  0.00     0.037 A 
BRANCH  55  69
ATOM     69  C   UNL A   1      42.676  31.366  36.078  1.00  0.00     0.064 A 
ATOM     70  C   UNL A   1      43.415  31.766  37.205  1.00  0.00     0.173 A 
ATOM     71  C   UNL A   1      42.778  30.001  35.728  1.00  0.00     0.173 A 
ATOM     72  F   UNL A   1      43.416  33.048  37.601  1.00  0.00    -0.203 F 
ATOM     73  C   UNL A   1      44.235  30.873  37.899  1.00  0.00     0.198 A 
ATOM     74  C   UNL A   1      43.551  29.102  36.456  1.00  0.00     0.198 A 
ATOM     75  F   UNL A   1      42.224  29.510  34.611  1.00  0.00    -0.203 F 
ATOM     76  F   UNL A   1      45.010  31.320  38.896  1.00  0.00    -0.200 F 
ATOM     77  C   UNL A   1      44.303  29.543  37.523  1.00  0.00     0.200 A 
ATOM     78  F   UNL A   1      43.619  27.822  36.064  1.00  0.00    -0.200 F 
ATOM     79  F   UNL A   1      45.130  28.698  38.154  1.00  0.00    -0.200 F 
ENDBRANCH  55  69
BRANCH  56  80
ATOM     80  C   UNL A   1      40.177  28.480  28.315  1.00  0.00     0.064 A 
ATOM     81  C   UNL A   1      40.762  28.189  27.075  1.00  0.00     0.173 A 
ATOM     82  C   UNL A   1      39.542  27.409  28.978  1.00  0.00     0.173 A 
ATOM     83  F   UNL A   1      41.431  29.138  26.406  1.00  0.00    -0.203 F 
ATOM     84  C   UNL A   1      40.716  26.900  26.530  1.00  0.00     0.198 A 
ATOM     85  C   UNL A   1      39.487  26.128  28.428  1.00  0.00     0.198 A 
ATOM     86  F   UNL A   1      39.040  27.561  30.211  1.00  0.00    -0.203 F 
ATOM     87  F   UNL A   1      41.330  26.645  25.366  1.00  0.00    -0.200 F 
ATOM     88  C   UNL A   1      40.083  25.871  27.209  1.00  0.00     0.200 A 
ATOM     89  F   UNL A   1      38.903  25.135  29.114  1.00  0.00    -0.200 F 
ATOM     90  F   UNL A   1      40.081  24.628  26.709  1.00  0.00    -0.200 F 
ENDBRANCH  56  80
BRANCH  68  91
ATOM     91  C   UNL A   1      43.111  33.881  29.717  1.00  0.00     0.064 A 
ATOM     92  C   UNL A   1      41.915  34.558  29.421  1.00  0.00     0.173 A 
ATOM     93  C   UNL A   1      44.263  34.273  29.022  1.00  0.00     0.173 A 
ATOM     94  F   UNL A   1      40.799  34.318  30.120  1.00  0.00    -0.203 F 
ATOM     95  C   UNL A   1      41.866  35.547  28.441  1.00  0.00     0.198 A 
ATOM     96  C   UNL A   1      44.218  35.288  28.068  1.00  0.00     0.198 A 
ATOM     97  F   UNL A   1      45.446  33.707  29.308  1.00  0.00    -0.203 F 
ATOM     98  F   UNL A   1      40.709  36.170  28.173  1.00  0.00    -0.200 F 
ATOM     99  C   UNL A   1      43.019  35.916  27.771  1.00  0.00     0.200 A 
ATOM    100  F   UNL A   1      45.345  35.679  27.459  1.00  0.00    -0.200 F 
ATOM    101  F   UNL A   1      42.982  36.898  26.859  1.00  0.00    -0.200 F 
ENDBRANCH  68  91
ENDBRANCH  42  43
ENDBRANCH  35  37
ENDBRANCH  34  35
ENDBRANCH  33  34
ENDBRANCH  32  33
ENDBRANCH  31  32
ENDBRANCH   1  31
TORSDOF 17
ENDMDL
MODEL 2
REMARK VINA RESULT:     -12.6      2.778      3.928
REMARK SMILES O=C(CSc1nnnn1-c1ccc(C(=O)OCCOC(=O)c2ccc(-c3c4nc(c(-c5c(F)c(F)c(F)c(F)c5F)c5ccc([nH]5)c(-c5c(F)c(F)c(F)c(F)c5F)c5nc(c(-c6c(F)c(F)c(F)c(F)c6F)c6ccc3[nH]6)C=C5)C=C4)cc2)cc1)Nc1nc(-c2ccccc2)cs1
REMARK SMILES IDX 14 1 15 2 13 3 10 4 11 5 86 6 12 7 85 8 9 9 5 10 6 11 7 12
REMARK SMILES IDX 8 13 4 14 3 15 2 16 1 17 87 18 88 20 89 21 98 22 90 23 97 24
REMARK SMILES IDX 91 25 92 26 96 27 93 28 95 29 94 30 16 31 17 32 18 33 19 34
REMARK SMILES IDX 20 35 21 36 22 37 23 38 84 39 24 40 83 41 25 42 26 43 27 44
REMARK SMILES IDX 77 45 28 46 82 47 76 48 78 49 29 50 81 51 75 52 74 53 30 55
REMARK SMILES IDX 62 56 42 57 61 58 43 59 46 60 60 61 79 62 44 63 45 64 59 66
REMARK SMILES IDX 80 67 47 68 31 69 32 70 40 71 33 72 34 73 38 74 41 75 35 76
REMARK SMILES IDX 36 77 39 78 37 79 63 80 64 81 72 82 65 83 66 84 70 85 73 86
REMARK SMILES IDX 67 87 68 88 71 89 69 90 48 91 49 92 57 93 50 94 51 95 55 96
REMARK SMILES IDX 58 97 52 98 53 99 56 100 54 101
REMARK H PARENT 87 19 78 54 46 65
REMARK Flexibility Score: inf
ROOT
ATOM      1  C   UNL A   1      32.870  32.135  27.389  1.00  0.00     0.338 C 
ATOM      2  O   UNL A   1      32.033  32.995  27.246  1.00  0.00    -0.246 OA
ENDROOT
BRANCH   1   3
ATOM      3  C   UNL A   1      32.732  30.761  26.824  1.00  0.00     0.060 A 
ATOM      4  C   UNL A   1      32.138  28.175  26.021  1.00  0.00     0.069 A 
ATOM      5  C   UNL A   1      31.453  29.242  25.433  1.00  0.00     0.029 A 
ATOM      6  C   UNL A   1      33.248  28.399  26.833  1.00  0.00     0.029 A 
ATOM      7  C   UNL A   1      31.743  30.540  25.855  1.00  0.00     0.018 A 
ATOM      8  C   UNL A   1      33.542  29.700  27.239  1.00  0.00     0.018 A 
BRANCH   4   9
ATOM      9  N   UNL A   1      31.653  26.874  25.844  1.00  0.00    -0.187 N 
ATOM     10  C   UNL A   1      31.640  26.036  24.738  1.00  0.00     0.214 A 
ATOM     11  N   UNL A   1      30.889  24.994  25.037  1.00  0.00    -0.101 NA
ATOM     12  N   UNL A   1      30.546  25.123  26.355  1.00  0.00    -0.022 NA
ATOM     13  N   UNL A   1      31.072  26.219  26.876  1.00  0.00    -0.039 NA
BRANCH  10  14
ATOM     14  S   UNL A   1      32.628  25.994  23.306  1.00  0.00    -0.074 SA
BRANCH  14  15
ATOM     15  C   UNL A   1      34.300  25.394  23.633  1.00  0.00     0.178 C 
BRANCH  15  16
ATOM     16  C   UNL A   1      34.438  23.869  23.593  1.00  0.00     0.236 C 
ATOM     17  O   UNL A   1      35.272  23.348  22.857  1.00  0.00    -0.274 OA
ATOM     18  N   UNL A   1      33.581  23.200  24.431  1.00  0.00    -0.301 N 
ATOM     19  H   UNL A   1      33.204  23.689  25.197  1.00  0.00     0.172 HD
BRANCH  18  20
ATOM     20  C   UNL A   1      33.222  21.895  24.262  1.00  0.00     0.189 A 
ATOM     21  N   UNL A   1      33.659  20.817  24.857  1.00  0.00    -0.220 NA
ATOM     22  S   UNL A   1      32.137  21.672  22.961  1.00  0.00    -0.105 S 
ATOM     23  C   UNL A   1      33.133  19.705  24.217  1.00  0.00     0.084 A 
ATOM     24  C   UNL A   1      32.277  19.977  23.166  1.00  0.00     0.097 A 
BRANCH  23  25
ATOM     25  C   UNL A   1      33.447  18.350  24.633  1.00  0.00     0.001 A 
ATOM     26  C   UNL A   1      32.526  17.622  25.394  1.00  0.00     0.010 A 
ATOM     27  C   UNL A   1      34.657  17.749  24.257  1.00  0.00     0.010 A 
ATOM     28  C   UNL A   1      32.800  16.300  25.751  1.00  0.00     0.001 A 
ATOM     29  C   UNL A   1      34.933  16.431  24.626  1.00  0.00     0.001 A 
ATOM     30  C   UNL A   1      34.001  15.705  25.366  1.00  0.00     0.000 A 
ENDBRANCH  23  25
ENDBRANCH  18  20
ENDBRANCH  15  16
ENDBRANCH  14  15
ENDBRANCH  10  14
ENDBRANCH   4   9
ENDBRANCH   1   3
BRANCH   1  31
ATOM     31  O   UNL A   1      34.069  32.266  28.020  1.00  0.00    -0.458 OA
BRANCH  31  32
ATOM     32  C   UNL A   1      34.413  33.587  28.469  1.00  0.00     0.275 C 
BRANCH  32  33
ATOM     33  C   UNL A   1      34.464  33.643  29.991  1.00  0.00     0.275 C 
BRANCH  33  34
ATOM     34  O   UNL A   1      34.448  32.326  30.542  1.00  0.00    -0.458 OA
BRANCH  34  35
ATOM     35  C   UNL A   1      35.538  31.996  31.269  1.00  0.00     0.338 C 
ATOM     36  O   UNL A   1      35.818  32.373  32.396  1.00  0.00    -0.246 OA
BRANCH  35  37
ATOM     37  C   UNL A   1      36.466  31.222  30.441  1.00  0.00     0.060 A 
ATOM     38  C   UNL A   1      36.415  29.832  30.585  1.00  0.00     0.016 A 
ATOM     39  C   UNL A   1      37.551  31.869  29.837  1.00  0.00     0.016 A 
ATOM     40  C   UNL A   1      37.567  29.113  30.361  1.00  0.00     0.010 A 
ATOM     41  C   UNL A   1      38.701  31.151  29.620  1.00  0.00     0.010 A 
ATOM     42  C   UNL A   1      38.720  29.808  29.990  1.00  0.00    -0.014 A 
BRANCH  42  43
ATOM     43  C   UNL A   1      39.979  29.096  30.046  1.00  0.00     0.031 A 
ATOM     44  C   UNL A   1      40.583  29.000  31.393  1.00  0.00     0.074 A 
ATOM     45  C   UNL A   1      40.466  28.477  28.954  1.00  0.00     0.049 A 
ATOM     46  N   UNL A   1      41.774  29.329  31.770  1.00  0.00    -0.248 NA
ATOM     47  C   UNL A   1      39.703  28.552  32.484  1.00  0.00     0.031 C 
ATOM     48  C   UNL A   1      39.809  28.269  27.658  1.00  0.00     0.029 A 
ATOM     49  N   UNL A   1      41.630  27.788  28.821  1.00  0.00    -0.354 N 
ATOM     50  C   UNL A   1      41.845  28.994  33.119  1.00  0.00     0.074 A 
ATOM     51  C   UNL A   1      40.514  28.637  33.534  1.00  0.00     0.031 C 
ATOM     52  C   UNL A   1      40.482  27.322  26.968  1.00  0.00     0.029 A 
ATOM     53  C   UNL A   1      41.671  26.954  27.717  1.00  0.00     0.049 A 
ATOM     54  H   UNL A   1      42.379  27.875  29.455  1.00  0.00     0.167 HD
ATOM     55  C   UNL A   1      43.032  28.837  33.761  1.00  0.00     0.037 A 
ATOM     56  C   UNL A   1      42.570  25.966  27.498  1.00  0.00     0.037 A 
ATOM     57  C   UNL A   1      44.102  29.518  33.088  1.00  0.00     0.049 A 
ATOM     58  C   UNL A   1      43.734  26.208  28.388  1.00  0.00     0.074 A 
ATOM     59  C   UNL A   1      44.367  30.842  32.798  1.00  0.00     0.029 A 
ATOM     60  N   UNL A   1      44.954  28.788  32.298  1.00  0.00    -0.354 N 
ATOM     61  N   UNL A   1      44.568  27.201  28.249  1.00  0.00    -0.248 NA
ATOM     62  C   UNL A   1      43.720  25.587  29.705  1.00  0.00     0.031 C 
ATOM     63  C   UNL A   1      45.009  30.825  31.526  1.00  0.00     0.029 A 
ATOM     64  C   UNL A   1      45.119  29.491  31.130  1.00  0.00     0.049 A 
ATOM     65  H   UNL A   1      45.369  27.925  32.525  1.00  0.00     0.167 HD
ATOM     66  C   UNL A   1      44.881  27.589  29.545  1.00  0.00     0.074 A 
ATOM     67  C   UNL A   1      44.407  26.501  30.394  1.00  0.00     0.031 C 
ATOM     68  C   UNL A   1      45.238  28.875  29.830  1.00  0.00     0.037 A 
BRANCH  55  69
ATOM     69  C   UNL A   1      43.255  27.806  34.832  1.00  0.00     0.064 A 
ATOM     70  C   UNL A   1      43.616  28.213  36.128  1.00  0.00     0.173 A 
ATOM     71  C   UNL A   1      43.397  26.428  34.558  1.00  0.00     0.173 A 
ATOM     72  F   UNL A   1      43.552  29.506  36.481  1.00  0.00    -0.203 F 
ATOM     73  C   UNL A   1      44.129  27.311  37.064  1.00  0.00     0.198 A 
ATOM     74  C   UNL A   1      43.855  25.523  35.511  1.00  0.00     0.198 A 
ATOM     75  F   UNL A   1      43.205  25.923  33.332  1.00  0.00    -0.203 F 
ATOM     76  F   UNL A   1      44.568  27.760  38.248  1.00  0.00    -0.200 F 
ATOM     77  C   UNL A   1      44.249  25.968  36.754  1.00  0.00     0.200 A 
ATOM     78  F   UNL A   1      43.983  24.229  35.184  1.00  0.00    -0.200 F 
ATOM     79  F   UNL A   1      44.791  25.112  37.631  1.00  0.00    -0.200 F 
ENDBRANCH  55  69
BRANCH  56  80
ATOM     80  C   UNL A   1      42.326  24.672  26.822  1.00  0.00     0.064 A 
ATOM     81  C   UNL A   1      43.102  24.261  25.730  1.00  0.00     0.173 A 
ATOM     82  C   UNL A   1      41.477  23.700  27.391  1.00  0.00     0.173 A 
ATOM     83  F   UNL A   1      43.974  25.109  25.166  1.00  0.00    -0.203 F 
ATOM     84  C   UNL A   1      43.034  22.953  25.236  1.00  0.00     0.198 A 
ATOM     85  C   UNL A   1      41.401  22.401  26.891  1.00  0.00     0.198 A 
ATOM     86  F   UNL A   1      40.770  23.966  28.499  1.00  0.00    -0.203 F 
ATOM     87  F   UNL A   1      43.827  22.580  24.222  1.00  0.00    -0.200 F 
ATOM     88  C   UNL A   1      42.187  22.024  25.819  1.00  0.00     0.200 A 
ATOM     89  F   UNL A   1      40.605  21.503  27.490  1.00  0.00    -0.200 F 
ATOM     90  F   UNL A   1      42.158  20.760  25.377  1.00  0.00    -0.200 F 
ENDBRANCH  56  80
BRANCH  68  91
ATOM     91  C   UNL A   1      45.507  29.793  28.670  1.00  0.00     0.064 A 
ATOM     92  C   UNL A   1      44.488  30.429  27.940  1.00  0.00     0.173 A 
ATOM     93  C   UNL A   1      46.828  30.160  28.389  1.00  0.00     0.173 A 
ATOM     94  F   UNL A   1      43.199  30.214  28.227  1.00  0.00    -0.203 F 
ATOM     95  C   UNL A   1      44.783  31.353  26.939  1.00  0.00     0.198 A 
ATOM     96  C   UNL A   1      47.119  31.112  27.413  1.00  0.00     0.198 A 
ATOM     97  F   UNL A   1      47.839  29.635  29.098  1.00  0.00    -0.203 F 
ATOM     98  F   UNL A   1      43.791  31.938  26.251  1.00  0.00    -0.200 F 
ATOM     99  C   UNL A   1      46.098  31.699  26.683  1.00  0.00     0.200 A 
ATOM    100  F   UNL A   1      48.389  31.484  27.204  1.00  0.00    -0.200 F 
ATOM    101  F   UNL A   1      46.382  32.621  25.751  1.00  0.00    -0.200 F 
ENDBRANCH  68  91
ENDBRANCH  42  43
ENDBRANCH  35  37
ENDBRANCH  34  35
ENDBRANCH  33  34
ENDBRANCH  32  33
ENDBRANCH  31  32
ENDBRANCH   1  31
TORSDOF 17
ENDMDL
MODEL 3
REMARK VINA RESULT:     -12.5      3.095      4.483
REMARK SMILES O=C(CSc1nnnn1-c1ccc(C(=O)OCCOC(=O)c2ccc(-c3c4nc(c(-c5c(F)c(F)c(F)c(F)c5F)c5ccc([nH]5)c(-c5c(F)c(F)c(F)c(F)c5F)c5nc(c(-c6c(F)c(F)c(F)c(F)c6F)c6ccc3[nH]6)C=C5)C=C4)cc2)cc1)Nc1nc(-c2ccccc2)cs1
REMARK SMILES IDX 14 1 15 2 13 3 10 4 11 5 86 6 12 7 85 8 9 9 5 10 6 11 7 12
REMARK SMILES IDX 8 13 4 14 3 15 2 16 1 17 87 18 88 20 89 21 98 22 90 23 97 24
REMARK SMILES IDX 91 25 92 26 96 27 93 28 95 29 94 30 16 31 17 32 18 33 19 34
REMARK SMILES IDX 20 35 21 36 22 37 23 38 84 39 24 40 83 41 25 42 26 43 27 44
REMARK SMILES IDX 77 45 28 46 82 47 76 48 78 49 29 50 81 51 75 52 74 53 30 55
REMARK SMILES IDX 62 56 42 57 61 58 43 59 46 60 60 61 79 62 44 63 45 64 59 66
REMARK SMILES IDX 80 67 47 68 31 69 32 70 40 71 33 72 34 73 38 74 41 75 35 76
REMARK SMILES IDX 36 77 39 78 37 79 63 80 64 81 72 82 65 83 66 84 70 85 73 86
REMARK SMILES IDX 67 87 68 88 71 89 69 90 48 91 49 92 57 93 50 94 51 95 55 96
REMARK SMILES IDX 58 97 52 98 53 99 56 100 54 101
REMARK H PARENT 87 19 78 54 46 65
REMARK Flexibility Score: inf
ROOT
ATOM      1  C   UNL A   1      33.379  32.339  27.690  1.00  0.00     0.338 C 
ATOM      2  O   UNL A   1      32.634  33.290  27.658  1.00  0.00    -0.246 OA
ENDROOT
BRANCH   1   3
ATOM      3  C   UNL A   1      33.056  31.028  27.054  1.00  0.00     0.060 A 
ATOM      4  C   UNL A   1      32.152  28.565  26.161  1.00  0.00     0.069 A 
ATOM      5  C   UNL A   1      31.487  29.722  25.746  1.00  0.00     0.029 A 
ATOM      6  C   UNL A   1      33.373  28.642  26.828  1.00  0.00     0.029 A 
ATOM      7  C   UNL A   1      31.935  30.958  26.215  1.00  0.00     0.018 A 
ATOM      8  C   UNL A   1      33.823  29.881  27.281  1.00  0.00     0.018 A 
BRANCH   4   9
ATOM      9  N   UNL A   1      31.542  27.321  25.960  1.00  0.00    -0.187 N 
ATOM     10  C   UNL A   1      31.124  26.673  24.806  1.00  0.00     0.214 A 
ATOM     11  N   UNL A   1      30.431  25.613  25.175  1.00  0.00    -0.101 NA
ATOM     12  N   UNL A   1      30.527  25.535  26.537  1.00  0.00    -0.022 NA
ATOM     13  N   UNL A   1      31.268  26.520  27.017  1.00  0.00    -0.039 NA
BRANCH  10  14
ATOM     14  S   UNL A   1      31.608  26.841  23.144  1.00  0.00    -0.074 SA
BRANCH  14  15
ATOM     15  C   UNL A   1      33.351  26.445  22.884  1.00  0.00     0.178 C 
BRANCH  15  16
ATOM     16  C   UNL A   1      33.677  24.952  22.986  1.00  0.00     0.236 C 
ATOM     17  O   UNL A   1      33.701  24.259  21.972  1.00  0.00    -0.274 OA
ATOM     18  N   UNL A   1      33.931  24.512  24.262  1.00  0.00    -0.301 N 
ATOM     19  H   UNL A   1      34.212  25.174  24.934  1.00  0.00     0.172 HD
BRANCH  18  20
ATOM     20  C   UNL A   1      33.817  23.210  24.651  1.00  0.00     0.189 A 
ATOM     21  N   UNL A   1      33.913  22.110  23.951  1.00  0.00    -0.220 NA
ATOM     22  S   UNL A   1      33.331  23.048  26.280  1.00  0.00    -0.105 S 
ATOM     23  C   UNL A   1      33.533  21.038  24.745  1.00  0.00     0.084 A 
ATOM     24  C   UNL A   1      33.190  21.357  26.046  1.00  0.00     0.097 A 
BRANCH  23  25
ATOM     25  C   UNL A   1      33.513  19.674  24.249  1.00  0.00     0.001 A 
ATOM     26  C   UNL A   1      32.519  19.273  23.350  1.00  0.00     0.010 A 
ATOM     27  C   UNL A   1      34.497  18.756  24.640  1.00  0.00     0.010 A 
ATOM     28  C   UNL A   1      32.526  17.979  22.827  1.00  0.00     0.001 A 
ATOM     29  C   UNL A   1      34.495  17.457  24.125  1.00  0.00     0.001 A 
ATOM     30  C   UNL A   1      33.514  17.072  23.213  1.00  0.00     0.000 A 
ENDBRANCH  23  25
ENDBRANCH  18  20
ENDBRANCH  15  16
ENDBRANCH  14  15
ENDBRANCH  10  14
ENDBRANCH   4   9
ENDBRANCH   1   3
BRANCH   1  31
ATOM     31  O   UNL A   1      34.623  32.301  28.242  1.00  0.00    -0.458 OA
BRANCH  31  32
ATOM     32  C   UNL A   1      34.995  33.424  29.057  1.00  0.00     0.275 C 
BRANCH  32  33
ATOM     33  C   UNL A   1      34.610  33.187  30.512  1.00  0.00     0.275 C 
BRANCH  33  34
ATOM     34  O   UNL A   1      34.825  31.821  30.871  1.00  0.00    -0.458 OA
BRANCH  34  35
ATOM     35  C   UNL A   1      35.949  31.588  31.583  1.00  0.00     0.338 C 
ATOM     36  O   UNL A   1      36.220  32.005  32.698  1.00  0.00    -0.246 OA
BRANCH  35  37
ATOM     37  C   UNL A   1      36.919  30.870  30.751  1.00  0.00     0.060 A 
ATOM     38  C   UNL A   1      36.774  29.480  30.687  1.00  0.00     0.016 A 
ATOM     39  C   UNL A   1      38.099  31.515  30.361  1.00  0.00     0.016 A 
ATOM     40  C   UNL A   1      37.901  28.719  30.480  1.00  0.00     0.010 A 
ATOM     41  C   UNL A   1      39.224  30.753  30.161  1.00  0.00     0.010 A 
ATOM     42  C   UNL A   1      39.126  29.374  30.333  1.00  0.00    -0.014 A 
BRANCH  42  43
ATOM     43  C   UNL A   1      40.329  28.573  30.414  1.00  0.00     0.031 A 
ATOM     44  C   UNL A   1      40.875  28.401  31.779  1.00  0.00     0.074 A 
ATOM     45  C   UNL A   1      40.812  27.948  29.323  1.00  0.00     0.049 A 
ATOM     46  N   UNL A   1      42.071  28.635  32.206  1.00  0.00    -0.248 NA
ATOM     47  C   UNL A   1      39.925  27.990  32.825  1.00  0.00     0.031 C 
ATOM     48  C   UNL A   1      40.190  27.820  28.000  1.00  0.00     0.029 A 
ATOM     49  N   UNL A   1      41.928  27.182  29.213  1.00  0.00    -0.354 N 
ATOM     50  C   UNL A   1      42.068  28.262  33.547  1.00  0.00     0.074 A 
ATOM     51  C   UNL A   1      40.701  27.991  33.905  1.00  0.00     0.031 C 
ATOM     52  C   UNL A   1      40.820  26.845  27.308  1.00  0.00     0.029 A 
ATOM     53  C   UNL A   1      41.952  26.375  28.089  1.00  0.00     0.049 A 
ATOM     54  H   UNL A   1      42.657  27.199  29.875  1.00  0.00     0.167 HD
ATOM     55  C   UNL A   1      43.216  28.005  34.226  1.00  0.00     0.037 A 
ATOM     56  C   UNL A   1      42.786  25.330  27.874  1.00  0.00     0.037 A 
ATOM     57  C   UNL A   1      44.356  28.625  33.610  1.00  0.00     0.049 A 
ATOM     58  C   UNL A   1      43.930  25.467  28.811  1.00  0.00     0.074 A 
ATOM     59  C   UNL A   1      44.723  29.933  33.366  1.00  0.00     0.029 A 
ATOM     60  N   UNL A   1      45.183  27.856  32.831  1.00  0.00    -0.354 N 
ATOM     61  N   UNL A   1      44.837  26.402  28.730  1.00  0.00    -0.248 NA
ATOM     62  C   UNL A   1      43.824  24.816  30.110  1.00  0.00     0.031 C 
ATOM     63  C   UNL A   1      45.409  29.902  32.117  1.00  0.00     0.029 A 
ATOM     64  C   UNL A   1      45.440  28.574  31.689  1.00  0.00     0.049 A 
ATOM     65  H   UNL A   1      45.528  26.960  33.049  1.00  0.00     0.167 HD
ATOM     66  C   UNL A   1      45.128  26.733  30.045  1.00  0.00     0.074 A 
ATOM     67  C   UNL A   1      44.548  25.661  30.847  1.00  0.00     0.031 C 
ATOM     68  C   UNL A   1      45.564  27.983  30.378  1.00  0.00     0.037 A 
BRANCH  55  69
ATOM     69  C   UNL A   1      43.326  26.936  35.276  1.00  0.00     0.064 A 
ATOM     70  C   UNL A   1      43.629  27.288  36.603  1.00  0.00     0.173 A 
ATOM     71  C   UNL A   1      43.418  25.560  34.968  1.00  0.00     0.173 A 
ATOM     72  F   UNL A   1      43.606  28.572  36.991  1.00  0.00    -0.203 F 
ATOM     73  C   UNL A   1      44.043  26.335  37.538  1.00  0.00     0.198 A 
ATOM     74  C   UNL A   1      43.776  24.607  35.917  1.00  0.00     0.198 A 
ATOM     75  F   UNL A   1      43.274  25.100  33.718  1.00  0.00    -0.203 F 
ATOM     76  F   UNL A   1      44.431  26.728  38.758  1.00  0.00    -0.200 F 
ATOM     77  C   UNL A   1      44.116  24.997  37.194  1.00  0.00     0.200 A 
ATOM     78  F   UNL A   1      43.860  23.318  35.559  1.00  0.00    -0.200 F 
ATOM     79  F   UNL A   1      44.564  24.091  38.074  1.00  0.00    -0.200 F 
ENDBRANCH  55  69
BRANCH  56  80
ATOM     80  C   UNL A   1      42.478  24.074  27.156  1.00  0.00     0.064 A 
ATOM     81  C   UNL A   1      43.399  23.492  26.275  1.00  0.00     0.173 A 
ATOM     82  C   UNL A   1      41.359  23.289  27.506  1.00  0.00     0.173 A 
ATOM     83  F   UNL A   1      44.516  24.150  25.935  1.00  0.00    -0.203 F 
ATOM     84  C   UNL A   1      43.213  22.198  25.774  1.00  0.00     0.198 A 
ATOM     85  C   UNL A   1      41.169  22.005  26.997  1.00  0.00     0.198 A 
ATOM     86  F   UNL A   1      40.474  23.717  28.417  1.00  0.00    -0.203 F 
ATOM     87  F   UNL A   1      44.140  21.652  24.973  1.00  0.00    -0.200 F 
ATOM     88  C   UNL A   1      42.102  21.455  26.139  1.00  0.00     0.200 A 
ATOM     89  F   UNL A   1      40.109  21.285  27.388  1.00  0.00    -0.200 F 
ATOM     90  F   UNL A   1      41.949  20.199  25.696  1.00  0.00    -0.200 F 
ENDBRANCH  56  80
BRANCH  68  91
ATOM     91  C   UNL A   1      45.939  28.908  29.254  1.00  0.00     0.064 A 
ATOM     92  C   UNL A   1      47.208  28.911  28.650  1.00  0.00     0.173 A 
ATOM     93  C   UNL A   1      44.945  29.702  28.669  1.00  0.00     0.173 A 
ATOM     94  F   UNL A   1      48.177  28.095  29.082  1.00  0.00    -0.203 F 
ATOM     95  C   UNL A   1      47.482  29.711  27.543  1.00  0.00     0.198 A 
ATOM     96  C   UNL A   1      45.211  30.473  27.540  1.00  0.00     0.198 A 
ATOM     97  F   UNL A   1      43.697  29.690  29.163  1.00  0.00    -0.203 F 
ATOM     98  F   UNL A   1      48.705  29.702  26.993  1.00  0.00    -0.200 F 
ATOM     99  C   UNL A   1      46.480  30.485  26.984  1.00  0.00     0.200 A 
ATOM    100  F   UNL A   1      44.226  31.181  26.969  1.00  0.00    -0.200 F 
ATOM    101  F   UNL A   1      46.729  31.222  25.891  1.00  0.00    -0.200 F 
ENDBRANCH  68  91
ENDBRANCH  42  43
ENDBRANCH  35  37
ENDBRANCH  34  35
ENDBRANCH  33  34
ENDBRANCH  32  33
ENDBRANCH  31  32
ENDBRANCH   1  31
TORSDOF 17
ENDMDL
