MODEL 1
REMARK VINA RESULT:     -11.5      0.000      0.000
REMARK SMILES Cc1ccn2c([C@H]3C[C@@H]3C(=O)OCCOC(=O)c3ccc(-c4c5nc(c(-c6c(F)c(F)c(F)c(F)c6F)c6ccc([nH]6)c(-c6c(F)c(F)c(F)c(F)c6F)c6nc(c(-c7c(F)c(F)c(F)c(F)c7F)c7ccc4[nH]7)C=C6)C=C5)cc3)nnc2c1
REMARK SMILES IDX 14 1 13 2 12 3 10 4 11 5 9 6 7 7 8 8 6 9 1 10 2 11 3 12
REMARK SMILES IDX 84 13 4 14 83 15 5 16 82 17 81 18 15 19 16 20 17 21 18 22
REMARK SMILES IDX 19 23 80 24 20 25 79 26 21 27 22 28 23 29 73 30 24 31 78 32
REMARK SMILES IDX 72 33 74 34 25 35 77 36 71 37 70 38 26 40 58 41 38 42 57 43
REMARK SMILES IDX 39 44 42 45 56 46 75 47 40 48 41 49 55 51 76 52 43 53 27 54
REMARK SMILES IDX 28 55 36 56 29 57 30 58 34 59 37 60 31 61 32 62 35 63 33 64
REMARK SMILES IDX 59 65 60 66 68 67 61 68 62 69 66 70 69 71 63 72 64 73 67 74
REMARK SMILES IDX 65 75 44 76 45 77 53 78 46 79 47 80 51 81 54 82 48 83 49 84
REMARK SMILES IDX 52 85 50 86
REMARK H PARENT 74 39 42 50
REMARK Flexibility Score: inf
ROOT
ATOM      1  C   UNL A   1      40.847  20.401  27.088  1.00  0.00     0.275 C 
ENDROOT
BRANCH   1   2
ATOM      2  C   UNL A   1      42.275  19.911  26.816  1.00  0.00     0.274 C 
BRANCH   2   3
ATOM      3  O   UNL A   1      42.508  19.750  25.388  1.00  0.00    -0.462 OA
BRANCH   3   4
ATOM      4  C   UNL A   1      43.789  19.914  24.971  1.00  0.00     0.309 C 
ATOM      5  O   UNL A   1      44.452  19.057  24.389  1.00  0.00    -0.252 OA
BRANCH   4   6
ATOM      6  C   UNL A   1      44.375  21.262  25.284  1.00  0.00     0.110 C 
ATOM      7  C   UNL A   1      43.706  22.537  24.846  1.00  0.00     0.073 C 
ATOM      8  C   UNL A   1      44.896  22.041  24.086  1.00  0.00     0.028 C 
BRANCH   7   9
ATOM      9  C   UNL A   1      43.810  23.959  25.349  1.00  0.00     0.141 A 
ATOM     10  C   UNL A   1      46.684  26.162  29.622  1.00  0.00     0.044 C 
ATOM     11  C   UNL A   1      45.932  25.583  28.460  1.00  0.00    -0.046 A 
ATOM     12  C   UNL A   1      45.906  24.127  28.393  1.00  0.00     0.022 A 
ATOM     13  C   UNL A   1      45.283  26.328  27.533  1.00  0.00     0.053 A 
ATOM     14  C   UNL A   1      45.238  23.544  27.389  1.00  0.00     0.095 A 
ATOM     15  C   UNL A   1      44.535  25.696  26.493  1.00  0.00     0.161 A 
ATOM     16  N   UNL A   1      44.578  24.319  26.441  1.00  0.00    -0.286 N 
ATOM     17  N   UNL A   1      43.725  26.130  25.548  1.00  0.00    -0.130 NA
ATOM     18  N   UNL A   1      43.226  25.028  24.859  1.00  0.00    -0.134 NA
ENDBRANCH   7   9
ENDBRANCH   4   6
ENDBRANCH   3   4
ENDBRANCH   2   3
ENDBRANCH   1   2
BRANCH   1  19
ATOM     19  O   UNL A   1      40.911  21.775  27.516  1.00  0.00    -0.458 OA
BRANCH  19  20
ATOM     20  C   UNL A   1      40.102  22.637  26.856  1.00  0.00     0.338 C 
ATOM     21  O   UNL A   1      38.971  22.437  26.461  1.00  0.00    -0.246 OA
BRANCH  20  22
ATOM     22  C   UNL A   1      40.646  23.974  27.165  1.00  0.00     0.060 A 
ATOM     23  C   UNL A   1      41.544  24.267  28.192  1.00  0.00     0.016 A 
ATOM     24  C   UNL A   1      40.001  25.002  26.505  1.00  0.00     0.016 A 
ATOM     25  C   UNL A   1      41.598  25.574  28.708  1.00  0.00     0.010 A 
ATOM     26  C   UNL A   1      40.091  26.286  27.009  1.00  0.00     0.010 A 
ATOM     27  C   UNL A   1      40.757  26.567  28.196  1.00  0.00    -0.014 A 
BRANCH  27  28
ATOM     28  C   UNL A   1      40.726  27.961  28.680  1.00  0.00     0.031 A 
ATOM     29  C   UNL A   1      41.856  28.752  28.135  1.00  0.00     0.074 A 
ATOM     30  C   UNL A   1      39.754  28.645  29.338  1.00  0.00     0.049 A 
ATOM     31  N   UNL A   1      43.002  28.921  28.702  1.00  0.00    -0.248 NA
ATOM     32  C   UNL A   1      41.797  29.230  26.745  1.00  0.00     0.031 C 
ATOM     33  C   UNL A   1      38.392  28.263  29.704  1.00  0.00     0.029 A 
ATOM     34  N   UNL A   1      39.813  29.938  29.802  1.00  0.00    -0.354 N 
ATOM     35  C   UNL A   1      43.746  29.677  27.811  1.00  0.00     0.074 A 
ATOM     36  C   UNL A   1      43.065  29.590  26.546  1.00  0.00     0.031 C 
ATOM     37  C   UNL A   1      37.696  29.346  30.139  1.00  0.00     0.029 A 
ATOM     38  C   UNL A   1      38.609  30.466  30.275  1.00  0.00     0.049 A 
ATOM     39  H   UNL A   1      40.650  30.458  29.799  1.00  0.00     0.167 HD
ATOM     40  C   UNL A   1      44.714  30.531  28.238  1.00  0.00     0.037 A 
ATOM     41  C   UNL A   1      38.402  31.715  30.778  1.00  0.00     0.037 A 
ATOM     42  C   UNL A   1      44.986  30.345  29.643  1.00  0.00     0.049 A 
ATOM     43  C   UNL A   1      39.724  32.229  31.212  1.00  0.00     0.074 A 
ATOM     44  C   UNL A   1      45.422  29.281  30.409  1.00  0.00     0.029 A 
ATOM     45  N   UNL A   1      44.396  31.217  30.527  1.00  0.00    -0.354 N 
ATOM     46  N   UNL A   1      40.403  31.739  32.209  1.00  0.00    -0.248 NA
ATOM     47  C   UNL A   1      40.484  33.007  30.249  1.00  0.00     0.031 C 
ATOM     48  C   UNL A   1      44.640  29.337  31.601  1.00  0.00     0.029 A 
ATOM     49  C   UNL A   1      43.831  30.473  31.534  1.00  0.00     0.049 A 
ATOM     50  H   UNL A   1      44.380  32.199  30.453  1.00  0.00     0.167 HD
ATOM     51  C   UNL A   1      41.717  31.756  31.770  1.00  0.00     0.074 A 
ATOM     52  C   UNL A   1      41.715  32.620  30.592  1.00  0.00     0.031 C 
ATOM     53  C   UNL A   1      42.619  30.841  32.230  1.00  0.00     0.037 A 
BRANCH  40  54
ATOM     54  C   UNL A   1      45.176  31.742  27.475  1.00  0.00     0.064 A 
ATOM     55  C   UNL A   1      46.504  31.798  27.015  1.00  0.00     0.173 A 
ATOM     56  C   UNL A   1      44.440  32.942  27.358  1.00  0.00     0.173 A 
ATOM     57  F   UNL A   1      47.307  30.728  27.120  1.00  0.00    -0.203 F 
ATOM     58  C   UNL A   1      47.057  32.973  26.501  1.00  0.00     0.198 A 
ATOM     59  C   UNL A   1      44.973  34.093  26.784  1.00  0.00     0.198 A 
ATOM     60  F   UNL A   1      43.220  33.085  27.888  1.00  0.00    -0.203 F 
ATOM     61  F   UNL A   1      48.355  33.008  26.172  1.00  0.00    -0.200 F 
ATOM     62  C   UNL A   1      46.289  34.117  26.378  1.00  0.00     0.200 A 
ATOM     63  F   UNL A   1      44.215  35.196  26.695  1.00  0.00    -0.200 F 
ATOM     64  F   UNL A   1      46.827  35.253  25.917  1.00  0.00    -0.200 F 
ENDBRANCH  40  54
BRANCH  41  65
ATOM     65  C   UNL A   1      37.235  32.639  30.685  1.00  0.00     0.064 A 
ATOM     66  C   UNL A   1      36.892  33.265  29.467  1.00  0.00     0.173 A 
ATOM     67  C   UNL A   1      36.243  32.642  31.679  1.00  0.00     0.173 A 
ATOM     68  F   UNL A   1      37.759  33.275  28.443  1.00  0.00    -0.203 F 
ATOM     69  C   UNL A   1      35.620  33.811  29.245  1.00  0.00     0.198 A 
ATOM     70  C   UNL A   1      34.973  33.189  31.456  1.00  0.00     0.198 A 
ATOM     71  F   UNL A   1      36.450  32.016  32.846  1.00  0.00    -0.203 F 
ATOM     72  F   UNL A   1      35.309  34.324  28.045  1.00  0.00    -0.200 F 
ATOM     73  C   UNL A   1      34.656  33.756  30.234  1.00  0.00     0.200 A 
ATOM     74  F   UNL A   1      34.031  33.092  32.406  1.00  0.00    -0.200 F 
ATOM     75  F   UNL A   1      33.414  34.203  29.998  1.00  0.00    -0.200 F 
ENDBRANCH  41  65
BRANCH  53  76
ATOM     76  C   UNL A   1      42.227  29.993  33.414  1.00  0.00     0.064 A 
ATOM     77  C   UNL A   1      41.692  28.694  33.321  1.00  0.00     0.173 A 
ATOM     78  C   UNL A   1      42.556  30.456  34.695  1.00  0.00     0.173 A 
ATOM     79  F   UNL A   1      41.425  28.138  32.134  1.00  0.00    -0.203 F 
ATOM     80  C   UNL A   1      41.479  27.911  34.457  1.00  0.00     0.198 A 
ATOM     81  C   UNL A   1      42.378  29.659  35.823  1.00  0.00     0.198 A 
ATOM     82  F   UNL A   1      43.105  31.671  34.847  1.00  0.00    -0.203 F 
ATOM     83  F   UNL A   1      40.968  26.676  34.339  1.00  0.00    -0.200 F 
ATOM     84  C   UNL A   1      41.835  28.390  35.706  1.00  0.00     0.200 A 
ATOM     85  F   UNL A   1      42.766  30.111  37.024  1.00  0.00    -0.200 F 
ATOM     86  F   UNL A   1      41.683  27.620  36.792  1.00  0.00    -0.200 F 
ENDBRANCH  53  76
ENDBRANCH  27  28
ENDBRANCH  20  22
ENDBRANCH  19  20
ENDBRANCH   1  19
TORSDOF 12
ENDMDL
MODEL 2
REMARK VINA RESULT:     -11.4      3.130      5.134
REMARK SMILES Cc1ccn2c([C@H]3C[C@@H]3C(=O)OCCOC(=O)c3ccc(-c4c5nc(c(-c6c(F)c(F)c(F)c(F)c6F)c6ccc([nH]6)c(-c6c(F)c(F)c(F)c(F)c6F)c6nc(c(-c7c(F)c(F)c(F)c(F)c7F)c7ccc4[nH]7)C=C6)C=C5)cc3)nnc2c1
REMARK SMILES IDX 14 1 13 2 12 3 10 4 11 5 9 6 7 7 8 8 6 9 1 10 2 11 3 12
REMARK SMILES IDX 84 13 4 14 83 15 5 16 82 17 81 18 15 19 16 20 17 21 18 22
REMARK SMILES IDX 19 23 80 24 20 25 79 26 21 27 22 28 23 29 73 30 24 31 78 32
REMARK SMILES IDX 72 33 74 34 25 35 77 36 71 37 70 38 26 40 58 41 38 42 57 43
REMARK SMILES IDX 39 44 42 45 56 46 75 47 40 48 41 49 55 51 76 52 43 53 27 54
REMARK SMILES IDX 28 55 36 56 29 57 30 58 34 59 37 60 31 61 32 62 35 63 33 64
REMARK SMILES IDX 59 65 60 66 68 67 61 68 62 69 66 70 69 71 63 72 64 73 67 74
REMARK SMILES IDX 65 75 44 76 45 77 53 78 46 79 47 80 51 81 54 82 48 83 49 84
REMARK SMILES IDX 52 85 50 86
REMARK H PARENT 74 39 42 50
REMARK Flexibility Score: inf
ROOT
ATOM      1  C   UNL A   1      38.693  21.327  25.595  1.00  0.00     0.275 C 
ENDROOT
BRANCH   1   2
ATOM      2  C   UNL A   1      37.236  21.453  25.128  1.00  0.00     0.274 C 
BRANCH   2   3
ATOM      3  O   UNL A   1      36.866  22.848  24.944  1.00  0.00    -0.462 OA
BRANCH   3   4
ATOM      4  C   UNL A   1      36.224  23.146  23.786  1.00  0.00     0.309 C 
ATOM      5  O   UNL A   1      36.711  23.027  22.663  1.00  0.00    -0.252 OA
BRANCH   4   6
ATOM      6  C   UNL A   1      34.824  23.661  23.969  1.00  0.00     0.110 C 
ATOM      7  C   UNL A   1      34.089  23.508  25.273  1.00  0.00     0.073 C 
ATOM      8  C   UNL A   1      33.753  22.593  24.138  1.00  0.00     0.028 C 
BRANCH   7   9
ATOM      9  C   UNL A   1      32.915  24.255  25.867  1.00  0.00     0.141 A 
ATOM     10  C   UNL A   1      32.150  29.705  26.903  1.00  0.00     0.044 C 
ATOM     11  C   UNL A   1      32.338  28.247  26.604  1.00  0.00    -0.046 A 
ATOM     12  C   UNL A   1      33.687  27.855  26.212  1.00  0.00     0.022 A 
ATOM     13  C   UNL A   1      31.355  27.321  26.710  1.00  0.00     0.053 A 
ATOM     14  C   UNL A   1      33.927  26.565  25.946  1.00  0.00     0.095 A 
ATOM     15  C   UNL A   1      31.633  25.940  26.469  1.00  0.00     0.161 A 
ATOM     16  N   UNL A   1      32.909  25.624  26.054  1.00  0.00    -0.286 N 
ATOM     17  N   UNL A   1      30.943  24.825  26.606  1.00  0.00    -0.130 NA
ATOM     18  N   UNL A   1      31.770  23.756  26.275  1.00  0.00    -0.134 NA
ENDBRANCH   7   9
ENDBRANCH   4   6
ENDBRANCH   3   4
ENDBRANCH   2   3
ENDBRANCH   1   2
BRANCH   1  19
ATOM     19  O   UNL A   1      39.075  22.561  26.231  1.00  0.00    -0.458 OA
BRANCH  19  20
ATOM     20  C   UNL A   1      40.045  22.464  27.172  1.00  0.00     0.338 C 
ATOM     21  O   UNL A   1      40.661  21.470  27.500  1.00  0.00    -0.246 OA
BRANCH  20  22
ATOM     22  C   UNL A   1      40.547  23.842  27.337  1.00  0.00     0.060 A 
ATOM     23  C   UNL A   1      41.676  24.212  28.069  1.00  0.00     0.016 A 
ATOM     24  C   UNL A   1      39.660  24.811  26.908  1.00  0.00     0.016 A 
ATOM     25  C   UNL A   1      41.771  25.522  28.573  1.00  0.00     0.010 A 
ATOM     26  C   UNL A   1      39.789  26.101  27.389  1.00  0.00     0.010 A 
ATOM     27  C   UNL A   1      40.743  26.441  28.340  1.00  0.00    -0.014 A 
BRANCH  27  28
ATOM     28  C   UNL A   1      40.741  27.829  28.839  1.00  0.00     0.031 A 
ATOM     29  C   UNL A   1      41.871  28.610  28.278  1.00  0.00     0.074 A 
ATOM     30  C   UNL A   1      39.794  28.521  29.524  1.00  0.00     0.049 A 
ATOM     31  N   UNL A   1      43.031  28.758  28.823  1.00  0.00    -0.248 NA
ATOM     32  C   UNL A   1      41.790  29.103  26.895  1.00  0.00     0.031 C 
ATOM     33  C   UNL A   1      38.434  28.154  29.915  1.00  0.00     0.029 A 
ATOM     34  N   UNL A   1      39.881  29.808  30.000  1.00  0.00    -0.354 N 
ATOM     35  C   UNL A   1      43.767  29.513  27.924  1.00  0.00     0.074 A 
ATOM     36  C   UNL A   1      43.059  29.448  26.673  1.00  0.00     0.031 C 
ATOM     37  C   UNL A   1      37.763  29.242  30.376  1.00  0.00     0.029 A 
ATOM     38  C   UNL A   1      38.695  30.347  30.504  1.00  0.00     0.049 A 
ATOM     39  H   UNL A   1      40.724  30.316  29.985  1.00  0.00     0.167 HD
ATOM     40  C   UNL A   1      44.756  30.349  28.339  1.00  0.00     0.037 A 
ATOM     41  C   UNL A   1      38.515  31.595  31.024  1.00  0.00     0.037 A 
ATOM     42  C   UNL A   1      45.055  30.144  29.736  1.00  0.00     0.049 A 
ATOM     43  C   UNL A   1      39.854  32.085  31.434  1.00  0.00     0.074 A 
ATOM     44  C   UNL A   1      45.491  29.066  30.482  1.00  0.00     0.029 A 
ATOM     45  N   UNL A   1      44.495  31.015  30.641  1.00  0.00    -0.354 N 
ATOM     46  N   UNL A   1      40.547  31.576  32.412  1.00  0.00    -0.248 NA
ATOM     47  C   UNL A   1      40.605  32.862  30.464  1.00  0.00     0.031 C 
ATOM     48  C   UNL A   1      44.735  29.121  31.691  1.00  0.00     0.029 A 
ATOM     49  C   UNL A   1      43.942  30.268  31.652  1.00  0.00     0.049 A 
ATOM     50  H   UNL A   1      44.492  31.998  30.577  1.00  0.00     0.167 HD
ATOM     51  C   UNL A   1      41.851  31.578  31.946  1.00  0.00     0.074 A 
ATOM     52  C   UNL A   1      41.837  32.455  30.777  1.00  0.00     0.031 C 
ATOM     53  C   UNL A   1      42.749  30.646  32.377  1.00  0.00     0.037 A 
BRANCH  40  54
ATOM     54  C   UNL A   1      45.219  31.560  27.579  1.00  0.00     0.064 A 
ATOM     55  C   UNL A   1      46.544  31.611  27.107  1.00  0.00     0.173 A 
ATOM     56  C   UNL A   1      44.490  32.766  27.474  1.00  0.00     0.173 A 
ATOM     57  F   UNL A   1      47.340  30.536  27.200  1.00  0.00    -0.203 F 
ATOM     58  C   UNL A   1      47.099  32.786  26.596  1.00  0.00     0.198 A 
ATOM     59  C   UNL A   1      45.025  33.916  26.902  1.00  0.00     0.198 A 
ATOM     60  F   UNL A   1      43.275  32.913  28.016  1.00  0.00    -0.203 F 
ATOM     61  F   UNL A   1      48.395  32.814  26.255  1.00  0.00    -0.200 F 
ATOM     62  C   UNL A   1      46.337  33.935  26.485  1.00  0.00     0.200 A 
ATOM     63  F   UNL A   1      44.273  35.024  26.825  1.00  0.00    -0.200 F 
ATOM     64  F   UNL A   1      46.878  35.070  26.025  1.00  0.00    -0.200 F 
ENDBRANCH  40  54
BRANCH  41  65
ATOM     65  C   UNL A   1      37.361  32.535  30.964  1.00  0.00     0.064 A 
ATOM     66  C   UNL A   1      37.060  33.253  29.786  1.00  0.00     0.173 A 
ATOM     67  C   UNL A   1      36.338  32.477  31.926  1.00  0.00     0.173 A 
ATOM     68  F   UNL A   1      37.957  33.328  28.792  1.00  0.00    -0.203 F 
ATOM     69  C   UNL A   1      35.800  33.827  29.568  1.00  0.00     0.198 A 
ATOM     70  C   UNL A   1      35.081  33.052  31.708  1.00  0.00     0.198 A 
ATOM     71  F   UNL A   1      36.505  31.764  33.050  1.00  0.00    -0.203 F 
ATOM     72  F   UNL A   1      35.530  34.430  28.400  1.00  0.00    -0.200 F 
ATOM     73  C   UNL A   1      34.806  33.710  30.521  1.00  0.00     0.200 A 
ATOM     74  F   UNL A   1      34.110  32.896  32.619  1.00  0.00    -0.200 F 
ATOM     75  F   UNL A   1      33.576  34.187  30.282  1.00  0.00    -0.200 F 
ENDBRANCH  41  65
BRANCH  53  76
ATOM     76  C   UNL A   1      42.370  29.791  33.560  1.00  0.00     0.064 A 
ATOM     77  C   UNL A   1      41.790  28.512  33.466  1.00  0.00     0.173 A 
ATOM     78  C   UNL A   1      42.758  30.222  34.837  1.00  0.00     0.173 A 
ATOM     79  F   UNL A   1      41.464  27.986  32.280  1.00  0.00    -0.203 F 
ATOM     80  C   UNL A   1      41.590  27.718  34.596  1.00  0.00     0.198 A 
ATOM     81  C   UNL A   1      42.593  29.413  35.958  1.00  0.00     0.198 A 
ATOM     82  F   UNL A   1      43.352  31.416  34.989  1.00  0.00    -0.203 F 
ATOM     83  F   UNL A   1      41.035  26.502  34.476  1.00  0.00    -0.200 F 
ATOM     84  C   UNL A   1      42.004  28.164  35.839  1.00  0.00     0.200 A 
ATOM     85  F   UNL A   1      43.036  29.831  37.151  1.00  0.00    -0.200 F 
ATOM     86  F   UNL A   1      41.865  27.381  36.918  1.00  0.00    -0.200 F 
ENDBRANCH  53  76
ENDBRANCH  27  28
ENDBRANCH  20  22
ENDBRANCH  19  20
ENDBRANCH   1  19
TORSDOF 12
ENDMDL
MODEL 3
REMARK VINA RESULT:     -11.3      4.194     11.280
REMARK SMILES Cc1ccn2c([C@H]3C[C@@H]3C(=O)OCCOC(=O)c3ccc(-c4c5nc(c(-c6c(F)c(F)c(F)c(F)c6F)c6ccc([nH]6)c(-c6c(F)c(F)c(F)c(F)c6F)c6nc(c(-c7c(F)c(F)c(F)c(F)c7F)c7ccc4[nH]7)C=C6)C=C5)cc3)nnc2c1
REMARK SMILES IDX 14 1 13 2 12 3 10 4 11 5 9 6 7 7 8 8 6 9 1 10 2 11 3 12
REMARK SMILES IDX 84 13 4 14 83 15 5 16 82 17 81 18 15 19 16 20 17 21 18 22
REMARK SMILES IDX 19 23 80 24 20 25 79 26 21 27 22 28 23 29 73 30 24 31 78 32
REMARK SMILES IDX 72 33 74 34 25 35 77 36 71 37 70 38 26 40 58 41 38 42 57 43
REMARK SMILES IDX 39 44 42 45 56 46 75 47 40 48 41 49 55 51 76 52 43 53 27 54
REMARK SMILES IDX 28 55 36 56 29 57 30 58 34 59 37 60 31 61 32 62 35 63 33 64
REMARK SMILES IDX 59 65 60 66 68 67 61 68 62 69 66 70 69 71 63 72 64 73 67 74
REMARK SMILES IDX 65 75 44 76 45 77 53 78 46 79 47 80 51 81 54 82 48 83 49 84
REMARK SMILES IDX 52 85 50 86
REMARK H PARENT 74 39 42 50
REMARK Flexibility Score: inf
ROOT
ATOM      1  C   UNL A   1      34.400  33.331  30.109  1.00  0.00     0.275 C 
ENDROOT
BRANCH   1   2
ATOM      2  C   UNL A   1      33.673  34.609  29.671  1.00  0.00     0.274 C 
BRANCH   2   3
ATOM      3  O   UNL A   1      32.872  35.153  30.759  1.00  0.00    -0.462 OA
BRANCH   3   4
ATOM      4  C   UNL A   1      33.313  36.318  31.298  1.00  0.00     0.309 C 
ATOM      5  O   UNL A   1      32.874  37.432  31.016  1.00  0.00    -0.252 OA
BRANCH   4   6
ATOM      6  C   UNL A   1      34.422  36.157  32.299  1.00  0.00     0.110 C 
ATOM      7  C   UNL A   1      34.441  35.018  33.283  1.00  0.00     0.073 C 
ATOM      8  C   UNL A   1      34.027  36.377  33.752  1.00  0.00     0.028 C 
BRANCH   7   9
ATOM      9  C   UNL A   1      35.564  34.379  34.070  1.00  0.00     0.141 A 
ATOM     10  C   UNL A   1      40.996  33.715  32.876  1.00  0.00     0.044 C 
ATOM     11  C   UNL A   1      39.547  33.912  33.213  1.00  0.00    -0.046 A 
ATOM     12  C   UNL A   1      38.709  34.396  32.123  1.00  0.00     0.022 A 
ATOM     13  C   UNL A   1      39.011  33.642  34.428  1.00  0.00     0.053 A 
ATOM     14  C   UNL A   1      37.402  34.579  32.352  1.00  0.00     0.095 A 
ATOM     15  C   UNL A   1      37.607  33.797  34.648  1.00  0.00     0.161 A 
ATOM     16  N   UNL A   1      36.863  34.302  33.604  1.00  0.00    -0.286 N 
ATOM     17  N   UNL A   1      36.795  33.508  35.646  1.00  0.00    -0.130 NA
ATOM     18  N   UNL A   1      35.497  33.828  35.260  1.00  0.00    -0.134 NA
ENDBRANCH   7   9
ENDBRANCH   4   6
ENDBRANCH   3   4
ENDBRANCH   2   3
ENDBRANCH   1   2
BRANCH   1  19
ATOM     19  O   UNL A   1      34.447  32.428  28.989  1.00  0.00    -0.458 OA
BRANCH  19  20
ATOM     20  C   UNL A   1      35.507  32.572  28.159  1.00  0.00     0.338 C 
ATOM     21  O   UNL A   1      35.707  33.466  27.360  1.00  0.00    -0.246 OA
BRANCH  20  22
ATOM     22  C   UNL A   1      36.573  31.750  28.765  1.00  0.00     0.060 A 
ATOM     23  C   UNL A   1      37.708  32.242  29.411  1.00  0.00     0.016 A 
ATOM     24  C   UNL A   1      36.502  30.413  28.428  1.00  0.00     0.016 A 
ATOM     25  C   UNL A   1      38.858  31.436  29.491  1.00  0.00     0.010 A 
ATOM     26  C   UNL A   1      37.635  29.629  28.543  1.00  0.00     0.010 A 
ATOM     27  C   UNL A   1      38.861  30.157  28.926  1.00  0.00    -0.014 A 
BRANCH  27  28
ATOM     28  C   UNL A   1      40.020  29.244  28.942  1.00  0.00     0.031 A 
ATOM     29  C   UNL A   1      40.330  28.782  30.317  1.00  0.00     0.074 A 
ATOM     30  C   UNL A   1      40.674  28.629  27.922  1.00  0.00     0.049 A 
ATOM     31  N   UNL A   1      41.164  29.336  31.130  1.00  0.00    -0.248 NA
ATOM     32  C   UNL A   1      39.495  27.738  30.931  1.00  0.00     0.031 C 
ATOM     33  C   UNL A   1      40.396  28.593  26.488  1.00  0.00     0.029 A 
ATOM     34  N   UNL A   1      41.784  27.822  28.010  1.00  0.00    -0.354 N 
ATOM     35  C   UNL A   1      41.083  28.598  32.300  1.00  0.00     0.074 A 
ATOM     36  C   UNL A   1      39.867  27.834  32.208  1.00  0.00     0.031 C 
ATOM     37  C   UNL A   1      41.171  27.658  25.878  1.00  0.00     0.029 A 
ATOM     38  C   UNL A   1      42.144  27.161  26.833  1.00  0.00     0.049 A 
ATOM     39  H   UNL A   1      42.290  27.716  28.848  1.00  0.00     0.167 HD
ATOM     40  C   UNL A   1      42.149  28.469  33.135  1.00  0.00     0.037 A 
ATOM     41  C   UNL A   1      43.192  26.307  26.659  1.00  0.00     0.037 A 
ATOM     42  C   UNL A   1      43.215  29.365  32.755  1.00  0.00     0.049 A 
ATOM     43  C   UNL A   1      44.161  26.588  27.746  1.00  0.00     0.074 A 
ATOM     44  C   UNL A   1      43.326  30.737  32.634  1.00  0.00     0.029 A 
ATOM     45  N   UNL A   1      44.250  28.846  32.014  1.00  0.00    -0.354 N 
ATOM     46  N   UNL A   1      44.840  27.695  27.846  1.00  0.00    -0.248 NA
ATOM     47  C   UNL A   1      44.041  25.806  28.964  1.00  0.00     0.031 C 
ATOM     48  C   UNL A   1      44.092  30.943  31.448  1.00  0.00     0.029 A 
ATOM     49  C   UNL A   1      44.474  29.694  30.958  1.00  0.00     0.049 A 
ATOM     50  H   UNL A   1      44.742  28.014  32.205  1.00  0.00     0.167 HD
ATOM     51  C   UNL A   1      44.843  27.974  29.203  1.00  0.00     0.074 A 
ATOM     52  C   UNL A   1      44.407  26.737  29.848  1.00  0.00     0.031 C 
ATOM     53  C   UNL A   1      44.917  29.261  29.651  1.00  0.00     0.037 A 
BRANCH  40  54
ATOM     54  C   UNL A   1      42.353  27.318  34.080  1.00  0.00     0.064 A 
ATOM     55  C   UNL A   1      41.903  27.431  35.408  1.00  0.00     0.173 A 
ATOM     56  C   UNL A   1      43.159  26.191  33.805  1.00  0.00     0.173 A 
ATOM     57  F   UNL A   1      41.168  28.487  35.790  1.00  0.00    -0.203 F 
ATOM     58  C   UNL A   1      42.255  26.501  36.388  1.00  0.00     0.198 A 
ATOM     59  C   UNL A   1      43.454  25.229  34.768  1.00  0.00     0.198 A 
ATOM     60  F   UNL A   1      43.783  26.029  32.632  1.00  0.00    -0.203 F 
ATOM     61  F   UNL A   1      41.889  26.705  37.660  1.00  0.00    -0.200 F 
ATOM     62  C   UNL A   1      43.023  25.396  36.066  1.00  0.00     0.200 A 
ATOM     63  F   UNL A   1      44.217  24.178  34.436  1.00  0.00    -0.200 F 
ATOM     64  F   UNL A   1      43.389  24.520  37.010  1.00  0.00    -0.200 F 
ENDBRANCH  40  54
BRANCH  41  65
ATOM     65  C   UNL A   1      43.342  25.082  25.823  1.00  0.00     0.064 A 
ATOM     66  C   UNL A   1      44.530  24.827  25.103  1.00  0.00     0.173 A 
ATOM     67  C   UNL A   1      42.481  23.985  25.998  1.00  0.00     0.173 A 
ATOM     68  F   UNL A   1      45.433  25.801  24.921  1.00  0.00    -0.203 F 
ATOM     69  C   UNL A   1      44.854  23.546  24.636  1.00  0.00     0.198 A 
ATOM     70  C   UNL A   1      42.806  22.706  25.530  1.00  0.00     0.198 A 
ATOM     71  F   UNL A   1      41.361  24.112  26.723  1.00  0.00    -0.203 F 
ATOM     72  F   UNL A   1      46.031  23.330  24.028  1.00  0.00    -0.200 F 
ATOM     73  C   UNL A   1      44.000  22.483  24.866  1.00  0.00     0.200 A 
ATOM     74  F   UNL A   1      41.993  21.674  25.796  1.00  0.00    -0.200 F 
ATOM     75  F   UNL A   1      44.345  21.241  24.494  1.00  0.00    -0.200 F 
ENDBRANCH  41  65
BRANCH  53  76
ATOM     76  C   UNL A   1      45.266  30.339  28.656  1.00  0.00     0.064 A 
ATOM     77  C   UNL A   1      44.323  31.049  27.888  1.00  0.00     0.173 A 
ATOM     78  C   UNL A   1      46.595  30.778  28.597  1.00  0.00     0.173 A 
ATOM     79  F   UNL A   1      43.020  30.753  27.945  1.00  0.00    -0.203 F 
ATOM     80  C   UNL A   1      44.701  32.127  27.087  1.00  0.00     0.198 A 
ATOM     81  C   UNL A   1      46.964  31.878  27.827  1.00  0.00     0.198 A 
ATOM     82  F   UNL A   1      47.535  30.168  29.336  1.00  0.00    -0.203 F 
ATOM     83  F   UNL A   1      43.781  32.786  26.366  1.00  0.00    -0.200 F 
ATOM     84  C   UNL A   1      46.019  32.549  27.068  1.00  0.00     0.200 A 
ATOM     85  F   UNL A   1      48.233  32.309  27.848  1.00  0.00    -0.200 F 
ATOM     86  F   UNL A   1      46.375  33.619  26.344  1.00  0.00    -0.200 F 
ENDBRANCH  53  76
ENDBRANCH  27  28
ENDBRANCH  20  22
ENDBRANCH  19  20
ENDBRANCH   1  19
TORSDOF 12
ENDMDL
