MODEL 1
REMARK VINA RESULT:     -11.9      0.000      0.000
REMARK SMILES Cc1nnsc1Sc1ccccc1C(=O)OCCOC(=O)c1ccc(-c2c3nc(c(-c4c(F)c(F)c(F)c(F)c4F)c4ccc([nH]4)c(-c4c(F)c(F)c(F)c(F)c4F)c4nc(c(-c5c(F)c(F)c(F)c(F)c5F)c5ccc2[nH]5)C=C4)C=C3)cc1
REMARK SMILES IDX 17 1 16 2 14 3 15 4 13 5 8 6 9 7 10 8 12 9 11 10 7 11 6 12
REMARK SMILES IDX 1 13 2 14 3 15 4 16 5 17 18 18 19 19 20 20 21 21 22 22 23 23
REMARK SMILES IDX 84 24 24 25 83 26 25 27 26 28 27 29 77 30 28 31 82 32 76 33
REMARK SMILES IDX 78 34 29 35 81 36 75 37 74 38 30 40 62 41 42 42 61 43 43 44
REMARK SMILES IDX 46 45 60 46 79 47 44 48 45 49 59 51 80 52 47 53 31 54 32 55
REMARK SMILES IDX 40 56 33 57 34 58 38 59 41 60 35 61 36 62 39 63 37 64 63 65
REMARK SMILES IDX 64 66 72 67 65 68 66 69 70 70 73 71 67 72 68 73 71 74 69 75
REMARK SMILES IDX 48 76 49 77 57 78 50 79 51 80 55 81 58 82 52 83 53 84 56 85
REMARK SMILES IDX 54 86
REMARK H PARENT 78 39 46 50
REMARK Flexibility Score: inf
ROOT
ATOM      1  C   UNL A   1      31.499  28.922  24.936  1.00  0.00     0.275 C 
ENDROOT
BRANCH   1   2
ATOM      2  O   UNL A   1      31.285  27.760  25.768  1.00  0.00    -0.458 OA
BRANCH   2   3
ATOM      3  C   UNL A   1      30.651  26.736  25.154  1.00  0.00     0.339 C 
ATOM      4  O   UNL A   1      29.800  26.823  24.284  1.00  0.00    -0.246 OA
BRANCH   3   5
ATOM      5  C   UNL A   1      31.099  25.413  25.630  1.00  0.00     0.074 A 
ATOM      6  C   UNL A   1      32.436  24.994  25.643  1.00  0.00     0.028 A 
ATOM      7  C   UNL A   1      32.729  23.770  26.286  1.00  0.00     0.016 A 
ATOM      8  C   UNL A   1      31.744  23.004  26.918  1.00  0.00     0.001 A 
ATOM      9  C   UNL A   1      30.112  24.628  26.262  1.00  0.00     0.017 A 
ATOM     10  C   UNL A   1      30.429  23.434  26.904  1.00  0.00     0.001 A 
BRANCH   6  11
ATOM     11  S   UNL A   1      33.853  25.759  24.882  1.00  0.00    -0.075 SA
BRANCH  11  12
ATOM     12  C   UNL A   1      33.571  25.790  23.164  1.00  0.00     0.109 A 
ATOM     13  C   UNL A   1      33.881  28.232  22.298  1.00  0.00     0.071 C 
ATOM     14  C   UNL A   1      33.599  26.779  22.186  1.00  0.00     0.087 A 
ATOM     15  N   UNL A   1      33.319  26.322  20.895  1.00  0.00    -0.142 NA
ATOM     16  N   UNL A   1      33.119  25.020  20.852  1.00  0.00    -0.090 NA
ATOM     17  S   UNL A   1      33.278  24.296  22.340  1.00  0.00    -0.005 S 
ENDBRANCH  11  12
ENDBRANCH   6  11
ENDBRANCH   3   5
ENDBRANCH   2   3
ENDBRANCH   1   2
BRANCH   1  18
ATOM     18  C   UNL A   1      31.652  30.205  25.750  1.00  0.00     0.275 C 
BRANCH  18  19
ATOM     19  O   UNL A   1      32.646  30.051  26.779  1.00  0.00    -0.458 OA
BRANCH  19  20
ATOM     20  C   UNL A   1      33.224  31.197  27.186  1.00  0.00     0.338 C 
ATOM     21  O   UNL A   1      32.717  32.308  27.266  1.00  0.00    -0.246 OA
BRANCH  20  22
ATOM     22  C   UNL A   1      34.611  30.952  27.598  1.00  0.00     0.060 A 
ATOM     23  C   UNL A   1      35.006  29.646  27.863  1.00  0.00     0.016 A 
ATOM     24  C   UNL A   1      35.446  32.017  27.927  1.00  0.00     0.016 A 
ATOM     25  C   UNL A   1      36.163  29.401  28.591  1.00  0.00     0.010 A 
ATOM     26  C   UNL A   1      36.676  31.759  28.542  1.00  0.00     0.010 A 
ATOM     27  C   UNL A   1      37.024  30.452  28.929  1.00  0.00    -0.014 A 
BRANCH  27  28
ATOM     28  C   UNL A   1      38.258  30.189  29.721  1.00  0.00     0.031 A 
ATOM     29  C   UNL A   1      39.359  29.342  29.142  1.00  0.00     0.074 A 
ATOM     30  C   UNL A   1      38.406  30.727  30.950  1.00  0.00     0.049 A 
ATOM     31  N   UNL A   1      40.402  28.815  29.735  1.00  0.00    -0.248 NA
ATOM     32  C   UNL A   1      39.272  29.036  27.705  1.00  0.00     0.031 C 
ATOM     33  C   UNL A   1      37.451  31.621  31.607  1.00  0.00     0.029 A 
ATOM     34  N   UNL A   1      39.423  30.603  31.865  1.00  0.00    -0.354 N 
ATOM     35  C   UNL A   1      41.058  28.072  28.761  1.00  0.00     0.074 A 
ATOM     36  C   UNL A   1      40.298  28.212  27.538  1.00  0.00     0.031 C 
ATOM     37  C   UNL A   1      37.939  31.992  32.799  1.00  0.00     0.029 A 
ATOM     38  C   UNL A   1      39.188  31.280  33.038  1.00  0.00     0.049 A 
ATOM     39  H   UNL A   1      40.240  30.081  31.697  1.00  0.00     0.167 HD
ATOM     40  C   UNL A   1      42.192  27.340  28.881  1.00  0.00     0.037 A 
ATOM     41  C   UNL A   1      39.867  31.281  34.200  1.00  0.00     0.037 A 
ATOM     42  C   UNL A   1      42.967  27.247  30.092  1.00  0.00     0.049 A 
ATOM     43  C   UNL A   1      41.095  30.423  34.324  1.00  0.00     0.074 A 
ATOM     44  C   UNL A   1      44.117  26.515  30.332  1.00  0.00     0.029 A 
ATOM     45  N   UNL A   1      42.679  27.931  31.264  1.00  0.00    -0.354 N 
ATOM     46  N   UNL A   1      41.660  29.653  33.425  1.00  0.00    -0.248 NA
ATOM     47  C   UNL A   1      41.765  30.414  35.630  1.00  0.00     0.031 C 
ATOM     48  C   UNL A   1      44.509  26.736  31.656  1.00  0.00     0.029 A 
ATOM     49  C   UNL A   1      43.629  27.638  32.229  1.00  0.00     0.049 A 
ATOM     50  H   UNL A   1      41.912  28.535  31.392  1.00  0.00     0.167 HD
ATOM     51  C   UNL A   1      42.757  29.081  34.051  1.00  0.00     0.074 A 
ATOM     52  C   UNL A   1      42.793  29.611  35.398  1.00  0.00     0.031 C 
ATOM     53  C   UNL A   1      43.651  28.189  33.559  1.00  0.00     0.037 A 
BRANCH  40  54
ATOM     54  C   UNL A   1      42.650  26.557  27.685  1.00  0.00     0.064 A 
ATOM     55  C   UNL A   1      43.610  27.058  26.794  1.00  0.00     0.173 A 
ATOM     56  C   UNL A   1      42.149  25.267  27.450  1.00  0.00     0.173 A 
ATOM     57  F   UNL A   1      44.110  28.291  26.965  1.00  0.00    -0.203 F 
ATOM     58  C   UNL A   1      44.035  26.306  25.701  1.00  0.00     0.198 A 
ATOM     59  C   UNL A   1      42.597  24.506  26.372  1.00  0.00     0.198 A 
ATOM     60  F   UNL A   1      41.232  24.736  28.274  1.00  0.00    -0.203 F 
ATOM     61  F   UNL A   1      44.923  26.822  24.839  1.00  0.00    -0.200 F 
ATOM     62  C   UNL A   1      43.534  25.029  25.495  1.00  0.00     0.200 A 
ATOM     63  F   UNL A   1      42.120  23.269  26.183  1.00  0.00    -0.200 F 
ATOM     64  F   UNL A   1      43.951  24.304  24.449  1.00  0.00    -0.200 F 
ENDBRANCH  40  54
BRANCH  41  65
ATOM     65  C   UNL A   1      39.367  32.072  35.355  1.00  0.00     0.064 A 
ATOM     66  C   UNL A   1      39.725  33.416  35.521  1.00  0.00     0.173 A 
ATOM     67  C   UNL A   1      38.526  31.497  36.321  1.00  0.00     0.173 A 
ATOM     68  F   UNL A   1      40.547  34.004  34.640  1.00  0.00    -0.203 F 
ATOM     69  C   UNL A   1      39.276  34.151  36.618  1.00  0.00     0.198 A 
ATOM     70  C   UNL A   1      38.050  32.241  37.397  1.00  0.00     0.198 A 
ATOM     71  F   UNL A   1      38.154  30.214  36.211  1.00  0.00    -0.203 F 
ATOM     72  F   UNL A   1      39.675  35.419  36.780  1.00  0.00    -0.200 F 
ATOM     73  C   UNL A   1      38.433  33.565  37.550  1.00  0.00     0.200 A 
ATOM     74  F   UNL A   1      37.221  31.676  38.287  1.00  0.00    -0.200 F 
ATOM     75  F   UNL A   1      37.997  34.273  38.600  1.00  0.00    -0.200 F 
ENDBRANCH  41  65
BRANCH  53  76
ATOM     76  C   UNL A   1      44.764  27.770  34.472  1.00  0.00     0.064 A 
ATOM     77  C   UNL A   1      44.650  26.641  35.296  1.00  0.00     0.173 A 
ATOM     78  C   UNL A   1      45.964  28.494  34.504  1.00  0.00     0.173 A 
ATOM     79  F   UNL A   1      43.515  25.927  35.312  1.00  0.00    -0.203 F 
ATOM     80  C   UNL A   1      45.693  26.268  36.140  1.00  0.00     0.198 A 
ATOM     81  C   UNL A   1      47.013  28.102  35.330  1.00  0.00     0.198 A 
ATOM     82  F   UNL A   1      46.121  29.579  33.731  1.00  0.00    -0.203 F 
ATOM     83  F   UNL A   1      45.547  25.215  36.956  1.00  0.00    -0.200 F 
ATOM     84  C   UNL A   1      46.873  26.995  36.153  1.00  0.00     0.200 A 
ATOM     85  F   UNL A   1      48.157  28.799  35.334  1.00  0.00    -0.200 F 
ATOM     86  F   UNL A   1      47.876  26.632  36.965  1.00  0.00    -0.200 F 
ENDBRANCH  53  76
ENDBRANCH  27  28
ENDBRANCH  20  22
ENDBRANCH  19  20
ENDBRANCH  18  19
ENDBRANCH   1  18
TORSDOF 13
ENDMDL
MODEL 2
REMARK VINA RESULT:     -11.9      1.539      2.234
REMARK SMILES Cc1nnsc1Sc1ccccc1C(=O)OCCOC(=O)c1ccc(-c2c3nc(c(-c4c(F)c(F)c(F)c(F)c4F)c4ccc([nH]4)c(-c4c(F)c(F)c(F)c(F)c4F)c4nc(c(-c5c(F)c(F)c(F)c(F)c5F)c5ccc2[nH]5)C=C4)C=C3)cc1
REMARK SMILES IDX 17 1 16 2 14 3 15 4 13 5 8 6 9 7 10 8 12 9 11 10 7 11 6 12
REMARK SMILES IDX 1 13 2 14 3 15 4 16 5 17 18 18 19 19 20 20 21 21 22 22 23 23
REMARK SMILES IDX 84 24 24 25 83 26 25 27 26 28 27 29 77 30 28 31 82 32 76 33
REMARK SMILES IDX 78 34 29 35 81 36 75 37 74 38 30 40 62 41 42 42 61 43 43 44
REMARK SMILES IDX 46 45 60 46 79 47 44 48 45 49 59 51 80 52 47 53 31 54 32 55
REMARK SMILES IDX 40 56 33 57 34 58 38 59 41 60 35 61 36 62 39 63 37 64 63 65
REMARK SMILES IDX 64 66 72 67 65 68 66 69 70 70 73 71 67 72 68 73 71 74 69 75
REMARK SMILES IDX 48 76 49 77 57 78 50 79 51 80 55 81 58 82 52 83 53 84 56 85
REMARK SMILES IDX 54 86
REMARK H PARENT 78 39 46 50
REMARK Flexibility Score: inf
ROOT
ATOM      1  C   UNL A   1      31.422  30.128  25.556  1.00  0.00     0.275 C 
ENDROOT
BRANCH   1   2
ATOM      2  O   UNL A   1      32.407  29.109  25.843  1.00  0.00    -0.458 OA
BRANCH   2   3
ATOM      3  C   UNL A   1      31.903  27.968  26.363  1.00  0.00     0.339 C 
ATOM      4  O   UNL A   1      31.190  27.870  27.348  1.00  0.00    -0.246 OA
BRANCH   3   5
ATOM      5  C   UNL A   1      32.288  26.767  25.598  1.00  0.00     0.074 A 
ATOM      6  C   UNL A   1      31.452  26.119  24.679  1.00  0.00     0.028 A 
ATOM      7  C   UNL A   1      32.018  25.086  23.898  1.00  0.00     0.016 A 
ATOM      8  C   UNL A   1      33.366  24.729  23.998  1.00  0.00     0.001 A 
ATOM      9  C   UNL A   1      33.644  26.391  25.697  1.00  0.00     0.017 A 
ATOM     10  C   UNL A   1      34.182  25.382  24.904  1.00  0.00     0.001 A 
BRANCH   6  11
ATOM     11  S   UNL A   1      29.710  26.358  24.394  1.00  0.00    -0.075 SA
BRANCH  11  12
ATOM     12  C   UNL A   1      29.539  27.683  23.278  1.00  0.00     0.109 A 
ATOM     13  C   UNL A   1      27.075  28.542  23.351  1.00  0.00     0.071 C 
ATOM     14  C   UNL A   1      28.490  28.518  22.903  1.00  0.00     0.087 A 
ATOM     15  N   UNL A   1      28.834  29.487  21.956  1.00  0.00    -0.142 NA
ATOM     16  N   UNL A   1      30.111  29.443  21.629  1.00  0.00    -0.090 NA
ATOM     17  S   UNL A   1      30.944  28.264  22.451  1.00  0.00    -0.005 S 
ENDBRANCH  11  12
ENDBRANCH   6  11
ENDBRANCH   3   5
ENDBRANCH   2   3
ENDBRANCH   1   2
BRANCH   1  18
ATOM     18  C   UNL A   1      31.621  31.387  26.395  1.00  0.00     0.275 C 
BRANCH  18  19
ATOM     19  O   UNL A   1      32.644  31.194  27.388  1.00  0.00    -0.458 OA
BRANCH  19  20
ATOM     20  C   UNL A   1      33.472  32.241  27.563  1.00  0.00     0.338 C 
ATOM     21  O   UNL A   1      33.208  33.432  27.463  1.00  0.00    -0.246 OA
BRANCH  20  22
ATOM     22  C   UNL A   1      34.807  31.779  27.959  1.00  0.00     0.060 A 
ATOM     23  C   UNL A   1      34.961  30.457  28.360  1.00  0.00     0.016 A 
ATOM     24  C   UNL A   1      35.843  32.692  28.138  1.00  0.00     0.016 A 
ATOM     25  C   UNL A   1      36.087  30.073  29.078  1.00  0.00     0.010 A 
ATOM     26  C   UNL A   1      37.032  32.268  28.743  1.00  0.00     0.010 A 
ATOM     27  C   UNL A   1      37.147  30.967  29.266  1.00  0.00    -0.014 A 
BRANCH  27  28
ATOM     28  C   UNL A   1      38.347  30.558  30.047  1.00  0.00     0.031 A 
ATOM     29  C   UNL A   1      39.375  29.648  29.428  1.00  0.00     0.074 A 
ATOM     30  C   UNL A   1      38.535  31.019  31.301  1.00  0.00     0.049 A 
ATOM     31  N   UNL A   1      40.363  29.002  29.996  1.00  0.00    -0.248 NA
ATOM     32  C   UNL A   1      39.270  29.424  27.977  1.00  0.00     0.031 C 
ATOM     33  C   UNL A   1      37.657  31.958  32.001  1.00  0.00     0.029 A 
ATOM     34  N   UNL A   1      39.531  30.760  32.211  1.00  0.00    -0.354 N 
ATOM     35  C   UNL A   1      40.958  28.254  28.987  1.00  0.00     0.074 A 
ATOM     36  C   UNL A   1      40.221  28.522  27.771  1.00  0.00     0.031 C 
ATOM     37  C   UNL A   1      38.168  32.225  33.211  1.00  0.00     0.029 A 
ATOM     38  C   UNL A   1      39.348  31.395  33.417  1.00  0.00     0.049 A 
ATOM     39  H   UNL A   1      40.300  30.177  32.019  1.00  0.00     0.167 HD
ATOM     40  C   UNL A   1      42.023  27.421  29.072  1.00  0.00     0.037 A 
ATOM     41  C   UNL A   1      40.018  31.278  34.578  1.00  0.00     0.037 A 
ATOM     42  C   UNL A   1      42.779  27.199  30.278  1.00  0.00     0.049 A 
ATOM     43  C   UNL A   1      41.164  30.310  34.661  1.00  0.00     0.074 A 
ATOM     44  C   UNL A   1      43.859  26.358  30.482  1.00  0.00     0.029 A 
ATOM     45  N   UNL A   1      42.544  27.846  31.483  1.00  0.00    -0.354 N 
ATOM     46  N   UNL A   1      41.665  29.540  33.726  1.00  0.00    -0.248 NA
ATOM     47  C   UNL A   1      41.823  30.178  35.966  1.00  0.00     0.031 C 
ATOM     48  C   UNL A   1      44.260  26.477  31.817  1.00  0.00     0.029 A 
ATOM     49  C   UNL A   1      43.459  27.423  32.433  1.00  0.00     0.049 A 
ATOM     50  H   UNL A   1      41.833  28.508  31.639  1.00  0.00     0.167 HD
ATOM     51  C   UNL A   1      42.705  28.843  34.324  1.00  0.00     0.074 A 
ATOM     52  C   UNL A   1      42.778  29.300  35.697  1.00  0.00     0.031 C 
ATOM     53  C   UNL A   1      43.521  27.902  33.790  1.00  0.00     0.037 A 
BRANCH  40  54
ATOM     54  C   UNL A   1      42.418  26.662  27.838  1.00  0.00     0.064 A 
ATOM     55  C   UNL A   1      43.387  27.146  26.948  1.00  0.00     0.173 A 
ATOM     56  C   UNL A   1      41.846  25.409  27.565  1.00  0.00     0.173 A 
ATOM     57  F   UNL A   1      43.954  28.344  27.156  1.00  0.00    -0.203 F 
ATOM     58  C   UNL A   1      43.753  26.416  25.819  1.00  0.00     0.198 A 
ATOM     59  C   UNL A   1      42.234  24.669  26.451  1.00  0.00     0.198 A 
ATOM     60  F   UNL A   1      40.917  24.896  28.386  1.00  0.00    -0.203 F 
ATOM     61  F   UNL A   1      44.652  26.918  24.961  1.00  0.00    -0.200 F 
ATOM     62  C   UNL A   1      43.183  25.175  25.576  1.00  0.00     0.200 A 
ATOM     63  F   UNL A   1      41.691  23.466  26.225  1.00  0.00    -0.200 F 
ATOM     64  F   UNL A   1      43.543  24.471  24.495  1.00  0.00    -0.200 F 
ENDBRANCH  40  54
BRANCH  41  65
ATOM     65  C   UNL A   1      39.581  32.051  35.771  1.00  0.00     0.064 A 
ATOM     66  C   UNL A   1      38.541  31.592  36.590  1.00  0.00     0.173 A 
ATOM     67  C   UNL A   1      40.191  33.268  36.113  1.00  0.00     0.173 A 
ATOM     68  F   UNL A   1      37.908  30.448  36.291  1.00  0.00    -0.203 F 
ATOM     69  C   UNL A   1      38.114  32.329  37.694  1.00  0.00     0.198 A 
ATOM     70  C   UNL A   1      39.788  33.986  37.237  1.00  0.00     0.198 A 
ATOM     71  F   UNL A   1      41.190  33.754  35.363  1.00  0.00    -0.203 F 
ATOM     72  F   UNL A   1      37.084  31.893  38.430  1.00  0.00    -0.200 F 
ATOM     73  C   UNL A   1      38.743  33.521  38.020  1.00  0.00     0.200 A 
ATOM     74  F   UNL A   1      40.410  35.129  37.558  1.00  0.00    -0.200 F 
ATOM     75  F   UNL A   1      38.338  34.225  39.086  1.00  0.00    -0.200 F 
ENDBRANCH  41  65
BRANCH  53  76
ATOM     76  C   UNL A   1      44.586  27.342  34.682  1.00  0.00     0.064 A 
ATOM     77  C   UNL A   1      44.372  26.183  35.442  1.00  0.00     0.173 A 
ATOM     78  C   UNL A   1      45.842  27.959  34.759  1.00  0.00     0.173 A 
ATOM     79  F   UNL A   1      43.180  25.567  35.415  1.00  0.00    -0.203 F 
ATOM     80  C   UNL A   1      45.372  25.678  36.269  1.00  0.00     0.198 A 
ATOM     81  C   UNL A   1      46.848  27.437  35.566  1.00  0.00     0.198 A 
ATOM     82  F   UNL A   1      46.096  29.069  34.048  1.00  0.00    -0.203 F 
ATOM     83  F   UNL A   1      45.131  24.598  37.025  1.00  0.00    -0.200 F 
ATOM     84  C   UNL A   1      46.609  26.301  36.326  1.00  0.00     0.200 A 
ATOM     85  F   UNL A   1      48.046  28.034  35.613  1.00  0.00    -0.200 F 
ATOM     86  F   UNL A   1      47.571  25.811  37.121  1.00  0.00    -0.200 F 
ENDBRANCH  53  76
ENDBRANCH  27  28
ENDBRANCH  20  22
ENDBRANCH  19  20
ENDBRANCH  18  19
ENDBRANCH   1  18
TORSDOF 13
ENDMDL
MODEL 3
REMARK VINA RESULT:     -11.9      1.394      2.512
REMARK SMILES Cc1nnsc1Sc1ccccc1C(=O)OCCOC(=O)c1ccc(-c2c3nc(c(-c4c(F)c(F)c(F)c(F)c4F)c4ccc([nH]4)c(-c4c(F)c(F)c(F)c(F)c4F)c4nc(c(-c5c(F)c(F)c(F)c(F)c5F)c5ccc2[nH]5)C=C4)C=C3)cc1
REMARK SMILES IDX 17 1 16 2 14 3 15 4 13 5 8 6 9 7 10 8 12 9 11 10 7 11 6 12
REMARK SMILES IDX 1 13 2 14 3 15 4 16 5 17 18 18 19 19 20 20 21 21 22 22 23 23
REMARK SMILES IDX 84 24 24 25 83 26 25 27 26 28 27 29 77 30 28 31 82 32 76 33
REMARK SMILES IDX 78 34 29 35 81 36 75 37 74 38 30 40 62 41 42 42 61 43 43 44
REMARK SMILES IDX 46 45 60 46 79 47 44 48 45 49 59 51 80 52 47 53 31 54 32 55
REMARK SMILES IDX 40 56 33 57 34 58 38 59 41 60 35 61 36 62 39 63 37 64 63 65
REMARK SMILES IDX 64 66 72 67 65 68 66 69 70 70 73 71 67 72 68 73 71 74 69 75
REMARK SMILES IDX 48 76 49 77 57 78 50 79 51 80 55 81 58 82 52 83 53 84 56 85
REMARK SMILES IDX 54 86
REMARK H PARENT 78 39 46 50
REMARK Flexibility Score: inf
ROOT
ATOM      1  C   UNL A   1      31.600  29.509  24.679  1.00  0.00     0.275 C 
ENDROOT
BRANCH   1   2
ATOM      2  O   UNL A   1      32.147  28.205  24.983  1.00  0.00    -0.458 OA
BRANCH   2   3
ATOM      3  C   UNL A   1      33.350  27.954  24.421  1.00  0.00     0.339 C 
ATOM      4  O   UNL A   1      34.392  28.554  24.632  1.00  0.00    -0.246 OA
BRANCH   3   5
ATOM      5  C   UNL A   1      33.322  26.818  23.481  1.00  0.00     0.074 A 
ATOM      6  C   UNL A   1      33.622  25.496  23.836  1.00  0.00     0.028 A 
ATOM      7  C   UNL A   1      33.384  24.492  22.870  1.00  0.00     0.016 A 
ATOM      8  C   UNL A   1      32.842  24.778  21.614  1.00  0.00     0.001 A 
ATOM      9  C   UNL A   1      32.784  27.096  22.206  1.00  0.00     0.017 A 
ATOM     10  C   UNL A   1      32.543  26.086  21.279  1.00  0.00     0.001 A 
BRANCH   6  11
ATOM     11  S   UNL A   1      34.352  24.883  25.341  1.00  0.00    -0.075 SA
BRANCH  11  12
ATOM     12  C   UNL A   1      33.091  24.103  26.254  1.00  0.00     0.109 A 
ATOM     13  C   UNL A   1      34.114  22.090  27.563  1.00  0.00     0.071 C 
ATOM     14  C   UNL A   1      33.041  23.015  27.120  1.00  0.00     0.087 A 
ATOM     15  N   UNL A   1      31.774  22.760  27.653  1.00  0.00    -0.142 NA
ATOM     16  N   UNL A   1      30.873  23.637  27.256  1.00  0.00    -0.090 NA
ATOM     17  S   UNL A   1      31.507  24.801  26.254  1.00  0.00    -0.005 S 
ENDBRANCH  11  12
ENDBRANCH   6  11
ENDBRANCH   3   5
ENDBRANCH   2   3
ENDBRANCH   1   2
BRANCH   1  18
ATOM     18  C   UNL A   1      31.447  30.383  25.922  1.00  0.00     0.275 C 
BRANCH  18  19
ATOM     19  O   UNL A   1      32.560  30.212  26.817  1.00  0.00    -0.458 OA
BRANCH  19  20
ATOM     20  C   UNL A   1      33.181  31.352  27.176  1.00  0.00     0.338 C 
ATOM     21  O   UNL A   1      32.714  32.482  27.212  1.00  0.00    -0.246 OA
BRANCH  20  22
ATOM     22  C   UNL A   1      34.559  31.074  27.595  1.00  0.00     0.060 A 
ATOM     23  C   UNL A   1      34.913  29.762  27.890  1.00  0.00     0.016 A 
ATOM     24  C   UNL A   1      35.426  32.120  27.901  1.00  0.00     0.016 A 
ATOM     25  C   UNL A   1      36.062  29.499  28.626  1.00  0.00     0.010 A 
ATOM     26  C   UNL A   1      36.646  31.839  28.525  1.00  0.00     0.010 A 
ATOM     27  C   UNL A   1      36.955  30.530  28.941  1.00  0.00    -0.014 A 
BRANCH  27  28
ATOM     28  C   UNL A   1      38.179  30.248  29.741  1.00  0.00     0.031 A 
ATOM     29  C   UNL A   1      39.276  29.394  29.164  1.00  0.00     0.074 A 
ATOM     30  C   UNL A   1      38.323  30.775  30.975  1.00  0.00     0.049 A 
ATOM     31  N   UNL A   1      40.308  28.851  29.760  1.00  0.00    -0.248 NA
ATOM     32  C   UNL A   1      39.197  29.101  27.723  1.00  0.00     0.031 C 
ATOM     33  C   UNL A   1      37.372  31.673  31.632  1.00  0.00     0.029 A 
ATOM     34  N   UNL A   1      39.331  30.632  31.897  1.00  0.00    -0.354 N 
ATOM     35  C   UNL A   1      40.965  28.109  28.785  1.00  0.00     0.074 A 
ATOM     36  C   UNL A   1      40.215  28.268  27.558  1.00  0.00     0.031 C 
ATOM     37  C   UNL A   1      37.855  32.028  32.831  1.00  0.00     0.029 A 
ATOM     38  C   UNL A   1      39.094  31.301  33.074  1.00  0.00     0.049 A 
ATOM     39  H   UNL A   1      40.144  30.102  31.731  1.00  0.00     0.167 HD
ATOM     40  C   UNL A   1      42.089  27.365  28.908  1.00  0.00     0.037 A 
ATOM     41  C   UNL A   1      39.764  31.286  34.241  1.00  0.00     0.037 A 
ATOM     42  C   UNL A   1      42.854  27.253  30.124  1.00  0.00     0.049 A 
ATOM     43  C   UNL A   1      40.981  30.413  34.367  1.00  0.00     0.074 A 
ATOM     44  C   UNL A   1      43.994  26.507  30.366  1.00  0.00     0.029 A 
ATOM     45  N   UNL A   1      42.563  27.931  31.300  1.00  0.00    -0.354 N 
ATOM     46  N   UNL A   1      41.545  29.645  33.467  1.00  0.00    -0.248 NA
ATOM     47  C   UNL A   1      41.641  30.387  35.678  1.00  0.00     0.031 C 
ATOM     48  C   UNL A   1      44.378  26.713  31.695  1.00  0.00     0.029 A 
ATOM     49  C   UNL A   1      43.503  27.619  32.269  1.00  0.00     0.049 A 
ATOM     50  H   UNL A   1      41.802  28.542  31.426  1.00  0.00     0.167 HD
ATOM     51  C   UNL A   1      42.632  29.056  34.097  1.00  0.00     0.074 A 
ATOM     52  C   UNL A   1      42.662  29.575  35.448  1.00  0.00     0.031 C 
ATOM     53  C   UNL A   1      43.520  28.159  33.604  1.00  0.00     0.037 A 
BRANCH  40  54
ATOM     54  C   UNL A   1      42.549  26.586  27.709  1.00  0.00     0.064 A 
ATOM     55  C   UNL A   1      43.509  27.092  26.821  1.00  0.00     0.173 A 
ATOM     56  C   UNL A   1      42.048  25.297  27.468  1.00  0.00     0.173 A 
ATOM     57  F   UNL A   1      44.008  28.324  26.997  1.00  0.00    -0.203 F 
ATOM     58  C   UNL A   1      43.935  26.344  25.725  1.00  0.00     0.198 A 
ATOM     59  C   UNL A   1      42.497  24.541  26.388  1.00  0.00     0.198 A 
ATOM     60  F   UNL A   1      41.131  24.763  28.290  1.00  0.00    -0.203 F 
ATOM     61  F   UNL A   1      44.824  26.865  24.866  1.00  0.00    -0.200 F 
ATOM     62  C   UNL A   1      43.435  25.068  25.513  1.00  0.00     0.200 A 
ATOM     63  F   UNL A   1      42.022  23.304  26.193  1.00  0.00    -0.200 F 
ATOM     64  F   UNL A   1      43.854  24.348  24.464  1.00  0.00    -0.200 F 
ENDBRANCH  40  54
BRANCH  41  65
ATOM     65  C   UNL A   1      39.263  32.072  35.399  1.00  0.00     0.064 A 
ATOM     66  C   UNL A   1      39.598  33.423  35.555  1.00  0.00     0.173 A 
ATOM     67  C   UNL A   1      38.444  31.486  36.377  1.00  0.00     0.173 A 
ATOM     68  F   UNL A   1      40.400  34.023  34.663  1.00  0.00    -0.203 F 
ATOM     69  C   UNL A   1      39.149  34.154  36.655  1.00  0.00     0.198 A 
ATOM     70  C   UNL A   1      37.966  32.226  37.456  1.00  0.00     0.198 A 
ATOM     71  F   UNL A   1      38.094  30.196  36.276  1.00  0.00    -0.203 F 
ATOM     72  F   UNL A   1      39.527  35.430  36.807  1.00  0.00    -0.200 F 
ATOM     73  C   UNL A   1      38.328  33.557  37.599  1.00  0.00     0.200 A 
ATOM     74  F   UNL A   1      37.159  31.650  38.357  1.00  0.00    -0.200 F 
ATOM     75  F   UNL A   1      37.890  34.262  38.651  1.00  0.00    -0.200 F 
ENDBRANCH  41  65
BRANCH  53  76
ATOM     76  C   UNL A   1      44.621  27.721  34.522  1.00  0.00     0.064 A 
ATOM     77  C   UNL A   1      45.826  28.431  34.614  1.00  0.00     0.173 A 
ATOM     78  C   UNL A   1      44.456  26.591  35.336  1.00  0.00     0.173 A 
ATOM     79  F   UNL A   1      46.036  29.507  33.842  1.00  0.00    -0.203 F 
ATOM     80  C   UNL A   1      46.839  28.007  35.470  1.00  0.00     0.198 A 
ATOM     81  C   UNL A   1      45.460  26.186  36.210  1.00  0.00     0.198 A 
ATOM     82  F   UNL A   1      43.318  25.881  35.287  1.00  0.00    -0.203 F 
ATOM     83  F   UNL A   1      48.003  28.671  35.507  1.00  0.00    -0.200 F 
ATOM     84  C   UNL A   1      46.654  26.890  36.270  1.00  0.00     0.200 A 
ATOM     85  F   UNL A   1      45.276  25.113  36.990  1.00  0.00    -0.200 F 
ATOM     86  F   UNL A   1      47.630  26.486  37.095  1.00  0.00    -0.200 F 
ENDBRANCH  53  76
ENDBRANCH  27  28
ENDBRANCH  20  22
ENDBRANCH  19  20
ENDBRANCH  18  19
ENDBRANCH   1  18
TORSDOF 13
ENDMDL
