MODEL 1
REMARK VINA RESULT:     -10.8      0.000      0.000
REMARK SMILES CCCC[C@@H](C(=O)OCCOC(=O)c1ccc(-c2c3nc(c(-c4c(F)c(F)c(F)c(F)c4F)c4ccc([nH]4)c(-c4c(F)c(F)c(F)c(F)c4F)c4nc(c(-c5c(F)c(F)c(F)c(F)c5F)c5ccc2[nH]5)C=C4)C=C3)cc1)[C@H](O)c1ccc(Br)cc1F
REMARK SMILES IDX 9 1 8 2 6 3 7 4 5 5 4 6 3 7 2 8 1 9 77 10 79 11 80 12 85 13
REMARK SMILES IDX 81 14 84 15 86 16 82 17 83 18 78 19 10 21 11 22 12 23 13 24
REMARK SMILES IDX 14 25 15 26 76 27 16 28 75 29 17 30 18 31 19 32 69 33 20 34
REMARK SMILES IDX 74 35 68 36 70 37 21 38 73 39 67 40 66 41 22 43 54 44 34 45
REMARK SMILES IDX 53 46 35 47 38 48 52 49 71 50 36 51 37 52 51 54 72 55 39 56
REMARK SMILES IDX 23 57 24 58 32 59 25 60 26 61 30 62 33 63 27 64 28 65 31 66
REMARK SMILES IDX 29 67 55 68 56 69 64 70 57 71 58 72 62 73 65 74 59 75 60 76
REMARK SMILES IDX 63 77 61 78 40 79 41 80 49 81 42 82 43 83 47 84 50 85 44 86
REMARK SMILES IDX 45 87 48 88 46 89
REMARK H PARENT 78 20 70 42 38 53
REMARK Flexibility Score: inf
ROOT
ATOM      1  C   UNL A   1      31.397  29.609  24.657  1.00  0.00     0.274 C 
ENDROOT
BRANCH   1   2
ATOM      2  O   UNL A   1      31.593  28.964  23.381  1.00  0.00    -0.462 OA
BRANCH   2   3
ATOM      3  C   UNL A   1      30.606  28.149  22.925  1.00  0.00     0.312 C 
ATOM      4  O   UNL A   1      29.441  28.498  22.778  1.00  0.00    -0.252 OA
BRANCH   3   5
ATOM      5  C   UNL A   1      31.091  26.716  22.743  1.00  0.00     0.132 C 
BRANCH   5   6
ATOM      6  C   UNL A   1      30.327  25.657  23.561  1.00  0.00     0.018 C 
BRANCH   6   7
ATOM      7  C   UNL A   1      30.139  25.946  25.060  1.00  0.00     0.001 C 
BRANCH   7   8
ATOM      8  C   UNL A   1      30.844  25.000  26.031  1.00  0.00    -0.003 C 
ATOM      9  C   UNL A   1      31.009  23.588  25.497  1.00  0.00     0.004 C 
ENDBRANCH   7   8
ENDBRANCH   6   7
ENDBRANCH   5   6
BRANCH   5  10
ATOM     10  C   UNL A   1      32.647  26.630  22.839  1.00  0.00     0.161 C 
BRANCH  10  11
ATOM     11  C   UNL A   1      33.442  25.421  23.315  1.00  0.00     0.017 A 
ATOM     12  C   UNL A   1      33.637  24.224  22.615  1.00  0.00     0.010 A 
ATOM     13  C   UNL A   1      34.119  25.542  24.548  1.00  0.00     0.130 A 
ATOM     14  C   UNL A   1      34.482  23.217  23.112  1.00  0.00     0.016 A 
ATOM     15  C   UNL A   1      34.956  24.550  25.057  1.00  0.00     0.055 A 
ATOM     16  F   UNL A   1      33.979  26.671  25.260  1.00  0.00    -0.207 F 
ATOM     17  C   UNL A   1      35.145  23.390  24.323  1.00  0.00     0.020 A 
ATOM     18  Br  UNL A   1      36.319  22.055  24.956  1.00  0.00    -0.051 Br
ENDBRANCH  10  11
BRANCH  10  19
ATOM     19  O   UNL A   1      33.134  26.920  21.513  1.00  0.00    -0.387 OA
ATOM     20  H   UNL A   1      32.968  27.852  21.304  1.00  0.00     0.211 HD
ENDBRANCH  10  19
ENDBRANCH   5  10
ENDBRANCH   3   5
ENDBRANCH   2   3
ENDBRANCH   1   2
BRANCH   1  21
ATOM     21  C   UNL A   1      32.735  29.793  25.365  1.00  0.00     0.275 C 
BRANCH  21  22
ATOM     22  O   UNL A   1      32.475  30.204  26.716  1.00  0.00    -0.458 OA
BRANCH  22  23
ATOM     23  C   UNL A   1      33.072  31.343  27.125  1.00  0.00     0.338 C 
ATOM     24  O   UNL A   1      32.606  32.470  27.146  1.00  0.00    -0.246 OA
BRANCH  23  25
ATOM     25  C   UNL A   1      34.415  31.013  27.627  1.00  0.00     0.060 A 
ATOM     26  C   UNL A   1      34.712  29.690  27.932  1.00  0.00     0.016 A 
ATOM     27  C   UNL A   1      35.339  32.018  27.909  1.00  0.00     0.016 A 
ATOM     28  C   UNL A   1      35.891  29.376  28.600  1.00  0.00     0.010 A 
ATOM     29  C   UNL A   1      36.559  31.688  28.516  1.00  0.00     0.010 A 
ATOM     30  C   UNL A   1      36.825  30.368  28.923  1.00  0.00    -0.014 A 
BRANCH  30  31
ATOM     31  C   UNL A   1      37.990  30.019  29.790  1.00  0.00     0.031 A 
ATOM     32  C   UNL A   1      39.140  29.222  29.224  1.00  0.00     0.074 A 
ATOM     33  C   UNL A   1      38.093  30.501  31.046  1.00  0.00     0.049 A 
ATOM     34  N   UNL A   1      40.190  28.729  29.835  1.00  0.00    -0.248 NA
ATOM     35  C   UNL A   1      39.106  28.937  27.780  1.00  0.00     0.031 C 
ATOM     36  C   UNL A   1      37.102  31.342  31.717  1.00  0.00     0.029 A 
ATOM     37  N   UNL A   1      39.106  30.386  31.969  1.00  0.00    -0.354 N 
ATOM     38  C   UNL A   1      40.900  28.029  28.868  1.00  0.00     0.074 A 
ATOM     39  C   UNL A   1      40.167  28.158  27.628  1.00  0.00     0.031 C 
ATOM     40  C   UNL A   1      37.587  31.731  32.906  1.00  0.00     0.029 A 
ATOM     41  C   UNL A   1      38.883  31.097  33.122  1.00  0.00     0.049 A 
ATOM     42  H   UNL A   1      39.914  29.845  31.817  1.00  0.00     0.167 HD
ATOM     43  C   UNL A   1      42.060  27.342  28.998  1.00  0.00     0.037 A 
ATOM     44  C   UNL A   1      39.626  31.213  34.241  1.00  0.00     0.037 A 
ATOM     45  C   UNL A   1      42.845  27.278  30.201  1.00  0.00     0.049 A 
ATOM     46  C   UNL A   1      40.912  30.446  34.361  1.00  0.00     0.074 A 
ATOM     47  C   UNL A   1      44.013  26.573  30.438  1.00  0.00     0.029 A 
ATOM     48  N   UNL A   1      42.562  27.981  31.362  1.00  0.00    -0.354 N 
ATOM     49  N   UNL A   1      41.503  29.679  33.479  1.00  0.00    -0.248 NA
ATOM     50  C   UNL A   1      41.619  30.537  35.647  1.00  0.00     0.031 C 
ATOM     51  C   UNL A   1      44.432  26.841  31.745  1.00  0.00     0.029 A 
ATOM     52  C   UNL A   1      43.538  27.733  32.313  1.00  0.00     0.049 A 
ATOM     53  H   UNL A   1      41.783  28.570  31.490  1.00  0.00     0.167 HD
ATOM     54  C   UNL A   1      42.645  29.195  34.101  1.00  0.00     0.074 A 
ATOM     55  C   UNL A   1      42.684  29.780  35.424  1.00  0.00     0.031 C 
ATOM     56  C   UNL A   1      43.569  28.325  33.624  1.00  0.00     0.037 A 
BRANCH  43  57
ATOM     57  C   UNL A   1      42.537  26.566  27.808  1.00  0.00     0.064 A 
ATOM     58  C   UNL A   1      42.092  25.264  27.543  1.00  0.00     0.173 A 
ATOM     59  C   UNL A   1      43.432  27.155  26.901  1.00  0.00     0.173 A 
ATOM     60  F   UNL A   1      41.253  24.652  28.392  1.00  0.00    -0.203 F 
ATOM     61  C   UNL A   1      42.541  24.572  26.421  1.00  0.00     0.198 A 
ATOM     62  C   UNL A   1      43.861  26.469  25.768  1.00  0.00     0.198 A 
ATOM     63  F   UNL A   1      43.884  28.401  27.111  1.00  0.00    -0.203 F 
ATOM     64  F   UNL A   1      42.134  23.313  26.205  1.00  0.00    -0.200 F 
ATOM     65  C   UNL A   1      43.419  25.177  25.532  1.00  0.00     0.200 A 
ATOM     66  F   UNL A   1      44.702  27.058  24.908  1.00  0.00    -0.200 F 
ATOM     67  F   UNL A   1      43.844  24.510  24.450  1.00  0.00    -0.200 F 
ENDBRANCH  43  57
BRANCH  44  68
ATOM     68  C   UNL A   1      39.158  32.074  35.357  1.00  0.00     0.064 A 
ATOM     69  C   UNL A   1      39.490  33.436  35.401  1.00  0.00     0.173 A 
ATOM     70  C   UNL A   1      38.385  31.555  36.405  1.00  0.00     0.173 A 
ATOM     71  F   UNL A   1      40.253  33.971  34.437  1.00  0.00    -0.203 F 
ATOM     72  C   UNL A   1      39.071  34.244  36.457  1.00  0.00     0.198 A 
ATOM     73  C   UNL A   1      37.943  32.369  37.445  1.00  0.00     0.198 A 
ATOM     74  F   UNL A   1      38.049  30.257  36.412  1.00  0.00    -0.203 F 
ATOM     75  F   UNL A   1      39.435  35.532  36.497  1.00  0.00    -0.200 F 
ATOM     76  C   UNL A   1      38.292  33.711  37.474  1.00  0.00     0.200 A 
ATOM     77  F   UNL A   1      37.183  31.853  38.421  1.00  0.00    -0.200 F 
ATOM     78  F   UNL A   1      37.885  34.489  38.485  1.00  0.00    -0.200 F 
ENDBRANCH  44  68
BRANCH  56  79
ATOM     79  C   UNL A   1      44.702  27.966  34.536  1.00  0.00     0.064 A 
ATOM     80  C   UNL A   1      44.623  26.861  35.394  1.00  0.00     0.173 A 
ATOM     81  C   UNL A   1      45.884  28.720  34.536  1.00  0.00     0.173 A 
ATOM     82  F   UNL A   1      43.507  26.119  35.439  1.00  0.00    -0.203 F 
ATOM     83  C   UNL A   1      45.680  26.538  36.241  1.00  0.00     0.198 A 
ATOM     84  C   UNL A   1      46.946  28.382  35.370  1.00  0.00     0.198 A 
ATOM     85  F   UNL A   1      46.008  29.784  33.729  1.00  0.00    -0.203 F 
ATOM     86  F   UNL A   1      45.567  25.502  37.085  1.00  0.00    -0.200 F 
ATOM     87  C   UNL A   1      46.841  27.296  36.225  1.00  0.00     0.200 A 
ATOM     88  F   UNL A   1      48.071  29.111  35.350  1.00  0.00    -0.200 F 
ATOM     89  F   UNL A   1      47.856  26.985  37.044  1.00  0.00    -0.200 F 
ENDBRANCH  56  79
ENDBRANCH  30  31
ENDBRANCH  23  25
ENDBRANCH  22  23
ENDBRANCH  21  22
ENDBRANCH   1  21
TORSDOF 17
ENDMDL
MODEL 2
REMARK VINA RESULT:     -10.8      0.594      1.753
REMARK SMILES CCCC[C@@H](C(=O)OCCOC(=O)c1ccc(-c2c3nc(c(-c4c(F)c(F)c(F)c(F)c4F)c4ccc([nH]4)c(-c4c(F)c(F)c(F)c(F)c4F)c4nc(c(-c5c(F)c(F)c(F)c(F)c5F)c5ccc2[nH]5)C=C4)C=C3)cc1)[C@H](O)c1ccc(Br)cc1F
REMARK SMILES IDX 9 1 8 2 6 3 7 4 5 5 4 6 3 7 2 8 1 9 77 10 79 11 80 12 85 13
REMARK SMILES IDX 81 14 84 15 86 16 82 17 83 18 78 19 10 21 11 22 12 23 13 24
REMARK SMILES IDX 14 25 15 26 76 27 16 28 75 29 17 30 18 31 19 32 69 33 20 34
REMARK SMILES IDX 74 35 68 36 70 37 21 38 73 39 67 40 66 41 22 43 54 44 34 45
REMARK SMILES IDX 53 46 35 47 38 48 52 49 71 50 36 51 37 52 51 54 72 55 39 56
REMARK SMILES IDX 23 57 24 58 32 59 25 60 26 61 30 62 33 63 27 64 28 65 31 66
REMARK SMILES IDX 29 67 55 68 56 69 64 70 57 71 58 72 62 73 65 74 59 75 60 76
REMARK SMILES IDX 63 77 61 78 40 79 41 80 49 81 42 82 43 83 47 84 50 85 44 86
REMARK SMILES IDX 45 87 48 88 46 89
REMARK H PARENT 78 20 70 42 38 53
REMARK Flexibility Score: inf
ROOT
ATOM      1  C   UNL A   1      31.026  29.422  24.559  1.00  0.00     0.274 C 
ENDROOT
BRANCH   1   2
ATOM      2  O   UNL A   1      30.349  28.186  24.250  1.00  0.00    -0.462 OA
BRANCH   2   3
ATOM      3  C   UNL A   1      30.736  27.513  23.134  1.00  0.00     0.312 C 
ATOM      4  O   UNL A   1      30.544  27.911  21.992  1.00  0.00    -0.252 OA
BRANCH   3   5
ATOM      5  C   UNL A   1      31.319  26.145  23.469  1.00  0.00     0.132 C 
BRANCH   5   6
ATOM      6  C   UNL A   1      30.491  25.306  24.460  1.00  0.00     0.018 C 
BRANCH   6   7
ATOM      7  C   UNL A   1      30.654  23.779  24.379  1.00  0.00     0.001 C 
BRANCH   7   8
ATOM      8  C   UNL A   1      31.144  23.076  25.644  1.00  0.00    -0.003 C 
ATOM      9  C   UNL A   1      32.061  21.895  25.371  1.00  0.00     0.004 C 
ENDBRANCH   7   8
ENDBRANCH   6   7
ENDBRANCH   5   6
BRANCH   5  10
ATOM     10  C   UNL A   1      32.842  26.245  23.797  1.00  0.00     0.161 C 
BRANCH  10  11
ATOM     11  C   UNL A   1      33.797  25.068  23.951  1.00  0.00     0.017 A 
ATOM     12  C   UNL A   1      34.064  24.083  22.993  1.00  0.00     0.010 A 
ATOM     13  C   UNL A   1      34.549  25.002  25.144  1.00  0.00     0.130 A 
ATOM     14  C   UNL A   1      35.049  23.103  23.209  1.00  0.00     0.016 A 
ATOM     15  C   UNL A   1      35.524  24.033  25.376  1.00  0.00     0.055 A 
ATOM     16  F   UNL A   1      34.343  25.925  26.096  1.00  0.00    -0.207 F 
ATOM     17  C   UNL A   1      35.780  23.090  24.394  1.00  0.00     0.020 A 
ATOM     18  Br  UNL A   1      37.136  21.803  24.652  1.00  0.00    -0.051 Br
ENDBRANCH  10  11
BRANCH  10  19
ATOM     19  O   UNL A   1      33.408  27.075  22.762  1.00  0.00    -0.387 OA
ATOM     20  H   UNL A   1      32.825  27.831  22.599  1.00  0.00     0.211 HD
ENDBRANCH  10  19
ENDBRANCH   5  10
ENDBRANCH   3   5
ENDBRANCH   2   3
ENDBRANCH   1   2
BRANCH   1  21
ATOM     21  C   UNL A   1      31.777  29.294  25.880  1.00  0.00     0.275 C 
BRANCH  21  22
ATOM     22  O   UNL A   1      32.974  30.084  25.794  1.00  0.00    -0.458 OA
BRANCH  22  23
ATOM     23  C   UNL A   1      33.210  30.933  26.816  1.00  0.00     0.338 C 
ATOM     24  O   UNL A   1      32.458  31.769  27.288  1.00  0.00    -0.246 OA
BRANCH  23  25
ATOM     25  C   UNL A   1      34.553  30.658  27.352  1.00  0.00     0.060 A 
ATOM     26  C   UNL A   1      34.922  29.340  27.596  1.00  0.00     0.016 A 
ATOM     27  C   UNL A   1      35.401  31.700  27.725  1.00  0.00     0.016 A 
ATOM     28  C   UNL A   1      36.092  29.062  28.292  1.00  0.00     0.010 A 
ATOM     29  C   UNL A   1      36.616  31.410  28.361  1.00  0.00     0.010 A 
ATOM     30  C   UNL A   1      36.950  30.089  28.706  1.00  0.00    -0.014 A 
BRANCH  30  31
ATOM     31  C   UNL A   1      38.102  29.762  29.599  1.00  0.00     0.031 A 
ATOM     32  C   UNL A   1      39.269  28.967  29.065  1.00  0.00     0.074 A 
ATOM     33  C   UNL A   1      38.179  30.264  30.848  1.00  0.00     0.049 A 
ATOM     34  N   UNL A   1      40.312  28.493  29.701  1.00  0.00    -0.248 NA
ATOM     35  C   UNL A   1      39.262  28.661  27.625  1.00  0.00     0.031 C 
ATOM     36  C   UNL A   1      37.169  31.107  31.489  1.00  0.00     0.029 A 
ATOM     37  N   UNL A   1      39.176  30.172  31.791  1.00  0.00    -0.354 N 
ATOM     38  C   UNL A   1      41.044  27.784  28.758  1.00  0.00     0.074 A 
ATOM     39  C   UNL A   1      40.332  27.888  27.504  1.00  0.00     0.031 C 
ATOM     40  C   UNL A   1      37.630  31.518  32.681  1.00  0.00     0.029 A 
ATOM     41  C   UNL A   1      38.928  30.899  32.929  1.00  0.00     0.049 A 
ATOM     42  H   UNL A   1      39.992  29.636  31.661  1.00  0.00     0.167 HD
ATOM     43  C   UNL A   1      42.208  27.109  28.919  1.00  0.00     0.037 A 
ATOM     44  C   UNL A   1      39.649  31.037  34.058  1.00  0.00     0.037 A 
ATOM     45  C   UNL A   1      42.971  27.070  30.136  1.00  0.00     0.049 A 
ATOM     46  C   UNL A   1      40.940  30.283  34.212  1.00  0.00     0.074 A 
ATOM     47  C   UNL A   1      44.141  26.378  30.404  1.00  0.00     0.029 A 
ATOM     48  N   UNL A   1      42.662  27.788  31.281  1.00  0.00    -0.354 N 
ATOM     49  N   UNL A   1      41.552  29.508  33.353  1.00  0.00    -0.248 NA
ATOM     50  C   UNL A   1      41.623  30.399  35.510  1.00  0.00     0.031 C 
ATOM     51  C   UNL A   1      44.534  26.670  31.714  1.00  0.00     0.029 A 
ATOM     52  C   UNL A   1      43.624  27.563  32.253  1.00  0.00     0.049 A 
ATOM     53  H   UNL A   1      41.877  28.372  31.386  1.00  0.00     0.167 HD
ATOM     54  C   UNL A   1      42.687  29.043  34.002  1.00  0.00     0.074 A 
ATOM     55  C   UNL A   1      42.698  29.649  35.317  1.00  0.00     0.031 C 
ATOM     56  C   UNL A   1      43.626  28.174  33.555  1.00  0.00     0.037 A 
BRANCH  43  57
ATOM     57  C   UNL A   1      42.711  26.319  27.749  1.00  0.00     0.064 A 
ATOM     58  C   UNL A   1      43.659  26.836  26.856  1.00  0.00     0.173 A 
ATOM     59  C   UNL A   1      42.256  25.007  27.542  1.00  0.00     0.173 A 
ATOM     60  F   UNL A   1      44.108  28.092  27.001  1.00  0.00    -0.203 F 
ATOM     61  C   UNL A   1      44.121  26.073  25.785  1.00  0.00     0.198 A 
ATOM     62  C   UNL A   1      42.737  24.240  26.485  1.00  0.00     0.198 A 
ATOM     63  F   UNL A   1      41.350  24.467  28.371  1.00  0.00    -0.203 F 
ATOM     64  F   UNL A   1      44.999  26.600  24.920  1.00  0.00    -0.200 F 
ATOM     65  C   UNL A   1      43.665  24.775  25.605  1.00  0.00     0.200 A 
ATOM     66  F   UNL A   1      42.300  22.985  26.317  1.00  0.00    -0.200 F 
ATOM     67  F   UNL A   1      44.115  24.042  24.577  1.00  0.00    -0.200 F 
ENDBRANCH  43  57
BRANCH  44  68
ATOM     68  C   UNL A   1      39.155  31.911  35.153  1.00  0.00     0.064 A 
ATOM     69  C   UNL A   1      39.419  33.288  35.148  1.00  0.00     0.173 A 
ATOM     70  C   UNL A   1      38.423  31.390  36.230  1.00  0.00     0.173 A 
ATOM     71  F   UNL A   1      40.141  33.828  34.155  1.00  0.00    -0.203 F 
ATOM     72  C   UNL A   1      38.975  34.109  36.183  1.00  0.00     0.198 A 
ATOM     73  C   UNL A   1      37.956  32.215  37.249  1.00  0.00     0.198 A 
ATOM     74  F   UNL A   1      38.152  30.077  36.284  1.00  0.00    -0.203 F 
ATOM     75  F   UNL A   1      39.275  35.414  36.175  1.00  0.00    -0.200 F 
ATOM     76  C   UNL A   1      38.238  33.574  37.229  1.00  0.00     0.200 A 
ATOM     77  F   UNL A   1      37.237  31.696  38.253  1.00  0.00    -0.200 F 
ATOM     78  F   UNL A   1      37.807  34.364  38.220  1.00  0.00    -0.200 F 
ENDBRANCH  44  68
BRANCH  56  79
ATOM     79  C   UNL A   1      44.746  27.838  34.491  1.00  0.00     0.064 A 
ATOM     80  C   UNL A   1      45.919  28.606  34.529  1.00  0.00     0.173 A 
ATOM     81  C   UNL A   1      44.639  26.753  35.373  1.00  0.00     0.173 A 
ATOM     82  F   UNL A   1      46.072  29.645  33.693  1.00  0.00    -0.203 F 
ATOM     83  C   UNL A   1      46.956  28.283  35.399  1.00  0.00     0.198 A 
ATOM     84  C   UNL A   1      45.670  26.446  36.256  1.00  0.00     0.198 A 
ATOM     85  F   UNL A   1      43.535  25.991  35.377  1.00  0.00    -0.203 F 
ATOM     86  F   UNL A   1      48.086  29.005  35.388  1.00  0.00    -0.200 F 
ATOM     87  C   UNL A   1      46.829  27.207  36.264  1.00  0.00     0.200 A 
ATOM     88  F   UNL A   1      45.545  25.409  37.096  1.00  0.00    -0.200 F 
ATOM     89  F   UNL A   1      47.831  26.896  37.099  1.00  0.00    -0.200 F 
ENDBRANCH  56  79
ENDBRANCH  30  31
ENDBRANCH  23  25
ENDBRANCH  22  23
ENDBRANCH  21  22
ENDBRANCH   1  21
TORSDOF 17
ENDMDL
MODEL 3
REMARK VINA RESULT:     -10.8      0.619      7.517
REMARK SMILES CCCC[C@@H](C(=O)OCCOC(=O)c1ccc(-c2c3nc(c(-c4c(F)c(F)c(F)c(F)c4F)c4ccc([nH]4)c(-c4c(F)c(F)c(F)c(F)c4F)c4nc(c(-c5c(F)c(F)c(F)c(F)c5F)c5ccc2[nH]5)C=C4)C=C3)cc1)[C@H](O)c1ccc(Br)cc1F
REMARK SMILES IDX 9 1 8 2 6 3 7 4 5 5 4 6 3 7 2 8 1 9 77 10 79 11 80 12 85 13
REMARK SMILES IDX 81 14 84 15 86 16 82 17 83 18 78 19 10 21 11 22 12 23 13 24
REMARK SMILES IDX 14 25 15 26 76 27 16 28 75 29 17 30 18 31 19 32 69 33 20 34
REMARK SMILES IDX 74 35 68 36 70 37 21 38 73 39 67 40 66 41 22 43 54 44 34 45
REMARK SMILES IDX 53 46 35 47 38 48 52 49 71 50 36 51 37 52 51 54 72 55 39 56
REMARK SMILES IDX 23 57 24 58 32 59 25 60 26 61 30 62 33 63 27 64 28 65 31 66
REMARK SMILES IDX 29 67 55 68 56 69 64 70 57 71 58 72 62 73 65 74 59 75 60 76
REMARK SMILES IDX 63 77 61 78 40 79 41 80 49 81 42 82 43 83 47 84 50 85 44 86
REMARK SMILES IDX 45 87 48 88 46 89
REMARK H PARENT 78 20 70 42 38 53
REMARK Flexibility Score: inf
ROOT
ATOM      1  C   UNL A   1      31.922  29.266  25.553  1.00  0.00     0.274 C 
ENDROOT
BRANCH   1   2
ATOM      2  O   UNL A   1      32.214  29.156  24.145  1.00  0.00    -0.462 OA
BRANCH   2   3
ATOM      3  C   UNL A   1      31.237  28.675  23.331  1.00  0.00     0.312 C 
ATOM      4  O   UNL A   1      30.208  29.282  23.063  1.00  0.00    -0.252 OA
BRANCH   3   5
ATOM      5  C   UNL A   1      31.513  27.240  22.898  1.00  0.00     0.132 C 
BRANCH   5   6
ATOM      6  C   UNL A   1      30.583  26.179  23.516  1.00  0.00     0.018 C 
BRANCH   6   7
ATOM      7  C   UNL A   1      30.383  26.240  25.040  1.00  0.00     0.001 C 
BRANCH   7   8
ATOM      8  C   UNL A   1      30.346  24.902  25.777  1.00  0.00    -0.003 C 
ATOM      9  C   UNL A   1      30.948  23.752  24.987  1.00  0.00     0.004 C 
ENDBRANCH   7   8
ENDBRANCH   6   7
ENDBRANCH   5   6
BRANCH   5  10
ATOM     10  C   UNL A   1      33.038  26.910  22.976  1.00  0.00     0.161 C 
BRANCH  10  11
ATOM     11  C   UNL A   1      33.639  25.601  23.472  1.00  0.00     0.017 A 
ATOM     12  C   UNL A   1      33.818  24.431  22.725  1.00  0.00     0.010 A 
ATOM     13  C   UNL A   1      34.139  25.584  24.793  1.00  0.00     0.130 A 
ATOM     14  C   UNL A   1      34.484  23.317  23.263  1.00  0.00     0.016 A 
ATOM     15  C   UNL A   1      34.797  24.485  25.342  1.00  0.00     0.055 A 
ATOM     16  F   UNL A   1      34.005  26.680  25.555  1.00  0.00    -0.207 F 
ATOM     17  C   UNL A   1      34.979  23.353  24.563  1.00  0.00     0.020 A 
ATOM     18  Br  UNL A   1      35.919  21.871  25.258  1.00  0.00    -0.051 Br
ENDBRANCH  10  11
BRANCH  10  19
ATOM     19  O   UNL A   1      33.542  27.088  21.637  1.00  0.00    -0.387 OA
ATOM     20  H   UNL A   1      32.812  27.014  21.003  1.00  0.00     0.211 HD
ENDBRANCH  10  19
ENDBRANCH   5  10
ENDBRANCH   3   5
ENDBRANCH   2   3
ENDBRANCH   1   2
BRANCH   1  21
ATOM     21  C   UNL A   1      31.779  30.732  25.948  1.00  0.00     0.275 C 
BRANCH  21  22
ATOM     22  O   UNL A   1      32.378  30.909  27.242  1.00  0.00    -0.458 OA
BRANCH  22  23
ATOM     23  C   UNL A   1      33.156  32.000  27.401  1.00  0.00     0.338 C 
ATOM     24  O   UNL A   1      32.832  33.173  27.321  1.00  0.00    -0.246 OA
BRANCH  23  25
ATOM     25  C   UNL A   1      34.512  31.558  27.764  1.00  0.00     0.060 A 
ATOM     26  C   UNL A   1      34.741  30.205  27.985  1.00  0.00     0.016 A 
ATOM     27  C   UNL A   1      35.526  32.485  28.001  1.00  0.00     0.016 A 
ATOM     28  C   UNL A   1      35.949  29.782  28.529  1.00  0.00     0.010 A 
ATOM     29  C   UNL A   1      36.769  32.045  28.480  1.00  0.00     0.010 A 
ATOM     30  C   UNL A   1      36.976  30.693  28.805  1.00  0.00    -0.014 A 
BRANCH  30  31
ATOM     31  C   UNL A   1      38.185  30.226  29.547  1.00  0.00     0.031 A 
ATOM     32  C   UNL A   1      38.383  30.619  30.991  1.00  0.00     0.074 A 
ATOM     33  C   UNL A   1      39.054  29.358  28.989  1.00  0.00     0.049 A 
ATOM     34  N   UNL A   1      39.410  30.406  31.777  1.00  0.00    -0.248 NA
ATOM     35  C   UNL A   1      37.283  31.353  31.637  1.00  0.00     0.031 C 
ATOM     36  C   UNL A   1      38.967  28.827  27.628  1.00  0.00     0.029 A 
ATOM     37  N   UNL A   1      40.161  28.735  29.515  1.00  0.00    -0.354 N 
ATOM     38  C   UNL A   1      39.105  31.031  32.979  1.00  0.00     0.074 A 
ATOM     39  C   UNL A   1      37.799  31.632  32.826  1.00  0.00     0.031 C 
ATOM     40  C   UNL A   1      39.926  27.904  27.454  1.00  0.00     0.029 A 
ATOM     41  C   UNL A   1      40.750  27.840  28.656  1.00  0.00     0.049 A 
ATOM     42  H   UNL A   1      40.499  28.914  30.422  1.00  0.00     0.167 HD
ATOM     43  C   UNL A   1      39.845  31.097  34.113  1.00  0.00     0.037 A 
ATOM     44  C   UNL A   1      41.843  27.067  28.806  1.00  0.00     0.037 A 
ATOM     45  C   UNL A   1      41.104  30.431  34.310  1.00  0.00     0.049 A 
ATOM     46  C   UNL A   1      42.645  27.153  30.074  1.00  0.00     0.074 A 
ATOM     47  C   UNL A   1      41.943  30.474  35.411  1.00  0.00     0.029 A 
ATOM     48  N   UNL A   1      41.686  29.565  33.398  1.00  0.00    -0.354 N 
ATOM     49  N   UNL A   1      42.411  27.854  31.155  1.00  0.00    -0.248 NA
ATOM     50  C   UNL A   1      43.883  26.360  30.129  1.00  0.00     0.031 C 
ATOM     51  C   UNL A   1      43.040  29.642  35.160  1.00  0.00     0.029 A 
ATOM     52  C   UNL A   1      42.869  29.061  33.915  1.00  0.00     0.049 A 
ATOM     53  H   UNL A   1      41.314  29.341  32.515  1.00  0.00     0.167 HD
ATOM     54  C   UNL A   1      43.468  27.593  32.014  1.00  0.00     0.074 A 
ATOM     55  C   UNL A   1      44.329  26.641  31.345  1.00  0.00     0.031 C 
ATOM     56  C   UNL A   1      43.714  28.112  33.242  1.00  0.00     0.037 A 
BRANCH  43  57
ATOM     57  C   UNL A   1      39.323  31.955  35.225  1.00  0.00     0.064 A 
ATOM     58  C   UNL A   1      39.581  33.331  35.285  1.00  0.00     0.173 A 
ATOM     59  C   UNL A   1      38.524  31.389  36.230  1.00  0.00     0.173 A 
ATOM     60  F   UNL A   1      40.357  33.913  34.359  1.00  0.00    -0.203 F 
ATOM     61  C   UNL A   1      39.071  34.107  36.324  1.00  0.00     0.198 A 
ATOM     62  C   UNL A   1      37.996  32.172  37.253  1.00  0.00     0.198 A 
ATOM     63  F   UNL A   1      38.247  30.076  36.215  1.00  0.00    -0.203 F 
ATOM     64  F   UNL A   1      39.360  35.415  36.385  1.00  0.00    -0.200 F 
ATOM     65  C   UNL A   1      38.274  33.529  37.301  1.00  0.00     0.200 A 
ATOM     66  F   UNL A   1      37.222  31.612  38.192  1.00  0.00    -0.200 F 
ATOM     67  F   UNL A   1      37.780  34.280  38.296  1.00  0.00    -0.200 F 
ENDBRANCH  43  57
BRANCH  44  68
ATOM     68  C   UNL A   1      42.266  26.157  27.711  1.00  0.00     0.064 A 
ATOM     69  C   UNL A   1      43.261  26.541  26.801  1.00  0.00     0.173 A 
ATOM     70  C   UNL A   1      41.679  24.895  27.544  1.00  0.00     0.173 A 
ATOM     71  F   UNL A   1      43.830  27.752  26.903  1.00  0.00    -0.203 F 
ATOM     72  C   UNL A   1      43.647  25.699  25.760  1.00  0.00     0.198 A 
ATOM     73  C   UNL A   1      42.085  24.042  26.520  1.00  0.00     0.198 A 
ATOM     74  F   UNL A   1      40.718  24.484  28.384  1.00  0.00    -0.203 F 
ATOM     75  F   UNL A   1      44.570  26.106  24.879  1.00  0.00    -0.200 F 
ATOM     76  C   UNL A   1      43.064  24.448  25.624  1.00  0.00     0.200 A 
ATOM     77  F   UNL A   1      41.526  22.831  26.398  1.00  0.00    -0.200 F 
ATOM     78  F   UNL A   1      43.439  23.637  24.626  1.00  0.00    -0.200 F 
ENDBRANCH  44  68
BRANCH  56  79
ATOM     79  C   UNL A   1      44.956  27.651  33.941  1.00  0.00     0.064 A 
ATOM     80  C   UNL A   1      46.172  28.333  33.791  1.00  0.00     0.173 A 
ATOM     81  C   UNL A   1      44.928  26.531  34.784  1.00  0.00     0.173 A 
ATOM     82  F   UNL A   1      46.251  29.401  32.982  1.00  0.00    -0.203 F 
ATOM     83  C   UNL A   1      47.322  27.895  34.441  1.00  0.00     0.198 A 
ATOM     84  C   UNL A   1      46.075  26.108  35.448  1.00  0.00     0.198 A 
ATOM     85  F   UNL A   1      43.787  25.848  34.962  1.00  0.00    -0.203 F 
ATOM     86  F   UNL A   1      48.484  28.537  34.249  1.00  0.00    -0.200 F 
ATOM     87  C   UNL A   1      47.272  26.786  35.272  1.00  0.00     0.200 A 
ATOM     88  F   UNL A   1      46.026  25.039  36.256  1.00  0.00    -0.200 F 
ATOM     89  F   UNL A   1      48.381  26.363  35.894  1.00  0.00    -0.200 F 
ENDBRANCH  56  79
ENDBRANCH  30  31
ENDBRANCH  23  25
ENDBRANCH  22  23
ENDBRANCH  21  22
ENDBRANCH   1  21
TORSDOF 17
ENDMDL
