MODEL 1
REMARK VINA RESULT:     -10.4      0.000      0.000
REMARK SMILES O=C(CSc1nc2cnccc2n1CCC(F)(F)F)OCCOC(=O)c1ccc(-c2c3nc(c(-c4c(F)c(F)c(F)c(F)c4F)c4ccc([nH]4)c(-c4c(F)c(F)c(F)c(F)c4F)c4nc(c(-c5c(F)c(F)c(F)c(F)c5F)c5ccc2[nH]5)C=C4)C=C3)cc1
REMARK SMILES IDX 20 1 2 2 1 3 3 4 4 5 5 6 6 7 13 8 7 9 12 10 8 11 11 12 9 13
REMARK SMILES IDX 10 14 14 15 15 16 16 17 17 18 18 19 19 20 21 21 22 22 23 23
REMARK SMILES IDX 24 24 25 25 26 26 27 27 88 28 28 29 87 30 29 31 30 32 31 33
REMARK SMILES IDX 81 34 32 35 86 36 80 37 82 38 33 39 85 40 79 41 78 42 34 44
REMARK SMILES IDX 66 45 46 46 65 47 47 48 50 49 64 50 83 51 48 52 49 53 63 55
REMARK SMILES IDX 84 56 51 57 35 58 36 59 44 60 37 61 38 62 42 63 45 64 39 65
REMARK SMILES IDX 40 66 43 67 41 68 67 69 68 70 76 71 69 72 70 73 74 74 77 75
REMARK SMILES IDX 71 76 72 77 75 78 73 79 52 80 53 81 61 82 54 83 55 84 59 85
REMARK SMILES IDX 62 86 56 87 57 88 60 89 58 90
REMARK H PARENT 82 43 50 54
REMARK Flexibility Score: inf
ROOT
ATOM      1  O   UNL A   1      34.674  34.475  30.083  1.00  0.00    -0.461 OA
ENDROOT
BRANCH   1   2
ATOM      2  C   UNL A   1      34.248  34.580  31.355  1.00  0.00     0.316 C 
ATOM      3  O   UNL A   1      33.458  35.475  31.624  1.00  0.00    -0.251 OA
BRANCH   2   4
ATOM      4  C   UNL A   1      34.911  33.519  32.264  1.00  0.00     0.200 C 
BRANCH   4   5
ATOM      5  S   UNL A   1      36.317  34.272  33.098  1.00  0.00    -0.076 SA
BRANCH   5   6
ATOM      6  C   UNL A   1      37.046  32.949  33.966  1.00  0.00     0.169 A 
ATOM      7  N   UNL A   1      36.766  32.737  35.232  1.00  0.00    -0.221 NA
ATOM      8  N   UNL A   1      38.277  32.416  33.620  1.00  0.00    -0.318 N 
ATOM      9  C   UNL A   1      37.983  32.462  35.797  1.00  0.00     0.108 A 
ATOM     10  C   UNL A   1      38.948  32.228  34.816  1.00  0.00     0.072 A 
ATOM     11  C   UNL A   1      38.379  32.508  37.134  1.00  0.00     0.141 A 
ATOM     12  C   UNL A   1      40.287  31.995  35.133  1.00  0.00     0.049 A 
ATOM     13  N   UNL A   1      39.694  32.417  37.449  1.00  0.00    -0.262 NA
ATOM     14  C   UNL A   1      40.592  32.146  36.476  1.00  0.00     0.113 A 
BRANCH   8  15
ATOM     15  C   UNL A   1      38.925  32.439  32.319  1.00  0.00     0.134 C 
BRANCH  15  16
ATOM     16  C   UNL A   1      39.940  33.537  32.001  1.00  0.00     0.137 C 
BRANCH  16  17
ATOM     17  C   UNL A   1      40.145  33.716  30.540  1.00  0.00     0.390 C 
ATOM     18  F   UNL A   1      40.876  34.790  30.361  1.00  0.00    -0.171 F 
ATOM     19  F   UNL A   1      40.770  32.664  29.998  1.00  0.00    -0.171 F 
ATOM     20  F   UNL A   1      39.040  33.999  29.856  1.00  0.00    -0.171 F 
ENDBRANCH  16  17
ENDBRANCH  15  16
ENDBRANCH   8  15
ENDBRANCH   5   6
ENDBRANCH   4   5
ENDBRANCH   2   4
ENDBRANCH   1   2
BRANCH   1  21
ATOM     21  C   UNL A   1      33.625  34.791  29.171  1.00  0.00     0.274 C 
BRANCH  21  22
ATOM     22  C   UNL A   1      33.383  33.798  27.993  1.00  0.00     0.275 C 
BRANCH  22  23
ATOM     23  O   UNL A   1      34.563  33.011  27.629  1.00  0.00    -0.458 OA
BRANCH  23  24
ATOM     24  C   UNL A   1      34.434  31.653  27.783  1.00  0.00     0.338 C 
ATOM     25  O   UNL A   1      33.456  31.004  27.409  1.00  0.00    -0.246 OA
BRANCH  24  26
ATOM     26  C   UNL A   1      35.672  30.986  28.320  1.00  0.00     0.060 A 
ATOM     27  C   UNL A   1      36.732  31.678  28.911  1.00  0.00     0.016 A 
ATOM     28  C   UNL A   1      35.818  29.597  28.156  1.00  0.00     0.016 A 
ATOM     29  C   UNL A   1      37.967  31.029  29.159  1.00  0.00     0.010 A 
ATOM     30  C   UNL A   1      37.057  28.954  28.390  1.00  0.00     0.010 A 
ATOM     31  C   UNL A   1      38.185  29.684  28.798  1.00  0.00    -0.014 A 
BRANCH  31  32
ATOM     32  C   UNL A   1      39.535  29.046  28.978  1.00  0.00     0.031 A 
ATOM     33  C   UNL A   1      39.889  28.948  30.406  1.00  0.00     0.074 A 
ATOM     34  C   UNL A   1      40.463  28.554  28.095  1.00  0.00     0.049 A 
ATOM     35  N   UNL A   1      40.859  29.588  30.969  1.00  0.00    -0.248 NA
ATOM     36  C   UNL A   1      39.032  28.192  31.328  1.00  0.00     0.031 C 
ATOM     37  C   UNL A   1      40.431  28.533  26.647  1.00  0.00     0.029 A 
ATOM     38  N   UNL A   1      41.677  27.905  28.291  1.00  0.00    -0.354 N 
ATOM     39  C   UNL A   1      40.871  29.151  32.277  1.00  0.00     0.074 A 
ATOM     40  C   UNL A   1      39.640  28.430  32.491  1.00  0.00     0.031 C 
ATOM     41  C   UNL A   1      41.279  27.642  26.104  1.00  0.00     0.029 A 
ATOM     42  C   UNL A   1      42.150  27.207  27.167  1.00  0.00     0.049 A 
ATOM     43  H   UNL A   1      42.164  27.933  29.146  1.00  0.00     0.167 HD
ATOM     44  C   UNL A   1      42.026  29.161  32.989  1.00  0.00     0.037 A 
ATOM     45  C   UNL A   1      43.272  26.477  26.926  1.00  0.00     0.037 A 
ATOM     46  C   UNL A   1      43.002  30.069  32.451  1.00  0.00     0.049 A 
ATOM     47  C   UNL A   1      44.288  26.846  27.926  1.00  0.00     0.074 A 
ATOM     48  C   UNL A   1      42.983  31.415  32.135  1.00  0.00     0.029 A 
ATOM     49  N   UNL A   1      44.121  29.565  31.839  1.00  0.00    -0.354 N 
ATOM     50  N   UNL A   1      44.973  27.954  27.900  1.00  0.00    -0.248 NA
ATOM     51  C   UNL A   1      44.156  26.209  29.219  1.00  0.00     0.031 C 
ATOM     52  C   UNL A   1      43.783  31.535  30.966  1.00  0.00     0.029 A 
ATOM     53  C   UNL A   1      44.333  30.284  30.691  1.00  0.00     0.049 A 
ATOM     54  H   UNL A   1      44.673  28.819  32.167  1.00  0.00     0.167 HD
ATOM     55  C   UNL A   1      44.912  28.414  29.203  1.00  0.00     0.074 A 
ATOM     56  C   UNL A   1      44.436  27.268  29.979  1.00  0.00     0.031 C 
ATOM     57  C   UNL A   1      44.980  29.743  29.511  1.00  0.00     0.037 A 
BRANCH  44  58
ATOM     58  C   UNL A   1      42.360  28.048  33.926  1.00  0.00     0.064 A 
ATOM     59  C   UNL A   1      42.986  26.890  33.450  1.00  0.00     0.173 A 
ATOM     60  C   UNL A   1      41.842  27.988  35.240  1.00  0.00     0.173 A 
ATOM     61  F   UNL A   1      43.436  26.832  32.188  1.00  0.00    -0.203 F 
ATOM     62  C   UNL A   1      43.086  25.744  34.239  1.00  0.00     0.198 A 
ATOM     63  C   UNL A   1      41.997  26.868  36.046  1.00  0.00     0.198 A 
ATOM     64  F   UNL A   1      41.076  28.967  35.742  1.00  0.00    -0.203 F 
ATOM     65  F   UNL A   1      43.602  24.622  33.719  1.00  0.00    -0.200 F 
ATOM     66  C   UNL A   1      42.603  25.737  35.539  1.00  0.00     0.200 A 
ATOM     67  F   UNL A   1      41.490  26.871  37.286  1.00  0.00    -0.200 F 
ATOM     68  F   UNL A   1      42.669  24.627  36.283  1.00  0.00    -0.200 F 
ENDBRANCH  44  58
BRANCH  45  69
ATOM     69  C   UNL A   1      43.392  25.279  26.044  1.00  0.00     0.064 A 
ATOM     70  C   UNL A   1      44.513  25.071  25.221  1.00  0.00     0.173 A 
ATOM     71  C   UNL A   1      42.530  24.172  26.201  1.00  0.00     0.173 A 
ATOM     72  F   UNL A   1      45.394  26.060  25.018  1.00  0.00    -0.203 F 
ATOM     73  C   UNL A   1      44.783  23.822  24.642  1.00  0.00     0.198 A 
ATOM     74  C   UNL A   1      42.798  22.930  25.621  1.00  0.00     0.198 A 
ATOM     75  F   UNL A   1      41.450  24.246  26.991  1.00  0.00    -0.203 F 
ATOM     76  F   UNL A   1      45.898  23.646  23.918  1.00  0.00    -0.200 F 
ATOM     77  C   UNL A   1      43.936  22.748  24.860  1.00  0.00     0.200 A 
ATOM     78  F   UNL A   1      41.978  21.896  25.857  1.00  0.00    -0.200 F 
ATOM     79  F   UNL A   1      44.231  21.537  24.369  1.00  0.00    -0.200 F 
ENDBRANCH  45  69
BRANCH  57  80
ATOM     80  C   UNL A   1      45.582  30.747  28.549  1.00  0.00     0.064 A 
ATOM     81  C   UNL A   1      44.948  31.370  27.462  1.00  0.00     0.173 A 
ATOM     82  C   UNL A   1      46.907  31.162  28.816  1.00  0.00     0.173 A 
ATOM     83  F   UNL A   1      43.657  31.147  27.170  1.00  0.00    -0.203 F 
ATOM     84  C   UNL A   1      45.636  32.292  26.665  1.00  0.00     0.198 A 
ATOM     85  C   UNL A   1      47.528  32.184  28.106  1.00  0.00     0.198 A 
ATOM     86  F   UNL A   1      47.611  30.581  29.801  1.00  0.00    -0.203 F 
ATOM     87  F   UNL A   1      45.109  32.708  25.510  1.00  0.00    -0.200 F 
ATOM     88  C   UNL A   1      46.894  32.745  27.021  1.00  0.00     0.200 A 
ATOM     89  F   UNL A   1      48.747  32.606  28.467  1.00  0.00    -0.200 F 
ATOM     90  F   UNL A   1      47.497  33.709  26.311  1.00  0.00    -0.200 F 
ENDBRANCH  57  80
ENDBRANCH  31  32
ENDBRANCH  24  26
ENDBRANCH  23  24
ENDBRANCH  22  23
ENDBRANCH  21  22
ENDBRANCH   1  21
TORSDOF 16
ENDMDL
MODEL 2
REMARK VINA RESULT:     -10.4      5.150     10.741
REMARK SMILES O=C(CSc1nc2cnccc2n1CCC(F)(F)F)OCCOC(=O)c1ccc(-c2c3nc(c(-c4c(F)c(F)c(F)c(F)c4F)c4ccc([nH]4)c(-c4c(F)c(F)c(F)c(F)c4F)c4nc(c(-c5c(F)c(F)c(F)c(F)c5F)c5ccc2[nH]5)C=C4)C=C3)cc1
REMARK SMILES IDX 20 1 2 2 1 3 3 4 4 5 5 6 6 7 13 8 7 9 12 10 8 11 11 12 9 13
REMARK SMILES IDX 10 14 14 15 15 16 16 17 17 18 18 19 19 20 21 21 22 22 23 23
REMARK SMILES IDX 24 24 25 25 26 26 27 27 88 28 28 29 87 30 29 31 30 32 31 33
REMARK SMILES IDX 81 34 32 35 86 36 80 37 82 38 33 39 85 40 79 41 78 42 34 44
REMARK SMILES IDX 66 45 46 46 65 47 47 48 50 49 64 50 83 51 48 52 49 53 63 55
REMARK SMILES IDX 84 56 51 57 35 58 36 59 44 60 37 61 38 62 42 63 45 64 39 65
REMARK SMILES IDX 40 66 43 67 41 68 67 69 68 70 76 71 69 72 70 73 74 74 77 75
REMARK SMILES IDX 71 76 72 77 75 78 73 79 52 80 53 81 61 82 54 83 55 84 59 85
REMARK SMILES IDX 62 86 56 87 57 88 60 89 58 90
REMARK H PARENT 82 43 50 54
REMARK Flexibility Score: inf
ROOT
ATOM      1  O   UNL A   1      34.802  21.408  24.736  1.00  0.00    -0.461 OA
ENDROOT
BRANCH   1   2
ATOM      2  C   UNL A   1      33.985  21.616  25.785  1.00  0.00     0.316 C 
ATOM      3  O   UNL A   1      34.491  21.941  26.851  1.00  0.00    -0.251 OA
BRANCH   2   4
ATOM      4  C   UNL A   1      32.508  21.348  25.415  1.00  0.00     0.200 C 
BRANCH   4   5
ATOM      5  S   UNL A   1      31.504  22.715  26.016  1.00  0.00    -0.076 SA
BRANCH   5   6
ATOM      6  C   UNL A   1      31.199  23.670  24.592  1.00  0.00     0.169 A 
ATOM      7  N   UNL A   1      31.584  23.255  23.407  1.00  0.00    -0.221 NA
ATOM      8  N   UNL A   1      31.063  25.048  24.630  1.00  0.00    -0.318 N 
ATOM      9  C   UNL A   1      32.113  24.375  22.821  1.00  0.00     0.108 A 
ATOM     10  C   UNL A   1      31.783  25.521  23.546  1.00  0.00     0.072 A 
ATOM     11  C   UNL A   1      32.984  24.491  21.738  1.00  0.00     0.141 A 
ATOM     12  C   UNL A   1      32.260  26.784  23.196  1.00  0.00     0.049 A 
ATOM     13  N   UNL A   1      33.562  25.686  21.465  1.00  0.00    -0.262 NA
ATOM     14  C   UNL A   1      33.182  26.781  22.161  1.00  0.00     0.113 A 
BRANCH   8  15
ATOM     15  C   UNL A   1      30.649  25.873  25.754  1.00  0.00     0.134 C 
BRANCH  15  16
ATOM     16  C   UNL A   1      31.701  26.400  26.730  1.00  0.00     0.137 C 
BRANCH  16  17
ATOM     17  C   UNL A   1      31.673  27.881  26.850  1.00  0.00     0.390 C 
ATOM     18  F   UNL A   1      31.091  28.364  25.779  1.00  0.00    -0.171 F 
ATOM     19  F   UNL A   1      30.993  28.274  27.934  1.00  0.00    -0.171 F 
ATOM     20  F   UNL A   1      32.868  28.463  26.820  1.00  0.00    -0.171 F 
ENDBRANCH  16  17
ENDBRANCH  15  16
ENDBRANCH   8  15
ENDBRANCH   5   6
ENDBRANCH   4   5
ENDBRANCH   2   4
ENDBRANCH   1   2
BRANCH   1  21
ATOM     21  C   UNL A   1      35.707  20.340  25.005  1.00  0.00     0.274 C 
BRANCH  21  22
ATOM     22  C   UNL A   1      37.231  20.659  24.912  1.00  0.00     0.275 C 
BRANCH  22  23
ATOM     23  O   UNL A   1      37.661  21.762  25.774  1.00  0.00    -0.458 OA
BRANCH  23  24
ATOM     24  C   UNL A   1      38.966  21.705  26.195  1.00  0.00     0.338 C 
ATOM     25  O   UNL A   1      39.663  20.691  26.153  1.00  0.00    -0.246 OA
BRANCH  24  26
ATOM     26  C   UNL A   1      39.535  23.044  26.581  1.00  0.00     0.060 A 
ATOM     27  C   UNL A   1      40.779  23.212  27.195  1.00  0.00     0.016 A 
ATOM     28  C   UNL A   1      38.750  24.194  26.387  1.00  0.00     0.016 A 
ATOM     29  C   UNL A   1      41.141  24.459  27.761  1.00  0.00     0.010 A 
ATOM     30  C   UNL A   1      39.106  25.436  26.967  1.00  0.00     0.010 A 
ATOM     31  C   UNL A   1      40.261  25.561  27.754  1.00  0.00    -0.014 A 
BRANCH  31  32
ATOM     32  C   UNL A   1      40.627  26.843  28.451  1.00  0.00     0.031 A 
ATOM     33  C   UNL A   1      41.870  27.411  27.897  1.00  0.00     0.074 A 
ATOM     34  C   UNL A   1      40.040  27.559  29.463  1.00  0.00     0.049 A 
ATOM     35  N   UNL A   1      42.981  27.523  28.548  1.00  0.00    -0.248 NA
ATOM     36  C   UNL A   1      41.951  27.762  26.474  1.00  0.00     0.031 C 
ATOM     37  C   UNL A   1      38.848  27.256  30.228  1.00  0.00     0.029 A 
ATOM     38  N   UNL A   1      40.362  28.780  30.043  1.00  0.00    -0.354 N 
ATOM     39  C   UNL A   1      43.845  28.160  27.682  1.00  0.00     0.074 A 
ATOM     40  C   UNL A   1      43.228  28.136  26.379  1.00  0.00     0.031 C 
ATOM     41  C   UNL A   1      38.325  28.327  30.852  1.00  0.00     0.029 A 
ATOM     42  C   UNL A   1      39.315  29.371  30.772  1.00  0.00     0.049 A 
ATOM     43  H   UNL A   1      41.249  29.197  29.951  1.00  0.00     0.167 HD
ATOM     44  C   UNL A   1      44.860  28.919  28.167  1.00  0.00     0.037 A 
ATOM     45  C   UNL A   1      39.213  30.519  31.494  1.00  0.00     0.037 A 
ATOM     46  C   UNL A   1      45.203  28.585  29.523  1.00  0.00     0.049 A 
ATOM     47  C   UNL A   1      40.571  30.969  31.843  1.00  0.00     0.074 A 
ATOM     48  C   UNL A   1      45.549  27.409  30.159  1.00  0.00     0.029 A 
ATOM     49  N   UNL A   1      44.902  29.470  30.527  1.00  0.00    -0.354 N 
ATOM     50  N   UNL A   1      41.309  30.424  32.768  1.00  0.00    -0.248 NA
ATOM     51  C   UNL A   1      41.279  31.689  30.806  1.00  0.00     0.031 C 
ATOM     52  C   UNL A   1      44.959  27.494  31.450  1.00  0.00     0.029 A 
ATOM     53  C   UNL A   1      44.378  28.756  31.574  1.00  0.00     0.049 A 
ATOM     54  H   UNL A   1      45.038  30.445  30.499  1.00  0.00     0.167 HD
ATOM     55  C   UNL A   1      42.548  30.286  32.168  1.00  0.00     0.074 A 
ATOM     56  C   UNL A   1      42.478  31.131  30.975  1.00  0.00     0.031 C 
ATOM     57  C   UNL A   1      43.423  29.298  32.521  1.00  0.00     0.037 A 
BRANCH  44  58
ATOM     58  C   UNL A   1      45.240  30.204  27.509  1.00  0.00     0.064 A 
ATOM     59  C   UNL A   1      46.581  30.473  27.211  1.00  0.00     0.173 A 
ATOM     60  C   UNL A   1      44.341  31.289  27.398  1.00  0.00     0.173 A 
ATOM     61  F   UNL A   1      47.515  29.523  27.366  1.00  0.00    -0.203 F 
ATOM     62  C   UNL A   1      46.996  31.749  26.829  1.00  0.00     0.198 A 
ATOM     63  C   UNL A   1      44.745  32.541  26.958  1.00  0.00     0.198 A 
ATOM     64  F   UNL A   1      43.071  31.198  27.818  1.00  0.00    -0.203 F 
ATOM     65  F   UNL A   1      48.300  31.997  26.649  1.00  0.00    -0.200 F 
ATOM     66  C   UNL A   1      46.077  32.778  26.691  1.00  0.00     0.200 A 
ATOM     67  F   UNL A   1      43.846  33.531  26.867  1.00  0.00    -0.200 F 
ATOM     68  F   UNL A   1      46.481  34.010  26.357  1.00  0.00    -0.200 F 
ENDBRANCH  44  58
BRANCH  45  69
ATOM     69  C   UNL A   1      38.004  31.380  31.646  1.00  0.00     0.064 A 
ATOM     70  C   UNL A   1      37.404  31.606  32.897  1.00  0.00     0.173 A 
ATOM     71  C   UNL A   1      37.577  32.224  30.598  1.00  0.00     0.173 A 
ATOM     72  F   UNL A   1      37.750  30.861  33.956  1.00  0.00    -0.203 F 
ATOM     73  C   UNL A   1      36.483  32.644  33.098  1.00  0.00     0.198 A 
ATOM     74  C   UNL A   1      36.657  33.255  30.798  1.00  0.00     0.198 A 
ATOM     75  F   UNL A   1      38.107  32.122  29.370  1.00  0.00    -0.203 F 
ATOM     76  F   UNL A   1      35.984  32.870  34.322  1.00  0.00    -0.200 F 
ATOM     77  C   UNL A   1      36.126  33.480  32.053  1.00  0.00     0.200 A 
ATOM     78  F   UNL A   1      36.336  34.067  29.780  1.00  0.00    -0.200 F 
ATOM     79  F   UNL A   1      35.304  34.517  32.261  1.00  0.00    -0.200 F 
ENDBRANCH  45  69
BRANCH  57  80
ATOM     80  C   UNL A   1      43.325  28.599  33.861  1.00  0.00     0.064 A 
ATOM     81  C   UNL A   1      44.021  28.916  35.038  1.00  0.00     0.173 A 
ATOM     82  C   UNL A   1      42.374  27.558  33.963  1.00  0.00     0.173 A 
ATOM     83  F   UNL A   1      44.870  29.952  35.104  1.00  0.00    -0.203 F 
ATOM     84  C   UNL A   1      43.814  28.180  36.211  1.00  0.00     0.198 A 
ATOM     85  C   UNL A   1      42.074  26.935  35.169  1.00  0.00     0.198 A 
ATOM     86  F   UNL A   1      41.700  27.149  32.875  1.00  0.00    -0.203 F 
ATOM     87  F   UNL A   1      44.633  28.335  37.256  1.00  0.00    -0.200 F 
ATOM     88  C   UNL A   1      42.802  27.240  36.296  1.00  0.00     0.200 A 
ATOM     89  F   UNL A   1      41.091  26.026  35.227  1.00  0.00    -0.200 F 
ATOM     90  F   UNL A   1      42.543  26.621  37.456  1.00  0.00    -0.200 F 
ENDBRANCH  57  80
ENDBRANCH  31  32
ENDBRANCH  24  26
ENDBRANCH  23  24
ENDBRANCH  22  23
ENDBRANCH  21  22
ENDBRANCH   1  21
TORSDOF 16
ENDMDL
MODEL 3
REMARK VINA RESULT:     -10.3      4.611     10.110
REMARK SMILES O=C(CSc1nc2cnccc2n1CCC(F)(F)F)OCCOC(=O)c1ccc(-c2c3nc(c(-c4c(F)c(F)c(F)c(F)c4F)c4ccc([nH]4)c(-c4c(F)c(F)c(F)c(F)c4F)c4nc(c(-c5c(F)c(F)c(F)c(F)c5F)c5ccc2[nH]5)C=C4)C=C3)cc1
REMARK SMILES IDX 20 1 2 2 1 3 3 4 4 5 5 6 6 7 13 8 7 9 12 10 8 11 11 12 9 13
REMARK SMILES IDX 10 14 14 15 15 16 16 17 17 18 18 19 19 20 21 21 22 22 23 23
REMARK SMILES IDX 24 24 25 25 26 26 27 27 88 28 28 29 87 30 29 31 30 32 31 33
REMARK SMILES IDX 81 34 32 35 86 36 80 37 82 38 33 39 85 40 79 41 78 42 34 44
REMARK SMILES IDX 66 45 46 46 65 47 47 48 50 49 64 50 83 51 48 52 49 53 63 55
REMARK SMILES IDX 84 56 51 57 35 58 36 59 44 60 37 61 38 62 42 63 45 64 39 65
REMARK SMILES IDX 40 66 43 67 41 68 67 69 68 70 76 71 69 72 70 73 74 74 77 75
REMARK SMILES IDX 71 76 72 77 75 78 73 79 52 80 53 81 61 82 54 83 55 84 59 85
REMARK SMILES IDX 62 86 56 87 57 88 60 89 58 90
REMARK H PARENT 82 43 50 54
REMARK Flexibility Score: inf
ROOT
ATOM      1  O   UNL A   1      34.404  21.398  24.696  1.00  0.00    -0.461 OA
ENDROOT
BRANCH   1   2
ATOM      2  C   UNL A   1      34.273  22.675  24.291  1.00  0.00     0.316 C 
ATOM      3  O   UNL A   1      34.966  23.055  23.357  1.00  0.00    -0.251 OA
BRANCH   2   4
ATOM      4  C   UNL A   1      33.253  23.444  25.163  1.00  0.00     0.200 C 
BRANCH   4   5
ATOM      5  S   UNL A   1      33.993  25.001  25.680  1.00  0.00    -0.076 SA
BRANCH   5   6
ATOM      6  C   UNL A   1      32.629  26.063  25.894  1.00  0.00     0.169 A 
ATOM      7  N   UNL A   1      31.409  25.654  25.630  1.00  0.00    -0.221 NA
ATOM      8  N   UNL A   1      32.734  27.442  25.812  1.00  0.00    -0.318 N 
ATOM      9  C   UNL A   1      30.847  26.709  24.959  1.00  0.00     0.108 A 
ATOM     10  C   UNL A   1      31.637  27.853  25.075  1.00  0.00     0.072 A 
ATOM     11  C   UNL A   1      29.727  26.744  24.128  1.00  0.00     0.141 A 
ATOM     12  C   UNL A   1      31.319  29.044  24.422  1.00  0.00     0.049 A 
ATOM     13  N   UNL A   1      29.478  27.849  23.383  1.00  0.00    -0.262 NA
ATOM     14  C   UNL A   1      30.239  28.952  23.557  1.00  0.00     0.113 A 
BRANCH   8  15
ATOM     15  C   UNL A   1      33.913  28.261  26.043  1.00  0.00     0.134 C 
BRANCH  15  16
ATOM     16  C   UNL A   1      34.107  28.936  27.401  1.00  0.00     0.137 C 
BRANCH  16  17
ATOM     17  C   UNL A   1      34.122  30.419  27.302  1.00  0.00     0.390 C 
ATOM     18  F   UNL A   1      35.370  30.804  27.173  1.00  0.00    -0.171 F 
ATOM     19  F   UNL A   1      33.419  30.850  26.247  1.00  0.00    -0.171 F 
ATOM     20  F   UNL A   1      33.734  31.053  28.405  1.00  0.00    -0.171 F 
ENDBRANCH  16  17
ENDBRANCH  15  16
ENDBRANCH   8  15
ENDBRANCH   5   6
ENDBRANCH   4   5
ENDBRANCH   2   4
ENDBRANCH   1   2
BRANCH   1  21
ATOM     21  C   UNL A   1      35.520  21.258  25.572  1.00  0.00     0.274 C 
BRANCH  21  22
ATOM     22  C   UNL A   1      36.856  20.752  24.946  1.00  0.00     0.275 C 
BRANCH  22  23
ATOM     23  O   UNL A   1      37.908  21.770  24.888  1.00  0.00    -0.458 OA
BRANCH  23  24
ATOM     24  C   UNL A   1      38.932  21.609  25.786  1.00  0.00     0.338 C 
ATOM     25  O   UNL A   1      39.689  20.639  25.806  1.00  0.00    -0.246 OA
BRANCH  24  26
ATOM     26  C   UNL A   1      39.156  22.809  26.669  1.00  0.00     0.060 A 
ATOM     27  C   UNL A   1      38.324  23.932  26.677  1.00  0.00     0.016 A 
ATOM     28  C   UNL A   1      40.302  22.847  27.481  1.00  0.00     0.016 A 
ATOM     29  C   UNL A   1      38.727  25.122  27.332  1.00  0.00     0.010 A 
ATOM     30  C   UNL A   1      40.711  24.042  28.122  1.00  0.00     0.010 A 
ATOM     31  C   UNL A   1      39.979  25.230  27.971  1.00  0.00    -0.014 A 
BRANCH  31  32
ATOM     32  C   UNL A   1      40.428  26.534  28.571  1.00  0.00     0.031 A 
ATOM     33  C   UNL A   1      41.718  26.964  28.000  1.00  0.00     0.074 A 
ATOM     34  C   UNL A   1      39.881  27.370  29.512  1.00  0.00     0.049 A 
ATOM     35  N   UNL A   1      42.823  27.048  28.664  1.00  0.00    -0.248 NA
ATOM     36  C   UNL A   1      41.845  27.194  26.557  1.00  0.00     0.031 C 
ATOM     37  C   UNL A   1      38.658  27.216  30.274  1.00  0.00     0.029 A 
ATOM     38  N   UNL A   1      40.283  28.607  30.001  1.00  0.00    -0.354 N 
ATOM     39  C   UNL A   1      43.746  27.549  27.768  1.00  0.00     0.074 A 
ATOM     40  C   UNL A   1      43.148  27.465  26.458  1.00  0.00     0.031 C 
ATOM     41  C   UNL A   1      38.206  28.369  30.800  1.00  0.00     0.029 A 
ATOM     42  C   UNL A   1      39.272  29.329  30.659  1.00  0.00     0.049 A 
ATOM     43  H   UNL A   1      41.200  28.950  29.894  1.00  0.00     0.167 HD
ATOM     44  C   UNL A   1      44.806  28.269  28.213  1.00  0.00     0.037 A 
ATOM     45  C   UNL A   1      39.244  30.535  31.285  1.00  0.00     0.037 A 
ATOM     46  C   UNL A   1      45.103  28.021  29.598  1.00  0.00     0.049 A 
ATOM     47  C   UNL A   1      40.626  30.912  31.626  1.00  0.00     0.074 A 
ATOM     48  C   UNL A   1      45.352  26.877  30.332  1.00  0.00     0.029 A 
ATOM     49  N   UNL A   1      44.853  29.003  30.522  1.00  0.00    -0.354 N 
ATOM     50  N   UNL A   1      41.308  30.391  32.606  1.00  0.00    -0.248 NA
ATOM     51  C   UNL A   1      41.401  31.494  30.550  1.00  0.00     0.031 C 
ATOM     52  C   UNL A   1      44.751  27.109  31.599  1.00  0.00     0.029 A 
ATOM     53  C   UNL A   1      44.263  28.415  31.611  1.00  0.00     0.049 A 
ATOM     54  H   UNL A   1      45.061  29.960  30.421  1.00  0.00     0.167 HD
ATOM     55  C   UNL A   1      42.542  30.116  32.045  1.00  0.00     0.074 A 
ATOM     56  C   UNL A   1      42.553  30.866  30.788  1.00  0.00     0.031 C 
ATOM     57  C   UNL A   1      43.336  29.099  32.492  1.00  0.00     0.037 A 
BRANCH  44  58
ATOM     58  C   UNL A   1      45.290  29.466  27.464  1.00  0.00     0.064 A 
ATOM     59  C   UNL A   1      46.661  29.664  27.261  1.00  0.00     0.173 A 
ATOM     60  C   UNL A   1      44.445  30.559  27.163  1.00  0.00     0.173 A 
ATOM     61  F   UNL A   1      47.541  28.708  27.594  1.00  0.00    -0.203 F 
ATOM     62  C   UNL A   1      47.155  30.880  26.789  1.00  0.00     0.198 A 
ATOM     63  C   UNL A   1      44.933  31.746  26.635  1.00  0.00     0.198 A 
ATOM     64  F   UNL A   1      43.142  30.549  27.475  1.00  0.00    -0.203 F 
ATOM     65  F   UNL A   1      48.478  31.070  26.701  1.00  0.00    -0.200 F 
ATOM     66  C   UNL A   1      46.291  31.915  26.466  1.00  0.00     0.200 A 
ATOM     67  F   UNL A   1      44.084  32.747  26.364  1.00  0.00    -0.200 F 
ATOM     68  F   UNL A   1      46.768  33.093  26.045  1.00  0.00    -0.200 F 
ENDBRANCH  44  58
BRANCH  45  69
ATOM     69  C   UNL A   1      38.099  31.491  31.344  1.00  0.00     0.064 A 
ATOM     70  C   UNL A   1      37.535  32.049  30.184  1.00  0.00     0.173 A 
ATOM     71  C   UNL A   1      37.356  31.660  32.532  1.00  0.00     0.173 A 
ATOM     72  F   UNL A   1      38.163  31.932  29.005  1.00  0.00    -0.203 F 
ATOM     73  C   UNL A   1      36.284  32.682  30.202  1.00  0.00     0.198 A 
ATOM     74  C   UNL A   1      36.111  32.294  32.550  1.00  0.00     0.198 A 
ATOM     75  F   UNL A   1      37.780  31.139  33.692  1.00  0.00    -0.203 F 
ATOM     76  F   UNL A   1      35.749  33.142  29.061  1.00  0.00    -0.200 F 
ATOM     77  C   UNL A   1      35.565  32.786  31.381  1.00  0.00     0.200 A 
ATOM     78  F   UNL A   1      35.420  32.370  33.696  1.00  0.00    -0.200 F 
ATOM     79  F   UNL A   1      34.338  33.324  31.385  1.00  0.00    -0.200 F 
ENDBRANCH  45  69
BRANCH  57  80
ATOM     80  C   UNL A   1      43.168  28.518  33.881  1.00  0.00     0.064 A 
ATOM     81  C   UNL A   1      43.761  28.970  35.070  1.00  0.00     0.173 A 
ATOM     82  C   UNL A   1      42.252  27.448  34.012  1.00  0.00     0.173 A 
ATOM     83  F   UNL A   1      44.562  30.046  35.100  1.00  0.00    -0.203 F 
ATOM     84  C   UNL A   1      43.497  28.333  36.288  1.00  0.00     0.198 A 
ATOM     85  C   UNL A   1      41.889  26.922  35.247  1.00  0.00     0.198 A 
ATOM     86  F   UNL A   1      41.677  26.914  32.922  1.00  0.00    -0.203 F 
ATOM     87  F   UNL A   1      44.230  28.618  37.369  1.00  0.00    -0.200 F 
ATOM     88  C   UNL A   1      42.520  27.359  36.389  1.00  0.00     0.200 A 
ATOM     89  F   UNL A   1      40.941  25.978  35.319  1.00  0.00    -0.200 F 
ATOM     90  F   UNL A   1      42.200  26.835  37.580  1.00  0.00    -0.200 F 
ENDBRANCH  57  80
ENDBRANCH  31  32
ENDBRANCH  24  26
ENDBRANCH  23  24
ENDBRANCH  22  23
ENDBRANCH  21  22
ENDBRANCH   1  21
TORSDOF 16
ENDMDL
