MODEL 1
REMARK VINA RESULT:     -11.7      0.000      0.000
REMARK SMILES [NH3+][C@@](C(=O)OCCOC(=O)c1ccc(-c2c3nc(c(-c4c(F)c(F)c(F)c(F)c4F)c4ccc([nH]4)c(-c4c(F)c(F)c(F)c(F)c4F)c4nc(c(-c5c(F)c(F)c(F)c(F)c5F)c5ccc2[nH]5)C=C4)C=C3)cc1)(c1ccc([P@TB4](=O)([O-])[O-])cc1)C1CC1
REMARK SMILES IDX 6 1 5 2 3 3 4 4 2 5 1 6 74 10 75 11 83 12 76 13 82 14 77 15
REMARK SMILES IDX 78 16 79 17 80 18 81 19 84 20 85 21 86 22 7 23 8 24 9 25
REMARK SMILES IDX 10 26 11 27 12 28 73 29 13 30 72 31 14 32 15 33 16 34 66 35
REMARK SMILES IDX 17 36 71 37 65 38 67 39 18 40 70 41 64 42 63 43 19 45 51 46
REMARK SMILES IDX 31 47 50 48 32 49 35 50 49 51 68 52 33 53 34 54 48 56 69 57
REMARK SMILES IDX 36 58 20 59 21 60 29 61 22 62 23 63 27 64 30 65 24 66 25 67
REMARK SMILES IDX 28 68 26 69 52 70 53 71 61 72 54 73 55 74 59 75 62 76 56 77
REMARK SMILES IDX 57 78 60 79 58 80 37 81 38 82 46 83 39 84 40 85 44 86 47 87
REMARK SMILES IDX 41 88 42 89 45 90 43 91
REMARK H PARENT 1 7 1 8 1 9 67 44 35 55
REMARK Flexibility Score: inf
ROOT
ATOM      1  C   UNL A   1      32.266  28.918  25.186  1.00  0.00       nan C 
ENDROOT
BRANCH   1   2
ATOM      2  O   UNL A   1      31.212  27.939  25.266  1.00  0.00       nan OA
BRANCH   2   3
ATOM      3  C   UNL A   1      31.334  26.991  26.249  1.00  0.00       nan C 
ATOM      4  O   UNL A   1      31.515  27.261  27.432  1.00  0.00       nan OA
BRANCH   3   5
ATOM      5  C   UNL A   1      31.244  25.524  25.648  1.00  0.00       nan C 
BRANCH   5   6
ATOM      6  N   UNL A   1      30.298  24.717  26.483  1.00  0.00       nan N 
ATOM      7  H   UNL A   1      30.129  25.197  27.366  1.00  0.00       nan HD
ATOM      8  H   UNL A   1      30.704  23.800  26.667  1.00  0.00       nan HD
ATOM      9  H   UNL A   1      29.416  24.604  25.984  1.00  0.00       nan HD
ENDBRANCH   5   6
BRANCH   5  10
ATOM     10  C   UNL A   1      32.644  24.865  25.643  1.00  0.00       nan A 
ATOM     11  C   UNL A   1      33.839  25.566  25.353  1.00  0.00       nan A 
ATOM     12  C   UNL A   1      32.777  23.496  25.897  1.00  0.00       nan A 
ATOM     13  C   UNL A   1      35.093  24.923  25.276  1.00  0.00       nan A 
ATOM     14  C   UNL A   1      34.020  22.866  25.862  1.00  0.00       nan A 
ATOM     15  C   UNL A   1      35.200  23.552  25.510  1.00  0.00       nan A 
BRANCH  15  16
ATOM     16  P   UNL A   1      36.803  22.680  25.640  1.00  0.00       nan P 
ATOM     17  O   UNL A   1      36.908  22.440  24.131  1.00  0.00       nan OA
ATOM     18  O   UNL A   1      37.695  24.008  25.976  1.00  0.00       nan OA
ATOM     19  O   UNL A   1      38.319  21.854  25.764  1.00  0.00       nan OA
ENDBRANCH  15  16
ENDBRANCH   5  10
BRANCH   5  20
ATOM     20  C   UNL A   1      30.544  25.578  24.274  1.00  0.00       nan C 
ATOM     21  C   UNL A   1      31.291  25.487  22.954  1.00  0.00       nan C 
ATOM     22  C   UNL A   1      30.332  24.399  23.345  1.00  0.00       nan C 
ENDBRANCH   5  20
ENDBRANCH   3   5
ENDBRANCH   2   3
ENDBRANCH   1   2
BRANCH   1  23
ATOM     23  C   UNL A   1      31.769  30.252  25.737  1.00  0.00       nan C 
BRANCH  23  24
ATOM     24  O   UNL A   1      32.291  30.449  27.065  1.00  0.00       nan OA
BRANCH  24  25
ATOM     25  C   UNL A   1      33.035  31.562  27.262  1.00  0.00       nan C 
ATOM     26  O   UNL A   1      32.676  32.722  27.156  1.00  0.00       inf OA
BRANCH  25  27
ATOM     27  C   UNL A   1      34.396  31.178  27.680  1.00  0.00       inf A 
ATOM     28  C   UNL A   1      34.695  29.836  27.868  1.00  0.00     0.016 A 
ATOM     29  C   UNL A   1      35.338  32.149  28.026  1.00  0.00     0.016 A 
ATOM     30  C   UNL A   1      35.879  29.479  28.511  1.00  0.00     0.010 A 
ATOM     31  C   UNL A   1      36.566  31.768  28.601  1.00  0.00     0.010 A 
ATOM     32  C   UNL A   1      36.826  30.427  28.929  1.00  0.00    -0.014 A 
BRANCH  32  33
ATOM     33  C   UNL A   1      37.973  30.014  29.816  1.00  0.00     0.031 A 
ATOM     34  C   UNL A   1      39.179  29.302  29.230  1.00  0.00     0.074 A 
ATOM     35  C   UNL A   1      38.043  30.382  31.117  1.00  0.00     0.049 A 
ATOM     36  N   UNL A   1      40.196  28.753  29.850  1.00  0.00    -0.248 NA
ATOM     37  C   UNL A   1      39.261  29.199  27.765  1.00  0.00     0.031 C 
ATOM     38  C   UNL A   1      37.033  31.151  31.840  1.00  0.00     0.029 A 
ATOM     39  N   UNL A   1      39.055  30.234  32.044  1.00  0.00    -0.354 N 
ATOM     40  C   UNL A   1      40.957  28.128  28.867  1.00  0.00     0.074 A 
ATOM     41  C   UNL A   1      40.324  28.423  27.601  1.00  0.00     0.031 C 
ATOM     42  C   UNL A   1      37.531  31.535  33.026  1.00  0.00     0.029 A 
ATOM     43  C   UNL A   1      38.839  30.921  33.218  1.00  0.00     0.049 A 
ATOM     44  H   UNL A   1      39.857  29.688  31.881  1.00  0.00     0.167 HD
ATOM     45  C   UNL A   1      42.061  27.354  29.010  1.00  0.00     0.037 A 
ATOM     46  C   UNL A   1      39.600  31.043  34.325  1.00  0.00     0.037 A 
ATOM     47  C   UNL A   1      42.767  27.152  30.248  1.00  0.00     0.049 A 
ATOM     48  C   UNL A   1      40.845  30.207  34.459  1.00  0.00     0.074 A 
ATOM     49  C   UNL A   1      43.855  26.332  30.502  1.00  0.00     0.029 A 
ATOM     50  N   UNL A   1      42.491  27.820  31.430  1.00  0.00    -0.354 N 
ATOM     51  N   UNL A   1      41.445  29.461  33.566  1.00  0.00    -0.248 NA
ATOM     52  C   UNL A   1      41.482  30.181  35.787  1.00  0.00     0.031 C 
ATOM     53  C   UNL A   1      44.215  26.479  31.846  1.00  0.00     0.029 A 
ATOM     54  C   UNL A   1      43.377  27.420  32.418  1.00  0.00     0.049 A 
ATOM     55  H   UNL A   1      41.772  28.482  31.549  1.00  0.00     0.167 HD
ATOM     56  C   UNL A   1      42.509  28.860  34.226  1.00  0.00     0.074 A 
ATOM     57  C   UNL A   1      42.512  29.374  35.579  1.00  0.00     0.031 C 
ATOM     58  C   UNL A   1      43.378  27.931  33.763  1.00  0.00     0.037 A 
BRANCH  45  59
ATOM     59  C   UNL A   1      42.529  26.580  27.812  1.00  0.00     0.064 A 
ATOM     60  C   UNL A   1      42.022  25.320  27.476  1.00  0.00     0.173 A 
ATOM     61  C   UNL A   1      43.481  27.157  26.953  1.00  0.00     0.173 A 
ATOM     62  F   UNL A   1      41.126  24.719  28.272  1.00  0.00    -0.203 F 
ATOM     63  C   UNL A   1      42.463  24.655  26.332  1.00  0.00     0.198 A 
ATOM     64  C   UNL A   1      43.900  26.503  25.799  1.00  0.00     0.198 A 
ATOM     65  F   UNL A   1      43.994  28.366  27.228  1.00  0.00    -0.203 F 
ATOM     66  F   UNL A   1      41.995  23.432  26.048  1.00  0.00    -0.200 F 
ATOM     67  C   UNL A   1      43.394  25.250  25.491  1.00  0.00     0.200 A 
ATOM     68  F   UNL A   1      44.789  27.086  24.985  1.00  0.00    -0.200 F 
ATOM     69  F   UNL A   1      43.809  24.612  24.389  1.00  0.00    -0.200 F 
ENDBRANCH  45  59
BRANCH  46  70
ATOM     70  C   UNL A   1      39.214  31.971  35.425  1.00  0.00     0.064 A 
ATOM     71  C   UNL A   1      39.712  33.284  35.445  1.00  0.00     0.173 A 
ATOM     72  C   UNL A   1      38.388  31.577  36.486  1.00  0.00     0.173 A 
ATOM     73  F   UNL A   1      40.536  33.701  34.472  1.00  0.00    -0.203 F 
ATOM     74  C   UNL A   1      39.408  34.158  36.487  1.00  0.00     0.198 A 
ATOM     75  C   UNL A   1      38.050  32.465  37.507  1.00  0.00     0.198 A 
ATOM     76  F   UNL A   1      37.899  30.329  36.529  1.00  0.00    -0.203 F 
ATOM     77  F   UNL A   1      39.947  35.385  36.509  1.00  0.00    -0.200 F 
ATOM     78  C   UNL A   1      38.569  33.750  37.512  1.00  0.00     0.200 A 
ATOM     79  F   UNL A   1      37.229  32.070  38.488  1.00  0.00    -0.200 F 
ATOM     80  F   UNL A   1      38.270  34.591  38.512  1.00  0.00    -0.200 F 
ENDBRANCH  46  70
BRANCH  58  81
ATOM     81  C   UNL A   1      44.390  27.386  34.726  1.00  0.00     0.064 A 
ATOM     82  C   UNL A   1      45.632  28.015  34.904  1.00  0.00     0.173 A 
ATOM     83  C   UNL A   1      44.107  26.258  35.510  1.00  0.00     0.173 A 
ATOM     84  F   UNL A   1      45.955  29.090  34.170  1.00  0.00    -0.203 F 
ATOM     85  C   UNL A   1      46.562  27.522  35.816  1.00  0.00     0.198 A 
ATOM     86  C   UNL A   1      45.029  25.782  36.438  1.00  0.00     0.198 A 
ATOM     87  F   UNL A   1      42.931  25.625  35.383  1.00  0.00    -0.203 F 
ATOM     88  F   UNL A   1      47.756  28.117  35.940  1.00  0.00    -0.200 F 
ATOM     89  C   UNL A   1      46.257  26.410  36.587  1.00  0.00     0.200 A 
ATOM     90  F   UNL A   1      44.730  24.713  37.191  1.00  0.00    -0.200 F 
ATOM     91  F   UNL A   1      47.150  25.940  37.468  1.00  0.00    -0.200 F 
ENDBRANCH  58  81
ENDBRANCH  32  33
ENDBRANCH  25  27
ENDBRANCH  24  25
ENDBRANCH  23  24
ENDBRANCH   1  23
TORSDOF 15
ENDMDL
MODEL 2
REMARK VINA RESULT:     -11.6      0.177      1.991
REMARK SMILES [NH3+][C@@](C(=O)OCCOC(=O)c1ccc(-c2c3nc(c(-c4c(F)c(F)c(F)c(F)c4F)c4ccc([nH]4)c(-c4c(F)c(F)c(F)c(F)c4F)c4nc(c(-c5c(F)c(F)c(F)c(F)c5F)c5ccc2[nH]5)C=C4)C=C3)cc1)(c1ccc([P@TB4](=O)([O-])[O-])cc1)C1CC1
REMARK SMILES IDX 6 1 5 2 3 3 4 4 2 5 1 6 74 10 75 11 83 12 76 13 82 14 77 15
REMARK SMILES IDX 78 16 79 17 80 18 81 19 84 20 85 21 86 22 7 23 8 24 9 25
REMARK SMILES IDX 10 26 11 27 12 28 73 29 13 30 72 31 14 32 15 33 16 34 66 35
REMARK SMILES IDX 17 36 71 37 65 38 67 39 18 40 70 41 64 42 63 43 19 45 51 46
REMARK SMILES IDX 31 47 50 48 32 49 35 50 49 51 68 52 33 53 34 54 48 56 69 57
REMARK SMILES IDX 36 58 20 59 21 60 29 61 22 62 23 63 27 64 30 65 24 66 25 67
REMARK SMILES IDX 28 68 26 69 52 70 53 71 61 72 54 73 55 74 59 75 62 76 56 77
REMARK SMILES IDX 57 78 60 79 58 80 37 81 38 82 46 83 39 84 40 85 44 86 47 87
REMARK SMILES IDX 41 88 42 89 45 90 43 91
REMARK H PARENT 1 7 1 8 1 9 67 44 35 55
REMARK Flexibility Score: inf
ROOT
ATOM      1  C   UNL A   1      32.392  28.979  25.375  1.00  0.00       nan C 
ENDROOT
BRANCH   1   2
ATOM      2  O   UNL A   1      31.301  28.040  25.432  1.00  0.00       nan OA
BRANCH   2   3
ATOM      3  C   UNL A   1      31.399  27.047  26.372  1.00  0.00       nan C 
ATOM      4  O   UNL A   1      31.597  27.261  27.565  1.00  0.00       nan OA
BRANCH   3   5
ATOM      5  C   UNL A   1      31.258  25.610  25.711  1.00  0.00       nan C 
BRANCH   5   6
ATOM      6  N   UNL A   1      30.280  24.805  26.509  1.00  0.00       nan N 
ATOM      7  H   UNL A   1      30.659  23.873  26.673  1.00  0.00       nan HD
ATOM      8  H   UNL A   1      29.402  24.729  25.995  1.00  0.00       nan HD
ATOM      9  H   UNL A   1      30.110  25.265  27.404  1.00  0.00       nan HD
ENDBRANCH   5   6
BRANCH   5  10
ATOM     10  C   UNL A   1      32.633  24.900  25.683  1.00  0.00       nan A 
ATOM     11  C   UNL A   1      33.848  25.559  25.377  1.00  0.00       nan A 
ATOM     12  C   UNL A   1      32.720  23.526  25.930  1.00  0.00       nan A 
ATOM     13  C   UNL A   1      35.077  24.871  25.279  1.00  0.00       nan A 
ATOM     14  C   UNL A   1      33.938  22.852  25.873  1.00  0.00       nan A 
ATOM     15  C   UNL A   1      35.136  23.496  25.507  1.00  0.00       nan A 
BRANCH  15  16
ATOM     16  P   UNL A   1      36.708  22.565  25.609  1.00  0.00       nan P 
ATOM     17  O   UNL A   1      36.732  22.246  24.112  1.00  0.00       nan OA
ATOM     18  O   UNL A   1      37.667  23.870  25.836  1.00  0.00       nan OA
ATOM     19  O   UNL A   1      38.194  21.684  25.707  1.00  0.00       nan OA
ENDBRANCH  15  16
ENDBRANCH   5  10
BRANCH   5  20
ATOM     20  C   UNL A   1      30.566  25.747  24.339  1.00  0.00       nan C 
ATOM     21  C   UNL A   1      31.305  25.622  23.017  1.00  0.00       nan C 
ATOM     22  C   UNL A   1      30.261  24.607  23.387  1.00  0.00       nan C 
ENDBRANCH   5  20
ENDBRANCH   3   5
ENDBRANCH   2   3
ENDBRANCH   1   2
BRANCH   1  23
ATOM     23  C   UNL A   1      31.891  30.370  25.754  1.00  0.00       nan C 
BRANCH  23  24
ATOM     24  O   UNL A   1      32.253  30.658  27.118  1.00  0.00       nan OA
BRANCH  24  25
ATOM     25  C   UNL A   1      33.038  31.742  27.317  1.00  0.00       nan C 
ATOM     26  O   UNL A   1      32.720  32.914  27.231  1.00  0.00       inf OA
BRANCH  25  27
ATOM     27  C   UNL A   1      34.392  31.304  27.708  1.00  0.00       inf A 
ATOM     28  C   UNL A   1      34.627  29.958  27.949  1.00  0.00     0.016 A 
ATOM     29  C   UNL A   1      35.394  32.238  27.978  1.00  0.00     0.016 A 
ATOM     30  C   UNL A   1      35.812  29.567  28.570  1.00  0.00     0.010 A 
ATOM     31  C   UNL A   1      36.620  31.819  28.531  1.00  0.00     0.010 A 
ATOM     32  C   UNL A   1      36.821  30.481  28.913  1.00  0.00    -0.014 A 
BRANCH  32  33
ATOM     33  C   UNL A   1      37.975  30.049  29.781  1.00  0.00     0.031 A 
ATOM     34  C   UNL A   1      39.169  29.337  29.172  1.00  0.00     0.074 A 
ATOM     35  C   UNL A   1      38.062  30.397  31.086  1.00  0.00     0.049 A 
ATOM     36  N   UNL A   1      40.189  28.771  29.772  1.00  0.00    -0.248 NA
ATOM     37  C   UNL A   1      39.235  29.254  27.704  1.00  0.00     0.031 C 
ATOM     38  C   UNL A   1      37.065  31.163  31.832  1.00  0.00     0.029 A 
ATOM     39  N   UNL A   1      39.083  30.228  32.000  1.00  0.00    -0.354 N 
ATOM     40  C   UNL A   1      40.935  28.156  28.772  1.00  0.00     0.074 A 
ATOM     41  C   UNL A   1      40.290  28.474  27.517  1.00  0.00     0.031 C 
ATOM     42  C   UNL A   1      37.579  31.526  33.017  1.00  0.00     0.029 A 
ATOM     43  C   UNL A   1      38.885  30.900  33.186  1.00  0.00     0.049 A 
ATOM     44  H   UNL A   1      39.879  29.679  31.820  1.00  0.00     0.167 HD
ATOM     45  C   UNL A   1      42.035  27.373  28.891  1.00  0.00     0.037 A 
ATOM     46  C   UNL A   1      39.659  31.001  34.286  1.00  0.00     0.037 A 
ATOM     47  C   UNL A   1      42.754  27.148  30.119  1.00  0.00     0.049 A 
ATOM     48  C   UNL A   1      40.900  30.155  34.394  1.00  0.00     0.074 A 
ATOM     49  C   UNL A   1      43.838  26.317  30.348  1.00  0.00     0.029 A 
ATOM     50  N   UNL A   1      42.495  27.801  31.313  1.00  0.00    -0.354 N 
ATOM     51  N   UNL A   1      41.484  29.418  33.484  1.00  0.00    -0.248 NA
ATOM     52  C   UNL A   1      41.551  30.106  35.714  1.00  0.00     0.031 C 
ATOM     53  C   UNL A   1      44.214  26.443  31.691  1.00  0.00     0.029 A 
ATOM     54  C   UNL A   1      43.389  27.381  32.285  1.00  0.00     0.049 A 
ATOM     55  H   UNL A   1      41.783  28.466  31.449  1.00  0.00     0.167 HD
ATOM     56  C   UNL A   1      42.551  28.800  34.123  1.00  0.00     0.074 A 
ATOM     57  C   UNL A   1      42.573  29.295  35.483  1.00  0.00     0.031 C 
ATOM     58  C   UNL A   1      43.409  27.873  33.637  1.00  0.00     0.037 A 
BRANCH  45  59
ATOM     59  C   UNL A   1      42.485  26.613  27.677  1.00  0.00     0.064 A 
ATOM     60  C   UNL A   1      43.452  27.100  26.791  1.00  0.00     0.173 A 
ATOM     61  C   UNL A   1      41.957  25.333  27.435  1.00  0.00     0.173 A 
ATOM     62  F   UNL A   1      43.973  28.324  26.967  1.00  0.00    -0.203 F 
ATOM     63  C   UNL A   1      43.863  26.342  25.696  1.00  0.00     0.198 A 
ATOM     64  C   UNL A   1      42.389  24.567  26.357  1.00  0.00     0.198 A 
ATOM     65  F   UNL A   1      41.031  24.817  28.259  1.00  0.00    -0.203 F 
ATOM     66  F   UNL A   1      44.762  26.842  24.836  1.00  0.00    -0.200 F 
ATOM     67  C   UNL A   1      43.338  25.074  25.485  1.00  0.00     0.200 A 
ATOM     68  F   UNL A   1      41.888  23.340  26.165  1.00  0.00    -0.200 F 
ATOM     69  F   UNL A   1      43.743  24.344  24.437  1.00  0.00    -0.200 F 
ENDBRANCH  45  59
BRANCH  46  70
ATOM     70  C   UNL A   1      39.291  31.916  35.403  1.00  0.00     0.064 A 
ATOM     71  C   UNL A   1      38.457  31.462  36.438  1.00  0.00     0.173 A 
ATOM     72  C   UNL A   1      39.714  33.251  35.452  1.00  0.00     0.173 A 
ATOM     73  F   UNL A   1      37.994  30.203  36.421  1.00  0.00    -0.203 F 
ATOM     74  C   UNL A   1      38.056  32.311  37.468  1.00  0.00     0.198 A 
ATOM     75  C   UNL A   1      39.346  34.087  36.504  1.00  0.00     0.198 A 
ATOM     76  F   UNL A   1      40.494  33.744  34.479  1.00  0.00    -0.203 F 
ATOM     77  F   UNL A   1      37.212  31.867  38.410  1.00  0.00    -0.200 F 
ATOM     78  C   UNL A   1      38.509  33.621  37.506  1.00  0.00     0.200 A 
ATOM     79  F   UNL A   1      39.797  35.348  36.541  1.00  0.00    -0.200 F 
ATOM     80  F   UNL A   1      38.129  34.436  38.498  1.00  0.00    -0.200 F 
ENDBRANCH  46  70
BRANCH  58  81
ATOM     81  C   UNL A   1      44.428  27.306  34.581  1.00  0.00     0.064 A 
ATOM     82  C   UNL A   1      44.168  26.134  35.308  1.00  0.00     0.173 A 
ATOM     83  C   UNL A   1      45.686  27.907  34.731  1.00  0.00     0.173 A 
ATOM     84  F   UNL A   1      42.975  25.529  35.208  1.00  0.00    -0.203 F 
ATOM     85  C   UNL A   1      45.124  25.596  36.166  1.00  0.00     0.198 A 
ATOM     86  C   UNL A   1      46.648  27.352  35.571  1.00  0.00     0.198 A 
ATOM     87  F   UNL A   1      45.987  29.025  34.053  1.00  0.00    -0.203 F 
ATOM     88  F   UNL A   1      44.838  24.498  36.878  1.00  0.00    -0.200 F 
ATOM     89  C   UNL A   1      46.365  26.201  36.291  1.00  0.00     0.200 A 
ATOM     90  F   UNL A   1      47.852  27.932  35.684  1.00  0.00    -0.200 F 
ATOM     91  F   UNL A   1      47.285  25.680  37.114  1.00  0.00    -0.200 F 
ENDBRANCH  58  81
ENDBRANCH  32  33
ENDBRANCH  25  27
ENDBRANCH  24  25
ENDBRANCH  23  24
ENDBRANCH   1  23
TORSDOF 15
ENDMDL
MODEL 3
REMARK VINA RESULT:     -11.5      0.979      2.084
REMARK SMILES [NH3+][C@@](C(=O)OCCOC(=O)c1ccc(-c2c3nc(c(-c4c(F)c(F)c(F)c(F)c4F)c4ccc([nH]4)c(-c4c(F)c(F)c(F)c(F)c4F)c4nc(c(-c5c(F)c(F)c(F)c(F)c5F)c5ccc2[nH]5)C=C4)C=C3)cc1)(c1ccc([P@TB4](=O)([O-])[O-])cc1)C1CC1
REMARK SMILES IDX 6 1 5 2 3 3 4 4 2 5 1 6 74 10 75 11 83 12 76 13 82 14 77 15
REMARK SMILES IDX 78 16 79 17 80 18 81 19 84 20 85 21 86 22 7 23 8 24 9 25
REMARK SMILES IDX 10 26 11 27 12 28 73 29 13 30 72 31 14 32 15 33 16 34 66 35
REMARK SMILES IDX 17 36 71 37 65 38 67 39 18 40 70 41 64 42 63 43 19 45 51 46
REMARK SMILES IDX 31 47 50 48 32 49 35 50 49 51 68 52 33 53 34 54 48 56 69 57
REMARK SMILES IDX 36 58 20 59 21 60 29 61 22 62 23 63 27 64 30 65 24 66 25 67
REMARK SMILES IDX 28 68 26 69 52 70 53 71 61 72 54 73 55 74 59 75 62 76 56 77
REMARK SMILES IDX 57 78 60 79 58 80 37 81 38 82 46 83 39 84 40 85 44 86 47 87
REMARK SMILES IDX 41 88 42 89 45 90 43 91
REMARK H PARENT 1 7 1 8 1 9 67 44 35 55
REMARK Flexibility Score: inf
ROOT
ATOM      1  C   UNL A   1      31.551  27.879  26.622  1.00  0.00       nan C 
ENDROOT
BRANCH   1   2
ATOM      2  O   UNL A   1      31.108  27.820  25.252  1.00  0.00       nan OA
BRANCH   2   3
ATOM      3  C   UNL A   1      31.122  26.585  24.658  1.00  0.00       nan C 
ATOM      4  O   UNL A   1      30.361  25.674  24.972  1.00  0.00       nan OA
BRANCH   3   5
ATOM      5  C   UNL A   1      32.259  26.488  23.554  1.00  0.00       nan C 
BRANCH   5   6
ATOM      6  N   UNL A   1      31.659  25.961  22.288  1.00  0.00       nan N 
ATOM      7  H   UNL A   1      31.891  24.973  22.186  1.00  0.00       nan HD
ATOM      8  H   UNL A   1      32.031  26.481  21.493  1.00  0.00       nan HD
ATOM      9  H   UNL A   1      30.645  26.070  22.320  1.00  0.00       nan HD
ENDBRANCH   5   6
BRANCH   5  10
ATOM     10  C   UNL A   1      33.390  25.548  24.037  1.00  0.00       nan A 
ATOM     11  C   UNL A   1      33.866  25.516  25.371  1.00  0.00       nan A 
ATOM     12  C   UNL A   1      34.030  24.696  23.132  1.00  0.00       nan A 
ATOM     13  C   UNL A   1      34.953  24.708  25.766  1.00  0.00       nan A 
ATOM     14  C   UNL A   1      35.078  23.867  23.529  1.00  0.00       nan A 
ATOM     15  C   UNL A   1      35.592  23.882  24.841  1.00  0.00       nan A 
BRANCH  15  16
ATOM     16  P   UNL A   1      36.864  22.651  25.307  1.00  0.00       nan P 
ATOM     17  O   UNL A   1      35.877  21.784  26.094  1.00  0.00       nan OA
ATOM     18  O   UNL A   1      37.009  21.982  23.822  1.00  0.00       nan OA
ATOM     19  O   UNL A   1      38.066  21.487  25.748  1.00  0.00       nan OA
ENDBRANCH  15  16
ENDBRANCH   5  10
BRANCH   5  20
ATOM     20  C   UNL A   1      32.714  27.910  23.165  1.00  0.00       nan C 
ATOM     21  C   UNL A   1      34.001  28.540  23.669  1.00  0.00       nan C 
ATOM     22  C   UNL A   1      33.839  28.244  22.206  1.00  0.00       nan C 
ENDBRANCH   5  20
ENDBRANCH   3   5
ENDBRANCH   2   3
ENDBRANCH   1   2
BRANCH   1  23
ATOM     23  C   UNL A   1      31.515  29.324  27.111  1.00  0.00       nan C 
BRANCH  23  24
ATOM     24  O   UNL A   1      32.423  30.121  26.326  1.00  0.00       nan OA
BRANCH  24  25
ATOM     25  C   UNL A   1      32.943  31.214  26.930  1.00  0.00       nan C 
ATOM     26  O   UNL A   1      32.394  32.283  27.130  1.00  0.00       inf OA
BRANCH  25  27
ATOM     27  C   UNL A   1      34.319  30.923  27.376  1.00  0.00       inf A 
ATOM     28  C   UNL A   1      34.744  29.604  27.449  1.00  0.00     0.016 A 
ATOM     29  C   UNL A   1      35.144  31.940  27.858  1.00  0.00     0.016 A 
ATOM     30  C   UNL A   1      35.932  29.300  28.112  1.00  0.00     0.010 A 
ATOM     31  C   UNL A   1      36.381  31.624  28.454  1.00  0.00     0.010 A 
ATOM     32  C   UNL A   1      36.762  30.288  28.665  1.00  0.00    -0.014 A 
BRANCH  32  33
ATOM     33  C   UNL A   1      37.909  29.902  29.563  1.00  0.00     0.031 A 
ATOM     34  C   UNL A   1      39.138  29.221  28.989  1.00  0.00     0.074 A 
ATOM     35  C   UNL A   1      37.955  30.267  30.866  1.00  0.00     0.049 A 
ATOM     36  N   UNL A   1      40.161  28.695  29.618  1.00  0.00    -0.248 NA
ATOM     37  C   UNL A   1      39.239  29.125  27.524  1.00  0.00     0.031 C 
ATOM     38  C   UNL A   1      36.918  31.008  31.580  1.00  0.00     0.029 A 
ATOM     39  N   UNL A   1      38.960  30.141  31.804  1.00  0.00    -0.354 N 
ATOM     40  C   UNL A   1      40.948  28.093  28.642  1.00  0.00     0.074 A 
ATOM     41  C   UNL A   1      40.323  28.377  27.370  1.00  0.00     0.031 C 
ATOM     42  C   UNL A   1      37.392  31.401  32.773  1.00  0.00     0.029 A 
ATOM     43  C   UNL A   1      38.714  30.818  32.978  1.00  0.00     0.049 A 
ATOM     44  H   UNL A   1      39.777  29.615  31.648  1.00  0.00     0.167 HD
ATOM     45  C   UNL A   1      42.069  27.346  28.795  1.00  0.00     0.037 A 
ATOM     46  C   UNL A   1      39.459  30.955  34.094  1.00  0.00     0.037 A 
ATOM     47  C   UNL A   1      42.767  27.158  30.041  1.00  0.00     0.049 A 
ATOM     48  C   UNL A   1      40.723  30.150  34.239  1.00  0.00     0.074 A 
ATOM     49  C   UNL A   1      43.872  26.364  30.304  1.00  0.00     0.029 A 
ATOM     50  N   UNL A   1      42.461  27.815  31.221  1.00  0.00    -0.354 N 
ATOM     51  N   UNL A   1      41.351  29.423  33.351  1.00  0.00    -0.248 NA
ATOM     52  C   UNL A   1      41.345  30.136  35.574  1.00  0.00     0.031 C 
ATOM     53  C   UNL A   1      44.213  26.516  31.653  1.00  0.00     0.029 A 
ATOM     54  C   UNL A   1      43.346  27.434  32.218  1.00  0.00     0.049 A 
ATOM     55  H   UNL A   1      41.725  28.458  31.334  1.00  0.00     0.167 HD
ATOM     56  C   UNL A   1      42.422  28.846  34.021  1.00  0.00     0.074 A 
ATOM     57  C   UNL A   1      42.397  29.356  35.375  1.00  0.00     0.031 C 
ATOM     58  C   UNL A   1      43.319  27.941  33.564  1.00  0.00     0.037 A 
BRANCH  45  59
ATOM     59  C   UNL A   1      42.570  26.588  27.600  1.00  0.00     0.064 A 
ATOM     60  C   UNL A   1      43.578  27.074  26.760  1.00  0.00     0.173 A 
ATOM     61  C   UNL A   1      42.049  25.311  27.332  1.00  0.00     0.173 A 
ATOM     62  F   UNL A   1      44.094  28.295  26.962  1.00  0.00    -0.203 F 
ATOM     63  C   UNL A   1      44.035  26.317  25.682  1.00  0.00     0.198 A 
ATOM     64  C   UNL A   1      42.526  24.546  26.272  1.00  0.00     0.198 A 
ATOM     65  F   UNL A   1      41.086  24.796  28.112  1.00  0.00    -0.203 F 
ATOM     66  F   UNL A   1      44.973  26.816  24.865  1.00  0.00    -0.200 F 
ATOM     67  C   UNL A   1      43.516  25.052  25.444  1.00  0.00     0.200 A 
ATOM     68  F   UNL A   1      42.030  23.321  26.054  1.00  0.00    -0.200 F 
ATOM     69  F   UNL A   1      43.964  24.323  24.413  1.00  0.00    -0.200 F 
ENDBRANCH  45  59
BRANCH  46  70
ATOM     70  C   UNL A   1      39.037  31.870  35.191  1.00  0.00     0.064 A 
ATOM     71  C   UNL A   1      39.387  33.230  35.147  1.00  0.00     0.173 A 
ATOM     72  C   UNL A   1      38.324  31.423  36.312  1.00  0.00     0.173 A 
ATOM     73  F   UNL A   1      40.102  33.703  34.115  1.00  0.00    -0.203 F 
ATOM     74  C   UNL A   1      39.050  34.098  36.185  1.00  0.00     0.198 A 
ATOM     75  C   UNL A   1      37.951  32.300  37.328  1.00  0.00     0.198 A 
ATOM     76  F   UNL A   1      37.980  30.131  36.416  1.00  0.00    -0.203 F 
ATOM     77  F   UNL A   1      39.450  35.376  36.143  1.00  0.00    -0.200 F 
ATOM     78  C   UNL A   1      38.323  33.634  37.270  1.00  0.00     0.200 A 
ATOM     79  F   UNL A   1      37.237  31.849  38.368  1.00  0.00    -0.200 F 
ATOM     80  F   UNL A   1      37.993  34.468  38.265  1.00  0.00    -0.200 F 
ENDBRANCH  46  70
BRANCH  58  81
ATOM     81  C   UNL A   1      44.334  27.418  34.538  1.00  0.00     0.064 A 
ATOM     82  C   UNL A   1      44.089  26.253  35.282  1.00  0.00     0.173 A 
ATOM     83  C   UNL A   1      45.574  28.051  34.698  1.00  0.00     0.173 A 
ATOM     84  F   UNL A   1      42.913  25.618  35.172  1.00  0.00    -0.203 F 
ATOM     85  C   UNL A   1      45.041  25.755  36.167  1.00  0.00     0.198 A 
ATOM     86  C   UNL A   1      46.533  27.536  35.566  1.00  0.00     0.198 A 
ATOM     87  F   UNL A   1      45.860  29.163  34.004  1.00  0.00    -0.203 F 
ATOM     88  F   UNL A   1      44.769  24.663  36.895  1.00  0.00    -0.200 F 
ATOM     89  C   UNL A   1      46.265  26.393  36.303  1.00  0.00     0.200 A 
ATOM     90  F   UNL A   1      47.720  28.147  35.690  1.00  0.00    -0.200 F 
ATOM     91  F   UNL A   1      47.182  25.909  37.152  1.00  0.00    -0.200 F 
ENDBRANCH  58  81
ENDBRANCH  32  33
ENDBRANCH  25  27
ENDBRANCH  24  25
ENDBRANCH  23  24
ENDBRANCH   1  23
TORSDOF 15
ENDMDL
