MODEL 1
REMARK VINA RESULT:     -13.3      0.000      0.000
REMARK SMILES Cc1ccc(F)c(C(=O)N[C@@H]2C=C[C@@H](C(=O)OCCOC(=O)c3ccc(-c4c5nc(c(-c6c(F)c(F)c(F)c(F)c6F)c6ccc([nH]6)c(-c6c(F)c(F)c(F)c(F)c6F)c6nc(c(-c7c(F)c(F)c(F)c(F)c7F)c7ccc4[nH]7)C=C6)C=C5)cc3)C2)c1
REMARK SMILES IDX 18 1 17 2 15 3 16 4 14 5 11 6 12 7 86 8 13 9 10 10 8 11 9 12
REMARK SMILES IDX 7 14 1 15 2 16 3 17 87 18 4 19 5 20 6 21 19 22 20 23 21 24
REMARK SMILES IDX 22 25 23 26 24 27 85 28 25 29 84 30 26 31 27 32 28 33 78 34
REMARK SMILES IDX 29 35 83 36 77 37 79 38 30 39 82 40 76 41 75 42 31 44 63 45
REMARK SMILES IDX 43 46 62 47 44 48 47 49 61 50 80 51 45 52 46 53 60 55 81 56
REMARK SMILES IDX 48 57 32 58 33 59 41 60 34 61 35 62 39 63 42 64 36 65 37 66
REMARK SMILES IDX 40 67 38 68 64 69 65 70 73 71 66 72 67 73 71 74 74 75 68 76
REMARK SMILES IDX 69 77 72 78 70 79 49 80 50 81 58 82 51 83 52 84 56 85 59 86
REMARK SMILES IDX 53 87 54 88 57 89 55 90
REMARK H PARENT 10 13 79 43 47 54
REMARK Flexibility Score: inf
ROOT
ATOM      1  C   UNL A   1      33.687  30.008  26.784  1.00  0.00     0.274 C 
ENDROOT
BRANCH   1   2
ATOM      2  O   UNL A   1      33.399  28.870  27.620  1.00  0.00    -0.462 OA
BRANCH   2   3
ATOM      3  C   UNL A   1      32.350  28.089  27.235  1.00  0.00     0.312 C 
ATOM      4  O   UNL A   1      31.403  27.808  27.965  1.00  0.00    -0.252 OA
BRANCH   3   5
ATOM      5  C   UNL A   1      32.429  27.625  25.776  1.00  0.00     0.124 C 
ATOM      6  C   UNL A   1      32.387  25.386  24.716  1.00  0.00     0.106 C 
ATOM      7  C   UNL A   1      31.058  26.067  24.676  1.00  0.00    -0.006 C 
ATOM      8  C   UNL A   1      33.285  26.388  25.449  1.00  0.00     0.048 C 
ATOM      9  C   UNL A   1      31.075  27.270  25.256  1.00  0.00    -0.014 C 
BRANCH   6  10
ATOM     10  N   UNL A   1      32.798  25.092  23.357  1.00  0.00    -0.346 N 
ATOM     11  C   UNL A   1      33.463  24.039  22.772  1.00  0.00     0.254 C 
ATOM     12  O   UNL A   1      33.547  24.062  21.543  1.00  0.00    -0.269 OA
ATOM     13  H   UNL A   1      32.547  25.795  22.716  1.00  0.00     0.164 HD
BRANCH  11  14
ATOM     14  C   UNL A   1      34.083  22.913  23.525  1.00  0.00     0.075 A 
ATOM     15  C   UNL A   1      37.477  21.685  24.711  1.00  0.00     0.044 C 
ATOM     16  C   UNL A   1      35.984  21.762  24.553  1.00  0.00    -0.050 A 
ATOM     17  C   UNL A   1      35.150  20.715  24.946  1.00  0.00     0.006 A 
ATOM     18  C   UNL A   1      35.429  22.874  23.899  1.00  0.00     0.020 A 
ATOM     19  C   UNL A   1      33.795  20.751  24.621  1.00  0.00     0.040 A 
ATOM     20  C   UNL A   1      33.277  21.829  23.899  1.00  0.00     0.135 A 
ATOM     21  F   UNL A   1      31.980  21.766  23.562  1.00  0.00    -0.206 F 
ENDBRANCH  11  14
ENDBRANCH   6  10
ENDBRANCH   3   5
ENDBRANCH   2   3
ENDBRANCH   1   2
BRANCH   1  22
ATOM     22  C   UNL A   1      33.999  31.245  27.630  1.00  0.00     0.275 C 
BRANCH  22  23
ATOM     23  O   UNL A   1      35.397  31.573  27.702  1.00  0.00    -0.458 OA
BRANCH  23  24
ATOM     24  C   UNL A   1      36.013  31.105  28.811  1.00  0.00     0.338 C 
ATOM     25  O   UNL A   1      36.075  31.653  29.895  1.00  0.00    -0.246 OA
BRANCH  24  26
ATOM     26  C   UNL A   1      36.897  29.973  28.535  1.00  0.00     0.060 A 
ATOM     27  C   UNL A   1      37.248  29.177  29.636  1.00  0.00     0.016 A 
ATOM     28  C   UNL A   1      37.645  29.961  27.357  1.00  0.00     0.016 A 
ATOM     29  C   UNL A   1      38.450  28.494  29.620  1.00  0.00     0.010 A 
ATOM     30  C   UNL A   1      38.845  29.278  27.345  1.00  0.00     0.010 A 
ATOM     31  C   UNL A   1      39.272  28.607  28.497  1.00  0.00    -0.014 A 
BRANCH  31  32
ATOM     32  C   UNL A   1      40.578  27.974  28.467  1.00  0.00     0.031 A 
ATOM     33  C   UNL A   1      40.636  26.511  28.324  1.00  0.00     0.074 A 
ATOM     34  C   UNL A   1      41.713  28.671  28.683  1.00  0.00     0.049 A 
ATOM     35  N   UNL A   1      41.505  25.751  28.902  1.00  0.00    -0.248 NA
ATOM     36  C   UNL A   1      39.625  25.780  27.572  1.00  0.00     0.031 C 
ATOM     37  C   UNL A   1      43.079  28.182  28.548  1.00  0.00     0.029 A 
ATOM     38  N   UNL A   1      41.849  29.911  29.321  1.00  0.00    -0.354 N 
ATOM     39  C   UNL A   1      41.394  24.513  28.315  1.00  0.00     0.074 A 
ATOM     40  C   UNL A   1      40.117  24.540  27.639  1.00  0.00     0.031 C 
ATOM     41  C   UNL A   1      43.879  28.910  29.343  1.00  0.00     0.029 A 
ATOM     42  C   UNL A   1      43.029  29.807  30.100  1.00  0.00     0.049 A 
ATOM     43  H   UNL A   1      41.251  30.690  29.244  1.00  0.00     0.167 HD
ATOM     44  C   UNL A   1      42.494  23.704  28.275  1.00  0.00     0.037 A 
ATOM     45  C   UNL A   1      43.031  29.958  31.460  1.00  0.00     0.037 A 
ATOM     46  C   UNL A   1      43.603  24.281  29.035  1.00  0.00     0.049 A 
ATOM     47  C   UNL A   1      43.665  28.821  32.209  1.00  0.00     0.074 A 
ATOM     48  C   UNL A   1      44.724  24.997  28.639  1.00  0.00     0.029 A 
ATOM     49  N   UNL A   1      43.510  24.429  30.414  1.00  0.00    -0.354 N 
ATOM     50  N   UNL A   1      43.790  27.629  31.706  1.00  0.00    -0.248 NA
ATOM     51  C   UNL A   1      44.175  28.911  33.574  1.00  0.00     0.031 C 
ATOM     52  C   UNL A   1      45.310  25.576  29.786  1.00  0.00     0.029 A 
ATOM     53  C   UNL A   1      44.545  25.216  30.880  1.00  0.00     0.049 A 
ATOM     54  H   UNL A   1      42.808  24.029  30.977  1.00  0.00     0.167 HD
ATOM     55  C   UNL A   1      44.410  26.810  32.615  1.00  0.00     0.074 A 
ATOM     56  C   UNL A   1      44.628  27.659  33.771  1.00  0.00     0.031 C 
ATOM     57  C   UNL A   1      44.692  25.512  32.296  1.00  0.00     0.037 A 
BRANCH  44  58
ATOM     58  C   UNL A   1      42.691  22.635  27.212  1.00  0.00     0.064 A 
ATOM     59  C   UNL A   1      42.049  21.381  27.328  1.00  0.00     0.173 A 
ATOM     60  C   UNL A   1      43.574  22.735  26.123  1.00  0.00     0.173 A 
ATOM     61  F   UNL A   1      41.056  21.174  28.199  1.00  0.00    -0.203 F 
ATOM     62  C   UNL A   1      42.397  20.281  26.541  1.00  0.00     0.198 A 
ATOM     63  C   UNL A   1      43.958  21.625  25.363  1.00  0.00     0.198 A 
ATOM     64  F   UNL A   1      44.047  23.917  25.716  1.00  0.00    -0.203 F 
ATOM     65  F   UNL A   1      41.776  19.107  26.731  1.00  0.00    -0.200 F 
ATOM     66  C   UNL A   1      43.386  20.391  25.589  1.00  0.00     0.200 A 
ATOM     67  F   UNL A   1      44.889  21.764  24.409  1.00  0.00    -0.200 F 
ATOM     68  F   UNL A   1      43.758  19.325  24.868  1.00  0.00    -0.200 F 
ENDBRANCH  44  58
BRANCH  45  69
ATOM     69  C   UNL A   1      41.866  30.749  31.929  1.00  0.00     0.064 A 
ATOM     70  C   UNL A   1      40.820  30.021  32.525  1.00  0.00     0.173 A 
ATOM     71  C   UNL A   1      42.054  32.080  32.322  1.00  0.00     0.173 A 
ATOM     72  F   UNL A   1      40.576  28.758  32.140  1.00  0.00    -0.203 F 
ATOM     73  C   UNL A   1      40.171  30.516  33.648  1.00  0.00     0.198 A 
ATOM     74  C   UNL A   1      41.367  32.587  33.423  1.00  0.00     0.198 A 
ATOM     75  F   UNL A   1      42.992  32.836  31.735  1.00  0.00    -0.203 F 
ATOM     76  F   UNL A   1      39.294  29.747  34.309  1.00  0.00    -0.200 F 
ATOM     77  C   UNL A   1      40.491  31.775  34.129  1.00  0.00     0.200 A 
ATOM     78  F   UNL A   1      41.597  33.841  33.835  1.00  0.00    -0.200 F 
ATOM     79  F   UNL A   1      39.940  32.201  35.272  1.00  0.00    -0.200 F 
ENDBRANCH  45  69
BRANCH  57  80
ATOM     80  C   UNL A   1      45.250  24.431  33.192  1.00  0.00     0.064 A 
ATOM     81  C   UNL A   1      44.580  23.244  33.523  1.00  0.00     0.173 A 
ATOM     82  C   UNL A   1      46.587  24.521  33.663  1.00  0.00     0.173 A 
ATOM     83  F   UNL A   1      43.356  22.979  33.052  1.00  0.00    -0.203 F 
ATOM     84  C   UNL A   1      45.176  22.253  34.313  1.00  0.00     0.198 A 
ATOM     85  C   UNL A   1      47.196  23.509  34.402  1.00  0.00     0.198 A 
ATOM     86  F   UNL A   1      47.358  25.587  33.404  1.00  0.00    -0.203 F 
ATOM     87  F   UNL A   1      44.479  21.155  34.635  1.00  0.00    -0.200 F 
ATOM     88  C   UNL A   1      46.485  22.381  34.742  1.00  0.00     0.200 A 
ATOM     89  F   UNL A   1      48.480  23.633  34.765  1.00  0.00    -0.200 F 
ATOM     90  F   UNL A   1      47.063  21.411  35.461  1.00  0.00    -0.200 F 
ENDBRANCH  57  80
ENDBRANCH  31  32
ENDBRANCH  24  26
ENDBRANCH  23  24
ENDBRANCH  22  23
ENDBRANCH   1  22
TORSDOF 13
ENDMDL
MODEL 2
REMARK VINA RESULT:     -13.0      4.091     10.114
REMARK SMILES Cc1ccc(F)c(C(=O)N[C@@H]2C=C[C@@H](C(=O)OCCOC(=O)c3ccc(-c4c5nc(c(-c6c(F)c(F)c(F)c(F)c6F)c6ccc([nH]6)c(-c6c(F)c(F)c(F)c(F)c6F)c6nc(c(-c7c(F)c(F)c(F)c(F)c7F)c7ccc4[nH]7)C=C6)C=C5)cc3)C2)c1
REMARK SMILES IDX 18 1 17 2 15 3 16 4 14 5 11 6 12 7 86 8 13 9 10 10 8 11 9 12
REMARK SMILES IDX 7 14 1 15 2 16 3 17 87 18 4 19 5 20 6 21 19 22 20 23 21 24
REMARK SMILES IDX 22 25 23 26 24 27 85 28 25 29 84 30 26 31 27 32 28 33 78 34
REMARK SMILES IDX 29 35 83 36 77 37 79 38 30 39 82 40 76 41 75 42 31 44 63 45
REMARK SMILES IDX 43 46 62 47 44 48 47 49 61 50 80 51 45 52 46 53 60 55 81 56
REMARK SMILES IDX 48 57 32 58 33 59 41 60 34 61 35 62 39 63 42 64 36 65 37 66
REMARK SMILES IDX 40 67 38 68 64 69 65 70 73 71 66 72 67 73 71 74 74 75 68 76
REMARK SMILES IDX 69 77 72 78 70 79 49 80 50 81 58 82 51 83 52 84 56 85 59 86
REMARK SMILES IDX 53 87 54 88 57 89 55 90
REMARK H PARENT 10 13 79 43 47 54
REMARK Flexibility Score: inf
ROOT
ATOM      1  C   UNL A   1      39.650  20.860  26.178  1.00  0.00     0.274 C 
ENDROOT
BRANCH   1   2
ATOM      2  O   UNL A   1      38.390  21.556  26.101  1.00  0.00    -0.462 OA
BRANCH   2   3
ATOM      3  C   UNL A   1      37.566  21.202  25.076  1.00  0.00     0.312 C 
ATOM      4  O   UNL A   1      37.258  20.042  24.815  1.00  0.00    -0.252 OA
BRANCH   3   5
ATOM      5  C   UNL A   1      37.007  22.396  24.292  1.00  0.00     0.124 C 
ATOM      6  C   UNL A   1      34.827  23.570  24.342  1.00  0.00     0.106 C 
ATOM      7  C   UNL A   1      35.879  24.277  25.132  1.00  0.00    -0.006 C 
ATOM      8  C   UNL A   1      35.549  22.331  23.805  1.00  0.00     0.048 C 
ATOM      9  C   UNL A   1      37.053  23.641  25.116  1.00  0.00    -0.014 C 
BRANCH   6  10
ATOM     10  N   UNL A   1      34.334  24.470  23.318  1.00  0.00    -0.346 N 
ATOM     11  C   UNL A   1      33.648  25.663  23.350  1.00  0.00     0.254 C 
ATOM     12  O   UNL A   1      33.485  26.228  22.267  1.00  0.00    -0.269 OA
ATOM     13  H   UNL A   1      34.532  24.163  22.404  1.00  0.00     0.164 HD
BRANCH  11  14
ATOM     14  C   UNL A   1      33.094  26.282  24.587  1.00  0.00     0.075 A 
ATOM     15  C   UNL A   1      34.003  28.817  27.267  1.00  0.00     0.044 C 
ATOM     16  C   UNL A   1      33.177  27.849  26.467  1.00  0.00    -0.050 A 
ATOM     17  C   UNL A   1      31.954  27.367  26.935  1.00  0.00     0.006 A 
ATOM     18  C   UNL A   1      33.703  27.340  25.268  1.00  0.00     0.020 A 
ATOM     19  C   UNL A   1      31.308  26.340  26.249  1.00  0.00     0.040 A 
ATOM     20  C   UNL A   1      31.886  25.792  25.102  1.00  0.00     0.135 A 
ATOM     21  F   UNL A   1      31.244  24.761  24.531  1.00  0.00    -0.206 F 
ENDBRANCH  11  14
ENDBRANCH   6  10
ENDBRANCH   3   5
ENDBRANCH   2   3
ENDBRANCH   1   2
BRANCH   1  22
ATOM     22  C   UNL A   1      40.664  21.651  27.007  1.00  0.00     0.275 C 
BRANCH  22  23
ATOM     23  O   UNL A   1      40.163  22.898  27.519  1.00  0.00    -0.458 OA
BRANCH  23  24
ATOM     24  C   UNL A   1      40.641  23.987  26.874  1.00  0.00     0.338 C 
ATOM     25  O   UNL A   1      41.644  24.046  26.188  1.00  0.00    -0.246 OA
BRANCH  24  26
ATOM     26  C   UNL A   1      40.006  25.230  27.311  1.00  0.00     0.060 A 
ATOM     27  C   UNL A   1      40.462  26.408  26.699  1.00  0.00     0.016 A 
ATOM     28  C   UNL A   1      39.316  25.256  28.523  1.00  0.00     0.016 A 
ATOM     29  C   UNL A   1      40.377  27.603  27.390  1.00  0.00     0.010 A 
ATOM     30  C   UNL A   1      39.234  26.451  29.210  1.00  0.00     0.010 A 
ATOM     31  C   UNL A   1      39.824  27.601  28.672  1.00  0.00    -0.014 A 
BRANCH  31  32
ATOM     32  C   UNL A   1      39.788  28.816  29.466  1.00  0.00     0.031 A 
ATOM     33  C   UNL A   1      38.826  29.863  29.087  1.00  0.00     0.074 A 
ATOM     34  C   UNL A   1      40.681  29.051  30.450  1.00  0.00     0.049 A 
ATOM     35  N   UNL A   1      39.051  31.131  29.170  1.00  0.00    -0.248 NA
ATOM     36  C   UNL A   1      37.543  29.533  28.481  1.00  0.00     0.031 C 
ATOM     37  C   UNL A   1      40.668  30.159  31.396  1.00  0.00     0.029 A 
ATOM     38  N   UNL A   1      41.937  28.457  30.626  1.00  0.00    -0.354 N 
ATOM     39  C   UNL A   1      37.841  31.757  28.984  1.00  0.00     0.074 A 
ATOM     40  C   UNL A   1      36.993  30.747  28.394  1.00  0.00     0.031 C 
ATOM     41  C   UNL A   1      41.922  30.383  31.817  1.00  0.00     0.029 A 
ATOM     42  C   UNL A   1      42.791  29.503  31.061  1.00  0.00     0.049 A 
ATOM     43  H   UNL A   1      42.177  27.513  30.481  1.00  0.00     0.167 HD
ATOM     44  C   UNL A   1      37.635  32.975  29.567  1.00  0.00     0.037 A 
ATOM     45  C   UNL A   1      43.907  29.881  30.366  1.00  0.00     0.037 A 
ATOM     46  C   UNL A   1      38.861  33.477  30.191  1.00  0.00     0.049 A 
ATOM     47  C   UNL A   1      43.972  31.346  30.046  1.00  0.00     0.074 A 
ATOM     48  C   UNL A   1      39.299  33.472  31.507  1.00  0.00     0.029 A 
ATOM     49  N   UNL A   1      39.962  33.808  29.411  1.00  0.00    -0.354 N 
ATOM     50  N   UNL A   1      42.918  32.107  30.010  1.00  0.00    -0.248 NA
ATOM     51  C   UNL A   1      45.197  32.068  29.714  1.00  0.00     0.031 C 
ATOM     52  C   UNL A   1      40.671  33.803  31.520  1.00  0.00     0.029 A 
ATOM     53  C   UNL A   1      41.070  34.008  30.212  1.00  0.00     0.049 A 
ATOM     54  H   UNL A   1      39.955  33.889  28.430  1.00  0.00     0.167 HD
ATOM     55  C   UNL A   1      43.289  33.391  29.701  1.00  0.00     0.074 A 
ATOM     56  C   UNL A   1      44.727  33.315  29.522  1.00  0.00     0.031 C 
ATOM     57  C   UNL A   1      42.355  34.386  29.647  1.00  0.00     0.037 A 
BRANCH  44  58
ATOM     58  C   UNL A   1      36.253  33.488  29.936  1.00  0.00     0.064 A 
ATOM     59  C   UNL A   1      35.402  34.032  28.946  1.00  0.00     0.173 A 
ATOM     60  C   UNL A   1      35.749  33.575  31.245  1.00  0.00     0.173 A 
ATOM     61  F   UNL A   1      35.648  33.878  27.641  1.00  0.00    -0.203 F 
ATOM     62  C   UNL A   1      34.249  34.755  29.260  1.00  0.00     0.198 A 
ATOM     63  C   UNL A   1      34.619  34.336  31.565  1.00  0.00     0.198 A 
ATOM     64  F   UNL A   1      36.292  32.879  32.248  1.00  0.00    -0.203 F 
ATOM     65  F   UNL A   1      33.507  35.280  28.273  1.00  0.00    -0.200 F 
ATOM     66  C   UNL A   1      33.883  34.948  30.573  1.00  0.00     0.200 A 
ATOM     67  F   UNL A   1      34.254  34.472  32.848  1.00  0.00    -0.200 F 
ATOM     68  F   UNL A   1      32.806  35.683  30.878  1.00  0.00    -0.200 F 
ENDBRANCH  44  58
BRANCH  45  69
ATOM     69  C   UNL A   1      44.408  28.790  29.491  1.00  0.00     0.064 A 
ATOM     70  C   UNL A   1      44.154  28.932  28.115  1.00  0.00     0.173 A 
ATOM     71  C   UNL A   1      45.535  28.058  29.885  1.00  0.00     0.173 A 
ATOM     72  F   UNL A   1      43.058  29.585  27.697  1.00  0.00    -0.203 F 
ATOM     73  C   UNL A   1      45.125  28.589  27.183  1.00  0.00     0.198 A 
ATOM     74  C   UNL A   1      46.485  27.676  28.941  1.00  0.00     0.198 A 
ATOM     75  F   UNL A   1      45.781  27.837  31.184  1.00  0.00    -0.203 F 
ATOM     76  F   UNL A   1      44.945  28.881  25.887  1.00  0.00    -0.200 F 
ATOM     77  C   UNL A   1      46.314  28.016  27.607  1.00  0.00     0.200 A 
ATOM     78  F   UNL A   1      47.593  27.031  29.331  1.00  0.00    -0.200 F 
ATOM     79  F   UNL A   1      47.287  27.788  26.716  1.00  0.00    -0.200 F 
ENDBRANCH  45  69
BRANCH  57  80
ATOM     80  C   UNL A   1      42.543  35.819  29.208  1.00  0.00     0.064 A 
ATOM     81  C   UNL A   1      41.932  36.397  28.085  1.00  0.00     0.173 A 
ATOM     82  C   UNL A   1      43.287  36.717  30.018  1.00  0.00     0.173 A 
ATOM     83  F   UNL A   1      41.112  35.693  27.296  1.00  0.00    -0.203 F 
ATOM     84  C   UNL A   1      42.101  37.750  27.765  1.00  0.00     0.198 A 
ATOM     85  C   UNL A   1      43.409  38.074  29.727  1.00  0.00     0.198 A 
ATOM     86  F   UNL A   1      43.907  36.313  31.136  1.00  0.00    -0.203 F 
ATOM     87  F   UNL A   1      41.529  38.245  26.658  1.00  0.00    -0.200 F 
ATOM     88  C   UNL A   1      42.828  38.588  28.589  1.00  0.00     0.200 A 
ATOM     89  F   UNL A   1      44.077  38.877  30.567  1.00  0.00    -0.200 F 
ATOM     90  F   UNL A   1      42.951  39.890  28.300  1.00  0.00    -0.200 F 
ENDBRANCH  57  80
ENDBRANCH  31  32
ENDBRANCH  24  26
ENDBRANCH  23  24
ENDBRANCH  22  23
ENDBRANCH   1  22
TORSDOF 13
ENDMDL
MODEL 3
REMARK VINA RESULT:     -12.9      3.972     10.080
REMARK SMILES Cc1ccc(F)c(C(=O)N[C@@H]2C=C[C@@H](C(=O)OCCOC(=O)c3ccc(-c4c5nc(c(-c6c(F)c(F)c(F)c(F)c6F)c6ccc([nH]6)c(-c6c(F)c(F)c(F)c(F)c6F)c6nc(c(-c7c(F)c(F)c(F)c(F)c7F)c7ccc4[nH]7)C=C6)C=C5)cc3)C2)c1
REMARK SMILES IDX 18 1 17 2 15 3 16 4 14 5 11 6 12 7 86 8 13 9 10 10 8 11 9 12
REMARK SMILES IDX 7 14 1 15 2 16 3 17 87 18 4 19 5 20 6 21 19 22 20 23 21 24
REMARK SMILES IDX 22 25 23 26 24 27 85 28 25 29 84 30 26 31 27 32 28 33 78 34
REMARK SMILES IDX 29 35 83 36 77 37 79 38 30 39 82 40 76 41 75 42 31 44 63 45
REMARK SMILES IDX 43 46 62 47 44 48 47 49 61 50 80 51 45 52 46 53 60 55 81 56
REMARK SMILES IDX 48 57 32 58 33 59 41 60 34 61 35 62 39 63 42 64 36 65 37 66
REMARK SMILES IDX 40 67 38 68 64 69 65 70 73 71 66 72 67 73 71 74 74 75 68 76
REMARK SMILES IDX 69 77 72 78 70 79 49 80 50 81 58 82 51 83 52 84 56 85 59 86
REMARK SMILES IDX 53 87 54 88 57 89 55 90
REMARK H PARENT 10 13 79 43 47 54
REMARK Flexibility Score: inf
ROOT
ATOM      1  C   UNL A   1      37.876  22.613  25.728  1.00  0.00     0.274 C 
ENDROOT
BRANCH   1   2
ATOM      2  O   UNL A   1      37.376  21.933  24.560  1.00  0.00    -0.462 OA
BRANCH   2   3
ATOM      3  C   UNL A   1      36.406  22.578  23.855  1.00  0.00     0.312 C 
ATOM      4  O   UNL A   1      36.587  23.091  22.754  1.00  0.00    -0.252 OA
BRANCH   3   5
ATOM      5  C   UNL A   1      35.034  22.568  24.541  1.00  0.00     0.124 C 
ATOM      6  C   UNL A   1      33.199  24.227  24.664  1.00  0.00     0.106 C 
ATOM      7  C   UNL A   1      32.956  23.176  23.632  1.00  0.00    -0.006 C 
ATOM      8  C   UNL A   1      34.563  23.850  25.250  1.00  0.00     0.048 C 
ATOM      9  C   UNL A   1      33.949  22.285  23.555  1.00  0.00    -0.014 C 
BRANCH   6  10
ATOM     10  N   UNL A   1      32.107  24.203  25.616  1.00  0.00    -0.346 N 
ATOM     11  C   UNL A   1      31.229  25.156  26.081  1.00  0.00     0.254 C 
ATOM     12  O   UNL A   1      30.331  24.754  26.823  1.00  0.00    -0.269 OA
ATOM     13  H   UNL A   1      31.961  23.316  26.016  1.00  0.00     0.164 HD
BRANCH  11  14
ATOM     14  C   UNL A   1      31.315  26.608  25.758  1.00  0.00     0.075 A 
ATOM     15  C   UNL A   1      32.594  29.874  27.217  1.00  0.00     0.044 C 
ATOM     16  C   UNL A   1      32.020  28.907  26.220  1.00  0.00    -0.050 A 
ATOM     17  C   UNL A   1      31.399  29.343  25.048  1.00  0.00     0.006 A 
ATOM     18  C   UNL A   1      32.020  27.537  26.529  1.00  0.00     0.020 A 
ATOM     19  C   UNL A   1      30.726  28.427  24.241  1.00  0.00     0.040 A 
ATOM     20  C   UNL A   1      30.669  27.080  24.607  1.00  0.00     0.135 A 
ATOM     21  F   UNL A   1      29.947  26.268  23.821  1.00  0.00    -0.206 F 
ENDBRANCH  11  14
ENDBRANCH   6  10
ENDBRANCH   3   5
ENDBRANCH   2   3
ENDBRANCH   1   2
BRANCH   1  22
ATOM     22  C   UNL A   1      39.248  22.069  26.135  1.00  0.00     0.275 C 
BRANCH  22  23
ATOM     23  O   UNL A   1      39.869  22.785  27.216  1.00  0.00    -0.458 OA
BRANCH  23  24
ATOM     24  C   UNL A   1      40.550  23.885  26.826  1.00  0.00     0.338 C 
ATOM     25  O   UNL A   1      41.683  23.923  26.383  1.00  0.00    -0.246 OA
BRANCH  24  26
ATOM     26  C   UNL A   1      39.917  25.130  27.261  1.00  0.00     0.060 A 
ATOM     27  C   UNL A   1      40.417  26.312  26.695  1.00  0.00     0.016 A 
ATOM     28  C   UNL A   1      39.176  25.142  28.443  1.00  0.00     0.016 A 
ATOM     29  C   UNL A   1      40.322  27.494  27.406  1.00  0.00     0.010 A 
ATOM     30  C   UNL A   1      39.084  26.325  29.151  1.00  0.00     0.010 A 
ATOM     31  C   UNL A   1      39.714  27.475  28.663  1.00  0.00    -0.014 A 
BRANCH  31  32
ATOM     32  C   UNL A   1      39.663  28.674  29.481  1.00  0.00     0.031 A 
ATOM     33  C   UNL A   1      38.725  29.738  29.092  1.00  0.00     0.074 A 
ATOM     34  C   UNL A   1      40.525  28.879  30.499  1.00  0.00     0.049 A 
ATOM     35  N   UNL A   1      38.960  31.002  29.209  1.00  0.00    -0.248 NA
ATOM     36  C   UNL A   1      37.460  29.434  28.436  1.00  0.00     0.031 C 
ATOM     37  C   UNL A   1      40.491  29.968  31.467  1.00  0.00     0.029 A 
ATOM     38  N   UNL A   1      41.769  28.269  30.705  1.00  0.00    -0.354 N 
ATOM     39  C   UNL A   1      37.763  31.644  28.996  1.00  0.00     0.074 A 
ATOM     40  C   UNL A   1      36.925  30.656  28.356  1.00  0.00     0.031 C 
ATOM     41  C   UNL A   1      41.733  30.169  31.934  1.00  0.00     0.029 A 
ATOM     42  C   UNL A   1      42.618  29.296  31.189  1.00  0.00     0.049 A 
ATOM     43  H   UNL A   1      42.004  27.325  30.548  1.00  0.00     0.167 HD
ATOM     44  C   UNL A   1      37.549  32.852  29.596  1.00  0.00     0.037 A 
ATOM     45  C   UNL A   1      43.760  29.676  30.540  1.00  0.00     0.037 A 
ATOM     46  C   UNL A   1      38.758  33.328  30.271  1.00  0.00     0.049 A 
ATOM     47  C   UNL A   1      43.850  31.147  30.253  1.00  0.00     0.074 A 
ATOM     48  C   UNL A   1      39.152  33.292  31.601  1.00  0.00     0.029 A 
ATOM     49  N   UNL A   1      39.889  33.664  29.536  1.00  0.00    -0.354 N 
ATOM     50  N   UNL A   1      42.806  31.920  30.198  1.00  0.00    -0.248 NA
ATOM     51  C   UNL A   1      45.092  31.863  29.977  1.00  0.00     0.031 C 
ATOM     52  C   UNL A   1      40.526  33.608  31.667  1.00  0.00     0.029 A 
ATOM     53  C   UNL A   1      40.971  33.836  30.378  1.00  0.00     0.049 A 
ATOM     54  H   UNL A   1      39.915  33.765  28.557  1.00  0.00     0.167 HD
ATOM     55  C   UNL A   1      43.199  33.206  29.928  1.00  0.00     0.074 A 
ATOM     56  C   UNL A   1      44.641  33.118  29.795  1.00  0.00     0.031 C 
ATOM     57  C   UNL A   1      42.277  34.212  29.863  1.00  0.00     0.037 A 
BRANCH  44  58
ATOM     58  C   UNL A   1      36.161  33.372  29.929  1.00  0.00     0.064 A 
ATOM     59  C   UNL A   1      35.351  33.951  28.925  1.00  0.00     0.173 A 
ATOM     60  C   UNL A   1      35.612  33.432  31.222  1.00  0.00     0.173 A 
ATOM     61  F   UNL A   1      35.642  33.827  27.625  1.00  0.00    -0.203 F 
ATOM     62  C   UNL A   1      34.196  34.679  29.216  1.00  0.00     0.198 A 
ATOM     63  C   UNL A   1      34.480  34.198  31.522  1.00  0.00     0.198 A 
ATOM     64  F   UNL A   1      36.111  32.704  32.226  1.00  0.00    -0.203 F 
ATOM     65  F   UNL A   1      33.495  35.237  28.218  1.00  0.00    -0.200 F 
ATOM     66  C   UNL A   1      33.785  34.843  30.520  1.00  0.00     0.200 A 
ATOM     67  F   UNL A   1      34.070  34.306  32.793  1.00  0.00    -0.200 F 
ATOM     68  F   UNL A   1      32.706  35.583  30.806  1.00  0.00    -0.200 F 
ENDBRANCH  44  58
BRANCH  45  69
ATOM     69  C   UNL A   1      44.279  28.599  29.660  1.00  0.00     0.064 A 
ATOM     70  C   UNL A   1      44.053  28.760  28.281  1.00  0.00     0.173 A 
ATOM     71  C   UNL A   1      45.399  27.862  30.066  1.00  0.00     0.173 A 
ATOM     72  F   UNL A   1      42.964  29.418  27.850  1.00  0.00    -0.203 F 
ATOM     73  C   UNL A   1      45.043  28.431  27.364  1.00  0.00     0.198 A 
ATOM     74  C   UNL A   1      46.368  27.494  29.136  1.00  0.00     0.198 A 
ATOM     75  F   UNL A   1      45.620  27.623  31.366  1.00  0.00    -0.203 F 
ATOM     76  F   UNL A   1      44.887  28.741  26.069  1.00  0.00    -0.200 F 
ATOM     77  C   UNL A   1      46.223  27.853  27.803  1.00  0.00     0.200 A 
ATOM     78  F   UNL A   1      47.469  26.845  29.538  1.00  0.00    -0.200 F 
ATOM     79  F   UNL A   1      47.214  27.638  26.929  1.00  0.00    -0.200 F 
ENDBRANCH  45  69
BRANCH  57  80
ATOM     80  C   UNL A   1      42.494  35.652  29.461  1.00  0.00     0.064 A 
ATOM     81  C   UNL A   1      43.242  36.583  30.196  1.00  0.00     0.173 A 
ATOM     82  C   UNL A   1      42.027  36.113  28.202  1.00  0.00     0.173 A 
ATOM     83  F   UNL A   1      43.836  36.247  31.348  1.00  0.00    -0.203 F 
ATOM     84  C   UNL A   1      43.455  37.888  29.738  1.00  0.00     0.198 A 
ATOM     85  C   UNL A   1      42.286  37.396  27.724  1.00  0.00     0.198 A 
ATOM     86  F   UNL A   1      41.318  35.327  27.379  1.00  0.00    -0.203 F 
ATOM     87  F   UNL A   1      44.143  38.752  30.497  1.00  0.00    -0.200 F 
ATOM     88  C   UNL A   1      42.988  38.291  28.501  1.00  0.00     0.200 A 
ATOM     89  F   UNL A   1      41.866  37.747  26.501  1.00  0.00    -0.200 F 
ATOM     90  F   UNL A   1      43.230  39.528  28.050  1.00  0.00    -0.200 F 
ENDBRANCH  57  80
ENDBRANCH  31  32
ENDBRANCH  24  26
ENDBRANCH  23  24
ENDBRANCH  22  23
ENDBRANCH   1  22
TORSDOF 13
ENDMDL
