MODEL 1
REMARK VINA RESULT:     -12.6      0.000      0.000
REMARK SMILES O=C(OCCOC(=O)[C@H]1[C@@H](C(=O)Nc2ccccc2-c2ccccc2)[C@@H]2C=C[C@H]1O2)c1ccc(-c2c3nc(c(-c4c(F)c(F)c(F)c(F)c4F)c4ccc([nH]4)c(-c4c(F)c(F)c(F)c(F)c4F)c4nc(c(-c5c(F)c(F)c(F)c(F)c5F)c5ccc2[nH]5)C=C4)C=C3)cc1
REMARK SMILES IDX 5 1 4 2 3 3 2 4 1 5 31 6 32 7 93 8 33 9 92 10 34 11 35 12
REMARK SMILES IDX 36 13 86 14 37 15 91 16 85 17 87 18 38 19 90 20 84 21 83 22
REMARK SMILES IDX 39 24 71 25 51 26 70 27 52 28 55 29 69 30 88 31 53 32 54 33
REMARK SMILES IDX 68 35 89 36 56 37 40 38 41 39 49 40 42 41 43 42 47 43 50 44
REMARK SMILES IDX 44 45 45 46 48 47 46 48 72 49 73 50 81 51 74 52 75 53 79 54
REMARK SMILES IDX 82 55 76 56 77 57 80 58 78 59 57 60 58 61 66 62 59 63 60 64
REMARK SMILES IDX 64 65 67 66 61 67 62 68 65 69 63 70 6 71 7 72 8 73 9 74
REMARK SMILES IDX 10 75 29 76 26 77 28 78 30 79 27 80 11 81 12 82 13 83 14 85
REMARK SMILES IDX 15 86 19 87 16 88 18 89 17 90 20 91 21 92 25 93 22 94 24 95
REMARK SMILES IDX 23 96
REMARK H PARENT 87 23 55 34 13 84
REMARK Flexibility Score: inf
ROOT
ATOM      1  C   UNL A   1      31.771  28.714  26.558  1.00  0.00     0.274 C 
ENDROOT
BRANCH   1   2
ATOM      2  C   UNL A   1      31.689  30.239  26.664  1.00  0.00     0.275 C 
BRANCH   2   3
ATOM      3  O   UNL A   1      32.941  30.919  26.483  1.00  0.00    -0.458 OA
BRANCH   3   4
ATOM      4  C   UNL A   1      33.652  31.660  27.367  1.00  0.00     0.338 C 
ATOM      5  O   UNL A   1      33.220  32.768  27.688  1.00  0.00    -0.246 OA
BRANCH   4   6
ATOM      6  C   UNL A   1      35.001  31.264  27.888  1.00  0.00     0.060 A 
ATOM      7  C   UNL A   1      36.123  32.092  28.032  1.00  0.00     0.016 A 
ATOM      8  C   UNL A   1      35.116  29.935  28.326  1.00  0.00     0.016 A 
ATOM      9  C   UNL A   1      37.268  31.661  28.724  1.00  0.00     0.010 A 
ATOM     10  C   UNL A   1      36.242  29.507  29.039  1.00  0.00     0.010 A 
ATOM     11  C   UNL A   1      37.322  30.380  29.272  1.00  0.00    -0.014 A 
BRANCH  11  12
ATOM     12  C   UNL A   1      38.541  29.880  29.957  1.00  0.00     0.031 A 
ATOM     13  C   UNL A   1      38.822  30.441  31.318  1.00  0.00     0.074 A 
ATOM     14  C   UNL A   1      39.393  28.992  29.400  1.00  0.00     0.049 A 
ATOM     15  N   UNL A   1      39.835  30.235  32.115  1.00  0.00    -0.248 NA
ATOM     16  C   UNL A   1      37.829  31.399  31.836  1.00  0.00     0.031 C 
ATOM     17  C   UNL A   1      39.253  28.366  28.085  1.00  0.00     0.029 A 
ATOM     18  N   UNL A   1      40.576  28.472  29.880  1.00  0.00    -0.354 N 
ATOM     19  C   UNL A   1      39.584  31.028  33.224  1.00  0.00     0.074 A 
ATOM     20  C   UNL A   1      38.425  31.835  32.929  1.00  0.00     0.031 C 
ATOM     21  C   UNL A   1      40.316  27.570  27.856  1.00  0.00     0.029 A 
ATOM     22  C   UNL A   1      41.221  27.635  28.999  1.00  0.00     0.049 A 
ATOM     23  H   UNL A   1      40.928  28.682  30.775  1.00  0.00     0.167 HD
ATOM     24  C   UNL A   1      40.198  31.021  34.427  1.00  0.00     0.037 A 
ATOM     25  C   UNL A   1      42.406  26.997  29.110  1.00  0.00     0.037 A 
ATOM     26  C   UNL A   1      41.335  30.208  34.729  1.00  0.00     0.049 A 
ATOM     27  C   UNL A   1      43.160  27.089  30.417  1.00  0.00     0.074 A 
ATOM     28  C   UNL A   1      42.024  30.090  35.920  1.00  0.00     0.029 A 
ATOM     29  N   UNL A   1      41.958  29.375  33.812  1.00  0.00    -0.354 N 
ATOM     30  N   UNL A   1      42.846  27.751  31.506  1.00  0.00    -0.248 NA
ATOM     31  C   UNL A   1      44.406  26.317  30.528  1.00  0.00     0.031 C 
ATOM     32  C   UNL A   1      43.097  29.219  35.708  1.00  0.00     0.029 A 
ATOM     33  C   UNL A   1      43.043  28.756  34.401  1.00  0.00     0.049 A 
ATOM     34  H   UNL A   1      41.670  29.245  32.879  1.00  0.00     0.167 HD
ATOM     35  C   UNL A   1      43.815  27.425  32.447  1.00  0.00     0.074 A 
ATOM     36  C   UNL A   1      44.737  26.518  31.797  1.00  0.00     0.031 C 
ATOM     37  C   UNL A   1      43.923  27.826  33.738  1.00  0.00     0.037 A 
BRANCH  24  38
ATOM     38  C   UNL A   1      39.596  31.914  35.469  1.00  0.00     0.064 A 
ATOM     39  C   UNL A   1      40.125  33.195  35.716  1.00  0.00     0.173 A 
ATOM     40  C   UNL A   1      38.588  31.442  36.317  1.00  0.00     0.173 A 
ATOM     41  F   UNL A   1      41.117  33.676  34.951  1.00  0.00    -0.203 F 
ATOM     42  C   UNL A   1      39.719  33.933  36.824  1.00  0.00     0.198 A 
ATOM     43  C   UNL A   1      38.158  32.202  37.401  1.00  0.00     0.198 A 
ATOM     44  F   UNL A   1      38.056  30.226  36.124  1.00  0.00    -0.203 F 
ATOM     45  F   UNL A   1      40.322  35.096  37.107  1.00  0.00    -0.200 F 
ATOM     46  C   UNL A   1      38.739  33.434  37.667  1.00  0.00     0.200 A 
ATOM     47  F   UNL A   1      37.207  31.723  38.215  1.00  0.00    -0.200 F 
ATOM     48  F   UNL A   1      38.373  34.129  38.752  1.00  0.00    -0.200 F 
ENDBRANCH  24  38
BRANCH  25  49
ATOM     49  C   UNL A   1      42.962  26.196  27.979  1.00  0.00     0.064 A 
ATOM     50  C   UNL A   1      43.797  26.777  27.012  1.00  0.00     0.173 A 
ATOM     51  C   UNL A   1      42.608  24.851  27.799  1.00  0.00     0.173 A 
ATOM     52  F   UNL A   1      44.148  28.066  27.120  1.00  0.00    -0.203 F 
ATOM     53  C   UNL A   1      44.224  26.057  25.895  1.00  0.00     0.198 A 
ATOM     54  C   UNL A   1      43.052  24.125  26.692  1.00  0.00     0.198 A 
ATOM     55  F   UNL A   1      41.816  24.241  28.692  1.00  0.00    -0.203 F 
ATOM     56  F   UNL A   1      44.971  26.658  24.958  1.00  0.00    -0.200 F 
ATOM     57  C   UNL A   1      43.851  24.732  25.735  1.00  0.00     0.200 A 
ATOM     58  F   UNL A   1      42.692  22.842  26.546  1.00  0.00    -0.200 F 
ATOM     59  F   UNL A   1      44.247  24.046  24.654  1.00  0.00    -0.200 F 
ENDBRANCH  25  49
BRANCH  37  60
ATOM     60  C   UNL A   1      45.028  27.238  34.564  1.00  0.00     0.064 A 
ATOM     61  C   UNL A   1      46.259  27.888  34.723  1.00  0.00     0.173 A 
ATOM     62  C   UNL A   1      44.806  26.057  35.288  1.00  0.00     0.173 A 
ATOM     63  F   UNL A   1      46.524  29.011  34.039  1.00  0.00    -0.203 F 
ATOM     64  C   UNL A   1      47.230  27.372  35.577  1.00  0.00     0.198 A 
ATOM     65  C   UNL A   1      45.765  25.564  36.165  1.00  0.00     0.198 A 
ATOM     66  F   UNL A   1      43.640  25.402  35.172  1.00  0.00    -0.203 F 
ATOM     67  F   UNL A   1      48.412  27.993  35.695  1.00  0.00    -0.200 F 
ATOM     68  C   UNL A   1      46.978  26.220  36.308  1.00  0.00     0.200 A 
ATOM     69  F   UNL A   1      45.510  24.462  36.884  1.00  0.00    -0.200 F 
ATOM     70  F   UNL A   1      47.903  25.743  37.150  1.00  0.00    -0.200 F 
ENDBRANCH  37  60
ENDBRANCH  11  12
ENDBRANCH   4   6
ENDBRANCH   3   4
ENDBRANCH   2   3
ENDBRANCH   1   2
BRANCH   1  71
ATOM     71  O   UNL A   1      32.379  28.275  25.330  1.00  0.00    -0.462 OA
BRANCH  71  72
ATOM     72  C   UNL A   1      33.325  27.299  25.428  1.00  0.00     0.312 C 
ATOM     73  O   UNL A   1      34.058  27.157  26.411  1.00  0.00    -0.252 OA
BRANCH  72  74
ATOM     74  C   UNL A   1      33.538  26.540  24.130  1.00  0.00     0.147 C 
ATOM     75  C   UNL A   1      33.018  25.096  24.044  1.00  0.00     0.129 C 
ATOM     76  C   UNL A   1      32.813  27.122  22.944  1.00  0.00     0.157 C 
ATOM     77  C   UNL A   1      31.866  25.191  23.034  1.00  0.00     0.155 C 
ATOM     78  C   UNL A   1      33.154  26.436  21.644  1.00  0.00     0.004 C 
ATOM     79  O   UNL A   1      31.492  26.579  23.163  1.00  0.00    -0.365 OA
ATOM     80  C   UNL A   1      32.511  25.259  21.671  1.00  0.00     0.004 C 
BRANCH  75  81
ATOM     81  C   UNL A   1      32.645  24.428  25.326  1.00  0.00     0.231 C 
ATOM     82  O   UNL A   1      31.482  24.382  25.729  1.00  0.00    -0.274 OA
ATOM     83  N   UNL A   1      33.623  23.772  26.036  1.00  0.00    -0.325 N 
ATOM     84  H   UNL A   1      33.442  23.616  26.990  1.00  0.00     0.169 HD
BRANCH  83  85
ATOM     85  C   UNL A   1      34.865  23.297  25.544  1.00  0.00     0.049 A 
ATOM     86  C   UNL A   1      35.951  24.107  25.925  1.00  0.00     0.027 A 
ATOM     87  C   UNL A   1      35.094  22.097  24.811  1.00  0.00     0.005 A 
ATOM     88  C   UNL A   1      37.265  23.725  25.667  1.00  0.00     0.002 A 
ATOM     89  C   UNL A   1      36.443  21.774  24.525  1.00  0.00     0.011 A 
ATOM     90  C   UNL A   1      37.511  22.557  24.966  1.00  0.00     0.001 A 
BRANCH  87  91
ATOM     91  C   UNL A   1      34.056  21.113  24.377  1.00  0.00    -0.016 A 
ATOM     92  C   UNL A   1      33.087  21.499  23.418  1.00  0.00     0.009 A 
ATOM     93  C   UNL A   1      34.033  19.776  24.799  1.00  0.00     0.009 A 
ATOM     94  C   UNL A   1      32.157  20.597  22.893  1.00  0.00     0.001 A 
ATOM     95  C   UNL A   1      33.102  18.866  24.269  1.00  0.00     0.001 A 
ATOM     96  C   UNL A   1      32.168  19.274  23.315  1.00  0.00     0.000 A 
ENDBRANCH  87  91
ENDBRANCH  83  85
ENDBRANCH  75  81
ENDBRANCH  72  74
ENDBRANCH  71  72
ENDBRANCH   1  71
TORSDOF 14
ENDMDL
MODEL 2
REMARK VINA RESULT:     -12.5      4.247      9.713
REMARK SMILES O=C(OCCOC(=O)[C@H]1[C@@H](C(=O)Nc2ccccc2-c2ccccc2)[C@@H]2C=C[C@H]1O2)c1ccc(-c2c3nc(c(-c4c(F)c(F)c(F)c(F)c4F)c4ccc([nH]4)c(-c4c(F)c(F)c(F)c(F)c4F)c4nc(c(-c5c(F)c(F)c(F)c(F)c5F)c5ccc2[nH]5)C=C4)C=C3)cc1
REMARK SMILES IDX 5 1 4 2 3 3 2 4 1 5 31 6 32 7 93 8 33 9 92 10 34 11 35 12
REMARK SMILES IDX 36 13 86 14 37 15 91 16 85 17 87 18 38 19 90 20 84 21 83 22
REMARK SMILES IDX 39 24 71 25 51 26 70 27 52 28 55 29 69 30 88 31 53 32 54 33
REMARK SMILES IDX 68 35 89 36 56 37 40 38 41 39 49 40 42 41 43 42 47 43 50 44
REMARK SMILES IDX 44 45 45 46 48 47 46 48 72 49 73 50 81 51 74 52 75 53 79 54
REMARK SMILES IDX 82 55 76 56 77 57 80 58 78 59 57 60 58 61 66 62 59 63 60 64
REMARK SMILES IDX 64 65 67 66 61 67 62 68 65 69 63 70 6 71 7 72 8 73 9 74
REMARK SMILES IDX 10 75 29 76 26 77 28 78 30 79 27 80 11 81 12 82 13 83 14 85
REMARK SMILES IDX 15 86 19 87 16 88 18 89 17 90 20 91 21 92 25 93 22 94 24 95
REMARK SMILES IDX 23 96
REMARK H PARENT 87 23 55 34 13 84
REMARK Flexibility Score: inf
ROOT
ATOM      1  C   UNL A   1      36.172  21.855  24.250  1.00  0.00     0.274 C 
ENDROOT
BRANCH   1   2
ATOM      2  C   UNL A   1      36.881  21.102  25.379  1.00  0.00     0.275 C 
BRANCH   2   3
ATOM      3  O   UNL A   1      38.300  20.961  25.204  1.00  0.00    -0.458 OA
BRANCH   3   4
ATOM      4  C   UNL A   1      39.290  21.033  26.126  1.00  0.00     0.338 C 
ATOM      5  O   UNL A   1      39.732  19.985  26.600  1.00  0.00    -0.246 OA
BRANCH   4   6
ATOM      6  C   UNL A   1      39.801  22.321  26.698  1.00  0.00     0.060 A 
ATOM      7  C   UNL A   1      40.786  22.472  27.683  1.00  0.00     0.016 A 
ATOM      8  C   UNL A   1      39.263  23.490  26.135  1.00  0.00     0.016 A 
ATOM      9  C   UNL A   1      41.329  23.731  27.990  1.00  0.00     0.010 A 
ATOM     10  C   UNL A   1      39.816  24.745  26.417  1.00  0.00     0.010 A 
ATOM     11  C   UNL A   1      40.880  24.875  27.329  1.00  0.00    -0.014 A 
BRANCH  11  12
ATOM     12  C   UNL A   1      41.395  26.224  27.677  1.00  0.00     0.031 A 
ATOM     13  C   UNL A   1      42.812  26.520  27.287  1.00  0.00     0.074 A 
ATOM     14  C   UNL A   1      40.665  27.149  28.337  1.00  0.00     0.049 A 
ATOM     15  N   UNL A   1      43.537  27.582  27.514  1.00  0.00    -0.248 NA
ATOM     16  C   UNL A   1      43.519  25.446  26.567  1.00  0.00     0.031 C 
ATOM     17  C   UNL A   1      39.279  27.001  28.782  1.00  0.00     0.029 A 
ATOM     18  N   UNL A   1      41.009  28.412  28.768  1.00  0.00    -0.354 N 
ATOM     19  C   UNL A   1      44.771  27.297  26.951  1.00  0.00     0.074 A 
ATOM     20  C   UNL A   1      44.750  25.918  26.527  1.00  0.00     0.031 C 
ATOM     21  C   UNL A   1      38.903  28.115  29.441  1.00  0.00     0.029 A 
ATOM     22  C   UNL A   1      40.020  29.053  29.478  1.00  0.00     0.049 A 
ATOM     23  H   UNL A   1      41.887  28.819  28.583  1.00  0.00     0.167 HD
ATOM     24  C   UNL A   1      45.806  28.132  26.712  1.00  0.00     0.037 A 
ATOM     25  C   UNL A   1      40.023  30.259  30.085  1.00  0.00     0.037 A 
ATOM     26  C   UNL A   1      45.824  29.504  27.114  1.00  0.00     0.049 A 
ATOM     27  C   UNL A   1      41.235  31.149  29.923  1.00  0.00     0.074 A 
ATOM     28  C   UNL A   1      46.799  30.457  26.901  1.00  0.00     0.029 A 
ATOM     29  N   UNL A   1      44.804  30.115  27.830  1.00  0.00    -0.354 N 
ATOM     30  N   UNL A   1      42.354  30.911  29.281  1.00  0.00    -0.248 NA
ATOM     31  C   UNL A   1      41.170  32.487  30.530  1.00  0.00     0.031 C 
ATOM     32  C   UNL A   1      46.391  31.636  27.533  1.00  0.00     0.029 A 
ATOM     33  C   UNL A   1      45.138  31.430  28.093  1.00  0.00     0.049 A 
ATOM     34  H   UNL A   1      43.969  29.677  28.110  1.00  0.00     0.167 HD
ATOM     35  C   UNL A   1      43.095  32.084  29.352  1.00  0.00     0.074 A 
ATOM     36  C   UNL A   1      42.305  33.030  30.112  1.00  0.00     0.031 C 
ATOM     37  C   UNL A   1      44.312  32.361  28.821  1.00  0.00     0.037 A 
BRANCH  24  38
ATOM     38  C   UNL A   1      46.959  27.540  25.960  1.00  0.00     0.064 A 
ATOM     39  C   UNL A   1      48.052  26.973  26.641  1.00  0.00     0.173 A 
ATOM     40  C   UNL A   1      47.042  27.665  24.569  1.00  0.00     0.173 A 
ATOM     41  F   UNL A   1      48.032  26.865  27.979  1.00  0.00    -0.203 F 
ATOM     42  C   UNL A   1      49.216  26.629  25.962  1.00  0.00     0.198 A 
ATOM     43  C   UNL A   1      48.195  27.282  23.889  1.00  0.00     0.198 A 
ATOM     44  F   UNL A   1      46.027  28.203  23.876  1.00  0.00    -0.203 F 
ATOM     45  F   UNL A   1      50.287  26.203  26.647  1.00  0.00    -0.200 F 
ATOM     46  C   UNL A   1      49.287  26.786  24.587  1.00  0.00     0.200 A 
ATOM     47  F   UNL A   1      48.265  27.429  22.559  1.00  0.00    -0.200 F 
ATOM     48  F   UNL A   1      50.420  26.487  23.938  1.00  0.00    -0.200 F 
ENDBRANCH  24  38
BRANCH  25  49
ATOM     49  C   UNL A   1      38.852  30.726  30.885  1.00  0.00     0.064 A 
ATOM     50  C   UNL A   1      37.816  31.470  30.301  1.00  0.00     0.173 A 
ATOM     51  C   UNL A   1      38.784  30.504  32.268  1.00  0.00     0.173 A 
ATOM     52  F   UNL A   1      37.841  31.734  28.987  1.00  0.00    -0.203 F 
ATOM     53  C   UNL A   1      36.780  32.001  31.072  1.00  0.00     0.198 A 
ATOM     54  C   UNL A   1      37.737  31.018  33.036  1.00  0.00     0.198 A 
ATOM     55  F   UNL A   1      39.744  29.796  32.882  1.00  0.00    -0.203 F 
ATOM     56  F   UNL A   1      35.837  32.758  30.493  1.00  0.00    -0.200 F 
ATOM     57  C   UNL A   1      36.742  31.776  32.438  1.00  0.00     0.200 A 
ATOM     58  F   UNL A   1      37.703  30.792  34.357  1.00  0.00    -0.200 F 
ATOM     59  F   UNL A   1      35.757  32.300  33.180  1.00  0.00    -0.200 F 
ENDBRANCH  25  49
BRANCH  37  60
ATOM     60  C   UNL A   1      44.842  33.756  28.972  1.00  0.00     0.064 A 
ATOM     61  C   UNL A   1      45.709  34.109  30.015  1.00  0.00     0.173 A 
ATOM     62  C   UNL A   1      44.555  34.721  27.995  1.00  0.00     0.173 A 
ATOM     63  F   UNL A   1      45.999  33.226  30.981  1.00  0.00    -0.203 F 
ATOM     64  C   UNL A   1      46.268  35.383  30.074  1.00  0.00     0.198 A 
ATOM     65  C   UNL A   1      45.142  35.981  28.039  1.00  0.00     0.198 A 
ATOM     66  F   UNL A   1      43.734  34.427  26.974  1.00  0.00    -0.203 F 
ATOM     67  F   UNL A   1      47.073  35.712  31.093  1.00  0.00    -0.200 F 
ATOM     68  C   UNL A   1      45.996  36.312  29.080  1.00  0.00     0.200 A 
ATOM     69  F   UNL A   1      44.892  36.869  27.067  1.00  0.00    -0.200 F 
ATOM     70  F   UNL A   1      46.558  37.527  29.124  1.00  0.00    -0.200 F 
ENDBRANCH  37  60
ENDBRANCH  11  12
ENDBRANCH   4   6
ENDBRANCH   3   4
ENDBRANCH   2   3
ENDBRANCH   1   2
BRANCH   1  71
ATOM     71  O   UNL A   1      34.895  22.382  24.652  1.00  0.00    -0.462 OA
BRANCH  71  72
ATOM     72  C   UNL A   1      34.892  23.624  25.213  1.00  0.00     0.312 C 
ATOM     73  O   UNL A   1      35.898  24.334  25.299  1.00  0.00    -0.252 OA
BRANCH  72  74
ATOM     74  C   UNL A   1      33.587  23.962  25.912  1.00  0.00     0.147 C 
ATOM     75  C   UNL A   1      32.580  24.855  25.170  1.00  0.00     0.129 C 
ATOM     76  C   UNL A   1      32.698  22.773  26.176  1.00  0.00     0.157 C 
ATOM     77  C   UNL A   1      31.412  23.904  24.870  1.00  0.00     0.155 C 
ATOM     78  C   UNL A   1      31.477  23.114  26.995  1.00  0.00     0.004 C 
ATOM     79  O   UNL A   1      32.081  22.626  24.877  1.00  0.00    -0.365 OA
ATOM     80  C   UNL A   1      30.648  23.763  26.164  1.00  0.00     0.004 C 
BRANCH  75  81
ATOM     81  C   UNL A   1      33.079  25.596  23.974  1.00  0.00     0.231 C 
ATOM     82  O   UNL A   1      33.088  25.097  22.848  1.00  0.00    -0.274 OA
ATOM     83  N   UNL A   1      33.463  26.908  24.125  1.00  0.00    -0.325 N 
ATOM     84  H   UNL A   1      34.059  27.272  23.432  1.00  0.00     0.169 HD
BRANCH  83  85
ATOM     85  C   UNL A   1      33.093  27.794  25.169  1.00  0.00     0.049 A 
ATOM     86  C   UNL A   1      34.121  27.988  26.111  1.00  0.00     0.027 A 
ATOM     87  C   UNL A   1      31.872  28.518  25.286  1.00  0.00     0.005 A 
ATOM     88  C   UNL A   1      34.005  28.936  27.124  1.00  0.00     0.002 A 
ATOM     89  C   UNL A   1      31.778  29.433  26.363  1.00  0.00     0.011 A 
ATOM     90  C   UNL A   1      32.831  29.659  27.250  1.00  0.00     0.001 A 
BRANCH  87  91
ATOM     91  C   UNL A   1      30.712  28.457  24.346  1.00  0.00    -0.016 A 
ATOM     92  C   UNL A   1      29.928  27.279  24.282  1.00  0.00     0.009 A 
ATOM     93  C   UNL A   1      30.286  29.545  23.572  1.00  0.00     0.009 A 
ATOM     94  C   UNL A   1      28.770  27.196  23.503  1.00  0.00     0.001 A 
ATOM     95  C   UNL A   1      29.120  29.466  22.792  1.00  0.00     0.001 A 
ATOM     96  C   UNL A   1      28.360  28.295  22.760  1.00  0.00     0.000 A 
ENDBRANCH  87  91
ENDBRANCH  83  85
ENDBRANCH  75  81
ENDBRANCH  72  74
ENDBRANCH  71  72
ENDBRANCH   1  71
TORSDOF 14
ENDMDL
MODEL 3
REMARK VINA RESULT:     -12.5      2.175      3.218
REMARK SMILES O=C(OCCOC(=O)[C@H]1[C@@H](C(=O)Nc2ccccc2-c2ccccc2)[C@@H]2C=C[C@H]1O2)c1ccc(-c2c3nc(c(-c4c(F)c(F)c(F)c(F)c4F)c4ccc([nH]4)c(-c4c(F)c(F)c(F)c(F)c4F)c4nc(c(-c5c(F)c(F)c(F)c(F)c5F)c5ccc2[nH]5)C=C4)C=C3)cc1
REMARK SMILES IDX 5 1 4 2 3 3 2 4 1 5 31 6 32 7 93 8 33 9 92 10 34 11 35 12
REMARK SMILES IDX 36 13 86 14 37 15 91 16 85 17 87 18 38 19 90 20 84 21 83 22
REMARK SMILES IDX 39 24 71 25 51 26 70 27 52 28 55 29 69 30 88 31 53 32 54 33
REMARK SMILES IDX 68 35 89 36 56 37 40 38 41 39 49 40 42 41 43 42 47 43 50 44
REMARK SMILES IDX 44 45 45 46 48 47 46 48 72 49 73 50 81 51 74 52 75 53 79 54
REMARK SMILES IDX 82 55 76 56 77 57 80 58 78 59 57 60 58 61 66 62 59 63 60 64
REMARK SMILES IDX 64 65 67 66 61 67 62 68 65 69 63 70 6 71 7 72 8 73 9 74
REMARK SMILES IDX 10 75 29 76 26 77 28 78 30 79 27 80 11 81 12 82 13 83 14 85
REMARK SMILES IDX 15 86 19 87 16 88 18 89 17 90 20 91 21 92 25 93 22 94 24 95
REMARK SMILES IDX 23 96
REMARK H PARENT 87 23 55 34 13 84
REMARK Flexibility Score: inf
ROOT
ATOM      1  C   UNL A   1      33.824  28.452  25.789  1.00  0.00     0.274 C 
ENDROOT
BRANCH   1   2
ATOM      2  C   UNL A   1      32.963  29.643  26.217  1.00  0.00     0.275 C 
BRANCH   2   3
ATOM      3  O   UNL A   1      33.283  30.179  27.510  1.00  0.00    -0.458 OA
BRANCH   3   4
ATOM      4  C   UNL A   1      34.396  30.838  27.915  1.00  0.00     0.338 C 
ATOM      5  O   UNL A   1      34.347  32.065  28.023  1.00  0.00    -0.246 OA
BRANCH   4   6
ATOM      6  C   UNL A   1      35.725  30.177  28.123  1.00  0.00     0.060 A 
ATOM      7  C   UNL A   1      36.810  30.173  27.236  1.00  0.00     0.016 A 
ATOM      8  C   UNL A   1      35.903  29.550  29.367  1.00  0.00     0.016 A 
ATOM      9  C   UNL A   1      38.074  29.697  27.626  1.00  0.00     0.010 A 
ATOM     10  C   UNL A   1      37.164  29.099  29.772  1.00  0.00     0.010 A 
ATOM     11  C   UNL A   1      38.274  29.196  28.912  1.00  0.00    -0.014 A 
BRANCH  11  12
ATOM     12  C   UNL A   1      39.584  28.634  29.330  1.00  0.00     0.031 A 
ATOM     13  C   UNL A   1      40.395  29.462  30.281  1.00  0.00     0.074 A 
ATOM     14  C   UNL A   1      40.066  27.458  28.873  1.00  0.00     0.049 A 
ATOM     15  N   UNL A   1      41.590  29.252  30.763  1.00  0.00    -0.248 NA
ATOM     16  C   UNL A   1      39.777  30.726  30.722  1.00  0.00     0.031 C 
ATOM     17  C   UNL A   1      39.394  26.549  27.945  1.00  0.00     0.029 A 
ATOM     18  N   UNL A   1      41.267  26.831  29.126  1.00  0.00    -0.354 N 
ATOM     19  C   UNL A   1      41.847  30.351  31.568  1.00  0.00     0.074 A 
ATOM     20  C   UNL A   1      40.770  31.292  31.379  1.00  0.00     0.031 C 
ATOM     21  C   UNL A   1      40.199  25.500  27.688  1.00  0.00     0.029 A 
ATOM     22  C   UNL A   1      41.449  25.662  28.423  1.00  0.00     0.049 A 
ATOM     23  H   UNL A   1      41.935  27.188  29.754  1.00  0.00     0.167 HD
ATOM     24  C   UNL A   1      42.841  30.529  32.467  1.00  0.00     0.037 A 
ATOM     25  C   UNL A   1      42.507  24.823  28.382  1.00  0.00     0.037 A 
ATOM     26  C   UNL A   1      43.900  29.590  32.670  1.00  0.00     0.049 A 
ATOM     27  C   UNL A   1      43.679  25.090  29.300  1.00  0.00     0.074 A 
ATOM     28  C   UNL A   1      44.943  29.643  33.572  1.00  0.00     0.029 A 
ATOM     29  N   UNL A   1      44.049  28.420  31.940  1.00  0.00    -0.354 N 
ATOM     30  N   UNL A   1      43.855  26.075  30.149  1.00  0.00    -0.248 NA
ATOM     31  C   UNL A   1      44.777  24.112  29.287  1.00  0.00     0.031 C 
ATOM     32  C   UNL A   1      45.754  28.526  33.353  1.00  0.00     0.029 A 
ATOM     33  C   UNL A   1      45.186  27.751  32.351  1.00  0.00     0.049 A 
ATOM     34  H   UNL A   1      43.437  28.113  31.233  1.00  0.00     0.167 HD
ATOM     35  C   UNL A   1      45.045  25.802  30.813  1.00  0.00     0.074 A 
ATOM     36  C   UNL A   1      45.557  24.567  30.258  1.00  0.00     0.031 C 
ATOM     37  C   UNL A   1      45.651  26.501  31.805  1.00  0.00     0.037 A 
BRANCH  24  38
ATOM     38  C   UNL A   1      42.762  31.783  33.282  1.00  0.00     0.064 A 
ATOM     39  C   UNL A   1      43.475  32.937  32.905  1.00  0.00     0.173 A 
ATOM     40  C   UNL A   1      42.095  31.793  34.512  1.00  0.00     0.173 A 
ATOM     41  F   UNL A   1      44.159  32.962  31.750  1.00  0.00    -0.203 F 
ATOM     42  C   UNL A   1      43.586  34.022  33.769  1.00  0.00     0.198 A 
ATOM     43  C   UNL A   1      42.176  32.898  35.356  1.00  0.00     0.198 A 
ATOM     44  F   UNL A   1      41.406  30.716  34.917  1.00  0.00    -0.203 F 
ATOM     45  F   UNL A   1      44.368  35.059  33.439  1.00  0.00    -0.200 F 
ATOM     46  C   UNL A   1      42.939  34.000  34.994  1.00  0.00     0.200 A 
ATOM     47  F   UNL A   1      41.549  32.881  36.540  1.00  0.00    -0.200 F 
ATOM     48  F   UNL A   1      43.074  35.030  35.840  1.00  0.00    -0.200 F 
ENDBRANCH  24  38
BRANCH  25  49
ATOM     49  C   UNL A   1      42.524  23.642  27.470  1.00  0.00     0.064 A 
ATOM     50  C   UNL A   1      42.066  22.384  27.892  1.00  0.00     0.173 A 
ATOM     51  C   UNL A   1      43.071  23.728  26.181  1.00  0.00     0.173 A 
ATOM     52  F   UNL A   1      41.557  22.238  29.123  1.00  0.00    -0.203 F 
ATOM     53  C   UNL A   1      42.187  21.257  27.077  1.00  0.00     0.198 A 
ATOM     54  C   UNL A   1      43.172  22.604  25.358  1.00  0.00     0.198 A 
ATOM     55  F   UNL A   1      43.521  24.904  25.721  1.00  0.00    -0.203 F 
ATOM     56  F   UNL A   1      41.795  20.058  27.533  1.00  0.00    -0.200 F 
ATOM     57  C   UNL A   1      42.741  21.367  25.812  1.00  0.00     0.200 A 
ATOM     58  F   UNL A   1      43.704  22.719  24.133  1.00  0.00    -0.200 F 
ATOM     59  F   UNL A   1      42.872  20.282  25.037  1.00  0.00    -0.200 F 
ENDBRANCH  25  49
BRANCH  37  60
ATOM     60  C   UNL A   1      46.893  25.921  32.413  1.00  0.00     0.064 A 
ATOM     61  C   UNL A   1      46.844  25.065  33.521  1.00  0.00     0.173 A 
ATOM     62  C   UNL A   1      48.138  26.148  31.807  1.00  0.00     0.173 A 
ATOM     63  F   UNL A   1      45.680  24.831  34.144  1.00  0.00    -0.203 F 
ATOM     64  C   UNL A   1      48.001  24.458  34.002  1.00  0.00     0.198 A 
ATOM     65  C   UNL A   1      49.285  25.513  32.270  1.00  0.00     0.198 A 
ATOM     66  F   UNL A   1      48.234  26.955  30.740  1.00  0.00    -0.203 F 
ATOM     67  F   UNL A   1      47.939  23.664  35.080  1.00  0.00    -0.200 F 
ATOM     68  C   UNL A   1      49.217  24.671  33.369  1.00  0.00     0.200 A 
ATOM     69  F   UNL A   1      50.455  25.706  31.644  1.00  0.00    -0.200 F 
ATOM     70  F   UNL A   1      50.323  24.063  33.817  1.00  0.00    -0.200 F 
ENDBRANCH  37  60
ENDBRANCH  11  12
ENDBRANCH   4   6
ENDBRANCH   3   4
ENDBRANCH   2   3
ENDBRANCH   1   2
BRANCH   1  71
ATOM     71  O   UNL A   1      33.518  27.254  26.525  1.00  0.00    -0.462 OA
BRANCH  71  72
ATOM     72  C   UNL A   1      32.340  26.636  26.229  1.00  0.00     0.312 C 
ATOM     73  O   UNL A   1      31.366  26.626  26.988  1.00  0.00    -0.252 OA
BRANCH  72  74
ATOM     74  C   UNL A   1      32.410  25.783  24.974  1.00  0.00     0.147 C 
ATOM     75  C   UNL A   1      32.383  24.255  25.137  1.00  0.00     0.129 C 
ATOM     76  C   UNL A   1      31.231  25.942  24.048  1.00  0.00     0.157 C 
ATOM     77  C   UNL A   1      31.025  23.857  24.540  1.00  0.00     0.155 C 
ATOM     78  C   UNL A   1      31.392  25.195  22.747  1.00  0.00     0.004 C 
ATOM     79  O   UNL A   1      30.276  25.078  24.704  1.00  0.00    -0.365 OA
ATOM     80  C   UNL A   1      31.201  23.901  23.042  1.00  0.00     0.004 C 
BRANCH  75  81
ATOM     81  C   UNL A   1      32.625  23.711  26.506  1.00  0.00     0.231 C 
ATOM     82  O   UNL A   1      31.709  23.505  27.303  1.00  0.00    -0.274 OA
ATOM     83  N   UNL A   1      33.906  23.352  26.856  1.00  0.00    -0.325 N 
ATOM     84  H   UNL A   1      34.098  23.297  27.819  1.00  0.00     0.169 HD
BRANCH  83  85
ATOM     85  C   UNL A   1      34.980  23.054  25.980  1.00  0.00     0.049 A 
ATOM     86  C   UNL A   1      36.070  23.933  26.131  1.00  0.00     0.027 A 
ATOM     87  C   UNL A   1      35.070  21.956  25.076  1.00  0.00     0.005 A 
ATOM     88  C   UNL A   1      37.275  23.712  25.469  1.00  0.00     0.002 A 
ATOM     89  C   UNL A   1      36.296  21.802  24.384  1.00  0.00     0.011 A 
ATOM     90  C   UNL A   1      37.388  22.646  24.594  1.00  0.00     0.001 A 
BRANCH  87  91
ATOM     91  C   UNL A   1      34.023  20.916  24.840  1.00  0.00    -0.016 A 
ATOM     92  C   UNL A   1      33.240  20.970  23.661  1.00  0.00     0.009 A 
ATOM     93  C   UNL A   1      33.823  19.815  25.685  1.00  0.00     0.009 A 
ATOM     94  C   UNL A   1      32.320  19.970  23.331  1.00  0.00     0.001 A 
ATOM     95  C   UNL A   1      32.903  18.806  25.353  1.00  0.00     0.001 A 
ATOM     96  C   UNL A   1      32.155  18.881  24.176  1.00  0.00     0.000 A 
ENDBRANCH  87  91
ENDBRANCH  83  85
ENDBRANCH  75  81
ENDBRANCH  72  74
ENDBRANCH  71  72
ENDBRANCH   1  71
TORSDOF 14
ENDMDL
