MODEL 1
REMARK VINA RESULT:     -13.5      0.000      0.000
REMARK SMILES O=C(OCCOC(=O)c1ccc(-n2cc(CSc3nc4ccccc4c(=O)n3-c3ccc(Cl)cc3)nn2)cc1)c1ccc(-c2c3nc(c(-c4c(F)c(F)c(F)c(F)c4F)c4ccc([nH]4)c(-c4c(F)c(F)c(F)c(F)c4F)c4nc(c(-c5c(F)c(F)c(F)c(F)c5F)c5ccc2[nH]5)C=C4)C=C3)cc1
REMARK SMILES IDX 6 1 5 2 4 3 3 4 2 5 1 6 40 7 41 8 102 9 42 10 101 11 43 12
REMARK SMILES IDX 44 13 45 14 95 15 46 16 100 17 94 18 96 19 47 20 99 21 93 22
REMARK SMILES IDX 92 23 48 25 80 26 60 27 79 28 61 29 64 30 78 31 97 32 62 33
REMARK SMILES IDX 63 34 77 36 98 37 65 38 49 39 50 40 58 41 51 42 52 43 56 44
REMARK SMILES IDX 59 45 53 46 54 47 57 48 55 49 81 50 82 51 90 52 83 53 84 54
REMARK SMILES IDX 88 55 91 56 85 57 86 58 89 59 87 60 66 61 67 62 75 63 68 64
REMARK SMILES IDX 69 65 73 66 76 67 70 68 71 69 74 70 72 71 7 72 8 73 9 74
REMARK SMILES IDX 10 75 39 76 11 77 38 78 12 79 13 80 14 81 37 82 15 83 36 84
REMARK SMILES IDX 16 85 17 86 18 87 19 88 28 89 20 90 26 91 21 92 25 93 27 94
REMARK SMILES IDX 22 95 24 96 23 97 29 98 30 99 35 100 31 101 34 102 32 103
REMARK SMILES IDX 33 104
REMARK H PARENT 96 24 64 35
REMARK Flexibility Score: inf
ROOT
ATOM      1  O   UNL A   1      41.087  20.770  25.853  1.00  0.00    -0.458 OA
ENDROOT
BRANCH   1   2
ATOM      2  C   UNL A   1      41.881  19.705  26.403  1.00  0.00     0.275 C 
BRANCH   2   3
ATOM      3  C   UNL A   1      42.955  19.262  25.408  1.00  0.00     0.275 C 
BRANCH   3   4
ATOM      4  O   UNL A   1      44.228  19.939  25.462  1.00  0.00    -0.458 OA
BRANCH   4   5
ATOM      5  C   UNL A   1      44.447  21.042  24.717  1.00  0.00     0.338 C 
ATOM      6  O   UNL A   1      44.640  21.016  23.511  1.00  0.00    -0.246 OA
BRANCH   5   7
ATOM      7  C   UNL A   1      44.112  22.306  25.418  1.00  0.00     0.060 A 
ATOM      8  C   UNL A   1      43.162  23.222  24.959  1.00  0.00     0.016 A 
ATOM      9  C   UNL A   1      44.783  22.548  26.625  1.00  0.00     0.016 A 
ATOM     10  C   UNL A   1      42.968  24.419  25.635  1.00  0.00     0.010 A 
ATOM     11  C   UNL A   1      44.553  23.717  27.328  1.00  0.00     0.010 A 
ATOM     12  C   UNL A   1      43.699  24.685  26.797  1.00  0.00    -0.014 A 
BRANCH  12  13
ATOM     13  C   UNL A   1      43.477  25.946  27.502  1.00  0.00     0.031 A 
ATOM     14  C   UNL A   1      44.476  27.026  27.211  1.00  0.00     0.074 A 
ATOM     15  C   UNL A   1      42.351  26.175  28.212  1.00  0.00     0.049 A 
ATOM     16  N   UNL A   1      45.205  27.720  28.027  1.00  0.00    -0.248 NA
ATOM     17  C   UNL A   1      44.758  27.301  25.795  1.00  0.00     0.031 C 
ATOM     18  C   UNL A   1      41.168  25.321  28.369  1.00  0.00     0.029 A 
ATOM     19  N   UNL A   1      41.994  27.296  28.894  1.00  0.00    -0.354 N 
ATOM     20  C   UNL A   1      45.917  28.629  27.235  1.00  0.00     0.074 A 
ATOM     21  C   UNL A   1      45.693  28.247  25.869  1.00  0.00     0.031 C 
ATOM     22  C   UNL A   1      40.153  26.042  28.899  1.00  0.00     0.029 A 
ATOM     23  C   UNL A   1      40.655  27.353  29.262  1.00  0.00     0.049 A 
ATOM     24  H   UNL A   1      42.634  28.011  29.110  1.00  0.00     0.167 HD
ATOM     25  C   UNL A   1      46.499  29.750  27.747  1.00  0.00     0.037 A 
ATOM     26  C   UNL A   1      40.012  28.425  29.792  1.00  0.00     0.037 A 
ATOM     27  C   UNL A   1      46.747  29.615  29.153  1.00  0.00     0.049 A 
ATOM     28  C   UNL A   1      41.053  29.342  30.323  1.00  0.00     0.074 A 
ATOM     29  C   UNL A   1      47.528  28.756  29.901  1.00  0.00     0.029 A 
ATOM     30  N   UNL A   1      45.839  30.147  30.035  1.00  0.00    -0.354 N 
ATOM     31  N   UNL A   1      41.818  29.049  31.338  1.00  0.00    -0.248 NA
ATOM     32  C   UNL A   1      41.569  30.357  29.416  1.00  0.00     0.031 C 
ATOM     33  C   UNL A   1      46.701  28.394  31.004  1.00  0.00     0.029 A 
ATOM     34  C   UNL A   1      45.526  29.141  30.917  1.00  0.00     0.049 A 
ATOM     35  H   UNL A   1      45.484  31.065  30.036  1.00  0.00     0.167 HD
ATOM     36  C   UNL A   1      43.072  29.519  30.981  1.00  0.00     0.074 A 
ATOM     37  C   UNL A   1      42.846  30.361  29.807  1.00  0.00     0.031 C 
ATOM     38  C   UNL A   1      44.212  28.962  31.486  1.00  0.00     0.037 A 
BRANCH  25  39
ATOM     39  C   UNL A   1      46.566  31.074  27.027  1.00  0.00     0.064 A 
ATOM     40  C   UNL A   1      47.774  31.796  26.986  1.00  0.00     0.173 A 
ATOM     41  C   UNL A   1      45.414  31.791  26.634  1.00  0.00     0.173 A 
ATOM     42  F   UNL A   1      48.927  31.222  27.362  1.00  0.00    -0.203 F 
ATOM     43  C   UNL A   1      47.814  33.149  26.635  1.00  0.00     0.198 A 
ATOM     44  C   UNL A   1      45.465  33.125  26.234  1.00  0.00     0.198 A 
ATOM     45  F   UNL A   1      44.189  31.264  26.733  1.00  0.00    -0.203 F 
ATOM     46  F   UNL A   1      48.968  33.827  26.718  1.00  0.00    -0.200 F 
ATOM     47  C   UNL A   1      46.659  33.814  26.264  1.00  0.00     0.200 A 
ATOM     48  F   UNL A   1      44.332  33.757  25.897  1.00  0.00    -0.200 F 
ATOM     49  F   UNL A   1      46.685  35.124  25.983  1.00  0.00    -0.200 F 
ENDBRANCH  25  39
BRANCH  26  50
ATOM     50  C   UNL A   1      38.613  28.862  29.568  1.00  0.00     0.064 A 
ATOM     51  C   UNL A   1      37.779  29.223  30.640  1.00  0.00     0.173 A 
ATOM     52  C   UNL A   1      38.159  29.208  28.281  1.00  0.00     0.173 A 
ATOM     53  F   UNL A   1      38.158  28.973  31.903  1.00  0.00    -0.203 F 
ATOM     54  C   UNL A   1      36.574  29.906  30.437  1.00  0.00     0.198 A 
ATOM     55  C   UNL A   1      36.957  29.888  28.078  1.00  0.00     0.198 A 
ATOM     56  F   UNL A   1      38.920  28.977  27.202  1.00  0.00    -0.203 F 
ATOM     57  F   UNL A   1      35.832  30.283  31.487  1.00  0.00    -0.200 F 
ATOM     58  C   UNL A   1      36.169  30.248  29.157  1.00  0.00     0.200 A 
ATOM     59  F   UNL A   1      36.596  30.248  26.838  1.00  0.00    -0.200 F 
ATOM     60  F   UNL A   1      35.048  30.956  28.965  1.00  0.00    -0.200 F 
ENDBRANCH  26  50
BRANCH  38  61
ATOM     61  C   UNL A   1      44.078  27.918  32.564  1.00  0.00     0.064 A 
ATOM     62  C   UNL A   1      44.016  26.534  32.320  1.00  0.00     0.173 A 
ATOM     63  C   UNL A   1      44.193  28.323  33.899  1.00  0.00     0.173 A 
ATOM     64  F   UNL A   1      44.017  26.051  31.073  1.00  0.00    -0.203 F 
ATOM     65  C   UNL A   1      44.026  25.607  33.362  1.00  0.00     0.198 A 
ATOM     66  C   UNL A   1      44.243  27.395  34.937  1.00  0.00     0.198 A 
ATOM     67  F   UNL A   1      44.321  29.625  34.197  1.00  0.00    -0.203 F 
ATOM     68  F   UNL A   1      43.961  24.293  33.096  1.00  0.00    -0.200 F 
ATOM     69  C   UNL A   1      44.148  26.039  34.670  1.00  0.00     0.200 A 
ATOM     70  F   UNL A   1      44.420  27.817  36.196  1.00  0.00    -0.200 F 
ATOM     71  F   UNL A   1      44.205  25.149  35.670  1.00  0.00    -0.200 F 
ENDBRANCH  38  61
ENDBRANCH  12  13
ENDBRANCH   5   7
ENDBRANCH   4   5
ENDBRANCH   3   4
ENDBRANCH   2   3
ENDBRANCH   1   2
BRANCH   1  72
ATOM     72  C   UNL A   1      40.308  21.449  26.730  1.00  0.00     0.338 C 
ATOM     73  O   UNL A   1      40.584  21.811  27.863  1.00  0.00    -0.246 OA
BRANCH  72  74
ATOM     74  C   UNL A   1      39.038  21.742  26.054  1.00  0.00     0.060 A 
ATOM     75  C   UNL A   1      38.484  23.024  26.133  1.00  0.00     0.018 A 
ATOM     76  C   UNL A   1      38.401  20.730  25.338  1.00  0.00     0.018 A 
ATOM     77  C   UNL A   1      37.318  23.328  25.427  1.00  0.00     0.029 A 
ATOM     78  C   UNL A   1      37.192  21.005  24.703  1.00  0.00     0.029 A 
ATOM     79  C   UNL A   1      36.658  22.305  24.741  1.00  0.00     0.066 A 
BRANCH  79  80
ATOM     80  N   UNL A   1      35.394  22.553  24.171  1.00  0.00    -0.220 N 
ATOM     81  C   UNL A   1      35.049  23.656  23.443  1.00  0.00     0.141 A 
ATOM     82  N   UNL A   1      34.340  21.714  24.242  1.00  0.00    -0.062 NA
ATOM     83  C   UNL A   1      33.751  23.441  23.041  1.00  0.00     0.093 A 
ATOM     84  N   UNL A   1      33.309  22.284  23.620  1.00  0.00    -0.134 NA
BRANCH  83  85
ATOM     85  C   UNL A   1      32.888  24.349  22.258  1.00  0.00     0.138 C 
BRANCH  85  86
ATOM     86  S   UNL A   1      33.258  26.092  22.054  1.00  0.00    -0.081 SA
BRANCH  86  87
ATOM     87  C   UNL A   1      32.132  27.116  22.909  1.00  0.00     0.176 A 
ATOM     88  N   UNL A   1      31.409  27.828  22.094  1.00  0.00    -0.223 NA
ATOM     89  N   UNL A   1      31.973  27.195  24.286  1.00  0.00    -0.255 N 
ATOM     90  C   UNL A   1      30.544  28.785  22.632  1.00  0.00     0.079 A 
ATOM     91  C   UNL A   1      31.676  28.484  24.752  1.00  0.00     0.266 A 
ATOM     92  C   UNL A   1      29.526  29.349  21.862  1.00  0.00     0.029 A 
ATOM     93  C   UNL A   1      30.762  29.273  23.911  1.00  0.00     0.066 A 
ATOM     94  O   UNL A   1      32.109  29.002  25.781  1.00  0.00    -0.268 OA
ATOM     95  C   UNL A   1      28.791  30.434  22.351  1.00  0.00     0.002 A 
ATOM     96  C   UNL A   1      30.078  30.393  24.393  1.00  0.00     0.016 A 
ATOM     97  C   UNL A   1      29.093  30.981  23.600  1.00  0.00     0.001 A 
BRANCH  89  98
ATOM     98  C   UNL A   1      32.123  26.121  25.251  1.00  0.00     0.051 A 
ATOM     99  C   UNL A   1      33.388  25.834  25.806  1.00  0.00     0.028 A 
ATOM    100  C   UNL A   1      31.069  25.324  25.715  1.00  0.00     0.028 A 
ATOM    101  C   UNL A   1      33.635  24.669  26.540  1.00  0.00     0.022 A 
ATOM    102  C   UNL A   1      31.310  24.122  26.402  1.00  0.00     0.022 A 
ATOM    103  C   UNL A   1      32.604  23.774  26.762  1.00  0.00     0.041 A 
ATOM    104  Cl  UNL A   1      32.930  22.229  27.431  1.00  0.00    -0.084 Cl
ENDBRANCH  89  98
ENDBRANCH  86  87
ENDBRANCH  85  86
ENDBRANCH  83  85
ENDBRANCH  79  80
ENDBRANCH  72  74
ENDBRANCH   1  72
TORSDOF 16
ENDMDL
MODEL 2
REMARK VINA RESULT:     -13.5      1.617      2.763
REMARK SMILES O=C(OCCOC(=O)c1ccc(-n2cc(CSc3nc4ccccc4c(=O)n3-c3ccc(Cl)cc3)nn2)cc1)c1ccc(-c2c3nc(c(-c4c(F)c(F)c(F)c(F)c4F)c4ccc([nH]4)c(-c4c(F)c(F)c(F)c(F)c4F)c4nc(c(-c5c(F)c(F)c(F)c(F)c5F)c5ccc2[nH]5)C=C4)C=C3)cc1
REMARK SMILES IDX 6 1 5 2 4 3 3 4 2 5 1 6 40 7 41 8 102 9 42 10 101 11 43 12
REMARK SMILES IDX 44 13 45 14 95 15 46 16 100 17 94 18 96 19 47 20 99 21 93 22
REMARK SMILES IDX 92 23 48 25 80 26 60 27 79 28 61 29 64 30 78 31 97 32 62 33
REMARK SMILES IDX 63 34 77 36 98 37 65 38 49 39 50 40 58 41 51 42 52 43 56 44
REMARK SMILES IDX 59 45 53 46 54 47 57 48 55 49 81 50 82 51 90 52 83 53 84 54
REMARK SMILES IDX 88 55 91 56 85 57 86 58 89 59 87 60 66 61 67 62 75 63 68 64
REMARK SMILES IDX 69 65 73 66 76 67 70 68 71 69 74 70 72 71 7 72 8 73 9 74
REMARK SMILES IDX 10 75 39 76 11 77 38 78 12 79 13 80 14 81 37 82 15 83 36 84
REMARK SMILES IDX 16 85 17 86 18 87 19 88 28 89 20 90 26 91 21 92 25 93 27 94
REMARK SMILES IDX 22 95 24 96 23 97 29 98 30 99 35 100 31 101 34 102 32 103
REMARK SMILES IDX 33 104
REMARK H PARENT 96 24 64 35
REMARK Flexibility Score: inf
ROOT
ATOM      1  O   UNL A   1      44.166  18.535  25.186  1.00  0.00    -0.458 OA
ENDROOT
BRANCH   1   2
ATOM      2  C   UNL A   1      45.567  18.436  25.491  1.00  0.00     0.275 C 
BRANCH   2   3
ATOM      3  C   UNL A   1      46.374  19.431  24.656  1.00  0.00     0.275 C 
BRANCH   3   4
ATOM      4  O   UNL A   1      46.215  20.833  24.959  1.00  0.00    -0.458 OA
BRANCH   4   5
ATOM      5  C   UNL A   1      45.288  21.571  24.314  1.00  0.00     0.338 C 
ATOM      6  O   UNL A   1      44.654  21.168  23.350  1.00  0.00    -0.246 OA
BRANCH   5   7
ATOM      7  C   UNL A   1      44.869  22.780  25.063  1.00  0.00     0.060 A 
ATOM      8  C   UNL A   1      43.856  23.645  24.639  1.00  0.00     0.016 A 
ATOM      9  C   UNL A   1      45.526  23.023  26.276  1.00  0.00     0.016 A 
ATOM     10  C   UNL A   1      43.581  24.799  25.361  1.00  0.00     0.010 A 
ATOM     11  C   UNL A   1      45.218  24.147  27.023  1.00  0.00     0.010 A 
ATOM     12  C   UNL A   1      44.297  25.071  26.531  1.00  0.00    -0.014 A 
BRANCH  12  13
ATOM     13  C   UNL A   1      43.990  26.287  27.283  1.00  0.00     0.031 A 
ATOM     14  C   UNL A   1      44.900  27.449  27.019  1.00  0.00     0.074 A 
ATOM     15  C   UNL A   1      42.861  26.404  28.015  1.00  0.00     0.049 A 
ATOM     16  N   UNL A   1      45.587  28.167  27.851  1.00  0.00    -0.248 NA
ATOM     17  C   UNL A   1      45.141  27.794  25.611  1.00  0.00     0.031 C 
ATOM     18  C   UNL A   1      41.748  25.458  28.154  1.00  0.00     0.029 A 
ATOM     19  N   UNL A   1      42.430  27.470  28.740  1.00  0.00    -0.354 N 
ATOM     20  C   UNL A   1      46.217  29.155  27.084  1.00  0.00     0.074 A 
ATOM     21  C   UNL A   1      46.002  28.806  25.708  1.00  0.00     0.031 C 
ATOM     22  C   UNL A   1      40.689  26.081  28.722  1.00  0.00     0.029 A 
ATOM     23  C   UNL A   1      41.096  27.413  29.126  1.00  0.00     0.049 A 
ATOM     24  H   UNL A   1      43.017  28.225  28.974  1.00  0.00     0.167 HD
ATOM     25  C   UNL A   1      46.719  30.299  27.629  1.00  0.00     0.037 A 
ATOM     26  C   UNL A   1      40.381  28.413  29.701  1.00  0.00     0.037 A 
ATOM     27  C   UNL A   1      46.997  30.134  29.027  1.00  0.00     0.049 A 
ATOM     28  C   UNL A   1      41.358  29.388  30.252  1.00  0.00     0.074 A 
ATOM     29  C   UNL A   1      47.852  29.311  29.733  1.00  0.00     0.029 A 
ATOM     30  N   UNL A   1      46.064  30.564  29.938  1.00  0.00    -0.354 N 
ATOM     31  N   UNL A   1      42.158  29.119  31.248  1.00  0.00    -0.248 NA
ATOM     32  C   UNL A   1      41.782  30.470  29.376  1.00  0.00     0.031 C 
ATOM     33  C   UNL A   1      47.070  28.849  30.832  1.00  0.00     0.029 A 
ATOM     34  C   UNL A   1      45.841  29.507  30.786  1.00  0.00     0.049 A 
ATOM     35  H   UNL A   1      45.641  31.452  29.975  1.00  0.00     0.167 HD
ATOM     36  C   UNL A   1      43.367  29.695  30.893  1.00  0.00     0.074 A 
ATOM     37  C   UNL A   1      43.061  30.558  29.752  1.00  0.00     0.031 C 
ATOM     38  C   UNL A   1      44.553  29.209  31.364  1.00  0.00     0.037 A 
BRANCH  25  39
ATOM     39  C   UNL A   1      46.675  31.648  26.957  1.00  0.00     0.064 A 
ATOM     40  C   UNL A   1      47.845  32.424  26.853  1.00  0.00     0.173 A 
ATOM     41  C   UNL A   1      45.468  32.326  26.677  1.00  0.00     0.173 A 
ATOM     42  F   UNL A   1      49.047  31.891  27.120  1.00  0.00    -0.203 F 
ATOM     43  C   UNL A   1      47.801  33.790  26.551  1.00  0.00     0.198 A 
ATOM     44  C   UNL A   1      45.432  33.673  26.325  1.00  0.00     0.198 A 
ATOM     45  F   UNL A   1      44.277  31.741  26.846  1.00  0.00    -0.203 F 
ATOM     46  F   UNL A   1      48.928  34.515  26.573  1.00  0.00    -0.200 F 
ATOM     47  C   UNL A   1      46.595  34.414  26.291  1.00  0.00     0.200 A 
ATOM     48  F   UNL A   1      44.251  34.266  26.097  1.00  0.00    -0.200 F 
ATOM     49  F   UNL A   1      46.544  35.733  26.059  1.00  0.00    -0.200 F 
ENDBRANCH  25  39
BRANCH  26  50
ATOM     50  C   UNL A   1      38.950  28.751  29.510  1.00  0.00     0.064 A 
ATOM     51  C   UNL A   1      38.098  28.972  30.605  1.00  0.00     0.173 A 
ATOM     52  C   UNL A   1      38.460  29.143  28.249  1.00  0.00     0.173 A 
ATOM     53  F   UNL A   1      38.506  28.672  31.848  1.00  0.00    -0.203 F 
ATOM     54  C   UNL A   1      36.841  29.568  30.450  1.00  0.00     0.198 A 
ATOM     55  C   UNL A   1      37.206  29.735  28.094  1.00  0.00     0.198 A 
ATOM     56  F   UNL A   1      39.230  29.044  27.155  1.00  0.00    -0.203 F 
ATOM     57  F   UNL A   1      36.079  29.814  31.524  1.00  0.00    -0.200 F 
ATOM     58  C   UNL A   1      36.400  29.959  29.196  1.00  0.00     0.200 A 
ATOM     59  F   UNL A   1      36.809  30.145  26.881  1.00  0.00    -0.200 F 
ATOM     60  F   UNL A   1      35.225  30.586  29.053  1.00  0.00    -0.200 F 
ENDBRANCH  26  50
BRANCH  38  61
ATOM     61  C   UNL A   1      44.514  28.121  32.405  1.00  0.00     0.064 A 
ATOM     62  C   UNL A   1      44.309  28.349  33.778  1.00  0.00     0.173 A 
ATOM     63  C   UNL A   1      44.507  26.789  31.974  1.00  0.00     0.173 A 
ATOM     64  F   UNL A   1      44.190  29.588  34.264  1.00  0.00    -0.203 F 
ATOM     65  C   UNL A   1      44.150  27.294  34.678  1.00  0.00     0.198 A 
ATOM     66  C   UNL A   1      44.307  25.739  32.867  1.00  0.00     0.198 A 
ATOM     67  F   UNL A   1      44.632  26.506  30.669  1.00  0.00    -0.203 F 
ATOM     68  F   UNL A   1      43.961  27.545  35.983  1.00  0.00    -0.200 F 
ATOM     69  C   UNL A   1      44.141  25.990  34.219  1.00  0.00     0.200 A 
ATOM     70  F   UNL A   1      44.241  24.482  32.408  1.00  0.00    -0.200 F 
ATOM     71  F   UNL A   1      43.940  24.977  35.073  1.00  0.00    -0.200 F 
ENDBRANCH  38  61
ENDBRANCH  12  13
ENDBRANCH   5   7
ENDBRANCH   4   5
ENDBRANCH   3   4
ENDBRANCH   2   3
ENDBRANCH   1   2
BRANCH   1  72
ATOM     72  C   UNL A   1      43.312  18.255  26.200  1.00  0.00     0.338 C 
ATOM     73  O   UNL A   1      43.390  17.362  27.029  1.00  0.00    -0.246 OA
BRANCH  72  74
ATOM     74  C   UNL A   1      42.255  19.274  26.178  1.00  0.00     0.060 A 
ATOM     75  C   UNL A   1      40.960  18.928  25.775  1.00  0.00     0.018 A 
ATOM     76  C   UNL A   1      42.559  20.578  26.565  1.00  0.00     0.018 A 
ATOM     77  C   UNL A   1      39.934  19.873  25.828  1.00  0.00     0.029 A 
ATOM     78  C   UNL A   1      41.558  21.546  26.536  1.00  0.00     0.029 A 
ATOM     79  C   UNL A   1      40.246  21.190  26.177  1.00  0.00     0.066 A 
BRANCH  79  80
ATOM     80  N   UNL A   1      39.260  22.190  26.068  1.00  0.00    -0.220 N 
ATOM     81  C   UNL A   1      38.126  22.115  25.311  1.00  0.00     0.141 A 
ATOM     82  N   UNL A   1      39.284  23.368  26.725  1.00  0.00    -0.062 NA
ATOM     83  C   UNL A   1      37.440  23.281  25.558  1.00  0.00     0.093 A 
ATOM     84  N   UNL A   1      38.215  24.073  26.359  1.00  0.00    -0.134 NA
BRANCH  83  85
ATOM     85  C   UNL A   1      36.163  23.719  24.959  1.00  0.00     0.138 C 
BRANCH  85  86
ATOM     86  S   UNL A   1      34.783  24.299  25.948  1.00  0.00    -0.081 SA
BRANCH  86  87
ATOM     87  C   UNL A   1      33.520  25.011  24.975  1.00  0.00     0.176 A 
ATOM     88  N   UNL A   1      33.796  26.239  24.645  1.00  0.00    -0.223 NA
ATOM     89  N   UNL A   1      32.349  24.389  24.563  1.00  0.00    -0.255 N 
ATOM     90  C   UNL A   1      32.826  26.982  23.967  1.00  0.00     0.079 A 
ATOM     91  C   UNL A   1      31.235  25.241  24.522  1.00  0.00     0.266 A 
ATOM     92  C   UNL A   1      33.156  28.168  23.310  1.00  0.00     0.029 A 
ATOM     93  C   UNL A   1      31.493  26.606  24.036  1.00  0.00     0.066 A 
ATOM     94  O   UNL A   1      30.087  24.952  24.854  1.00  0.00    -0.268 OA
ATOM     95  C   UNL A   1      32.149  28.994  22.798  1.00  0.00     0.002 A 
ATOM     96  C   UNL A   1      30.471  27.446  23.583  1.00  0.00     0.016 A 
ATOM     97  C   UNL A   1      30.807  28.653  22.969  1.00  0.00     0.001 A 
BRANCH  89  98
ATOM     98  C   UNL A   1      32.169  22.988  24.228  1.00  0.00     0.051 A 
ATOM     99  C   UNL A   1      32.088  22.016  25.248  1.00  0.00     0.028 A 
ATOM    100  C   UNL A   1      32.040  22.499  22.922  1.00  0.00     0.028 A 
ATOM    101  C   UNL A   1      32.164  20.645  24.981  1.00  0.00     0.022 A 
ATOM    102  C   UNL A   1      32.173  21.130  22.638  1.00  0.00     0.022 A 
ATOM    103  C   UNL A   1      32.292  20.214  23.673  1.00  0.00     0.041 A 
ATOM    104  Cl  UNL A   1      32.641  18.568  23.337  1.00  0.00    -0.084 Cl
ENDBRANCH  89  98
ENDBRANCH  86  87
ENDBRANCH  85  86
ENDBRANCH  83  85
ENDBRANCH  79  80
ENDBRANCH  72  74
ENDBRANCH   1  72
TORSDOF 16
ENDMDL
MODEL 3
REMARK VINA RESULT:     -13.3      4.052      9.931
REMARK SMILES O=C(OCCOC(=O)c1ccc(-n2cc(CSc3nc4ccccc4c(=O)n3-c3ccc(Cl)cc3)nn2)cc1)c1ccc(-c2c3nc(c(-c4c(F)c(F)c(F)c(F)c4F)c4ccc([nH]4)c(-c4c(F)c(F)c(F)c(F)c4F)c4nc(c(-c5c(F)c(F)c(F)c(F)c5F)c5ccc2[nH]5)C=C4)C=C3)cc1
REMARK SMILES IDX 6 1 5 2 4 3 3 4 2 5 1 6 40 7 41 8 102 9 42 10 101 11 43 12
REMARK SMILES IDX 44 13 45 14 95 15 46 16 100 17 94 18 96 19 47 20 99 21 93 22
REMARK SMILES IDX 92 23 48 25 80 26 60 27 79 28 61 29 64 30 78 31 97 32 62 33
REMARK SMILES IDX 63 34 77 36 98 37 65 38 49 39 50 40 58 41 51 42 52 43 56 44
REMARK SMILES IDX 59 45 53 46 54 47 57 48 55 49 81 50 82 51 90 52 83 53 84 54
REMARK SMILES IDX 88 55 91 56 85 57 86 58 89 59 87 60 66 61 67 62 75 63 68 64
REMARK SMILES IDX 69 65 73 66 76 67 70 68 71 69 74 70 72 71 7 72 8 73 9 74
REMARK SMILES IDX 10 75 39 76 11 77 38 78 12 79 13 80 14 81 37 82 15 83 36 84
REMARK SMILES IDX 16 85 17 86 18 87 19 88 28 89 20 90 26 91 21 92 25 93 27 94
REMARK SMILES IDX 22 95 24 96 23 97 29 98 30 99 35 100 31 101 34 102 32 103
REMARK SMILES IDX 33 104
REMARK H PARENT 96 24 64 35
REMARK Flexibility Score: inf
ROOT
ATOM      1  O   UNL A   1      32.304  36.355  30.050  1.00  0.00    -0.458 OA
ENDROOT
BRANCH   1   2
ATOM      2  C   UNL A   1      32.758  36.674  31.376  1.00  0.00     0.275 C 
BRANCH   2   3
ATOM      3  C   UNL A   1      32.371  35.569  32.360  1.00  0.00     0.275 C 
BRANCH   3   4
ATOM      4  O   UNL A   1      33.373  34.580  32.674  1.00  0.00    -0.458 OA
BRANCH   4   5
ATOM      5  C   UNL A   1      34.540  34.948  33.244  1.00  0.00     0.338 C 
ATOM      6  O   UNL A   1      34.619  35.736  34.174  1.00  0.00    -0.246 OA
BRANCH   5   7
ATOM      7  C   UNL A   1      35.680  34.077  32.870  1.00  0.00     0.060 A 
ATOM      8  C   UNL A   1      35.591  32.687  32.754  1.00  0.00     0.016 A 
ATOM      9  C   UNL A   1      36.894  34.720  32.593  1.00  0.00     0.016 A 
ATOM     10  C   UNL A   1      36.729  31.939  32.477  1.00  0.00     0.010 A 
ATOM     11  C   UNL A   1      38.017  33.980  32.266  1.00  0.00     0.010 A 
ATOM     12  C   UNL A   1      37.952  32.587  32.278  1.00  0.00    -0.014 A 
BRANCH  12  13
ATOM     13  C   UNL A   1      39.138  31.785  31.979  1.00  0.00     0.031 A 
ATOM     14  C   UNL A   1      39.999  31.452  33.161  1.00  0.00     0.074 A 
ATOM     15  C   UNL A   1      39.335  31.233  30.762  1.00  0.00     0.049 A 
ATOM     16  N   UNL A   1      41.266  31.652  33.343  1.00  0.00    -0.248 NA
ATOM     17  C   UNL A   1      39.319  30.897  34.339  1.00  0.00     0.031 C 
ATOM     18  C   UNL A   1      38.454  31.246  29.589  1.00  0.00     0.029 A 
ATOM     19  N   UNL A   1      40.365  30.450  30.345  1.00  0.00    -0.354 N 
ATOM     20  C   UNL A   1      41.570  31.100  34.594  1.00  0.00     0.074 A 
ATOM     21  C   UNL A   1      40.319  30.758  35.208  1.00  0.00     0.031 C 
ATOM     22  C   UNL A   1      38.880  30.328  28.690  1.00  0.00     0.029 A 
ATOM     23  C   UNL A   1      40.141  29.778  29.150  1.00  0.00     0.049 A 
ATOM     24  H   UNL A   1      41.205  30.365  30.851  1.00  0.00     0.167 HD
ATOM     25  C   UNL A   1      42.844  30.790  34.969  1.00  0.00     0.037 A 
ATOM     26  C   UNL A   1      40.928  28.814  28.609  1.00  0.00     0.037 A 
ATOM     27  C   UNL A   1      43.808  31.541  34.217  1.00  0.00     0.049 A 
ATOM     28  C   UNL A   1      42.261  28.923  29.256  1.00  0.00     0.074 A 
ATOM     29  C   UNL A   1      44.073  32.891  34.096  1.00  0.00     0.029 A 
ATOM     30  N   UNL A   1      44.395  30.952  33.125  1.00  0.00    -0.354 N 
ATOM     31  N   UNL A   1      43.058  29.944  29.092  1.00  0.00    -0.248 NA
ATOM     32  C   UNL A   1      42.479  28.139  30.463  1.00  0.00     0.031 C 
ATOM     33  C   UNL A   1      44.279  33.086  32.699  1.00  0.00     0.029 A 
ATOM     34  C   UNL A   1      44.242  31.835  32.084  1.00  0.00     0.049 A 
ATOM     35  H   UNL A   1      44.836  30.073  33.095  1.00  0.00     0.167 HD
ATOM     36  C   UNL A   1      43.588  30.182  30.350  1.00  0.00     0.074 A 
ATOM     37  C   UNL A   1      43.234  29.006  31.145  1.00  0.00     0.031 C 
ATOM     38  C   UNL A   1      44.016  31.425  30.719  1.00  0.00     0.037 A 
BRANCH  25  39
ATOM     39  C   UNL A   1      43.212  29.591  35.806  1.00  0.00     0.064 A 
ATOM     40  C   UNL A   1      44.015  29.748  36.951  1.00  0.00     0.173 A 
ATOM     41  C   UNL A   1      43.048  28.262  35.355  1.00  0.00     0.173 A 
ATOM     42  F   UNL A   1      44.261  30.968  37.453  1.00  0.00    -0.203 F 
ATOM     43  C   UNL A   1      44.654  28.663  37.561  1.00  0.00     0.198 A 
ATOM     44  C   UNL A   1      43.643  27.177  35.996  1.00  0.00     0.198 A 
ATOM     45  F   UNL A   1      42.406  27.980  34.216  1.00  0.00    -0.203 F 
ATOM     46  F   UNL A   1      45.499  28.872  38.580  1.00  0.00    -0.200 F 
ATOM     47  C   UNL A   1      44.471  27.379  37.080  1.00  0.00     0.200 A 
ATOM     48  F   UNL A   1      43.470  25.943  35.503  1.00  0.00    -0.200 F 
ATOM     49  F   UNL A   1      45.125  26.346  37.626  1.00  0.00    -0.200 F 
ENDBRANCH  25  39
BRANCH  26  50
ATOM     50  C   UNL A   1      40.519  27.613  27.842  1.00  0.00     0.064 A 
ATOM     51  C   UNL A   1      41.174  27.244  26.655  1.00  0.00     0.173 A 
ATOM     52  C   UNL A   1      39.664  26.647  28.409  1.00  0.00     0.173 A 
ATOM     53  F   UNL A   1      42.042  28.087  26.075  1.00  0.00    -0.203 F 
ATOM     54  C   UNL A   1      41.002  25.978  26.083  1.00  0.00     0.198 A 
ATOM     55  C   UNL A   1      39.491  25.386  27.837  1.00  0.00     0.198 A 
ATOM     56  F   UNL A   1      39.056  26.876  29.581  1.00  0.00    -0.203 F 
ATOM     57  F   UNL A   1      41.687  25.642  24.981  1.00  0.00    -0.200 F 
ATOM     58  C   UNL A   1      40.169  25.046  26.680  1.00  0.00     0.200 A 
ATOM     59  F   UNL A   1      38.713  24.480  28.447  1.00  0.00    -0.200 F 
ATOM     60  F   UNL A   1      40.050  23.814  26.169  1.00  0.00    -0.200 F 
ENDBRANCH  26  50
BRANCH  38  61
ATOM     61  C   UNL A   1      44.040  32.509  29.674  1.00  0.00     0.064 A 
ATOM     62  C   UNL A   1      42.968  33.383  29.417  1.00  0.00     0.173 A 
ATOM     63  C   UNL A   1      45.253  32.786  29.032  1.00  0.00     0.173 A 
ATOM     64  F   UNL A   1      41.806  33.264  30.068  1.00  0.00    -0.203 F 
ATOM     65  C   UNL A   1      43.094  34.453  28.530  1.00  0.00     0.198 A 
ATOM     66  C   UNL A   1      45.390  33.878  28.178  1.00  0.00     0.198 A 
ATOM     67  F   UNL A   1      46.333  32.030  29.283  1.00  0.00    -0.203 F 
ATOM     68  F   UNL A   1      42.051  35.266  28.303  1.00  0.00    -0.200 F 
ATOM     69  C   UNL A   1      44.308  34.704  27.918  1.00  0.00     0.200 A 
ATOM     70  F   UNL A   1      46.583  34.150  27.634  1.00  0.00    -0.200 F 
ATOM     71  F   UNL A   1      44.445  35.758  27.102  1.00  0.00    -0.200 F 
ENDBRANCH  38  61
ENDBRANCH  12  13
ENDBRANCH   5   7
ENDBRANCH   4   5
ENDBRANCH   3   4
ENDBRANCH   2   3
ENDBRANCH   1   2
BRANCH   1  72
ATOM     72  C   UNL A   1      33.251  36.343  29.080  1.00  0.00     0.338 C 
ATOM     73  O   UNL A   1      33.823  37.294  28.571  1.00  0.00    -0.246 OA
BRANCH  72  74
ATOM     74  C   UNL A   1      33.534  34.939  28.758  1.00  0.00     0.060 A 
ATOM     75  C   UNL A   1      34.637  34.299  29.332  1.00  0.00     0.018 A 
ATOM     76  C   UNL A   1      32.690  34.261  27.880  1.00  0.00     0.018 A 
ATOM     77  C   UNL A   1      34.864  32.942  29.091  1.00  0.00     0.029 A 
ATOM     78  C   UNL A   1      32.961  32.931  27.568  1.00  0.00     0.029 A 
ATOM     79  C   UNL A   1      34.042  32.272  28.181  1.00  0.00     0.066 A 
BRANCH  79  80
ATOM     80  N   UNL A   1      34.361  30.955  27.795  1.00  0.00    -0.220 N 
ATOM     81  C   UNL A   1      33.490  30.043  27.271  1.00  0.00     0.141 A 
ATOM     82  N   UNL A   1      35.594  30.410  27.865  1.00  0.00    -0.062 NA
ATOM     83  C   UNL A   1      34.247  28.929  26.990  1.00  0.00     0.093 A 
ATOM     84  N   UNL A   1      35.517  29.148  27.448  1.00  0.00    -0.134 NA
BRANCH  83  85
ATOM     85  C   UNL A   1      33.782  27.639  26.443  1.00  0.00     0.138 C 
BRANCH  85  86
ATOM     86  S   UNL A   1      32.049  27.178  26.403  1.00  0.00    -0.081 SA
BRANCH  86  87
ATOM     87  C   UNL A   1      31.745  25.821  25.347  1.00  0.00     0.176 A 
ATOM     88  N   UNL A   1      32.055  24.689  25.909  1.00  0.00    -0.223 NA
ATOM     89  N   UNL A   1      31.226  25.880  24.060  1.00  0.00    -0.255 N 
ATOM     90  C   UNL A   1      31.981  23.522  25.145  1.00  0.00     0.079 A 
ATOM     91  C   UNL A   1      31.767  24.928  23.183  1.00  0.00     0.266 A 
ATOM     92  C   UNL A   1      31.985  22.264  25.749  1.00  0.00     0.029 A 
ATOM     93  C   UNL A   1      32.017  23.597  23.761  1.00  0.00     0.066 A 
ATOM     94  O   UNL A   1      32.048  25.107  21.999  1.00  0.00    -0.268 OA
ATOM     95  C   UNL A   1      32.098  21.107  24.969  1.00  0.00     0.002 A 
ATOM     96  C   UNL A   1      32.190  22.457  22.970  1.00  0.00     0.016 A 
ATOM     97  C   UNL A   1      32.240  21.206  23.584  1.00  0.00     0.001 A 
BRANCH  89  98
ATOM     98  C   UNL A   1      30.250  26.824  23.549  1.00  0.00     0.051 A 
ATOM     99  C   UNL A   1      30.668  27.957  22.819  1.00  0.00     0.028 A 
ATOM    100  C   UNL A   1      28.864  26.690  23.706  1.00  0.00     0.028 A 
ATOM    101  C   UNL A   1      29.803  29.015  22.521  1.00  0.00     0.022 A 
ATOM    102  C   UNL A   1      27.994  27.766  23.465  1.00  0.00     0.022 A 
ATOM    103  C   UNL A   1      28.481  28.947  22.924  1.00  0.00     0.041 A 
ATOM    104  Cl  UNL A   1      27.469  30.326  22.800  1.00  0.00    -0.084 Cl
ENDBRANCH  89  98
ENDBRANCH  86  87
ENDBRANCH  85  86
ENDBRANCH  83  85
ENDBRANCH  79  80
ENDBRANCH  72  74
ENDBRANCH   1  72
TORSDOF 16
ENDMDL
