MODEL 1
REMARK VINA RESULT:     -13.5      0.000      0.000
REMARK SMILES O=C(OCCOC(=O)[C@@H]1CCCC[C@H]1C(=O)Nc1ccccc1C(=O)N1CCOCC1)c1ccc(-c2c3nc(c(-c4c(F)c(F)c(F)c(F)c4F)c4ccc([nH]4)c(-c4c(F)c(F)c(F)c(F)c4F)c4nc(c(-c5c(F)c(F)c(F)c(F)c5F)c5ccc2[nH]5)C=C4)C=C3)cc1
REMARK SMILES IDX 5 1 4 2 3 3 2 4 1 5 32 6 33 7 94 8 34 9 93 10 35 11 36 12
REMARK SMILES IDX 37 13 87 14 38 15 92 16 86 17 88 18 39 19 91 20 85 21 84 22
REMARK SMILES IDX 40 24 72 25 52 26 71 27 53 28 56 29 70 30 89 31 54 32 55 33
REMARK SMILES IDX 69 35 90 36 57 37 41 38 42 39 50 40 43 41 44 42 48 43 51 44
REMARK SMILES IDX 45 45 46 46 49 47 47 48 73 49 74 50 82 51 75 52 76 53 80 54
REMARK SMILES IDX 83 55 77 56 78 57 81 58 79 59 58 60 59 61 67 62 60 63 61 64
REMARK SMILES IDX 65 65 68 66 62 67 63 68 66 69 64 70 6 71 7 72 8 73 9 74
REMARK SMILES IDX 10 75 14 76 11 77 13 78 12 79 15 80 16 81 17 82 18 84 19 85
REMARK SMILES IDX 23 86 20 87 22 88 21 89 24 90 25 91 26 92 27 93 31 94 28 95
REMARK SMILES IDX 30 96 29 97
REMARK H PARENT 88 23 56 34 17 83
REMARK Flexibility Score: inf
ROOT
ATOM      1  C   UNL A   1      35.000  20.655  24.905  1.00  0.00     0.274 C 
ENDROOT
BRANCH   1   2
ATOM      2  C   UNL A   1      36.323  19.812  25.024  1.00  0.00     0.275 C 
BRANCH   2   3
ATOM      3  O   UNL A   1      37.653  20.317  24.706  1.00  0.00    -0.458 OA
BRANCH   3   4
ATOM      4  C   UNL A   1      38.825  20.188  25.403  1.00  0.00     0.338 C 
ATOM      5  O   UNL A   1      39.395  19.113  25.552  1.00  0.00    -0.246 OA
BRANCH   4   6
ATOM      6  C   UNL A   1      39.256  21.325  26.248  1.00  0.00     0.060 A 
ATOM      7  C   UNL A   1      40.668  21.110  27.138  1.00  0.00     0.016 A 
ATOM      8  C   UNL A   1      38.502  22.905  26.016  1.00  0.00     0.016 A 
ATOM      9  C   UNL A   1      41.433  22.525  27.815  1.00  0.00     0.010 A 
ATOM     10  C   UNL A   1      39.271  24.436  26.512  1.00  0.00     0.010 A 
ATOM     11  C   UNL A   1      40.803  24.360  27.451  1.00  0.00    -0.014 A 
BRANCH  11  12
ATOM     12  C   UNL A   1      41.260  25.956  27.708  1.00  0.00     0.031 A 
ATOM     13  C   UNL A   1      42.701  26.374  27.260  1.00  0.00     0.074 A 
ATOM     14  C   UNL A   1      40.675  26.941  28.481  1.00  0.00     0.049 A 
ATOM     15  N   UNL A   1      43.353  27.514  27.437  1.00  0.00    -0.248 NA
ATOM     16  C   UNL A   1      43.526  25.368  26.585  1.00  0.00     0.031 C 
ATOM     17  C   UNL A   1      39.398  26.936  29.187  1.00  0.00     0.029 A 
ATOM     18  N   UNL A   1      41.131  28.226  28.827  1.00  0.00    -0.354 N 
ATOM     19  C   UNL A   1      44.644  27.324  26.943  1.00  0.00     0.074 A 
ATOM     20  C   UNL A   1      44.705  25.957  26.488  1.00  0.00     0.031 C 
ATOM     21  C   UNL A   1      39.185  28.053  29.877  1.00  0.00     0.029 A 
ATOM     22  C   UNL A   1      40.293  28.941  29.669  1.00  0.00     0.049 A 
ATOM     23  H   UNL A   1      41.984  28.589  28.497  1.00  0.00     0.167 HD
ATOM     24  C   UNL A   1      45.700  28.174  26.835  1.00  0.00     0.037 A 
ATOM     25  C   UNL A   1      40.289  30.169  30.230  1.00  0.00     0.037 A 
ATOM     26  C   UNL A   1      45.727  29.569  27.179  1.00  0.00     0.049 A 
ATOM     27  C   UNL A   1      41.361  31.159  29.954  1.00  0.00     0.074 A 
ATOM     28  C   UNL A   1      46.717  30.504  26.907  1.00  0.00     0.029 A 
ATOM     29  N   UNL A   1      44.740  30.235  27.874  1.00  0.00    -0.354 N 
ATOM     30  N   UNL A   1      42.485  30.976  29.324  1.00  0.00    -0.248 NA
ATOM     31  C   UNL A   1      41.149  32.533  30.440  1.00  0.00     0.031 C 
ATOM     32  C   UNL A   1      46.332  31.736  27.451  1.00  0.00     0.029 A 
ATOM     33  C   UNL A   1      45.097  31.567  28.042  1.00  0.00     0.049 A 
ATOM     34  H   UNL A   1      43.906  29.827  28.202  1.00  0.00     0.167 HD
ATOM     35  C   UNL A   1      43.099  32.216  29.298  1.00  0.00     0.074 A 
ATOM     36  C   UNL A   1      42.239  33.143  29.996  1.00  0.00     0.031 C 
ATOM     37  C   UNL A   1      44.274  32.532  28.712  1.00  0.00     0.037 A 
BRANCH  24  38
ATOM     38  C   UNL A   1      46.968  27.606  26.258  1.00  0.00     0.064 A 
ATOM     39  C   UNL A   1      47.191  27.593  24.873  1.00  0.00     0.173 A 
ATOM     40  C   UNL A   1      47.970  27.095  27.095  1.00  0.00     0.173 A 
ATOM     41  F   UNL A   1      46.254  28.062  24.035  1.00  0.00    -0.203 F 
ATOM     42  C   UNL A   1      48.359  27.053  24.343  1.00  0.00     0.198 A 
ATOM     43  C   UNL A   1      49.147  26.576  26.562  1.00  0.00     0.198 A 
ATOM     44  F   UNL A   1      47.805  27.094  28.426  1.00  0.00    -0.203 F 
ATOM     45  F   UNL A   1      48.528  27.003  23.015  1.00  0.00    -0.200 F 
ATOM     46  C   UNL A   1      49.336  26.547  25.188  1.00  0.00     0.200 A 
ATOM     47  F   UNL A   1      50.093  26.089  27.378  1.00  0.00    -0.200 F 
ATOM     48  F   UNL A   1      50.456  26.018  24.675  1.00  0.00    -0.200 F 
ENDBRANCH  24  38
BRANCH  25  49
ATOM     49  C   UNL A   1      39.144  30.559  31.105  1.00  0.00     0.064 A 
ATOM     50  C   UNL A   1      39.171  30.322  32.487  1.00  0.00     0.173 A 
ATOM     51  C   UNL A   1      38.034  31.232  30.574  1.00  0.00     0.173 A 
ATOM     52  F   UNL A   1      40.212  29.678  33.034  1.00  0.00    -0.203 F 
ATOM     53  C   UNL A   1      38.121  30.733  33.305  1.00  0.00     0.198 A 
ATOM     54  C   UNL A   1      36.993  31.656  31.396  1.00  0.00     0.198 A 
ATOM     55  F   UNL A   1      37.982  31.505  29.262  1.00  0.00    -0.203 F 
ATOM     56  F   UNL A   1      38.160  30.479  34.620  1.00  0.00    -0.200 F 
ATOM     57  C   UNL A   1      37.036  31.404  32.760  1.00  0.00     0.200 A 
ATOM     58  F   UNL A   1      35.954  32.317  30.869  1.00  0.00    -0.200 F 
ATOM     59  F   UNL A   1      36.030  31.807  33.549  1.00  0.00    -0.200 F 
ENDBRANCH  25  49
BRANCH  37  60
ATOM     60  C   UNL A   1      44.682  33.968  28.728  1.00  0.00     0.064 A 
ATOM     61  C   UNL A   1      45.491  34.496  29.742  1.00  0.00     0.173 A 
ATOM     62  C   UNL A   1      44.234  34.832  27.719  1.00  0.00     0.173 A 
ATOM     63  F   UNL A   1      45.916  33.711  30.745  1.00  0.00    -0.203 F 
ATOM     64  C   UNL A   1      45.831  35.847  29.750  1.00  0.00     0.198 A 
ATOM     65  C   UNL A   1      44.584  36.178  27.724  1.00  0.00     0.198 A 
ATOM     66  F   UNL A   1      43.442  34.371  26.738  1.00  0.00    -0.203 F 
ATOM     67  F   UNL A   1      46.578  36.342  30.747  1.00  0.00    -0.200 F 
ATOM     68  C   UNL A   1      45.379  36.685  28.741  1.00  0.00     0.200 A 
ATOM     69  F   UNL A   1      44.141  36.988  26.753  1.00  0.00    -0.200 F 
ATOM     70  F   UNL A   1      45.699  37.986  28.756  1.00  0.00    -0.200 F 
ENDBRANCH  37  60
ENDBRANCH  11  12
ENDBRANCH   4   6
ENDBRANCH   3   4
ENDBRANCH   2   3
ENDBRANCH   1   2
BRANCH   1  71
ATOM     71  O   UNL A   1      34.398  21.227  26.087  1.00  0.00    -0.462 OA
BRANCH  71  72
ATOM     72  C   UNL A   1      34.504  22.543  26.382  1.00  0.00     0.309 C 
ATOM     73  O   UNL A   1      35.495  23.037  26.908  1.00  0.00    -0.252 OA
BRANCH  72  74
ATOM     74  C   UNL A   1      33.254  23.355  25.929  1.00  0.00     0.111 C 
ATOM     75  C   UNL A   1      32.004  22.519  26.349  1.00  0.00     0.016 C 
ATOM     76  C   UNL A   1      33.191  23.648  24.416  1.00  0.00     0.093 C 
ATOM     77  C   UNL A   1      30.662  23.033  25.827  1.00  0.00     0.001 C 
ATOM     78  C   UNL A   1      31.806  24.148  23.940  1.00  0.00     0.014 C 
ATOM     79  C   UNL A   1      30.687  23.201  24.318  1.00  0.00     0.001 C 
BRANCH  76  80
ATOM     80  C   UNL A   1      34.223  24.560  23.740  1.00  0.00     0.228 C 
ATOM     81  O   UNL A   1      35.187  24.041  23.161  1.00  0.00    -0.274 OA
ATOM     82  N   UNL A   1      33.951  25.890  23.497  1.00  0.00    -0.325 N 
ATOM     83  H   UNL A   1      34.197  26.204  22.597  1.00  0.00     0.169 HD
BRANCH  82  84
ATOM     84  C   UNL A   1      33.380  26.867  24.324  1.00  0.00     0.054 A 
ATOM     85  C   UNL A   1      33.905  26.986  25.627  1.00  0.00     0.027 A 
ATOM     86  C   UNL A   1      32.357  27.725  23.943  1.00  0.00     0.063 A 
ATOM     87  C   UNL A   1      33.580  28.076  26.448  1.00  0.00     0.002 A 
ATOM     88  C   UNL A   1      32.141  28.888  24.734  1.00  0.00     0.016 A 
ATOM     89  C   UNL A   1      32.736  29.065  25.977  1.00  0.00     0.001 A 
BRANCH  86  90
ATOM     90  C   UNL A   1      31.455  27.613  22.750  1.00  0.00     0.256 C 
ATOM     91  O   UNL A   1      32.077  27.038  21.856  1.00  0.00    -0.269 OA
ATOM     92  N   UNL A   1      30.161  28.438  22.499  1.00  0.00    -0.334 N 
ATOM     93  C   UNL A   1      29.613  30.340  21.749  1.00  0.00     0.148 C 
ATOM     94  C   UNL A   1      28.865  27.475  23.340  1.00  0.00     0.148 C 
ATOM     95  C   UNL A   1      27.817  30.922  22.262  1.00  0.00     0.181 C 
ATOM     96  C   UNL A   1      27.166  28.299  23.608  1.00  0.00     0.181 C 
ATOM     97  O   UNL A   1      26.901  29.952  23.313  1.00  0.00    -0.378 OA
ENDBRANCH  86  90
ENDBRANCH  82  84
ENDBRANCH  76  80
ENDBRANCH  72  74
ENDBRANCH  71  72
ENDBRANCH   1  71
TORSDOF 14
ENDMDL
MODEL 2
REMARK VINA RESULT:     -13.4      4.273     10.299
REMARK SMILES O=C(OCCOC(=O)[C@@H]1CCCC[C@H]1C(=O)Nc1ccccc1C(=O)N1CCOCC1)c1ccc(-c2c3nc(c(-c4c(F)c(F)c(F)c(F)c4F)c4ccc([nH]4)c(-c4c(F)c(F)c(F)c(F)c4F)c4nc(c(-c5c(F)c(F)c(F)c(F)c5F)c5ccc2[nH]5)C=C4)C=C3)cc1
REMARK SMILES IDX 5 1 4 2 3 3 2 4 1 5 32 6 33 7 94 8 34 9 93 10 35 11 36 12
REMARK SMILES IDX 37 13 87 14 38 15 92 16 86 17 88 18 39 19 91 20 85 21 84 22
REMARK SMILES IDX 40 24 72 25 52 26 71 27 53 28 56 29 70 30 89 31 54 32 55 33
REMARK SMILES IDX 69 35 90 36 57 37 41 38 42 39 50 40 43 41 44 42 48 43 51 44
REMARK SMILES IDX 45 45 46 46 49 47 47 48 73 49 74 50 82 51 75 52 76 53 80 54
REMARK SMILES IDX 83 55 77 56 78 57 81 58 79 59 58 60 59 61 67 62 60 63 61 64
REMARK SMILES IDX 65 65 68 66 62 67 63 68 66 69 64 70 6 71 7 72 8 73 9 74
REMARK SMILES IDX 10 75 14 76 11 77 13 78 12 79 15 80 16 81 17 82 18 84 19 85
REMARK SMILES IDX 23 86 20 87 22 88 21 89 24 90 25 91 26 92 27 93 31 94 28 95
REMARK SMILES IDX 30 96 29 97
REMARK H PARENT 88 23 56 34 17 83
REMARK Flexibility Score: inf
ROOT
ATOM      1  C   UNL A   1      31.773  30.560  26.487  1.00  0.00     0.274 C 
ENDROOT
BRANCH   1   2
ATOM      2  C   UNL A   1      31.269  32.049  26.539  1.00  0.00     0.275 C 
BRANCH   2   3
ATOM      3  O   UNL A   1      32.131  33.204  26.758  1.00  0.00    -0.458 OA
BRANCH   3   4
ATOM      4  C   UNL A   1      32.871  33.546  27.858  1.00  0.00     0.338 C 
ATOM      5  O   UNL A   1      32.564  34.468  28.605  1.00  0.00    -0.246 OA
BRANCH   4   6
ATOM      6  C   UNL A   1      34.234  32.979  27.979  1.00  0.00     0.060 A 
ATOM      7  C   UNL A   1      35.495  34.079  28.147  1.00  0.00     0.016 A 
ATOM      8  C   UNL A   1      34.423  31.251  28.288  1.00  0.00     0.016 A 
ATOM      9  C   UNL A   1      37.039  33.478  28.697  1.00  0.00     0.010 A 
ATOM     10  C   UNL A   1      35.893  30.543  29.009  1.00  0.00     0.010 A 
ATOM     11  C   UNL A   1      37.317  31.611  29.271  1.00  0.00    -0.014 A 
BRANCH  11  12
ATOM     12  C   UNL A   1      38.487  30.642  29.991  1.00  0.00     0.031 A 
ATOM     13  C   UNL A   1      38.814  30.908  31.499  1.00  0.00     0.074 A 
ATOM     14  C   UNL A   1      39.413  29.788  29.424  1.00  0.00     0.049 A 
ATOM     15  N   UNL A   1      39.749  30.382  32.275  1.00  0.00    -0.248 NA
ATOM     16  C   UNL A   1      38.031  31.932  32.198  1.00  0.00     0.031 C 
ATOM     17  C   UNL A   1      39.557  29.354  28.039  1.00  0.00     0.029 A 
ATOM     18  N   UNL A   1      40.494  29.097  30.001  1.00  0.00    -0.354 N 
ATOM     19  C   UNL A   1      39.680  31.044  33.501  1.00  0.00     0.074 A 
ATOM     20  C   UNL A   1      38.639  32.034  33.367  1.00  0.00     0.031 C 
ATOM     21  C   UNL A   1      40.607  28.559  27.852  1.00  0.00     0.029 A 
ATOM     22  C   UNL A   1      41.257  28.351  29.115  1.00  0.00     0.049 A 
ATOM     23  H   UNL A   1      40.696  29.141  30.964  1.00  0.00     0.167 HD
ATOM     24  C   UNL A   1      40.373  30.870  34.659  1.00  0.00     0.037 A 
ATOM     25  C   UNL A   1      42.328  27.535  29.196  1.00  0.00     0.037 A 
ATOM     26  C   UNL A   1      41.368  29.869  34.930  1.00  0.00     0.049 A 
ATOM     27  C   UNL A   1      42.964  27.205  30.497  1.00  0.00     0.074 A 
ATOM     28  C   UNL A   1      41.952  29.543  36.146  1.00  0.00     0.029 A 
ATOM     29  N   UNL A   1      41.939  29.042  33.986  1.00  0.00    -0.354 N 
ATOM     30  N   UNL A   1      42.736  27.735  31.663  1.00  0.00    -0.248 NA
ATOM     31  C   UNL A   1      43.984  26.143  30.498  1.00  0.00     0.031 C 
ATOM     32  C   UNL A   1      42.889  28.523  35.935  1.00  0.00     0.029 A 
ATOM     33  C   UNL A   1      42.870  28.207  34.592  1.00  0.00     0.049 A 
ATOM     34  H   UNL A   1      41.720  29.042  33.027  1.00  0.00     0.167 HD
ATOM     35  C   UNL A   1      43.550  27.046  32.547  1.00  0.00     0.074 A 
ATOM     36  C   UNL A   1      44.298  26.075  31.783  1.00  0.00     0.031 C 
ATOM     37  C   UNL A   1      43.628  27.215  33.884  1.00  0.00     0.037 A 
BRANCH  24  38
ATOM     38  C   UNL A   1      40.036  31.799  35.793  1.00  0.00     0.064 A 
ATOM     39  C   UNL A   1      40.831  32.921  36.072  1.00  0.00     0.173 A 
ATOM     40  C   UNL A   1      38.902  31.577  36.587  1.00  0.00     0.173 A 
ATOM     41  F   UNL A   1      41.931  33.164  35.344  1.00  0.00    -0.203 F 
ATOM     42  C   UNL A   1      40.523  33.768  37.131  1.00  0.00     0.198 A 
ATOM     43  C   UNL A   1      38.585  32.440  37.633  1.00  0.00     0.198 A 
ATOM     44  F   UNL A   1      38.106  30.522  36.354  1.00  0.00    -0.203 F 
ATOM     45  F   UNL A   1      41.326  34.803  37.412  1.00  0.00    -0.200 F 
ATOM     46  C   UNL A   1      39.400  33.528  37.909  1.00  0.00     0.200 A 
ATOM     47  F   UNL A   1      37.498  32.212  38.383  1.00  0.00    -0.200 F 
ATOM     48  F   UNL A   1      39.111  34.341  38.936  1.00  0.00    -0.200 F 
ENDBRANCH  24  38
BRANCH  25  49
ATOM     49  C   UNL A   1      42.851  26.902  27.948  1.00  0.00     0.064 A 
ATOM     50  C   UNL A   1      43.891  27.492  27.215  1.00  0.00     0.173 A 
ATOM     51  C   UNL A   1      42.355  25.666  27.511  1.00  0.00     0.173 A 
ATOM     52  F   UNL A   1      44.391  28.676  27.597  1.00  0.00    -0.203 F 
ATOM     53  C   UNL A   1      44.407  26.872  26.080  1.00  0.00     0.198 A 
ATOM     54  C   UNL A   1      42.883  25.041  26.384  1.00  0.00     0.198 A 
ATOM     55  F   UNL A   1      41.380  25.054  28.200  1.00  0.00    -0.203 F 
ATOM     56  F   UNL A   1      45.388  27.463  25.384  1.00  0.00    -0.200 F 
ATOM     57  C   UNL A   1      43.906  25.645  25.668  1.00  0.00     0.200 A 
ATOM     58  F   UNL A   1      42.408  23.849  25.999  1.00  0.00    -0.200 F 
ATOM     59  F   UNL A   1      44.410  25.045  24.580  1.00  0.00    -0.200 F 
ENDBRANCH  25  49
BRANCH  37  60
ATOM     60  C   UNL A   1      44.507  26.277  34.642  1.00  0.00     0.064 A 
ATOM     61  C   UNL A   1      44.059  25.019  35.061  1.00  0.00     0.173 A 
ATOM     62  C   UNL A   1      45.816  26.659  34.970  1.00  0.00     0.173 A 
ATOM     63  F   UNL A   1      42.803  24.626  34.796  1.00  0.00    -0.203 F 
ATOM     64  C   UNL A   1      44.890  24.175  35.794  1.00  0.00     0.198 A 
ATOM     65  C   UNL A   1      46.647  25.809  35.692  1.00  0.00     0.198 A 
ATOM     66  F   UNL A   1      46.280  27.863  34.603  1.00  0.00    -0.203 F 
ATOM     67  F   UNL A   1      44.433  22.988  36.216  1.00  0.00    -0.200 F 
ATOM     68  C   UNL A   1      46.183  24.570  36.107  1.00  0.00     0.200 A 
ATOM     69  F   UNL A   1      47.893  26.195  36.000  1.00  0.00    -0.200 F 
ATOM     70  F   UNL A   1      46.978  23.761  36.820  1.00  0.00    -0.200 F 
ENDBRANCH  37  60
ENDBRANCH  11  12
ENDBRANCH   4   6
ENDBRANCH   3   4
ENDBRANCH   2   3
ENDBRANCH   1   2
BRANCH   1  71
ATOM     71  O   UNL A   1      31.700  29.813  25.253  1.00  0.00    -0.462 OA
BRANCH  71  72
ATOM     72  C   UNL A   1      31.691  28.460  25.232  1.00  0.00     0.309 C 
ATOM     73  O   UNL A   1      32.387  27.771  25.968  1.00  0.00    -0.252 OA
BRANCH  72  74
ATOM     74  C   UNL A   1      30.662  27.890  24.210  1.00  0.00     0.111 C 
ATOM     75  C   UNL A   1      29.974  29.121  23.539  1.00  0.00     0.016 C 
ATOM     76  C   UNL A   1      29.586  26.973  24.825  1.00  0.00     0.093 C 
ATOM     77  C   UNL A   1      28.782  28.798  22.637  1.00  0.00     0.001 C 
ATOM     78  C   UNL A   1      28.396  26.694  23.876  1.00  0.00     0.014 C 
ATOM     79  C   UNL A   1      27.747  27.966  23.372  1.00  0.00     0.001 C 
BRANCH  76  80
ATOM     80  C   UNL A   1      29.956  25.619  25.445  1.00  0.00     0.228 C 
ATOM     81  O   UNL A   1      29.432  25.293  26.518  1.00  0.00    -0.274 OA
ATOM     82  N   UNL A   1      30.599  24.647  24.707  1.00  0.00    -0.325 N 
ATOM     83  H   UNL A   1      30.227  23.741  24.804  1.00  0.00     0.169 HD
BRANCH  82  84
ATOM     84  C   UNL A   1      31.697  24.741  23.840  1.00  0.00     0.054 A 
ATOM     85  C   UNL A   1      31.419  25.017  22.486  1.00  0.00     0.027 A 
ATOM     86  C   UNL A   1      33.023  24.597  24.226  1.00  0.00     0.063 A 
ATOM     87  C   UNL A   1      32.437  25.368  21.588  1.00  0.00     0.002 A 
ATOM     88  C   UNL A   1      34.025  25.079  23.339  1.00  0.00     0.016 A 
ATOM     89  C   UNL A   1      33.745  25.455  22.031  1.00  0.00     0.001 A 
BRANCH  86  90
ATOM     90  C   UNL A   1      33.554  24.028  25.508  1.00  0.00     0.256 C 
ATOM     91  O   UNL A   1      32.958  24.568  26.440  1.00  0.00    -0.269 OA
ATOM     92  N   UNL A   1      34.891  23.251  25.682  1.00  0.00    -0.334 N 
ATOM     93  C   UNL A   1      36.950  23.675  25.933  1.00  0.00     0.148 C 
ATOM     94  C   UNL A   1      34.439  21.526  25.316  1.00  0.00     0.148 C 
ATOM     95  C   UNL A   1      38.137  22.178  25.512  1.00  0.00     0.181 C 
ATOM     96  C   UNL A   1      35.847  20.268  25.049  1.00  0.00     0.181 C 
ATOM     97  O   UNL A   1      37.473  20.740  24.901  1.00  0.00    -0.378 OA
ENDBRANCH  86  90
ENDBRANCH  82  84
ENDBRANCH  76  80
ENDBRANCH  72  74
ENDBRANCH  71  72
ENDBRANCH   1  71
TORSDOF 14
ENDMDL
MODEL 3
REMARK VINA RESULT:     -13.4      0.730      2.104
REMARK SMILES O=C(OCCOC(=O)[C@@H]1CCCC[C@H]1C(=O)Nc1ccccc1C(=O)N1CCOCC1)c1ccc(-c2c3nc(c(-c4c(F)c(F)c(F)c(F)c4F)c4ccc([nH]4)c(-c4c(F)c(F)c(F)c(F)c4F)c4nc(c(-c5c(F)c(F)c(F)c(F)c5F)c5ccc2[nH]5)C=C4)C=C3)cc1
REMARK SMILES IDX 5 1 4 2 3 3 2 4 1 5 32 6 33 7 94 8 34 9 93 10 35 11 36 12
REMARK SMILES IDX 37 13 87 14 38 15 92 16 86 17 88 18 39 19 91 20 85 21 84 22
REMARK SMILES IDX 40 24 72 25 52 26 71 27 53 28 56 29 70 30 89 31 54 32 55 33
REMARK SMILES IDX 69 35 90 36 57 37 41 38 42 39 50 40 43 41 44 42 48 43 51 44
REMARK SMILES IDX 45 45 46 46 49 47 47 48 73 49 74 50 82 51 75 52 76 53 80 54
REMARK SMILES IDX 83 55 77 56 78 57 81 58 79 59 58 60 59 61 67 62 60 63 61 64
REMARK SMILES IDX 65 65 68 66 62 67 63 68 66 69 64 70 6 71 7 72 8 73 9 74
REMARK SMILES IDX 10 75 14 76 11 77 13 78 12 79 15 80 16 81 17 82 18 84 19 85
REMARK SMILES IDX 23 86 20 87 22 88 21 89 24 90 25 91 26 92 27 93 31 94 28 95
REMARK SMILES IDX 30 96 29 97
REMARK H PARENT 88 23 56 34 17 83
REMARK Flexibility Score: inf
ROOT
ATOM      1  C   UNL A   1      34.578  20.078  24.846  1.00  0.00     0.274 C 
ENDROOT
BRANCH   1   2
ATOM      2  C   UNL A   1      35.824  20.977  25.183  1.00  0.00     0.275 C 
BRANCH   2   3
ATOM      3  O   UNL A   1      37.157  20.779  24.627  1.00  0.00    -0.458 OA
BRANCH   3   4
ATOM      4  C   UNL A   1      38.349  20.573  25.269  1.00  0.00     0.338 C 
ATOM      5  O   UNL A   1      38.866  19.467  25.370  1.00  0.00    -0.246 OA
BRANCH   4   6
ATOM      6  C   UNL A   1      38.877  21.666  26.118  1.00  0.00     0.060 A 
ATOM      7  C   UNL A   1      40.349  21.384  26.881  1.00  0.00     0.016 A 
ATOM      8  C   UNL A   1      38.148  23.271  26.006  1.00  0.00     0.016 A 
ATOM      9  C   UNL A   1      41.204  22.754  27.545  1.00  0.00     0.010 A 
ATOM     10  C   UNL A   1      38.994  24.763  26.494  1.00  0.00     0.010 A 
ATOM     11  C   UNL A   1      40.595  24.615  27.301  1.00  0.00    -0.014 A 
BRANCH  11  12
ATOM     12  C   UNL A   1      41.113  26.189  27.579  1.00  0.00     0.031 A 
ATOM     13  C   UNL A   1      42.574  26.553  27.150  1.00  0.00     0.074 A 
ATOM     14  C   UNL A   1      40.559  27.189  28.355  1.00  0.00     0.049 A 
ATOM     15  N   UNL A   1      43.269  27.664  27.345  1.00  0.00    -0.248 NA
ATOM     16  C   UNL A   1      43.366  25.521  26.474  1.00  0.00     0.031 C 
ATOM     17  C   UNL A   1      39.276  27.230  29.048  1.00  0.00     0.029 A 
ATOM     18  N   UNL A   1      41.063  28.452  28.719  1.00  0.00    -0.354 N 
ATOM     19  C   UNL A   1      44.557  27.427  26.863  1.00  0.00     0.074 A 
ATOM     20  C   UNL A   1      44.568  26.062  26.394  1.00  0.00     0.031 C 
ATOM     21  C   UNL A   1      39.100  28.348  29.746  1.00  0.00     0.029 A 
ATOM     22  C   UNL A   1      40.246  29.192  29.559  1.00  0.00     0.049 A 
ATOM     23  H   UNL A   1      41.933  28.784  28.401  1.00  0.00     0.167 HD
ATOM     24  C   UNL A   1      45.648  28.235  26.774  1.00  0.00     0.037 A 
ATOM     25  C   UNL A   1      40.285  30.414  30.131  1.00  0.00     0.037 A 
ATOM     26  C   UNL A   1      45.727  29.624  27.131  1.00  0.00     0.049 A 
ATOM     27  C   UNL A   1      41.398  31.362  29.876  1.00  0.00     0.074 A 
ATOM     28  C   UNL A   1      46.757  30.521  26.879  1.00  0.00     0.029 A 
ATOM     29  N   UNL A   1      44.760  30.322  27.823  1.00  0.00    -0.354 N 
ATOM     30  N   UNL A   1      42.521  31.140  29.256  1.00  0.00    -0.248 NA
ATOM     31  C   UNL A   1      41.237  32.739  30.373  1.00  0.00     0.031 C 
ATOM     32  C   UNL A   1      46.416  31.763  27.431  1.00  0.00     0.029 A 
ATOM     33  C   UNL A   1      45.169  31.638  28.008  1.00  0.00     0.049 A 
ATOM     34  H   UNL A   1      43.907  29.946  28.138  1.00  0.00     0.167 HD
ATOM     35  C   UNL A   1      43.185  32.355  29.249  1.00  0.00     0.074 A 
ATOM     36  C   UNL A   1      42.355  33.309  29.947  1.00  0.00     0.031 C 
ATOM     37  C   UNL A   1      44.378  32.629  28.678  1.00  0.00     0.037 A 
BRANCH  24  38
ATOM     38  C   UNL A   1      46.898  27.621  26.204  1.00  0.00     0.064 A 
ATOM     39  C   UNL A   1      47.841  26.997  27.033  1.00  0.00     0.173 A 
ATOM     40  C   UNL A   1      47.138  27.639  24.822  1.00  0.00     0.173 A 
ATOM     41  F   UNL A   1      47.656  26.967  28.361  1.00  0.00    -0.203 F 
ATOM     42  C   UNL A   1      49.002  26.444  26.502  1.00  0.00     0.198 A 
ATOM     43  C   UNL A   1      48.291  27.064  24.293  1.00  0.00     0.198 A 
ATOM     44  F   UNL A   1      46.260  28.216  23.989  1.00  0.00    -0.203 F 
ATOM     45  F   UNL A   1      49.915  25.900  27.318  1.00  0.00    -0.200 F 
ATOM     46  C   UNL A   1      49.225  26.477  25.133  1.00  0.00     0.200 A 
ATOM     47  F   UNL A   1      48.505  27.092  22.970  1.00  0.00    -0.200 F 
ATOM     48  F   UNL A   1      50.349  25.952  24.626  1.00  0.00    -0.200 F 
ENDBRANCH  24  38
BRANCH  25  49
ATOM     49  C   UNL A   1      39.147  30.842  30.998  1.00  0.00     0.064 A 
ATOM     50  C   UNL A   1      38.025  31.488  30.459  1.00  0.00     0.173 A 
ATOM     51  C   UNL A   1      39.143  30.551  32.370  1.00  0.00     0.173 A 
ATOM     52  F   UNL A   1      37.990  31.789  29.152  1.00  0.00    -0.203 F 
ATOM     53  C   UNL A   1      36.945  31.841  31.265  1.00  0.00     0.198 A 
ATOM     54  C   UNL A   1      38.055  30.890  33.171  1.00  0.00     0.198 A 
ATOM     55  F   UNL A   1      40.183  29.908  32.920  1.00  0.00    -0.203 F 
ATOM     56  F   UNL A   1      35.892  32.475  30.731  1.00  0.00    -0.200 F 
ATOM     57  C   UNL A   1      36.959  31.537  32.619  1.00  0.00     0.200 A 
ATOM     58  F   UNL A   1      38.065  30.581  34.474  1.00  0.00    -0.200 F 
ATOM     59  F   UNL A   1      35.916  31.869  33.392  1.00  0.00    -0.200 F 
ENDBRANCH  25  49
BRANCH  37  60
ATOM     60  C   UNL A   1      44.843  34.046  28.713  1.00  0.00     0.064 A 
ATOM     61  C   UNL A   1      44.488  34.966  27.718  1.00  0.00     0.173 A 
ATOM     62  C   UNL A   1      45.676  34.482  29.753  1.00  0.00     0.173 A 
ATOM     63  F   UNL A   1      43.718  34.583  26.688  1.00  0.00    -0.203 F 
ATOM     64  C   UNL A   1      44.962  36.275  27.758  1.00  0.00     0.198 A 
ATOM     65  C   UNL A   1      46.138  35.794  29.795  1.00  0.00     0.198 A 
ATOM     66  F   UNL A   1      46.054  33.629  30.717  1.00  0.00    -0.203 F 
ATOM     67  F   UNL A   1      44.640  37.132  26.779  1.00  0.00    -0.200 F 
ATOM     68  C   UNL A   1      45.784  36.688  28.797  1.00  0.00     0.200 A 
ATOM     69  F   UNL A   1      46.938  36.188  30.795  1.00  0.00    -0.200 F 
ATOM     70  F   UNL A   1      46.246  37.945  28.828  1.00  0.00    -0.200 F 
ENDBRANCH  37  60
ENDBRANCH  11  12
ENDBRANCH   4   6
ENDBRANCH   3   4
ENDBRANCH   2   3
ENDBRANCH   1   2
BRANCH   1  71
ATOM     71  O   UNL A   1      33.315  20.691  24.507  1.00  0.00    -0.462 OA
BRANCH  71  72
ATOM     72  C   UNL A   1      33.199  22.021  24.283  1.00  0.00     0.309 C 
ATOM     73  O   UNL A   1      33.458  22.547  23.207  1.00  0.00    -0.252 OA
BRANCH  72  74
ATOM     74  C   UNL A   1      32.649  22.786  25.524  1.00  0.00     0.111 C 
ATOM     75  C   UNL A   1      31.174  22.313  25.720  1.00  0.00     0.016 C 
ATOM     76  C   UNL A   1      32.684  24.322  25.400  1.00  0.00     0.093 C 
ATOM     77  C   UNL A   1      30.370  23.082  26.769  1.00  0.00     0.001 C 
ATOM     78  C   UNL A   1      31.840  25.048  26.475  1.00  0.00     0.014 C 
ATOM     79  C   UNL A   1      30.402  24.576  26.499  1.00  0.00     0.001 C 
BRANCH  76  80
ATOM     80  C   UNL A   1      34.014  25.083  25.324  1.00  0.00     0.228 C 
ATOM     81  O   UNL A   1      35.066  24.435  25.240  1.00  0.00    -0.274 OA
ATOM     82  N   UNL A   1      34.050  26.432  25.039  1.00  0.00    -0.325 N 
ATOM     83  H   UNL A   1      34.725  26.695  24.372  1.00  0.00     0.169 HD
BRANCH  82  84
ATOM     84  C   UNL A   1      33.281  27.489  25.544  1.00  0.00     0.054 A 
ATOM     85  C   UNL A   1      33.535  27.885  26.873  1.00  0.00     0.027 A 
ATOM     86  C   UNL A   1      32.310  28.174  24.826  1.00  0.00     0.063 A 
ATOM     87  C   UNL A   1      33.003  29.072  27.396  1.00  0.00     0.002 A 
ATOM     88  C   UNL A   1      31.887  29.437  25.325  1.00  0.00     0.016 A 
ATOM     89  C   UNL A   1      32.218  29.885  26.598  1.00  0.00     0.001 A 
BRANCH  86  90
ATOM     90  C   UNL A   1      31.665  27.773  23.533  1.00  0.00     0.256 C 
ATOM     91  O   UNL A   1      32.492  27.140  22.874  1.00  0.00    -0.269 OA
ATOM     92  N   UNL A   1      30.376  28.393  22.920  1.00  0.00    -0.334 N 
ATOM     93  C   UNL A   1      29.822  30.078  21.765  1.00  0.00     0.148 C 
ATOM     94  C   UNL A   1      29.030  27.432  23.679  1.00  0.00     0.148 C 
ATOM     95  C   UNL A   1      27.918  30.522  21.849  1.00  0.00     0.181 C 
ATOM     96  C   UNL A   1      27.248  28.086  23.500  1.00  0.00     0.181 C 
ATOM     97  O   UNL A   1      26.905  29.630  22.878  1.00  0.00    -0.378 OA
ENDBRANCH  86  90
ENDBRANCH  82  84
ENDBRANCH  76  80
ENDBRANCH  72  74
ENDBRANCH  71  72
ENDBRANCH   1  71
TORSDOF 14
ENDMDL
