MODEL 1
REMARK VINA RESULT:     -10.6      0.000      0.000
REMARK SMILES O=C(CSc1ccc2ccccc2c1)OCCOC(=O)c1ccc(-c2c3nc(c(-c4c(F)c(F)c(F)c(F)c4F)c4ccc([nH]4)c(-c4c(F)c(F)c(F)c(F)c4F)c4nc(c(-c5c(F)c(F)c(F)c(F)c5F)c5ccc2[nH]5)C=C4)C=C3)cc1
REMARK SMILES IDX 16 1 15 2 2 3 1 4 3 5 4 6 5 7 6 8 14 9 7 10 13 11 8 12 12 13
REMARK SMILES IDX 9 14 11 15 10 16 17 17 18 18 19 19 20 20 21 21 22 22 83 23
REMARK SMILES IDX 23 24 82 25 24 26 25 27 26 28 76 29 27 30 81 31 75 32 77 33
REMARK SMILES IDX 28 34 80 35 74 36 73 37 29 39 61 40 41 41 60 42 42 43 45 44
REMARK SMILES IDX 59 45 78 46 43 47 44 48 58 50 79 51 46 52 30 53 31 54 39 55
REMARK SMILES IDX 32 56 33 57 37 58 40 59 34 60 35 61 38 62 36 63 62 64 63 65
REMARK SMILES IDX 71 66 64 67 65 68 69 69 72 70 66 71 67 72 70 73 68 74 47 75
REMARK SMILES IDX 48 76 56 77 49 78 50 79 54 80 57 81 51 82 52 83 55 84 53 85
REMARK H PARENT 77 38 45 49
REMARK Flexibility Score: inf
ROOT
ATOM      1  C   UNL A   1      42.747  18.730  26.495  1.00  0.00     0.274 C 
ENDROOT
BRANCH   1   2
ATOM      2  O   UNL A   1      43.526  18.134  25.436  1.00  0.00    -0.461 OA
BRANCH   2   3
ATOM      3  C   UNL A   1      44.752  18.561  25.044  1.00  0.00     0.316 C 
ATOM      4  O   UNL A   1      45.753  17.926  25.370  1.00  0.00    -0.251 OA
BRANCH   3   5
ATOM      5  C   UNL A   1      44.865  19.811  24.201  1.00  0.00     0.197 C 
BRANCH   5   6
ATOM      6  S   UNL A   1      46.153  20.940  24.804  1.00  0.00    -0.114 SA
BRANCH   6   7
ATOM      7  C   UNL A   1      45.185  22.430  24.897  1.00  0.00     0.008 A 
ATOM      8  C   UNL A   1      43.792  22.367  24.915  1.00  0.00     0.016 A 
ATOM      9  C   UNL A   1      45.827  23.669  24.960  1.00  0.00     0.023 A 
ATOM     10  C   UNL A   1      43.041  23.541  25.006  1.00  0.00     0.010 A 
ATOM     11  C   UNL A   1      45.086  24.855  25.061  1.00  0.00    -0.017 A 
ATOM     12  C   UNL A   1      43.674  24.792  25.079  1.00  0.00    -0.018 A 
ATOM     13  C   UNL A   1      45.723  26.101  25.149  1.00  0.00     0.009 A 
ATOM     14  C   UNL A   1      42.938  25.984  25.174  1.00  0.00     0.009 A 
ATOM     15  C   UNL A   1      44.978  27.275  25.245  1.00  0.00     0.001 A 
ATOM     16  C   UNL A   1      43.588  27.217  25.253  1.00  0.00     0.001 A 
ENDBRANCH   6   7
ENDBRANCH   5   6
ENDBRANCH   3   5
ENDBRANCH   2   3
ENDBRANCH   1   2
BRANCH   1  17
ATOM     17  C   UNL A   1      41.442  19.317  25.953  1.00  0.00     0.275 C 
BRANCH  17  18
ATOM     18  O   UNL A   1      40.799  20.104  26.974  1.00  0.00    -0.458 OA
BRANCH  18  19
ATOM     19  C   UNL A   1      39.983  21.094  26.533  1.00  0.00     0.338 C 
ATOM     20  O   UNL A   1      38.973  20.967  25.866  1.00  0.00    -0.246 OA
BRANCH  19  21
ATOM     21  C   UNL A   1      40.406  22.372  27.152  1.00  0.00     0.060 A 
ATOM     22  C   UNL A   1      39.752  23.546  26.757  1.00  0.00     0.016 A 
ATOM     23  C   UNL A   1      41.410  22.423  28.124  1.00  0.00     0.016 A 
ATOM     24  C   UNL A   1      40.118  24.774  27.313  1.00  0.00     0.010 A 
ATOM     25  C   UNL A   1      41.776  23.653  28.680  1.00  0.00     0.010 A 
ATOM     26  C   UNL A   1      41.149  24.838  28.261  1.00  0.00    -0.014 A 
BRANCH  26  27
ATOM     27  C   UNL A   1      41.652  26.152  28.734  1.00  0.00     0.031 A 
ATOM     28  C   UNL A   1      43.136  26.370  28.848  1.00  0.00     0.074 A 
ATOM     29  C   UNL A   1      40.803  27.141  29.066  1.00  0.00     0.049 A 
ATOM     30  N   UNL A   1      43.792  27.426  29.260  1.00  0.00    -0.248 NA
ATOM     31  C   UNL A   1      43.995  25.245  28.449  1.00  0.00     0.031 C 
ATOM     32  C   UNL A   1      39.346  27.068  28.989  1.00  0.00     0.029 A 
ATOM     33  N   UNL A   1      41.052  28.404  29.547  1.00  0.00    -0.354 N 
ATOM     34  C   UNL A   1      45.136  27.095  29.162  1.00  0.00     0.074 A 
ATOM     35  C   UNL A   1      45.204  25.728  28.691  1.00  0.00     0.031 C 
ATOM     36  C   UNL A   1      38.828  28.232  29.423  1.00  0.00     0.029 A 
ATOM     37  C   UNL A   1      39.916  29.122  29.825  1.00  0.00     0.049 A 
ATOM     38  H   UNL A   1      41.961  28.759  29.681  1.00  0.00     0.167 HD
ATOM     39  C   UNL A   1      46.218  27.865  29.428  1.00  0.00     0.037 A 
ATOM     40  C   UNL A   1      39.772  30.353  30.355  1.00  0.00     0.037 A 
ATOM     41  C   UNL A   1      46.160  29.223  29.898  1.00  0.00     0.049 A 
ATOM     42  C   UNL A   1      40.994  31.166  30.704  1.00  0.00     0.074 A 
ATOM     43  C   UNL A   1      47.207  30.090  30.162  1.00  0.00     0.029 A 
ATOM     44  N   UNL A   1      44.990  29.910  30.184  1.00  0.00    -0.354 N 
ATOM     45  N   UNL A   1      42.261  30.865  30.554  1.00  0.00    -0.248 NA
ATOM     46  C   UNL A   1      40.762  32.494  31.293  1.00  0.00     0.031 C 
ATOM     47  C   UNL A   1      46.672  31.285  30.654  1.00  0.00     0.029 A 
ATOM     48  C   UNL A   1      45.291  31.180  30.650  1.00  0.00     0.049 A 
ATOM     49  H   UNL A   1      44.081  29.549  30.073  1.00  0.00     0.167 HD
ATOM     50  C   UNL A   1      42.972  31.974  30.995  1.00  0.00     0.074 A 
ATOM     51  C   UNL A   1      41.997  32.960  31.410  1.00  0.00     0.031 C 
ATOM     52  C   UNL A   1      44.314  32.160  31.047  1.00  0.00     0.037 A 
BRANCH  39  53
ATOM     53  C   UNL A   1      47.570  27.251  29.222  1.00  0.00     0.064 A 
ATOM     54  C   UNL A   1      48.165  26.444  30.201  1.00  0.00     0.173 A 
ATOM     55  C   UNL A   1      48.255  27.432  28.011  1.00  0.00     0.173 A 
ATOM     56  F   UNL A   1      47.554  26.252  31.381  1.00  0.00    -0.203 F 
ATOM     57  C   UNL A   1      49.406  25.852  29.983  1.00  0.00     0.198 A 
ATOM     58  C   UNL A   1      49.484  26.819  27.787  1.00  0.00     0.198 A 
ATOM     59  F   UNL A   1      47.726  28.193  27.042  1.00  0.00    -0.203 F 
ATOM     60  F   UNL A   1      49.973  25.112  30.947  1.00  0.00    -0.200 F 
ATOM     61  C   UNL A   1      50.061  26.033  28.775  1.00  0.00     0.200 A 
ATOM     62  F   UNL A   1      50.111  26.987  26.615  1.00  0.00    -0.200 F 
ATOM     63  F   UNL A   1      51.251  25.455  28.562  1.00  0.00    -0.200 F 
ENDBRANCH  39  53
BRANCH  40  64
ATOM     64  C   UNL A   1      38.415  30.908  30.597  1.00  0.00     0.064 A 
ATOM     65  C   UNL A   1      37.875  30.962  31.889  1.00  0.00     0.173 A 
ATOM     66  C   UNL A   1      37.612  31.348  29.535  1.00  0.00     0.173 A 
ATOM     67  F   UNL A   1      38.594  30.525  32.933  1.00  0.00    -0.203 F 
ATOM     68  C   UNL A   1      36.575  31.414  32.108  1.00  0.00     0.198 A 
ATOM     69  C   UNL A   1      36.322  31.823  29.758  1.00  0.00     0.198 A 
ATOM     70  F   UNL A   1      38.079  31.311  28.278  1.00  0.00    -0.203 F 
ATOM     71  F   UNL A   1      36.065  31.404  33.346  1.00  0.00    -0.200 F 
ATOM     72  C   UNL A   1      35.801  31.847  31.042  1.00  0.00     0.200 A 
ATOM     73  F   UNL A   1      35.579  32.248  28.726  1.00  0.00    -0.200 F 
ATOM     74  F   UNL A   1      34.549  32.274  31.252  1.00  0.00    -0.200 F 
ENDBRANCH  40  64
BRANCH  52  75
ATOM     75  C   UNL A   1      44.814  33.490  31.533  1.00  0.00     0.064 A 
ATOM     76  C   UNL A   1      45.143  33.706  32.879  1.00  0.00     0.173 A 
ATOM     77  C   UNL A   1      45.014  34.546  30.630  1.00  0.00     0.173 A 
ATOM     78  F   UNL A   1      44.956  32.734  33.784  1.00  0.00    -0.203 F 
ATOM     79  C   UNL A   1      45.631  34.938  33.307  1.00  0.00     0.198 A 
ATOM     80  C   UNL A   1      45.529  35.766  31.056  1.00  0.00     0.198 A 
ATOM     81  F   UNL A   1      44.723  34.388  29.329  1.00  0.00    -0.203 F 
ATOM     82  F   UNL A   1      45.899  35.136  34.606  1.00  0.00    -0.200 F 
ATOM     83  C   UNL A   1      45.832  35.964  32.395  1.00  0.00     0.200 A 
ATOM     84  F   UNL A   1      45.735  36.752  30.172  1.00  0.00    -0.200 F 
ATOM     85  F   UNL A   1      46.310  37.145  32.808  1.00  0.00    -0.200 F 
ENDBRANCH  52  75
ENDBRANCH  26  27
ENDBRANCH  19  21
ENDBRANCH  18  19
ENDBRANCH  17  18
ENDBRANCH   1  17
TORSDOF 13
ENDMDL
MODEL 2
REMARK VINA RESULT:     -10.3      0.850      2.188
REMARK SMILES O=C(CSc1ccc2ccccc2c1)OCCOC(=O)c1ccc(-c2c3nc(c(-c4c(F)c(F)c(F)c(F)c4F)c4ccc([nH]4)c(-c4c(F)c(F)c(F)c(F)c4F)c4nc(c(-c5c(F)c(F)c(F)c(F)c5F)c5ccc2[nH]5)C=C4)C=C3)cc1
REMARK SMILES IDX 16 1 15 2 2 3 1 4 3 5 4 6 5 7 6 8 14 9 7 10 13 11 8 12 12 13
REMARK SMILES IDX 9 14 11 15 10 16 17 17 18 18 19 19 20 20 21 21 22 22 83 23
REMARK SMILES IDX 23 24 82 25 24 26 25 27 26 28 76 29 27 30 81 31 75 32 77 33
REMARK SMILES IDX 28 34 80 35 74 36 73 37 29 39 61 40 41 41 60 42 42 43 45 44
REMARK SMILES IDX 59 45 78 46 43 47 44 48 58 50 79 51 46 52 30 53 31 54 39 55
REMARK SMILES IDX 32 56 33 57 37 58 40 59 34 60 35 61 38 62 36 63 62 64 63 65
REMARK SMILES IDX 71 66 64 67 65 68 69 69 72 70 66 71 67 72 70 73 68 74 47 75
REMARK SMILES IDX 48 76 56 77 49 78 50 79 54 80 57 81 51 82 52 83 55 84 53 85
REMARK H PARENT 77 38 45 49
REMARK Flexibility Score: inf
ROOT
ATOM      1  C   UNL A   1      42.203  19.342  26.351  1.00  0.00     0.274 C 
ENDROOT
BRANCH   1   2
ATOM      2  O   UNL A   1      42.825  19.188  25.057  1.00  0.00    -0.461 OA
BRANCH   2   3
ATOM      3  C   UNL A   1      44.157  19.037  24.854  1.00  0.00     0.316 C 
ATOM      4  O   UNL A   1      44.744  18.072  25.340  1.00  0.00    -0.251 OA
BRANCH   3   5
ATOM      5  C   UNL A   1      44.899  20.059  24.021  1.00  0.00     0.197 C 
BRANCH   5   6
ATOM      6  S   UNL A   1      46.023  21.080  25.016  1.00  0.00    -0.114 SA
BRANCH   6   7
ATOM      7  C   UNL A   1      45.072  22.584  25.041  1.00  0.00     0.008 A 
ATOM      8  C   UNL A   1      43.678  22.538  25.038  1.00  0.00     0.016 A 
ATOM      9  C   UNL A   1      45.728  23.817  25.071  1.00  0.00     0.023 A 
ATOM     10  C   UNL A   1      42.940  23.722  25.075  1.00  0.00     0.010 A 
ATOM     11  C   UNL A   1      45.000  25.014  25.119  1.00  0.00    -0.017 A 
ATOM     12  C   UNL A   1      43.587  24.968  25.116  1.00  0.00    -0.018 A 
ATOM     13  C   UNL A   1      45.651  26.254  25.175  1.00  0.00     0.009 A 
ATOM     14  C   UNL A   1      42.865  26.171  25.156  1.00  0.00     0.009 A 
ATOM     15  C   UNL A   1      44.918  27.440  25.217  1.00  0.00     0.001 A 
ATOM     16  C   UNL A   1      43.527  27.398  25.204  1.00  0.00     0.001 A 
ENDBRANCH   6   7
ENDBRANCH   5   6
ENDBRANCH   3   5
ENDBRANCH   2   3
ENDBRANCH   1   2
BRANCH   1  17
ATOM     17  C   UNL A   1      40.730  19.732  26.208  1.00  0.00     0.275 C 
BRANCH  17  18
ATOM     18  O   UNL A   1      40.428  20.832  27.087  1.00  0.00    -0.458 OA
BRANCH  18  19
ATOM     19  C   UNL A   1      39.685  21.833  26.551  1.00  0.00     0.338 C 
ATOM     20  O   UNL A   1      38.729  21.716  25.806  1.00  0.00    -0.246 OA
BRANCH  19  21
ATOM     21  C   UNL A   1      40.098  23.116  27.165  1.00  0.00     0.060 A 
ATOM     22  C   UNL A   1      39.412  24.278  26.793  1.00  0.00     0.016 A 
ATOM     23  C   UNL A   1      41.125  23.181  28.113  1.00  0.00     0.016 A 
ATOM     24  C   UNL A   1      39.768  25.511  27.345  1.00  0.00     0.010 A 
ATOM     25  C   UNL A   1      41.480  24.417  28.666  1.00  0.00     0.010 A 
ATOM     26  C   UNL A   1      40.820  25.591  28.268  1.00  0.00    -0.014 A 
BRANCH  26  27
ATOM     27  C   UNL A   1      41.309  26.912  28.734  1.00  0.00     0.031 A 
ATOM     28  C   UNL A   1      42.790  27.139  28.869  1.00  0.00     0.074 A 
ATOM     29  C   UNL A   1      40.450  27.900  29.042  1.00  0.00     0.049 A 
ATOM     30  N   UNL A   1      43.434  28.203  29.280  1.00  0.00    -0.248 NA
ATOM     31  C   UNL A   1      43.661  26.014  28.495  1.00  0.00     0.031 C 
ATOM     32  C   UNL A   1      38.995  27.819  28.944  1.00  0.00     0.029 A 
ATOM     33  N   UNL A   1      40.686  29.169  29.514  1.00  0.00    -0.354 N 
ATOM     34  C   UNL A   1      44.782  27.878  29.206  1.00  0.00     0.074 A 
ATOM     35  C   UNL A   1      44.864  26.507  28.750  1.00  0.00     0.031 C 
ATOM     36  C   UNL A   1      38.464  28.984  29.357  1.00  0.00     0.029 A 
ATOM     37  C   UNL A   1      39.541  29.885  29.766  1.00  0.00     0.049 A 
ATOM     38  H   UNL A   1      41.590  29.531  29.659  1.00  0.00     0.167 HD
ATOM     39  C   UNL A   1      45.855  28.657  29.481  1.00  0.00     0.037 A 
ATOM     40  C   UNL A   1      39.383  31.120  30.281  1.00  0.00     0.037 A 
ATOM     41  C   UNL A   1      45.783  30.019  29.935  1.00  0.00     0.049 A 
ATOM     42  C   UNL A   1      40.595  31.943  30.640  1.00  0.00     0.074 A 
ATOM     43  C   UNL A   1      46.822  30.894  30.206  1.00  0.00     0.029 A 
ATOM     44  N   UNL A   1      44.605  30.703  30.195  1.00  0.00    -0.354 N 
ATOM     45  N   UNL A   1      41.866  31.647  30.514  1.00  0.00    -0.248 NA
ATOM     46  C   UNL A   1      40.348  33.276  31.211  1.00  0.00     0.031 C 
ATOM     47  C   UNL A   1      46.273  32.092  30.677  1.00  0.00     0.029 A 
ATOM     48  C   UNL A   1      44.892  31.979  30.652  1.00  0.00     0.049 A 
ATOM     49  H   UNL A   1      43.700  30.336  30.075  1.00  0.00     0.167 HD
ATOM     50  C   UNL A   1      42.564  32.765  30.953  1.00  0.00     0.074 A 
ATOM     51  C   UNL A   1      41.578  33.750  31.343  1.00  0.00     0.031 C 
ATOM     52  C   UNL A   1      43.904  32.958  31.024  1.00  0.00     0.037 A 
BRANCH  39  53
ATOM     53  C   UNL A   1      47.214  28.048  29.302  1.00  0.00     0.064 A 
ATOM     54  C   UNL A   1      47.918  28.170  28.097  1.00  0.00     0.173 A 
ATOM     55  C   UNL A   1      47.838  27.379  30.366  1.00  0.00     0.173 A 
ATOM     56  F   UNL A   1      47.357  28.790  27.047  1.00  0.00    -0.203 F 
ATOM     57  C   UNL A   1      49.193  27.631  27.956  1.00  0.00     0.198 A 
ATOM     58  C   UNL A   1      49.122  26.862  30.229  1.00  0.00     0.198 A 
ATOM     59  F   UNL A   1      47.206  27.239  31.541  1.00  0.00    -0.203 F 
ATOM     60  F   UNL A   1      49.836  27.728  26.783  1.00  0.00    -0.200 F 
ATOM     61  C   UNL A   1      49.797  26.984  29.023  1.00  0.00     0.200 A 
ATOM     62  F   UNL A   1      49.708  26.246  31.265  1.00  0.00    -0.200 F 
ATOM     63  F   UNL A   1      51.028  26.472  28.889  1.00  0.00    -0.200 F 
ENDBRANCH  39  53
BRANCH  40  64
ATOM     64  C   UNL A   1      38.019  31.670  30.496  1.00  0.00     0.064 A 
ATOM     65  C   UNL A   1      37.365  32.398  29.493  1.00  0.00     0.173 A 
ATOM     66  C   UNL A   1      37.363  31.520  31.726  1.00  0.00     0.173 A 
ATOM     67  F   UNL A   1      37.966  32.593  28.310  1.00  0.00    -0.203 F 
ATOM     68  C   UNL A   1      36.118  32.976  29.719  1.00  0.00     0.198 A 
ATOM     69  C   UNL A   1      36.104  32.076  31.942  1.00  0.00     0.198 A 
ATOM     70  F   UNL A   1      37.947  30.837  32.722  1.00  0.00    -0.203 F 
ATOM     71  F   UNL A   1      35.541  33.713  28.761  1.00  0.00    -0.200 F 
ATOM     72  C   UNL A   1      35.487  32.811  30.942  1.00  0.00     0.200 A 
ATOM     73  F   UNL A   1      35.494  31.909  33.124  1.00  0.00    -0.200 F 
ATOM     74  F   UNL A   1      34.291  33.373  31.161  1.00  0.00    -0.200 F 
ENDBRANCH  40  64
BRANCH  52  75
ATOM     75  C   UNL A   1      44.390  34.296  31.503  1.00  0.00     0.064 A 
ATOM     76  C   UNL A   1      44.567  35.374  30.624  1.00  0.00     0.173 A 
ATOM     77  C   UNL A   1      44.632  34.516  32.868  1.00  0.00     0.173 A 
ATOM     78  F   UNL A   1      44.363  35.211  29.308  1.00  0.00    -0.203 F 
ATOM     79  C   UNL A   1      44.991  36.615  31.090  1.00  0.00     0.198 A 
ATOM     80  C   UNL A   1      45.028  35.766  33.335  1.00  0.00     0.198 A 
ATOM     81  F   UNL A   1      44.469  33.520  33.753  1.00  0.00    -0.203 F 
ATOM     82  F   UNL A   1      45.195  37.620  30.226  1.00  0.00    -0.200 F 
ATOM     83  C   UNL A   1      45.213  36.813  32.445  1.00  0.00     0.200 A 
ATOM     84  F   UNL A   1      45.230  35.958  34.645  1.00  0.00    -0.200 F 
ATOM     85  F   UNL A   1      45.613  38.011  32.892  1.00  0.00    -0.200 F 
ENDBRANCH  52  75
ENDBRANCH  26  27
ENDBRANCH  19  21
ENDBRANCH  18  19
ENDBRANCH  17  18
ENDBRANCH   1  17
TORSDOF 13
ENDMDL
MODEL 3
REMARK VINA RESULT:     -10.3      0.686      7.576
REMARK SMILES O=C(CSc1ccc2ccccc2c1)OCCOC(=O)c1ccc(-c2c3nc(c(-c4c(F)c(F)c(F)c(F)c4F)c4ccc([nH]4)c(-c4c(F)c(F)c(F)c(F)c4F)c4nc(c(-c5c(F)c(F)c(F)c(F)c5F)c5ccc2[nH]5)C=C4)C=C3)cc1
REMARK SMILES IDX 16 1 15 2 2 3 1 4 3 5 4 6 5 7 6 8 14 9 7 10 13 11 8 12 12 13
REMARK SMILES IDX 9 14 11 15 10 16 17 17 18 18 19 19 20 20 21 21 22 22 83 23
REMARK SMILES IDX 23 24 82 25 24 26 25 27 26 28 76 29 27 30 81 31 75 32 77 33
REMARK SMILES IDX 28 34 80 35 74 36 73 37 29 39 61 40 41 41 60 42 42 43 45 44
REMARK SMILES IDX 59 45 78 46 43 47 44 48 58 50 79 51 46 52 30 53 31 54 39 55
REMARK SMILES IDX 32 56 33 57 37 58 40 59 34 60 35 61 38 62 36 63 62 64 63 65
REMARK SMILES IDX 71 66 64 67 65 68 69 69 72 70 66 71 67 72 70 73 68 74 47 75
REMARK SMILES IDX 48 76 56 77 49 78 50 79 54 80 57 81 51 82 52 83 55 84 53 85
REMARK H PARENT 77 38 45 49
REMARK Flexibility Score: inf
ROOT
ATOM      1  C   UNL A   1      42.155  19.337  26.331  1.00  0.00     0.274 C 
ENDROOT
BRANCH   1   2
ATOM      2  O   UNL A   1      42.812  19.155  25.058  1.00  0.00    -0.461 OA
BRANCH   2   3
ATOM      3  C   UNL A   1      44.149  19.002  24.894  1.00  0.00     0.316 C 
ATOM      4  O   UNL A   1      44.726  18.058  25.432  1.00  0.00    -0.251 OA
BRANCH   3   5
ATOM      5  C   UNL A   1      44.908  19.992  24.039  1.00  0.00     0.197 C 
BRANCH   5   6
ATOM      6  S   UNL A   1      46.050  21.014  25.012  1.00  0.00    -0.114 SA
BRANCH   6   7
ATOM      7  C   UNL A   1      45.108  22.523  25.038  1.00  0.00     0.008 A 
ATOM      8  C   UNL A   1      43.713  22.484  25.053  1.00  0.00     0.016 A 
ATOM      9  C   UNL A   1      45.770  23.753  25.052  1.00  0.00     0.023 A 
ATOM     10  C   UNL A   1      42.982  23.673  25.091  1.00  0.00     0.010 A 
ATOM     11  C   UNL A   1      45.049  24.954  25.101  1.00  0.00    -0.017 A 
ATOM     12  C   UNL A   1      43.636  24.916  25.116  1.00  0.00    -0.018 A 
ATOM     13  C   UNL A   1      45.707  26.192  25.140  1.00  0.00     0.009 A 
ATOM     14  C   UNL A   1      42.921  26.123  25.157  1.00  0.00     0.009 A 
ATOM     15  C   UNL A   1      44.982  27.381  25.183  1.00  0.00     0.001 A 
ATOM     16  C   UNL A   1      43.590  27.347  25.188  1.00  0.00     0.001 A 
ENDBRANCH   6   7
ENDBRANCH   5   6
ENDBRANCH   3   5
ENDBRANCH   2   3
ENDBRANCH   1   2
BRANCH   1  17
ATOM     17  C   UNL A   1      40.681  19.701  26.142  1.00  0.00     0.275 C 
BRANCH  17  18
ATOM     18  O   UNL A   1      40.304  20.722  27.084  1.00  0.00    -0.458 OA
BRANCH  18  19
ATOM     19  C   UNL A   1      39.644  21.790  26.569  1.00  0.00     0.338 C 
ATOM     20  O   UNL A   1      38.679  21.765  25.827  1.00  0.00    -0.246 OA
BRANCH  19  21
ATOM     21  C   UNL A   1      40.163  23.023  27.204  1.00  0.00     0.060 A 
ATOM     22  C   UNL A   1      39.555  24.241  26.877  1.00  0.00     0.016 A 
ATOM     23  C   UNL A   1      41.215  22.990  28.127  1.00  0.00     0.016 A 
ATOM     24  C   UNL A   1      40.012  25.431  27.451  1.00  0.00     0.010 A 
ATOM     25  C   UNL A   1      41.672  24.182  28.700  1.00  0.00     0.010 A 
ATOM     26  C   UNL A   1      41.089  25.411  28.348  1.00  0.00    -0.014 A 
BRANCH  26  27
ATOM     27  C   UNL A   1      41.684  26.681  28.834  1.00  0.00     0.031 A 
ATOM     28  C   UNL A   1      40.774  27.797  29.267  1.00  0.00     0.074 A 
ATOM     29  C   UNL A   1      43.017  26.847  28.885  1.00  0.00     0.049 A 
ATOM     30  N   UNL A   1      41.075  28.996  29.700  1.00  0.00    -0.248 NA
ATOM     31  C   UNL A   1      39.329  27.528  29.197  1.00  0.00     0.031 C 
ATOM     32  C   UNL A   1      44.011  25.844  28.508  1.00  0.00     0.029 A 
ATOM     33  N   UNL A   1      43.765  27.936  29.266  1.00  0.00    -0.354 N 
ATOM     34  C   UNL A   1      39.863  29.618  29.961  1.00  0.00     0.074 A 
ATOM     35  C   UNL A   1      38.819  28.682  29.601  1.00  0.00     0.031 C 
ATOM     36  C   UNL A   1      45.240  26.369  28.665  1.00  0.00     0.029 A 
ATOM     37  C   UNL A   1      45.118  27.749  29.133  1.00  0.00     0.049 A 
ATOM     38  H   UNL A   1      43.367  28.771  29.602  1.00  0.00     0.167 HD
ATOM     39  C   UNL A   1      39.638  30.853  30.469  1.00  0.00     0.037 A 
ATOM     40  C   UNL A   1      46.140  28.600  29.351  1.00  0.00     0.037 A 
ATOM     41  C   UNL A   1      40.669  31.790  30.828  1.00  0.00     0.049 A 
ATOM     42  C   UNL A   1      45.859  29.994  29.854  1.00  0.00     0.074 A 
ATOM     43  C   UNL A   1      40.532  33.052  31.381  1.00  0.00     0.029 A 
ATOM     44  N   UNL A   1      42.027  31.570  30.662  1.00  0.00    -0.354 N 
ATOM     45  N   UNL A   1      44.711  30.553  30.152  1.00  0.00    -0.248 NA
ATOM     46  C   UNL A   1      47.020  30.874  30.056  1.00  0.00     0.031 C 
ATOM     47  C   UNL A   1      41.807  33.616  31.504  1.00  0.00     0.029 A 
ATOM     48  C   UNL A   1      42.739  32.686  31.074  1.00  0.00     0.049 A 
ATOM     49  H   UNL A   1      42.427  30.745  30.303  1.00  0.00     0.167 HD
ATOM     50  C   UNL A   1      45.014  31.830  30.607  1.00  0.00     0.074 A 
ATOM     51  C   UNL A   1      46.454  31.963  30.555  1.00  0.00     0.031 C 
ATOM     52  C   UNL A   1      44.173  32.804  31.033  1.00  0.00     0.037 A 
BRANCH  39  53
ATOM     53  C   UNL A   1      38.211  31.272  30.662  1.00  0.00     0.064 A 
ATOM     54  C   UNL A   1      37.625  31.310  31.934  1.00  0.00     0.173 A 
ATOM     55  C   UNL A   1      37.439  31.688  29.567  1.00  0.00     0.173 A 
ATOM     56  F   UNL A   1      38.320  30.908  33.010  1.00  0.00    -0.203 F 
ATOM     57  C   UNL A   1      36.310  31.734  32.104  1.00  0.00     0.198 A 
ATOM     58  C   UNL A   1      36.132  32.134  29.744  1.00  0.00     0.198 A 
ATOM     59  F   UNL A   1      37.956  31.674  28.330  1.00  0.00    -0.203 F 
ATOM     60  F   UNL A   1      35.758  31.728  33.326  1.00  0.00    -0.200 F 
ATOM     61  C   UNL A   1      35.568  32.152  31.010  1.00  0.00     0.200 A 
ATOM     62  F   UNL A   1      35.420  32.548  28.687  1.00  0.00    -0.200 F 
ATOM     63  F   UNL A   1      34.305  32.569  31.176  1.00  0.00    -0.200 F 
ENDBRANCH  39  53
BRANCH  40  64
ATOM     64  C   UNL A   1      47.539  28.168  29.096  1.00  0.00     0.064 A 
ATOM     65  C   UNL A   1      48.133  28.344  27.838  1.00  0.00     0.173 A 
ATOM     66  C   UNL A   1      48.293  27.527  30.090  1.00  0.00     0.173 A 
ATOM     67  F   UNL A   1      47.440  28.926  26.848  1.00  0.00    -0.203 F 
ATOM     68  C   UNL A   1      49.417  27.874  27.576  1.00  0.00     0.198 A 
ATOM     69  C   UNL A   1      49.587  27.080  29.834  1.00  0.00     0.198 A 
ATOM     70  F   UNL A   1      47.768  27.329  31.308  1.00  0.00    -0.203 F 
ATOM     71  F   UNL A   1      49.939  28.007  26.351  1.00  0.00    -0.200 F 
ATOM     72  C   UNL A   1      50.145  27.245  28.576  1.00  0.00     0.200 A 
ATOM     73  F   UNL A   1      50.290  26.480  30.805  1.00  0.00    -0.200 F 
ATOM     74  F   UNL A   1      51.377  26.787  28.322  1.00  0.00    -0.200 F 
ENDBRANCH  40  64
BRANCH  52  75
ATOM     75  C   UNL A   1      44.784  34.088  31.516  1.00  0.00     0.064 A 
ATOM     76  C   UNL A   1      45.058  34.309  32.874  1.00  0.00     0.173 A 
ATOM     77  C   UNL A   1      45.144  35.091  30.603  1.00  0.00     0.173 A 
ATOM     78  F   UNL A   1      44.720  33.388  33.789  1.00  0.00    -0.203 F 
ATOM     79  C   UNL A   1      45.651  35.494  33.300  1.00  0.00     0.198 A 
ATOM     80  C   UNL A   1      45.763  36.262  31.029  1.00  0.00     0.198 A 
ATOM     81  F   UNL A   1      44.911  34.926  29.291  1.00  0.00    -0.203 F 
ATOM     82  F   UNL A   1      45.866  35.701  34.608  1.00  0.00    -0.200 F 
ATOM     83  C   UNL A   1      46.010  36.466  32.378  1.00  0.00     0.200 A 
ATOM     84  F   UNL A   1      46.120  37.195  30.136  1.00  0.00    -0.200 F 
ATOM     85  F   UNL A   1      46.588  37.602  32.791  1.00  0.00    -0.200 F 
ENDBRANCH  52  75
ENDBRANCH  26  27
ENDBRANCH  19  21
ENDBRANCH  18  19
ENDBRANCH  17  18
ENDBRANCH   1  17
TORSDOF 13
ENDMDL
