MODEL 1
REMARK VINA RESULT:     -12.1      0.000      0.000
REMARK SMILES N#C[C@H]1CN(c2cc(C(=O)OCCOC(=O)c3ccc(-c4c5nc(c(-c6c(F)c(F)c(F)c(F)c6F)c6ccc([nH]6)c(-c6c(F)c(F)c(F)c(F)c6F)c6nc(c(-c7c(F)c(F)c(F)c(F)c7F)c7ccc4[nH]7)C=C6)C=C5)cc3)c(N)cc2F)CCO1
REMARK SMILES IDX 12 1 11 2 9 3 10 4 8 5 6 6 7 7 83 8 82 9 84 10 80 11 5 12
REMARK SMILES IDX 3 13 4 14 87 15 86 16 85 17 2 18 1 19 81 20 13 23 14 24
REMARK SMILES IDX 15 25 16 26 17 27 18 28 79 29 19 30 78 31 20 32 21 33 22 34
REMARK SMILES IDX 72 35 23 36 77 37 71 38 73 39 24 40 76 41 70 42 69 43 25 45
REMARK SMILES IDX 57 46 37 47 56 48 38 49 41 50 55 51 74 52 39 53 40 54 54 56
REMARK SMILES IDX 75 57 42 58 26 59 27 60 35 61 28 62 29 63 33 64 36 65 30 66
REMARK SMILES IDX 31 67 34 68 32 69 58 70 59 71 67 72 60 73 61 74 65 75 68 76
REMARK SMILES IDX 62 77 63 78 66 79 64 80 43 81 44 82 52 83 45 84 46 85 50 86
REMARK SMILES IDX 53 87 47 88 48 89 51 90 49 91
REMARK H PARENT 81 21 81 22 73 44 41 55
REMARK Flexibility Score: inf
ROOT
ATOM      1  C   UNL A   1      32.374  29.268  24.957  1.00  0.00     0.275 C 
ENDROOT
BRANCH   1   2
ATOM      2  O   UNL A   1      31.338  28.421  24.411  1.00  0.00    -0.458 OA
BRANCH   2   3
ATOM      3  C   UNL A   1      31.208  27.187  24.965  1.00  0.00     0.340 C 
ATOM      4  O   UNL A   1      30.639  26.927  26.015  1.00  0.00    -0.246 OA
BRANCH   3   5
ATOM      5  C   UNL A   1      31.761  26.129  24.076  1.00  0.00     0.085 A 
ATOM      6  C   UNL A   1      32.952  23.979  23.977  1.00  0.00     0.074 A 
ATOM      7  C   UNL A   1      32.353  25.009  24.701  1.00  0.00     0.047 A 
ATOM      8  C   UNL A   1      33.020  24.150  22.592  1.00  0.00     0.148 A 
ATOM      9  C   UNL A   1      32.458  25.259  21.953  1.00  0.00     0.067 A 
ATOM     10  F   UNL A   1      33.647  23.229  21.843  1.00  0.00    -0.205 F 
ATOM     11  C   UNL A   1      31.774  26.244  22.677  1.00  0.00     0.049 A 
BRANCH   6  12
ATOM     12  N   UNL A   1      33.493  22.886  24.614  1.00  0.00    -0.363 N 
ATOM     13  C   UNL A   1      33.473  20.422  24.577  1.00  0.00     0.240 C 
ATOM     14  C   UNL A   1      32.709  21.702  24.995  1.00  0.00     0.164 C 
ATOM     15  O   UNL A   1      34.817  20.432  25.118  1.00  0.00    -0.360 OA
ATOM     16  C   UNL A   1      35.552  21.567  24.626  1.00  0.00     0.183 C 
ATOM     17  C   UNL A   1      34.892  22.890  25.039  1.00  0.00     0.145 C 
BRANCH  13  18
ATOM     18  C   UNL A   1      32.746  19.226  25.039  1.00  0.00     0.096 C 
ATOM     19  N   UNL A   1      32.159  18.281  25.362  1.00  0.00    -0.195 NA
ENDBRANCH  13  18
ENDBRANCH   6  12
BRANCH  11  20
ATOM     20  N   UNL A   1      31.314  27.374  22.005  1.00  0.00    -0.398 N 
ATOM     21  H   UNL A   1      30.353  27.480  21.822  1.00  0.00     0.156 HD
ATOM     22  H   UNL A   1      31.950  28.067  21.712  1.00  0.00     0.156 HD
ENDBRANCH  11  20
ENDBRANCH   3   5
ENDBRANCH   2   3
ENDBRANCH   1   2
BRANCH   1  23
ATOM     23  C   UNL A   1      31.782  30.413  25.783  1.00  0.00     0.275 C 
BRANCH  23  24
ATOM     24  O   UNL A   1      32.439  30.507  27.060  1.00  0.00    -0.458 OA
BRANCH  24  25
ATOM     25  C   UNL A   1      33.143  31.642  27.255  1.00  0.00     0.338 C 
ATOM     26  O   UNL A   1      32.726  32.789  27.251  1.00  0.00    -0.246 OA
BRANCH  25  27
ATOM     27  C   UNL A   1      34.523  31.326  27.644  1.00  0.00     0.060 A 
ATOM     28  C   UNL A   1      34.807  29.996  27.895  1.00  0.00     0.016 A 
ATOM     29  C   UNL A   1      35.441  32.307  28.001  1.00  0.00     0.016 A 
ATOM     30  C   UNL A   1      35.904  29.650  28.672  1.00  0.00     0.010 A 
ATOM     31  C   UNL A   1      36.638  31.933  28.635  1.00  0.00     0.010 A 
ATOM     32  C   UNL A   1      36.860  30.604  29.045  1.00  0.00    -0.014 A 
BRANCH  32  33
ATOM     33  C   UNL A   1      38.040  30.193  29.881  1.00  0.00     0.031 A 
ATOM     34  C   UNL A   1      39.129  29.306  29.318  1.00  0.00     0.074 A 
ATOM     35  C   UNL A   1      38.180  30.659  31.142  1.00  0.00     0.049 A 
ATOM     36  N   UNL A   1      40.138  28.734  29.935  1.00  0.00    -0.248 NA
ATOM     37  C   UNL A   1      39.064  29.000  27.882  1.00  0.00     0.031 C 
ATOM     38  C   UNL A   1      37.239  31.545  31.833  1.00  0.00     0.029 A 
ATOM     39  N   UNL A   1      39.182  30.474  32.068  1.00  0.00    -0.354 N 
ATOM     40  C   UNL A   1      40.799  27.978  28.971  1.00  0.00     0.074 A 
ATOM     41  C   UNL A   1      40.046  28.122  27.743  1.00  0.00     0.031 C 
ATOM     42  C   UNL A   1      37.744  31.895  33.022  1.00  0.00     0.029 A 
ATOM     43  C   UNL A   1      38.971  31.146  33.249  1.00  0.00     0.049 A 
ATOM     44  H   UNL A   1      39.974  29.915  31.900  1.00  0.00     0.167 HD
ATOM     45  C   UNL A   1      41.933  27.241  29.089  1.00  0.00     0.037 A 
ATOM     46  C   UNL A   1      39.645  31.128  34.415  1.00  0.00     0.037 A 
ATOM     47  C   UNL A   1      42.717  27.141  30.297  1.00  0.00     0.049 A 
ATOM     48  C   UNL A   1      40.847  30.242  34.548  1.00  0.00     0.074 A 
ATOM     49  C   UNL A   1      43.880  26.421  30.517  1.00  0.00     0.029 A 
ATOM     50  N   UNL A   1      42.430  27.799  31.484  1.00  0.00    -0.354 N 
ATOM     51  N   UNL A   1      41.418  29.478  33.651  1.00  0.00    -0.248 NA
ATOM     52  C   UNL A   1      41.490  30.205  35.869  1.00  0.00     0.031 C 
ATOM     53  C   UNL A   1      44.253  26.584  31.856  1.00  0.00     0.029 A 
ATOM     54  C   UNL A   1      43.370  27.468  32.451  1.00  0.00     0.049 A 
ATOM     55  H   UNL A   1      41.672  28.412  31.621  1.00  0.00     0.167 HD
ATOM     56  C   UNL A   1      42.496  28.882  34.289  1.00  0.00     0.074 A 
ATOM     57  C   UNL A   1      42.518  29.402  35.641  1.00  0.00     0.031 C 
ATOM     58  C   UNL A   1      43.384  27.981  33.799  1.00  0.00     0.037 A 
BRANCH  45  59
ATOM     59  C   UNL A   1      42.367  26.429  27.895  1.00  0.00     0.064 A 
ATOM     60  C   UNL A   1      41.869  25.144  27.628  1.00  0.00     0.173 A 
ATOM     61  C   UNL A   1      43.295  26.966  26.986  1.00  0.00     0.173 A 
ATOM     62  F   UNL A   1      40.986  24.573  28.460  1.00  0.00    -0.203 F 
ATOM     63  C   UNL A   1      42.314  24.413  26.528  1.00  0.00     0.198 A 
ATOM     64  C   UNL A   1      43.705  26.248  25.864  1.00  0.00     0.198 A 
ATOM     65  F   UNL A   1      43.800  28.193  27.178  1.00  0.00    -0.203 F 
ATOM     66  F   UNL A   1      41.876  23.161  26.333  1.00  0.00    -0.200 F 
ATOM     67  C   UNL A   1      43.226  24.968  25.643  1.00  0.00     0.200 A 
ATOM     68  F   UNL A   1      44.572  26.796  25.000  1.00  0.00    -0.200 F 
ATOM     69  F   UNL A   1      43.651  24.264  24.584  1.00  0.00    -0.200 F 
ENDBRANCH  45  59
BRANCH  46  70
ATOM     70  C   UNL A   1      39.158  31.937  35.567  1.00  0.00     0.064 A 
ATOM     71  C   UNL A   1      38.324  31.375  36.544  1.00  0.00     0.173 A 
ATOM     72  C   UNL A   1      39.519  33.285  35.718  1.00  0.00     0.173 A 
ATOM     73  F   UNL A   1      37.926  30.100  36.432  1.00  0.00    -0.203 F 
ATOM     74  C   UNL A   1      37.862  32.133  37.618  1.00  0.00     0.198 A 
ATOM     75  C   UNL A   1      39.093  34.028  36.815  1.00  0.00     0.198 A 
ATOM     76  F   UNL A   1      40.314  33.874  34.812  1.00  0.00    -0.203 F 
ATOM     77  F   UNL A   1      37.027  31.585  38.511  1.00  0.00    -0.200 F 
ATOM     78  C   UNL A   1      38.257  33.455  37.760  1.00  0.00     0.200 A 
ATOM     79  F   UNL A   1      39.497  35.298  36.959  1.00  0.00    -0.200 F 
ATOM     80  F   UNL A   1      37.826  34.177  38.803  1.00  0.00    -0.200 F 
ENDBRANCH  46  70
BRANCH  58  81
ATOM     81  C   UNL A   1      44.477  27.533  34.729  1.00  0.00     0.064 A 
ATOM     82  C   UNL A   1      44.341  26.397  35.542  1.00  0.00     0.173 A 
ATOM     83  C   UNL A   1      45.671  28.265  34.827  1.00  0.00     0.173 A 
ATOM     84  F   UNL A   1      43.215  25.668  35.502  1.00  0.00    -0.203 F 
ATOM     85  C   UNL A   1      45.331  26.045  36.457  1.00  0.00     0.198 A 
ATOM     86  C   UNL A   1      46.677  27.886  35.710  1.00  0.00     0.198 A 
ATOM     87  F   UNL A   1      45.862  29.355  34.068  1.00  0.00    -0.203 F 
ATOM     88  F   UNL A   1      45.139  25.008  37.283  1.00  0.00    -0.200 F 
ATOM     89  C   UNL A   1      46.499  26.787  36.537  1.00  0.00     0.200 A 
ATOM     90  F   UNL A   1      47.813  28.594  35.774  1.00  0.00    -0.200 F 
ATOM     91  F   UNL A   1      47.448  26.452  37.423  1.00  0.00    -0.200 F 
ENDBRANCH  58  81
ENDBRANCH  32  33
ENDBRANCH  25  27
ENDBRANCH  24  25
ENDBRANCH  23  24
ENDBRANCH   1  23
TORSDOF 14
ENDMDL
MODEL 2
REMARK VINA RESULT:     -12.1      0.623      1.744
REMARK SMILES N#C[C@H]1CN(c2cc(C(=O)OCCOC(=O)c3ccc(-c4c5nc(c(-c6c(F)c(F)c(F)c(F)c6F)c6ccc([nH]6)c(-c6c(F)c(F)c(F)c(F)c6F)c6nc(c(-c7c(F)c(F)c(F)c(F)c7F)c7ccc4[nH]7)C=C6)C=C5)cc3)c(N)cc2F)CCO1
REMARK SMILES IDX 12 1 11 2 9 3 10 4 8 5 6 6 7 7 83 8 82 9 84 10 80 11 5 12
REMARK SMILES IDX 3 13 4 14 87 15 86 16 85 17 2 18 1 19 81 20 13 23 14 24
REMARK SMILES IDX 15 25 16 26 17 27 18 28 79 29 19 30 78 31 20 32 21 33 22 34
REMARK SMILES IDX 72 35 23 36 77 37 71 38 73 39 24 40 76 41 70 42 69 43 25 45
REMARK SMILES IDX 57 46 37 47 56 48 38 49 41 50 55 51 74 52 39 53 40 54 54 56
REMARK SMILES IDX 75 57 42 58 26 59 27 60 35 61 28 62 29 63 33 64 36 65 30 66
REMARK SMILES IDX 31 67 34 68 32 69 58 70 59 71 67 72 60 73 61 74 65 75 68 76
REMARK SMILES IDX 62 77 63 78 66 79 64 80 43 81 44 82 52 83 45 84 46 85 50 86
REMARK SMILES IDX 53 87 47 88 48 89 51 90 49 91
REMARK H PARENT 81 21 81 22 73 44 41 55
REMARK Flexibility Score: inf
ROOT
ATOM      1  C   UNL A   1      32.513  29.009  25.279  1.00  0.00     0.275 C 
ENDROOT
BRANCH   1   2
ATOM      2  O   UNL A   1      31.491  27.995  25.411  1.00  0.00    -0.458 OA
BRANCH   2   3
ATOM      3  C   UNL A   1      31.051  27.424  24.259  1.00  0.00     0.340 C 
ATOM      4  O   UNL A   1      30.122  27.820  23.571  1.00  0.00    -0.246 OA
BRANCH   3   5
ATOM      5  C   UNL A   1      31.914  26.282  23.852  1.00  0.00     0.085 A 
ATOM      6  C   UNL A   1      32.806  24.082  24.496  1.00  0.00     0.074 A 
ATOM      7  C   UNL A   1      31.990  25.186  24.740  1.00  0.00     0.047 A 
ATOM      8  C   UNL A   1      33.621  24.149  23.362  1.00  0.00     0.148 A 
ATOM      9  C   UNL A   1      33.575  25.232  22.479  1.00  0.00     0.067 A 
ATOM     10  F   UNL A   1      34.481  23.150  23.107  1.00  0.00    -0.205 F 
ATOM     11  C   UNL A   1      32.686  26.295  22.680  1.00  0.00     0.049 A 
BRANCH   6  12
ATOM     12  N   UNL A   1      32.836  23.016  25.364  1.00  0.00    -0.363 N 
ATOM     13  C   UNL A   1      33.244  20.586  25.430  1.00  0.00     0.240 C 
ATOM     14  C   UNL A   1      32.241  21.706  25.059  1.00  0.00     0.164 C 
ATOM     15  O   UNL A   1      33.676  20.725  26.806  1.00  0.00    -0.360 OA
ATOM     16  C   UNL A   1      34.331  21.990  27.005  1.00  0.00     0.183 C 
ATOM     17  C   UNL A   1      33.392  23.168  26.709  1.00  0.00     0.145 C 
BRANCH  13  18
ATOM     18  C   UNL A   1      32.626  19.265  25.221  1.00  0.00     0.096 C 
ATOM     19  N   UNL A   1      32.176  18.207  25.073  1.00  0.00    -0.195 NA
ENDBRANCH  13  18
ENDBRANCH   6  12
BRANCH  11  20
ATOM     20  N   UNL A   1      32.746  27.392  21.823  1.00  0.00    -0.398 N 
ATOM     21  H   UNL A   1      33.593  27.623  21.379  1.00  0.00     0.156 HD
ATOM     22  H   UNL A   1      31.941  27.937  21.662  1.00  0.00     0.156 HD
ENDBRANCH  11  20
ENDBRANCH   3   5
ENDBRANCH   2   3
ENDBRANCH   1   2
BRANCH   1  23
ATOM     23  C   UNL A   1      32.011  30.373  25.758  1.00  0.00     0.275 C 
BRANCH  23  24
ATOM     24  O   UNL A   1      32.425  30.615  27.116  1.00  0.00    -0.458 OA
BRANCH  24  25
ATOM     25  C   UNL A   1      33.147  31.741  27.297  1.00  0.00     0.338 C 
ATOM     26  O   UNL A   1      32.746  32.893  27.302  1.00  0.00    -0.246 OA
BRANCH  25  27
ATOM     27  C   UNL A   1      34.530  31.407  27.659  1.00  0.00     0.060 A 
ATOM     28  C   UNL A   1      34.789  30.082  27.960  1.00  0.00     0.016 A 
ATOM     29  C   UNL A   1      35.482  32.379  27.945  1.00  0.00     0.016 A 
ATOM     30  C   UNL A   1      35.901  29.742  28.719  1.00  0.00     0.010 A 
ATOM     31  C   UNL A   1      36.689  32.001  28.560  1.00  0.00     0.010 A 
ATOM     32  C   UNL A   1      36.891  30.686  29.021  1.00  0.00    -0.014 A 
BRANCH  32  33
ATOM     33  C   UNL A   1      38.085  30.281  29.839  1.00  0.00     0.031 A 
ATOM     34  C   UNL A   1      39.165  29.390  29.264  1.00  0.00     0.074 A 
ATOM     35  C   UNL A   1      38.247  30.757  31.094  1.00  0.00     0.049 A 
ATOM     36  N   UNL A   1      40.184  28.823  29.868  1.00  0.00    -0.248 NA
ATOM     37  C   UNL A   1      39.074  29.073  27.832  1.00  0.00     0.031 C 
ATOM     38  C   UNL A   1      37.319  31.647  31.795  1.00  0.00     0.029 A 
ATOM     39  N   UNL A   1      39.265  30.579  32.003  1.00  0.00    -0.354 N 
ATOM     40  C   UNL A   1      40.828  28.059  28.897  1.00  0.00     0.074 A 
ATOM     41  C   UNL A   1      40.054  28.194  27.682  1.00  0.00     0.031 C 
ATOM     42  C   UNL A   1      37.844  32.006  32.972  1.00  0.00     0.029 A 
ATOM     43  C   UNL A   1      39.075  31.259  33.183  1.00  0.00     0.049 A 
ATOM     44  H   UNL A   1      40.054  30.018  31.826  1.00  0.00     0.167 HD
ATOM     45  C   UNL A   1      41.964  27.323  29.001  1.00  0.00     0.037 A 
ATOM     46  C   UNL A   1      39.769  31.250  34.337  1.00  0.00     0.037 A 
ATOM     47  C   UNL A   1      42.770  27.232  30.195  1.00  0.00     0.049 A 
ATOM     48  C   UNL A   1      40.974  30.365  34.456  1.00  0.00     0.074 A 
ATOM     49  C   UNL A   1      43.936  26.514  30.401  1.00  0.00     0.029 A 
ATOM     50  N   UNL A   1      42.503  27.899  31.383  1.00  0.00    -0.354 N 
ATOM     51  N   UNL A   1      41.529  29.594  33.555  1.00  0.00    -0.248 NA
ATOM     52  C   UNL A   1      41.640  30.338  35.765  1.00  0.00     0.031 C 
ATOM     53  C   UNL A   1      44.332  26.686  31.732  1.00  0.00     0.029 A 
ATOM     54  C   UNL A   1      43.460  27.575  32.336  1.00  0.00     0.049 A 
ATOM     55  H   UNL A   1      41.747  28.513  31.528  1.00  0.00     0.167 HD
ATOM     56  C   UNL A   1      42.618  29.003  34.178  1.00  0.00     0.074 A 
ATOM     57  C   UNL A   1      42.663  29.533  35.525  1.00  0.00     0.031 C 
ATOM     58  C   UNL A   1      43.497  28.098  33.680  1.00  0.00     0.037 A 
BRANCH  45  59
ATOM     59  C   UNL A   1      42.377  26.502  27.806  1.00  0.00     0.064 A 
ATOM     60  C   UNL A   1      43.348  26.932  26.889  1.00  0.00     0.173 A 
ATOM     61  C   UNL A   1      41.793  25.242  27.588  1.00  0.00     0.173 A 
ATOM     62  F   UNL A   1      43.939  28.126  27.037  1.00  0.00    -0.203 F 
ATOM     63  C   UNL A   1      43.685  26.157  25.780  1.00  0.00     0.198 A 
ATOM     64  C   UNL A   1      42.163  24.452  26.502  1.00  0.00     0.198 A 
ATOM     65  F   UNL A   1      40.867  24.769  28.434  1.00  0.00    -0.203 F 
ATOM     66  F   UNL A   1      44.565  26.620  24.880  1.00  0.00    -0.200 F 
ATOM     67  C   UNL A   1      43.098  24.915  25.591  1.00  0.00     0.200 A 
ATOM     68  F   UNL A   1      41.608  23.243  26.333  1.00  0.00    -0.200 F 
ATOM     69  F   UNL A   1      43.426  24.170  24.525  1.00  0.00    -0.200 F 
ENDBRANCH  45  59
BRANCH  46  70
ATOM     70  C   UNL A   1      39.302  32.067  35.491  1.00  0.00     0.064 A 
ATOM     71  C   UNL A   1      38.465  31.520  36.473  1.00  0.00     0.173 A 
ATOM     72  C   UNL A   1      39.687  33.409  35.640  1.00  0.00     0.173 A 
ATOM     73  F   UNL A   1      38.046  30.251  36.365  1.00  0.00    -0.203 F 
ATOM     74  C   UNL A   1      38.023  32.286  37.550  1.00  0.00     0.198 A 
ATOM     75  C   UNL A   1      39.279  34.160  36.739  1.00  0.00     0.198 A 
ATOM     76  F   UNL A   1      40.486  33.985  34.728  1.00  0.00    -0.203 F 
ATOM     77  F   UNL A   1      37.184  31.752  38.448  1.00  0.00    -0.200 F 
ATOM     78  C   UNL A   1      38.440  33.601  37.689  1.00  0.00     0.200 A 
ATOM     79  F   UNL A   1      39.705  35.423  36.879  1.00  0.00    -0.200 F 
ATOM     80  F   UNL A   1      38.028  34.331  38.733  1.00  0.00    -0.200 F 
ENDBRANCH  46  70
BRANCH  58  81
ATOM     81  C   UNL A   1      44.607  27.657  34.593  1.00  0.00     0.064 A 
ATOM     82  C   UNL A   1      45.829  28.344  34.663  1.00  0.00     0.173 A 
ATOM     83  C   UNL A   1      44.455  26.513  35.393  1.00  0.00     0.173 A 
ATOM     84  F   UNL A   1      46.035  29.435  33.908  1.00  0.00    -0.203 F 
ATOM     85  C   UNL A   1      46.874  27.873  35.453  1.00  0.00     0.198 A 
ATOM     86  C   UNL A   1      45.487  26.070  36.215  1.00  0.00     0.198 A 
ATOM     87  F   UNL A   1      43.307  25.820  35.375  1.00  0.00    -0.203 F 
ATOM     88  F   UNL A   1      48.059  28.497  35.435  1.00  0.00    -0.200 F 
ATOM     89  C   UNL A   1      46.701  26.738  36.232  1.00  0.00     0.200 A 
ATOM     90  F   UNL A   1      45.312  24.982  36.980  1.00  0.00    -0.200 F 
ATOM     91  F   UNL A   1      47.711  26.281  36.985  1.00  0.00    -0.200 F 
ENDBRANCH  58  81
ENDBRANCH  32  33
ENDBRANCH  25  27
ENDBRANCH  24  25
ENDBRANCH  23  24
ENDBRANCH   1  23
TORSDOF 14
ENDMDL
MODEL 3
REMARK VINA RESULT:     -12.0      4.206      9.937
REMARK SMILES N#C[C@H]1CN(c2cc(C(=O)OCCOC(=O)c3ccc(-c4c5nc(c(-c6c(F)c(F)c(F)c(F)c6F)c6ccc([nH]6)c(-c6c(F)c(F)c(F)c(F)c6F)c6nc(c(-c7c(F)c(F)c(F)c(F)c7F)c7ccc4[nH]7)C=C6)C=C5)cc3)c(N)cc2F)CCO1
REMARK SMILES IDX 12 1 11 2 9 3 10 4 8 5 6 6 7 7 83 8 82 9 84 10 80 11 5 12
REMARK SMILES IDX 3 13 4 14 87 15 86 16 85 17 2 18 1 19 81 20 13 23 14 24
REMARK SMILES IDX 15 25 16 26 17 27 18 28 79 29 19 30 78 31 20 32 21 33 22 34
REMARK SMILES IDX 72 35 23 36 77 37 71 38 73 39 24 40 76 41 70 42 69 43 25 45
REMARK SMILES IDX 57 46 37 47 56 48 38 49 41 50 55 51 74 52 39 53 40 54 54 56
REMARK SMILES IDX 75 57 42 58 26 59 27 60 35 61 28 62 29 63 33 64 36 65 30 66
REMARK SMILES IDX 31 67 34 68 32 69 58 70 59 71 67 72 60 73 61 74 65 75 68 76
REMARK SMILES IDX 62 77 63 78 66 79 64 80 43 81 44 82 52 83 45 84 46 85 50 86
REMARK SMILES IDX 53 87 47 88 48 89 51 90 49 91
REMARK H PARENT 81 21 81 22 73 44 41 55
REMARK Flexibility Score: inf
ROOT
ATOM      1  C   UNL A   1      35.459  21.768  25.805  1.00  0.00     0.275 C 
ENDROOT
BRANCH   1   2
ATOM      2  O   UNL A   1      34.170  21.567  25.181  1.00  0.00    -0.458 OA
BRANCH   2   3
ATOM      3  C   UNL A   1      33.803  22.477  24.240  1.00  0.00     0.340 C 
ATOM      4  O   UNL A   1      34.270  22.575  23.116  1.00  0.00    -0.246 OA
BRANCH   3   5
ATOM      5  C   UNL A   1      32.657  23.306  24.702  1.00  0.00     0.085 A 
ATOM      6  C   UNL A   1      31.739  25.581  24.879  1.00  0.00     0.074 A 
ATOM      7  C   UNL A   1      32.725  24.694  24.448  1.00  0.00     0.047 A 
ATOM      8  C   UNL A   1      30.713  25.041  25.658  1.00  0.00     0.148 A 
ATOM      9  C   UNL A   1      30.635  23.673  25.938  1.00  0.00     0.067 A 
ATOM     10  F   UNL A   1      29.770  25.853  26.164  1.00  0.00    -0.205 F 
ATOM     11  C   UNL A   1      31.577  22.774  25.424  1.00  0.00     0.049 A 
BRANCH   6  12
ATOM     12  N   UNL A   1      31.819  26.924  24.589  1.00  0.00    -0.363 N 
ATOM     13  C   UNL A   1      30.454  28.811  23.784  1.00  0.00     0.240 C 
ATOM     14  C   UNL A   1      31.226  27.529  23.388  1.00  0.00     0.164 C 
ATOM     15  O   UNL A   1      31.311  29.711  24.529  1.00  0.00    -0.360 OA
ATOM     16  C   UNL A   1      31.775  29.083  25.737  1.00  0.00     0.183 C 
ATOM     17  C   UNL A   1      32.600  27.823  25.438  1.00  0.00     0.145 C 
BRANCH  13  18
ATOM     18  C   UNL A   1      29.935  29.482  22.578  1.00  0.00     0.096 C 
ATOM     19  N   UNL A   1      29.568  30.025  21.622  1.00  0.00    -0.195 NA
ENDBRANCH  13  18
ENDBRANCH   6  12
BRANCH  11  20
ATOM     20  N   UNL A   1      31.508  21.437  25.808  1.00  0.00    -0.398 N 
ATOM     21  H   UNL A   1      31.632  21.189  26.753  1.00  0.00     0.156 HD
ATOM     22  H   UNL A   1      31.335  20.738  25.136  1.00  0.00     0.156 HD
ENDBRANCH  11  20
ENDBRANCH   3   5
ENDBRANCH   2   3
ENDBRANCH   1   2
BRANCH   1  23
ATOM     23  C   UNL A   1      36.537  20.899  25.152  1.00  0.00     0.275 C 
BRANCH  23  24
ATOM     24  O   UNL A   1      37.748  21.655  24.963  1.00  0.00    -0.458 OA
BRANCH  24  25
ATOM     25  C   UNL A   1      38.777  21.285  25.755  1.00  0.00     0.338 C 
ATOM     26  O   UNL A   1      39.333  20.201  25.799  1.00  0.00    -0.246 OA
BRANCH  25  27
ATOM     27  C   UNL A   1      39.287  22.443  26.499  1.00  0.00     0.060 A 
ATOM     28  C   UNL A   1      38.737  23.673  26.186  1.00  0.00     0.016 A 
ATOM     29  C   UNL A   1      40.432  22.379  27.285  1.00  0.00     0.016 A 
ATOM     30  C   UNL A   1      39.424  24.842  26.484  1.00  0.00     0.010 A 
ATOM     31  C   UNL A   1      41.029  23.571  27.732  1.00  0.00     0.010 A 
ATOM     32  C   UNL A   1      40.575  24.826  27.282  1.00  0.00    -0.014 A 
BRANCH  32  33
ATOM     33  C   UNL A   1      41.290  26.111  27.590  1.00  0.00     0.031 A 
ATOM     34  C   UNL A   1      40.634  27.195  28.418  1.00  0.00     0.074 A 
ATOM     35  C   UNL A   1      42.564  26.302  27.178  1.00  0.00     0.049 A 
ATOM     36  N   UNL A   1      41.041  28.421  28.657  1.00  0.00    -0.248 NA
ATOM     37  C   UNL A   1      39.342  26.870  29.037  1.00  0.00     0.031 C 
ATOM     38  C   UNL A   1      43.357  25.352  26.394  1.00  0.00     0.029 A 
ATOM     39  N   UNL A   1      43.432  27.351  27.380  1.00  0.00    -0.354 N 
ATOM     40  C   UNL A   1      40.040  29.016  29.420  1.00  0.00     0.074 A 
ATOM     41  C   UNL A   1      38.985  28.035  29.558  1.00  0.00     0.031 C 
ATOM     42  C   UNL A   1      44.606  25.814  26.260  1.00  0.00     0.029 A 
ATOM     43  C   UNL A   1      44.670  27.158  26.815  1.00  0.00     0.049 A 
ATOM     44  H   UNL A   1      43.189  28.162  27.882  1.00  0.00     0.167 HD
ATOM     45  C   UNL A   1      40.003  30.259  29.966  1.00  0.00     0.037 A 
ATOM     46  C   UNL A   1      45.731  27.979  26.694  1.00  0.00     0.037 A 
ATOM     47  C   UNL A   1      41.078  31.218  29.880  1.00  0.00     0.049 A 
ATOM     48  C   UNL A   1      45.637  29.374  27.234  1.00  0.00     0.074 A 
ATOM     49  C   UNL A   1      41.137  32.501  30.399  1.00  0.00     0.029 A 
ATOM     50  N   UNL A   1      42.292  30.993  29.248  1.00  0.00    -0.354 N 
ATOM     51  N   UNL A   1      44.658  29.947  27.888  1.00  0.00    -0.248 NA
ATOM     52  C   UNL A   1      46.796  30.246  26.999  1.00  0.00     0.031 C 
ATOM     53  C   UNL A   1      42.354  33.076  30.018  1.00  0.00     0.029 A 
ATOM     54  C   UNL A   1      43.089  32.127  29.329  1.00  0.00     0.049 A 
ATOM     55  H   UNL A   1      42.552  30.151  28.808  1.00  0.00     0.167 HD
ATOM     56  C   UNL A   1      45.085  31.238  28.161  1.00  0.00     0.074 A 
ATOM     57  C   UNL A   1      46.428  31.351  27.629  1.00  0.00     0.031 C 
ATOM     58  C   UNL A   1      44.423  32.240  28.790  1.00  0.00     0.037 A 
BRANCH  45  59
ATOM     59  C   UNL A   1      38.733  30.680  30.661  1.00  0.00     0.064 A 
ATOM     60  C   UNL A   1      37.609  31.154  29.966  1.00  0.00     0.173 A 
ATOM     61  C   UNL A   1      38.638  30.587  32.060  1.00  0.00     0.173 A 
ATOM     62  F   UNL A   1      37.637  31.272  28.631  1.00  0.00    -0.203 F 
ATOM     63  C   UNL A   1      36.461  31.560  30.645  1.00  0.00     0.198 A 
ATOM     64  C   UNL A   1      37.473  30.954  32.731  1.00  0.00     0.198 A 
ATOM     65  F   UNL A   1      39.672  30.130  32.781  1.00  0.00    -0.203 F 
ATOM     66  F   UNL A   1      35.427  32.075  29.965  1.00  0.00    -0.200 F 
ATOM     67  C   UNL A   1      36.391  31.453  32.026  1.00  0.00     0.200 A 
ATOM     68  F   UNL A   1      37.402  30.829  34.064  1.00  0.00    -0.200 F 
ATOM     69  F   UNL A   1      35.285  31.840  32.676  1.00  0.00    -0.200 F 
ENDBRANCH  45  59
BRANCH  46  70
ATOM     70  C   UNL A   1      46.953  27.513  25.982  1.00  0.00     0.064 A 
ATOM     71  C   UNL A   1      47.067  27.630  24.590  1.00  0.00     0.173 A 
ATOM     72  C   UNL A   1      48.034  26.948  26.677  1.00  0.00     0.173 A 
ATOM     73  F   UNL A   1      46.053  28.137  23.875  1.00  0.00    -0.203 F 
ATOM     74  C   UNL A   1      48.207  27.189  23.921  1.00  0.00     0.198 A 
ATOM     75  C   UNL A   1      49.190  26.548  26.012  1.00  0.00     0.198 A 
ATOM     76  F   UNL A   1      47.979  26.810  28.010  1.00  0.00    -0.203 F 
ATOM     77  F   UNL A   1      48.270  27.267  22.585  1.00  0.00    -0.200 F 
ATOM     78  C   UNL A   1      49.273  26.660  24.634  1.00  0.00     0.200 A 
ATOM     79  F   UNL A   1      50.225  26.059  26.709  1.00  0.00    -0.200 F 
ATOM     80  F   UNL A   1      50.375  26.252  23.992  1.00  0.00    -0.200 F 
ENDBRANCH  46  70
BRANCH  58  81
ATOM     81  C   UNL A   1      45.164  33.536  28.969  1.00  0.00     0.064 A 
ATOM     82  C   UNL A   1      45.090  34.569  28.021  1.00  0.00     0.173 A 
ATOM     83  C   UNL A   1      45.980  33.738  30.093  1.00  0.00     0.173 A 
ATOM     84  F   UNL A   1      44.338  34.424  26.919  1.00  0.00    -0.203 F 
ATOM     85  C   UNL A   1      45.849  35.729  28.163  1.00  0.00     0.198 A 
ATOM     86  C   UNL A   1      46.703  34.917  30.253  1.00  0.00     0.198 A 
ATOM     87  F   UNL A   1      46.083  32.790  31.035  1.00  0.00    -0.203 F 
ATOM     88  F   UNL A   1      45.828  36.662  27.202  1.00  0.00    -0.200 F 
ATOM     89  C   UNL A   1      46.651  35.903  29.281  1.00  0.00     0.200 A 
ATOM     90  F   UNL A   1      47.465  35.091  31.342  1.00  0.00    -0.200 F 
ATOM     91  F   UNL A   1      47.386  37.016  29.412  1.00  0.00    -0.200 F 
ENDBRANCH  58  81
ENDBRANCH  32  33
ENDBRANCH  25  27
ENDBRANCH  24  25
ENDBRANCH  23  24
ENDBRANCH   1  23
TORSDOF 14
ENDMDL
