MODEL 1
REMARK VINA RESULT:     -10.6      0.000      0.000
REMARK SMILES CC(C)(C)OC(=O)Nc1ccc(SCC(=O)OCCOC(=O)c2ccc(-c3c4nc(c(-c5c(F)c(F)c(F)c(F)c5F)c5ccc([nH]5)c(-c5c(F)c(F)c(F)c(F)c5F)c5nc(c(-c6c(F)c(F)c(F)c(F)c6F)c6ccc3[nH]6)C=C5)C=C4)cc2)cc1
REMARK SMILES IDX 17 1 15 2 16 3 14 4 13 5 12 6 9 7 10 8 87 9 11 10 86 11 8 12
REMARK SMILES IDX 6 13 7 14 5 16 2 17 1 18 3 19 4 20 18 21 19 22 20 23 21 24
REMARK SMILES IDX 22 25 23 26 24 27 85 28 25 29 84 30 26 31 27 32 28 33 78 34
REMARK SMILES IDX 29 35 83 36 77 37 79 38 30 39 82 40 76 41 75 42 31 44 63 45
REMARK SMILES IDX 43 46 62 47 44 48 47 49 61 50 80 51 45 52 46 53 60 55 81 56
REMARK SMILES IDX 48 57 32 58 33 59 41 60 34 61 35 62 39 63 42 64 36 65 37 66
REMARK SMILES IDX 40 67 38 68 64 69 65 70 73 71 66 72 67 73 71 74 74 75 68 76
REMARK SMILES IDX 69 77 72 78 70 79 49 80 50 81 58 82 51 83 52 84 56 85 59 86
REMARK SMILES IDX 53 87 54 88 57 89 55 90
REMARK H PARENT 8 15 79 43 47 54
REMARK Flexibility Score: inf
ROOT
ATOM      1  O   UNL A   1      34.716  34.505  29.206  1.00  0.00    -0.461 OA
ENDROOT
BRANCH   1   2
ATOM      2  C   UNL A   1      34.680  33.151  29.259  1.00  0.00     0.316 C 
ATOM      3  O   UNL A   1      34.180  32.519  30.190  1.00  0.00    -0.251 OA
BRANCH   2   4
ATOM      4  C   UNL A   1      35.291  32.415  28.087  1.00  0.00     0.197 C 
BRANCH   4   5
ATOM      5  S   UNL A   1      35.210  30.602  28.077  1.00  0.00    -0.114 SA
BRANCH   5   6
ATOM      6  C   UNL A   1      33.913  30.182  26.922  1.00  0.00     0.008 A 
ATOM      7  C   UNL A   1      32.106  29.608  24.830  1.00  0.00     0.044 A 
ATOM      8  C   UNL A   1      33.339  28.965  24.884  1.00  0.00     0.027 A 
ATOM      9  C   UNL A   1      31.722  30.424  25.888  1.00  0.00     0.027 A 
ATOM     10  C   UNL A   1      34.248  29.281  25.904  1.00  0.00     0.017 A 
ATOM     11  C   UNL A   1      32.610  30.675  26.946  1.00  0.00     0.017 A 
BRANCH   7  12
ATOM     12  N   UNL A   1      31.266  29.360  23.742  1.00  0.00    -0.291 N 
ATOM     13  C   UNL A   1      30.654  28.178  23.378  1.00  0.00     0.412 C 
ATOM     14  O   UNL A   1      30.051  28.104  22.325  1.00  0.00    -0.224 OA
ATOM     15  H   UNL A   1      31.085  30.130  23.156  1.00  0.00     0.173 HD
BRANCH  13  16
ATOM     16  O   UNL A   1      30.652  27.220  24.353  1.00  0.00    -0.444 OA
BRANCH  16  17
ATOM     17  C   UNL A   1      31.388  25.979  24.141  1.00  0.00     0.106 C 
ATOM     18  C   UNL A   1      30.373  24.920  23.675  1.00  0.00     0.056 C 
ATOM     19  C   UNL A   1      32.031  25.495  25.444  1.00  0.00     0.056 C 
ATOM     20  C   UNL A   1      32.414  26.118  23.006  1.00  0.00     0.056 C 
ENDBRANCH  16  17
ENDBRANCH  13  16
ENDBRANCH   7  12
ENDBRANCH   5   6
ENDBRANCH   4   5
ENDBRANCH   2   4
ENDBRANCH   1   2
BRANCH   1  21
ATOM     21  C   UNL A   1      33.496  35.143  28.772  1.00  0.00     0.274 C 
BRANCH  21  22
ATOM     22  C   UNL A   1      32.904  36.066  29.835  1.00  0.00     0.275 C 
BRANCH  22  23
ATOM     23  O   UNL A   1      32.376  35.314  30.945  1.00  0.00    -0.458 OA
BRANCH  23  24
ATOM     24  C   UNL A   1      32.734  35.810  32.148  1.00  0.00     0.338 C 
ATOM     25  O   UNL A   1      32.157  36.688  32.766  1.00  0.00    -0.246 OA
BRANCH  24  26
ATOM     26  C   UNL A   1      33.922  35.142  32.704  1.00  0.00     0.060 A 
ATOM     27  C   UNL A   1      35.185  35.689  32.491  1.00  0.00     0.016 A 
ATOM     28  C   UNL A   1      33.799  33.854  33.233  1.00  0.00     0.016 A 
ATOM     29  C   UNL A   1      36.321  34.915  32.726  1.00  0.00     0.010 A 
ATOM     30  C   UNL A   1      34.938  33.116  33.558  1.00  0.00     0.010 A 
ATOM     31  C   UNL A   1      36.212  33.631  33.288  1.00  0.00    -0.014 A 
BRANCH  31  32
ATOM     32  C   UNL A   1      37.430  32.874  33.674  1.00  0.00     0.031 A 
ATOM     33  C   UNL A   1      38.152  33.137  34.968  1.00  0.00     0.074 A 
ATOM     34  C   UNL A   1      37.909  31.956  32.812  1.00  0.00     0.049 A 
ATOM     35  N   UNL A   1      39.279  32.627  35.399  1.00  0.00    -0.248 NA
ATOM     36  C   UNL A   1      37.540  34.103  35.892  1.00  0.00     0.031 C 
ATOM     37  C   UNL A   1      37.308  31.625  31.519  1.00  0.00     0.029 A 
ATOM     38  N   UNL A   1      39.006  31.138  32.888  1.00  0.00    -0.354 N 
ATOM     39  C   UNL A   1      39.526  33.225  36.629  1.00  0.00     0.074 A 
ATOM     40  C   UNL A   1      38.436  34.148  36.871  1.00  0.00     0.031 C 
ATOM     41  C   UNL A   1      38.022  30.652  30.938  1.00  0.00     0.029 A 
ATOM     42  C   UNL A   1      39.169  30.341  31.783  1.00  0.00     0.049 A 
ATOM     43  H   UNL A   1      39.617  31.123  33.660  1.00  0.00     0.167 HD
ATOM     44  C   UNL A   1      40.567  33.018  37.474  1.00  0.00     0.037 A 
ATOM     45  C   UNL A   1      40.147  29.477  31.463  1.00  0.00     0.037 A 
ATOM     46  C   UNL A   1      41.637  32.080  37.240  1.00  0.00     0.049 A 
ATOM     47  C   UNL A   1      41.292  29.281  32.409  1.00  0.00     0.074 A 
ATOM     48  C   UNL A   1      42.708  31.767  38.062  1.00  0.00     0.029 A 
ATOM     49  N   UNL A   1      41.776  31.305  36.098  1.00  0.00    -0.354 N 
ATOM     50  N   UNL A   1      41.506  29.845  33.572  1.00  0.00    -0.248 NA
ATOM     51  C   UNL A   1      42.336  28.337  31.994  1.00  0.00     0.031 C 
ATOM     52  C   UNL A   1      43.513  30.833  37.401  1.00  0.00     0.029 A 
ATOM     53  C   UNL A   1      42.924  30.532  36.186  1.00  0.00     0.049 A 
ATOM     54  H   UNL A   1      41.151  31.303  35.337  1.00  0.00     0.167 HD
ATOM     55  C   UNL A   1      42.705  29.324  34.031  1.00  0.00     0.074 A 
ATOM     56  C   UNL A   1      43.160  28.377  33.032  1.00  0.00     0.031 C 
ATOM     57  C   UNL A   1      43.373  29.608  35.175  1.00  0.00     0.037 A 
BRANCH  44  58
ATOM     58  C   UNL A   1      40.616  33.827  38.738  1.00  0.00     0.064 A 
ATOM     59  C   UNL A   1      39.960  33.413  39.905  1.00  0.00     0.173 A 
ATOM     60  C   UNL A   1      41.396  34.993  38.803  1.00  0.00     0.173 A 
ATOM     61  F   UNL A   1      39.199  32.308  39.896  1.00  0.00    -0.203 F 
ATOM     62  C   UNL A   1      40.071  34.142  41.088  1.00  0.00     0.198 A 
ATOM     63  C   UNL A   1      41.524  35.707  39.991  1.00  0.00     0.198 A 
ATOM     64  F   UNL A   1      42.053  35.427  37.717  1.00  0.00    -0.203 F 
ATOM     65  F   UNL A   1      39.417  33.740  42.186  1.00  0.00    -0.200 F 
ATOM     66  C   UNL A   1      40.859  35.283  41.132  1.00  0.00     0.200 A 
ATOM     67  F   UNL A   1      42.297  36.801  40.035  1.00  0.00    -0.200 F 
ATOM     68  F   UNL A   1      40.978  35.974  42.274  1.00  0.00    -0.200 F 
ENDBRANCH  44  58
BRANCH  45  69
ATOM     69  C   UNL A   1      40.079  28.748  30.173  1.00  0.00     0.064 A 
ATOM     70  C   UNL A   1      40.656  29.284  29.015  1.00  0.00     0.173 A 
ATOM     71  C   UNL A   1      39.472  27.487  30.082  1.00  0.00     0.173 A 
ATOM     72  F   UNL A   1      41.231  30.496  29.052  1.00  0.00    -0.203 F 
ATOM     73  C   UNL A   1      40.627  28.585  27.811  1.00  0.00     0.198 A 
ATOM     74  C   UNL A   1      39.467  26.777  28.885  1.00  0.00     0.198 A 
ATOM     75  F   UNL A   1      38.912  26.931  31.167  1.00  0.00    -0.203 F 
ATOM     76  F   UNL A   1      41.162  29.129  26.710  1.00  0.00    -0.200 F 
ATOM     77  C   UNL A   1      40.041  27.328  27.749  1.00  0.00     0.200 A 
ATOM     78  F   UNL A   1      38.918  25.557  28.833  1.00  0.00    -0.200 F 
ATOM     79  F   UNL A   1      40.028  26.650  26.594  1.00  0.00    -0.200 F 
ENDBRANCH  45  69
BRANCH  57  80
ATOM     80  C   UNL A   1      44.662  28.879  35.400  1.00  0.00     0.064 A 
ATOM     81  C   UNL A   1      44.692  27.629  36.039  1.00  0.00     0.173 A 
ATOM     82  C   UNL A   1      45.880  29.434  34.981  1.00  0.00     0.173 A 
ATOM     83  F   UNL A   1      43.554  27.068  36.476  1.00  0.00    -0.203 F 
ATOM     84  C   UNL A   1      45.898  26.975  36.274  1.00  0.00     0.198 A 
ATOM     85  C   UNL A   1      47.082  28.766  35.196  1.00  0.00     0.198 A 
ATOM     86  F   UNL A   1      45.904  30.625  34.367  1.00  0.00    -0.203 F 
ATOM     87  F   UNL A   1      45.908  25.808  36.933  1.00  0.00    -0.200 F 
ATOM     88  C   UNL A   1      47.091  27.542  35.851  1.00  0.00     0.200 A 
ATOM     89  F   UNL A   1      48.234  29.310  34.782  1.00  0.00    -0.200 F 
ATOM     90  F   UNL A   1      48.251  26.915  36.084  1.00  0.00    -0.200 F 
ENDBRANCH  57  80
ENDBRANCH  31  32
ENDBRANCH  24  26
ENDBRANCH  23  24
ENDBRANCH  22  23
ENDBRANCH  21  22
ENDBRANCH   1  21
TORSDOF 16
ENDMDL
MODEL 2
REMARK VINA RESULT:     -10.4      3.069      8.872
REMARK SMILES CC(C)(C)OC(=O)Nc1ccc(SCC(=O)OCCOC(=O)c2ccc(-c3c4nc(c(-c5c(F)c(F)c(F)c(F)c5F)c5ccc([nH]5)c(-c5c(F)c(F)c(F)c(F)c5F)c5nc(c(-c6c(F)c(F)c(F)c(F)c6F)c6ccc3[nH]6)C=C5)C=C4)cc2)cc1
REMARK SMILES IDX 17 1 15 2 16 3 14 4 13 5 12 6 9 7 10 8 87 9 11 10 86 11 8 12
REMARK SMILES IDX 6 13 7 14 5 16 2 17 1 18 3 19 4 20 18 21 19 22 20 23 21 24
REMARK SMILES IDX 22 25 23 26 24 27 85 28 25 29 84 30 26 31 27 32 28 33 78 34
REMARK SMILES IDX 29 35 83 36 77 37 79 38 30 39 82 40 76 41 75 42 31 44 63 45
REMARK SMILES IDX 43 46 62 47 44 48 47 49 61 50 80 51 45 52 46 53 60 55 81 56
REMARK SMILES IDX 48 57 32 58 33 59 41 60 34 61 35 62 39 63 42 64 36 65 37 66
REMARK SMILES IDX 40 67 38 68 64 69 65 70 73 71 66 72 67 73 71 74 74 75 68 76
REMARK SMILES IDX 69 77 72 78 70 79 49 80 50 81 58 82 51 83 52 84 56 85 59 86
REMARK SMILES IDX 53 87 54 88 57 89 55 90
REMARK H PARENT 8 15 79 43 47 54
REMARK Flexibility Score: inf
ROOT
ATOM      1  O   UNL A   1      31.310  28.375  23.997  1.00  0.00    -0.461 OA
ENDROOT
BRANCH   1   2
ATOM      2  C   UNL A   1      30.322  27.883  23.210  1.00  0.00     0.316 C 
ATOM      3  O   UNL A   1      29.978  28.399  22.146  1.00  0.00    -0.251 OA
BRANCH   2   4
ATOM      4  C   UNL A   1      29.636  26.626  23.698  1.00  0.00     0.197 C 
BRANCH   4   5
ATOM      5  S   UNL A   1      30.132  25.949  25.306  1.00  0.00    -0.114 SA
BRANCH   5   6
ATOM      6  C   UNL A   1      30.882  24.365  24.953  1.00  0.00     0.008 A 
ATOM      7  C   UNL A   1      32.293  21.935  24.680  1.00  0.00     0.044 A 
ATOM      8  C   UNL A   1      31.679  22.255  25.888  1.00  0.00     0.027 A 
ATOM      9  C   UNL A   1      32.085  22.756  23.578  1.00  0.00     0.027 A 
ATOM     10  C   UNL A   1      31.011  23.479  26.030  1.00  0.00     0.017 A 
ATOM     11  C   UNL A   1      31.348  23.944  23.709  1.00  0.00     0.017 A 
BRANCH   7  12
ATOM     12  N   UNL A   1      33.048  20.762  24.600  1.00  0.00    -0.291 N 
ATOM     13  C   UNL A   1      34.383  20.576  24.894  1.00  0.00     0.412 C 
ATOM     14  O   UNL A   1      34.917  19.512  24.648  1.00  0.00    -0.224 OA
ATOM     15  H   UNL A   1      32.564  19.962  24.292  1.00  0.00     0.173 HD
BRANCH  13  16
ATOM     16  O   UNL A   1      34.950  21.592  25.610  1.00  0.00    -0.444 OA
BRANCH  16  17
ATOM     17  C   UNL A   1      36.065  22.337  25.037  1.00  0.00     0.106 C 
ATOM     18  C   UNL A   1      36.230  23.624  25.865  1.00  0.00     0.056 C 
ATOM     19  C   UNL A   1      35.773  22.728  23.585  1.00  0.00     0.056 C 
ATOM     20  C   UNL A   1      37.389  21.568  25.173  1.00  0.00     0.056 C 
ENDBRANCH  16  17
ENDBRANCH  13  16
ENDBRANCH   7  12
ENDBRANCH   5   6
ENDBRANCH   4   5
ENDBRANCH   2   4
ENDBRANCH   1   2
BRANCH   1  21
ATOM     21  C   UNL A   1      31.045  29.662  24.595  1.00  0.00     0.274 C 
BRANCH  21  22
ATOM     22  C   UNL A   1      31.686  29.814  25.974  1.00  0.00     0.275 C 
BRANCH  22  23
ATOM     23  O   UNL A   1      33.001  30.393  25.878  1.00  0.00    -0.458 OA
BRANCH  23  24
ATOM     24  C   UNL A   1      33.319  31.178  26.929  1.00  0.00     0.338 C 
ATOM     25  O   UNL A   1      32.623  32.058  27.407  1.00  0.00    -0.246 OA
BRANCH  24  26
ATOM     26  C   UNL A   1      34.630  30.843  27.510  1.00  0.00     0.060 A 
ATOM     27  C   UNL A   1      34.855  29.563  28.011  1.00  0.00     0.016 A 
ATOM     28  C   UNL A   1      35.548  31.866  27.765  1.00  0.00     0.016 A 
ATOM     29  C   UNL A   1      35.954  29.330  28.839  1.00  0.00     0.010 A 
ATOM     30  C   UNL A   1      36.697  31.607  28.514  1.00  0.00     0.010 A 
ATOM     31  C   UNL A   1      36.901  30.342  29.077  1.00  0.00    -0.014 A 
BRANCH  31  32
ATOM     32  C   UNL A   1      38.143  30.043  29.835  1.00  0.00     0.031 A 
ATOM     33  C   UNL A   1      39.216  29.145  29.281  1.00  0.00     0.074 A 
ATOM     34  C   UNL A   1      38.279  30.571  31.067  1.00  0.00     0.049 A 
ATOM     35  N   UNL A   1      40.309  28.715  29.861  1.00  0.00    -0.248 NA
ATOM     36  C   UNL A   1      39.036  28.657  27.906  1.00  0.00     0.031 C 
ATOM     37  C   UNL A   1      37.300  31.442  31.720  1.00  0.00     0.029 A 
ATOM     38  N   UNL A   1      39.286  30.453  31.989  1.00  0.00    -0.354 N 
ATOM     39  C   UNL A   1      40.935  27.888  28.936  1.00  0.00     0.074 A 
ATOM     40  C   UNL A   1      40.092  27.865  27.758  1.00  0.00     0.031 C 
ATOM     41  C   UNL A   1      37.767  31.806  32.921  1.00  0.00     0.029 A 
ATOM     42  C   UNL A   1      39.043  31.140  33.152  1.00  0.00     0.049 A 
ATOM     43  H   UNL A   1      40.104  29.928  31.833  1.00  0.00     0.167 HD
ATOM     44  C   UNL A   1      42.105  27.214  29.063  1.00  0.00     0.037 A 
ATOM     45  C   UNL A   1      39.748  31.205  34.294  1.00  0.00     0.037 A 
ATOM     46  C   UNL A   1      42.953  27.258  30.229  1.00  0.00     0.049 A 
ATOM     47  C   UNL A   1      41.029  30.437  34.411  1.00  0.00     0.074 A 
ATOM     48  C   UNL A   1      44.180  26.648  30.429  1.00  0.00     0.029 A 
ATOM     49  N   UNL A   1      42.661  27.951  31.394  1.00  0.00    -0.354 N 
ATOM     50  N   UNL A   1      41.613  29.668  33.525  1.00  0.00    -0.248 NA
ATOM     51  C   UNL A   1      41.744  30.536  35.689  1.00  0.00     0.031 C 
ATOM     52  C   UNL A   1      44.612  26.939  31.728  1.00  0.00     0.029 A 
ATOM     53  C   UNL A   1      43.674  27.765  32.323  1.00  0.00     0.049 A 
ATOM     54  H   UNL A   1      41.854  28.496  31.541  1.00  0.00     0.167 HD
ATOM     55  C   UNL A   1      42.764  29.195  34.134  1.00  0.00     0.074 A 
ATOM     56  C   UNL A   1      42.810  29.784  35.458  1.00  0.00     0.031 C 
ATOM     57  C   UNL A   1      43.696  28.343  33.643  1.00  0.00     0.037 A 
BRANCH  44  58
ATOM     58  C   UNL A   1      42.546  26.352  27.915  1.00  0.00     0.064 A 
ATOM     59  C   UNL A   1      42.064  25.047  27.745  1.00  0.00     0.173 A 
ATOM     60  C   UNL A   1      43.402  26.868  26.929  1.00  0.00     0.173 A 
ATOM     61  F   UNL A   1      41.246  24.505  28.660  1.00  0.00    -0.203 F 
ATOM     62  C   UNL A   1      42.432  24.285  26.638  1.00  0.00     0.198 A 
ATOM     63  C   UNL A   1      43.750  26.113  25.812  1.00  0.00     0.198 A 
ATOM     64  F   UNL A   1      43.883  28.116  27.038  1.00  0.00    -0.203 F 
ATOM     65  F   UNL A   1      41.977  23.031  26.508  1.00  0.00    -0.200 F 
ATOM     66  C   UNL A   1      43.268  24.821  25.670  1.00  0.00     0.200 A 
ATOM     67  F   UNL A   1      44.546  26.638  24.871  1.00  0.00    -0.200 F 
ATOM     68  F   UNL A   1      43.607  24.092  24.597  1.00  0.00    -0.200 F 
ENDBRANCH  44  58
BRANCH  45  69
ATOM     69  C   UNL A   1      39.235  32.025  35.419  1.00  0.00     0.064 A 
ATOM     70  C   UNL A   1      38.463  31.446  36.434  1.00  0.00     0.173 A 
ATOM     71  C   UNL A   1      39.540  33.390  35.521  1.00  0.00     0.173 A 
ATOM     72  F   UNL A   1      38.133  30.148  36.366  1.00  0.00    -0.203 F 
ATOM     73  C   UNL A   1      38.012  32.204  37.511  1.00  0.00     0.198 A 
ATOM     74  C   UNL A   1      39.111  34.141  36.612  1.00  0.00     0.198 A 
ATOM     75  F   UNL A   1      40.282  33.986  34.577  1.00  0.00    -0.203 F 
ATOM     76  F   UNL A   1      37.251  31.636  38.456  1.00  0.00    -0.200 F 
ATOM     77  C   UNL A   1      38.344  33.549  37.604  1.00  0.00     0.200 A 
ATOM     78  F   UNL A   1      39.449  35.433  36.708  1.00  0.00    -0.200 F 
ATOM     79  F   UNL A   1      37.922  34.274  38.649  1.00  0.00    -0.200 F 
ENDBRANCH  45  69
BRANCH  57  80
ATOM     80  C   UNL A   1      44.844  28.008  34.547  1.00  0.00     0.064 A 
ATOM     81  C   UNL A   1      44.803  26.891  35.395  1.00  0.00     0.173 A 
ATOM     82  C   UNL A   1      45.993  28.812  34.571  1.00  0.00     0.173 A 
ATOM     83  F   UNL A   1      43.716  26.103  35.421  1.00  0.00    -0.203 F 
ATOM     84  C   UNL A   1      45.860  26.607  36.255  1.00  0.00     0.198 A 
ATOM     85  C   UNL A   1      47.058  28.512  35.415  1.00  0.00     0.198 A 
ATOM     86  F   UNL A   1      46.080  29.891  33.780  1.00  0.00    -0.203 F 
ATOM     87  F   UNL A   1      45.778  25.565  37.095  1.00  0.00    -0.200 F 
ATOM     88  C   UNL A   1      46.987  27.415  36.263  1.00  0.00     0.200 A 
ATOM     89  F   UNL A   1      48.149  29.289  35.418  1.00  0.00    -0.200 F 
ATOM     90  F   UNL A   1      48.001  27.145  37.096  1.00  0.00    -0.200 F 
ENDBRANCH  57  80
ENDBRANCH  31  32
ENDBRANCH  24  26
ENDBRANCH  23  24
ENDBRANCH  22  23
ENDBRANCH  21  22
ENDBRANCH   1  21
TORSDOF 16
ENDMDL
MODEL 3
REMARK VINA RESULT:     -10.2      4.223      9.340
REMARK SMILES CC(C)(C)OC(=O)Nc1ccc(SCC(=O)OCCOC(=O)c2ccc(-c3c4nc(c(-c5c(F)c(F)c(F)c(F)c5F)c5ccc([nH]5)c(-c5c(F)c(F)c(F)c(F)c5F)c5nc(c(-c6c(F)c(F)c(F)c(F)c6F)c6ccc3[nH]6)C=C5)C=C4)cc2)cc1
REMARK SMILES IDX 17 1 15 2 16 3 14 4 13 5 12 6 9 7 10 8 87 9 11 10 86 11 8 12
REMARK SMILES IDX 6 13 7 14 5 16 2 17 1 18 3 19 4 20 18 21 19 22 20 23 21 24
REMARK SMILES IDX 22 25 23 26 24 27 85 28 25 29 84 30 26 31 27 32 28 33 78 34
REMARK SMILES IDX 29 35 83 36 77 37 79 38 30 39 82 40 76 41 75 42 31 44 63 45
REMARK SMILES IDX 43 46 62 47 44 48 47 49 61 50 80 51 45 52 46 53 60 55 81 56
REMARK SMILES IDX 48 57 32 58 33 59 41 60 34 61 35 62 39 63 42 64 36 65 37 66
REMARK SMILES IDX 40 67 38 68 64 69 65 70 73 71 66 72 67 73 71 74 74 75 68 76
REMARK SMILES IDX 69 77 72 78 70 79 49 80 50 81 58 82 51 83 52 84 56 85 59 86
REMARK SMILES IDX 53 87 54 88 57 89 55 90
REMARK H PARENT 8 15 79 43 47 54
REMARK Flexibility Score: inf
ROOT
ATOM      1  O   UNL A   1      41.038  21.223  26.278  1.00  0.00    -0.461 OA
ENDROOT
BRANCH   1   2
ATOM      2  C   UNL A   1      40.032  20.388  25.921  1.00  0.00     0.316 C 
ATOM      3  O   UNL A   1      40.196  19.195  25.665  1.00  0.00    -0.251 OA
BRANCH   2   4
ATOM      4  C   UNL A   1      38.647  20.993  25.853  1.00  0.00     0.197 C 
BRANCH   4   5
ATOM      5  S   UNL A   1      38.499  22.801  25.899  1.00  0.00    -0.114 SA
BRANCH   5   6
ATOM      6  C   UNL A   1      36.891  23.172  25.212  1.00  0.00     0.008 A 
ATOM      7  C   UNL A   1      34.222  23.490  24.349  1.00  0.00     0.044 A 
ATOM      8  C   UNL A   1      34.540  23.611  25.699  1.00  0.00     0.027 A 
ATOM      9  C   UNL A   1      35.249  23.351  23.423  1.00  0.00     0.027 A 
ATOM     10  C   UNL A   1      35.860  23.416  26.127  1.00  0.00     0.017 A 
ATOM     11  C   UNL A   1      36.580  23.233  23.855  1.00  0.00     0.017 A 
BRANCH   7  12
ATOM     12  N   UNL A   1      32.882  23.577  23.963  1.00  0.00    -0.291 N 
ATOM     13  C   UNL A   1      32.040  24.668  24.017  1.00  0.00     0.412 C 
ATOM     14  O   UNL A   1      30.859  24.538  23.756  1.00  0.00    -0.224 OA
ATOM     15  H   UNL A   1      32.486  22.750  23.604  1.00  0.00     0.173 HD
BRANCH  13  16
ATOM     16  O   UNL A   1      32.675  25.862  24.209  1.00  0.00    -0.444 OA
BRANCH  16  17
ATOM     17  C   UNL A   1      32.351  26.666  25.382  1.00  0.00     0.106 C 
ATOM     18  C   UNL A   1      33.665  27.283  25.891  1.00  0.00     0.056 C 
ATOM     19  C   UNL A   1      31.760  25.796  26.495  1.00  0.00     0.056 C 
ATOM     20  C   UNL A   1      31.434  27.846  25.023  1.00  0.00     0.056 C 
ENDBRANCH  16  17
ENDBRANCH  13  16
ENDBRANCH   7  12
ENDBRANCH   5   6
ENDBRANCH   4   5
ENDBRANCH   2   4
ENDBRANCH   1   2
BRANCH   1  21
ATOM     21  C   UNL A   1      42.368  20.671  26.180  1.00  0.00     0.274 C 
BRANCH  21  22
ATOM     22  C   UNL A   1      43.377  21.664  25.604  1.00  0.00     0.275 C 
BRANCH  22  23
ATOM     23  O   UNL A   1      42.715  22.811  25.035  1.00  0.00    -0.458 OA
BRANCH  23  24
ATOM     24  C   UNL A   1      43.438  23.947  25.124  1.00  0.00     0.338 C 
ATOM     25  O   UNL A   1      44.410  24.236  24.448  1.00  0.00    -0.246 OA
BRANCH  24  26
ATOM     26  C   UNL A   1      42.906  24.879  26.132  1.00  0.00     0.060 A 
ATOM     27  C   UNL A   1      43.381  26.187  26.181  1.00  0.00     0.016 A 
ATOM     28  C   UNL A   1      42.113  24.384  27.171  1.00  0.00     0.016 A 
ATOM     29  C   UNL A   1      43.132  26.970  27.308  1.00  0.00     0.010 A 
ATOM     30  C   UNL A   1      41.785  25.200  28.254  1.00  0.00     0.010 A 
ATOM     31  C   UNL A   1      42.309  26.495  28.345  1.00  0.00    -0.014 A 
BRANCH  31  32
ATOM     32  C   UNL A   1      41.927  27.388  29.469  1.00  0.00     0.031 A 
ATOM     33  C   UNL A   1      42.678  27.389  30.773  1.00  0.00     0.074 A 
ATOM     34  C   UNL A   1      40.853  28.185  29.311  1.00  0.00     0.049 A 
ATOM     35  N   UNL A   1      42.407  28.040  31.878  1.00  0.00    -0.248 NA
ATOM     36  C   UNL A   1      43.879  26.545  30.855  1.00  0.00     0.031 C 
ATOM     37  C   UNL A   1      40.033  28.261  28.101  1.00  0.00     0.029 A 
ATOM     38  N   UNL A   1      40.264  29.080  30.168  1.00  0.00    -0.354 N 
ATOM     39  C   UNL A   1      43.384  27.667  32.793  1.00  0.00     0.074 A 
ATOM     40  C   UNL A   1      44.249  26.721  32.118  1.00  0.00     0.031 C 
ATOM     41  C   UNL A   1      39.070  29.174  28.278  1.00  0.00     0.029 A 
ATOM     42  C   UNL A   1      39.160  29.697  29.636  1.00  0.00     0.049 A 
ATOM     43  H   UNL A   1      40.601  29.262  31.075  1.00  0.00     0.167 HD
ATOM     44  C   UNL A   1      43.540  28.080  34.075  1.00  0.00     0.037 A 
ATOM     45  C   UNL A   1      38.292  30.564  30.184  1.00  0.00     0.037 A 
ATOM     46  C   UNL A   1      42.690  29.040  34.735  1.00  0.00     0.049 A 
ATOM     47  C   UNL A   1      38.481  30.990  31.608  1.00  0.00     0.074 A 
ATOM     48  C   UNL A   1      42.801  29.556  36.016  1.00  0.00     0.029 A 
ATOM     49  N   UNL A   1      41.570  29.628  34.167  1.00  0.00    -0.354 N 
ATOM     50  N   UNL A   1      39.415  30.638  32.457  1.00  0.00    -0.248 NA
ATOM     51  C   UNL A   1      37.491  31.925  32.154  1.00  0.00     0.031 C 
ATOM     52  C   UNL A   1      41.726  30.425  36.236  1.00  0.00     0.029 A 
ATOM     53  C   UNL A   1      40.969  30.484  35.079  1.00  0.00     0.049 A 
ATOM     54  H   UNL A   1      41.248  29.463  33.251  1.00  0.00     0.167 HD
ATOM     55  C   UNL A   1      39.129  31.309  33.635  1.00  0.00     0.074 A 
ATOM     56  C   UNL A   1      37.948  32.111  33.384  1.00  0.00     0.031 C 
ATOM     57  C   UNL A   1      39.783  31.261  34.820  1.00  0.00     0.037 A 
BRANCH  44  58
ATOM     58  C   UNL A   1      44.670  27.491  34.869  1.00  0.00     0.064 A 
ATOM     59  C   UNL A   1      45.954  28.054  34.855  1.00  0.00     0.173 A 
ATOM     60  C   UNL A   1      44.445  26.395  35.717  1.00  0.00     0.173 A 
ATOM     61  F   UNL A   1      46.224  29.100  34.060  1.00  0.00    -0.203 F 
ATOM     62  C   UNL A   1      46.974  27.534  35.650  1.00  0.00     0.198 A 
ATOM     63  C   UNL A   1      45.459  25.892  36.528  1.00  0.00     0.198 A 
ATOM     64  F   UNL A   1      43.231  25.826  35.777  1.00  0.00    -0.203 F 
ATOM     65  F   UNL A   1      48.200  28.074  35.603  1.00  0.00    -0.200 F 
ATOM     66  C   UNL A   1      46.724  26.460  36.490  1.00  0.00     0.200 A 
ATOM     67  F   UNL A   1      45.212  24.864  37.350  1.00  0.00    -0.200 F 
ATOM     68  F   UNL A   1      47.702  25.972  37.266  1.00  0.00    -0.200 F 
ENDBRANCH  44  58
BRANCH  45  69
ATOM     69  C   UNL A   1      37.158  31.068  29.372  1.00  0.00     0.064 A 
ATOM     70  C   UNL A   1      36.073  30.238  29.063  1.00  0.00     0.173 A 
ATOM     71  C   UNL A   1      37.118  32.397  28.926  1.00  0.00     0.173 A 
ATOM     72  F   UNL A   1      36.079  28.955  29.454  1.00  0.00    -0.203 F 
ATOM     73  C   UNL A   1      34.989  30.719  28.333  1.00  0.00     0.198 A 
ATOM     74  C   UNL A   1      36.022  32.884  28.220  1.00  0.00     0.198 A 
ATOM     75  F   UNL A   1      38.131  33.231  29.205  1.00  0.00    -0.203 F 
ATOM     76  F   UNL A   1      33.975  29.900  28.025  1.00  0.00    -0.200 F 
ATOM     77  C   UNL A   1      34.960  32.044  27.920  1.00  0.00     0.200 A 
ATOM     78  F   UNL A   1      35.989  34.168  27.840  1.00  0.00    -0.200 F 
ATOM     79  F   UNL A   1      33.909  32.510  27.232  1.00  0.00    -0.200 F 
ENDBRANCH  45  69
BRANCH  57  80
ATOM     80  C   UNL A   1      39.231  32.105  35.928  1.00  0.00     0.064 A 
ATOM     81  C   UNL A   1      39.648  33.433  36.111  1.00  0.00     0.173 A 
ATOM     82  C   UNL A   1      38.281  31.584  36.818  1.00  0.00     0.173 A 
ATOM     83  F   UNL A   1      40.570  33.969  35.297  1.00  0.00    -0.203 F 
ATOM     84  C   UNL A   1      39.155  34.198  37.164  1.00  0.00     0.198 A 
ATOM     85  C   UNL A   1      37.771  32.360  37.856  1.00  0.00     0.198 A 
ATOM     86  F   UNL A   1      37.851  30.321  36.685  1.00  0.00    -0.203 F 
ATOM     87  F   UNL A   1      39.606  35.446  37.353  1.00  0.00    -0.200 F 
ATOM     88  C   UNL A   1      38.215  33.663  38.033  1.00  0.00     0.200 A 
ATOM     89  F   UNL A   1      36.860  31.845  38.691  1.00  0.00    -0.200 F 
ATOM     90  F   UNL A   1      37.746  34.398  39.050  1.00  0.00    -0.200 F 
ENDBRANCH  57  80
ENDBRANCH  31  32
ENDBRANCH  24  26
ENDBRANCH  23  24
ENDBRANCH  22  23
ENDBRANCH  21  22
ENDBRANCH   1  21
TORSDOF 16
ENDMDL
