MODEL 1
REMARK VINA RESULT:     -12.7      0.000      0.000
REMARK SMILES C[C@H]1[C@H](C(=O)OCCOC(=O)c2ccc(-c3c4nc(c(-c5c(F)c(F)c(F)c(F)c5F)c5ccc([nH]5)c(-c5c(F)c(F)c(F)c(F)c5F)c5nc(c(-c6c(F)c(F)c(F)c(F)c6F)c6ccc3[nH]6)C=C5)C=C4)cc2)CCN1C(=O)Nc1ccc(F)cc1
REMARK SMILES IDX 7 1 6 2 4 3 5 4 3 5 1 6 2 7 77 8 75 9 76 10 78 11 79 12
REMARK SMILES IDX 80 13 81 15 82 16 87 17 83 18 86 19 84 20 85 21 8 22 9 23
REMARK SMILES IDX 10 24 11 25 12 26 13 27 74 28 14 29 73 30 15 31 16 32 17 33
REMARK SMILES IDX 67 34 18 35 72 36 66 37 68 38 19 39 71 40 65 41 64 42 20 44
REMARK SMILES IDX 52 45 32 46 51 47 33 48 36 49 50 50 69 51 34 52 35 53 49 55
REMARK SMILES IDX 70 56 37 57 21 58 22 59 30 60 23 61 24 62 28 63 31 64 25 65
REMARK SMILES IDX 26 66 29 67 27 68 53 69 54 70 62 71 55 72 56 73 60 74 63 75
REMARK SMILES IDX 57 76 58 77 61 78 59 79 38 80 39 81 47 82 40 83 41 84 45 85
REMARK SMILES IDX 48 86 42 87 43 88 46 89 44 90
REMARK H PARENT 80 14 68 43 36 54
REMARK Flexibility Score: inf
ROOT
ATOM      1  C   UNL A   1      31.384  29.337  24.596  1.00  0.00     0.274 C 
ENDROOT
BRANCH   1   2
ATOM      2  O   UNL A   1      30.653  28.095  24.610  1.00  0.00    -0.462 OA
BRANCH   2   3
ATOM      3  C   UNL A   1      30.763  27.314  23.504  1.00  0.00     0.311 C 
ATOM      4  O   UNL A   1      30.303  27.597  22.403  1.00  0.00    -0.252 OA
BRANCH   3   5
ATOM      5  C   UNL A   1      31.465  25.999  23.766  1.00  0.00     0.123 C 
ATOM      6  C   UNL A   1      33.068  25.641  25.695  1.00  0.00     0.032 C 
ATOM      7  C   UNL A   1      31.599  25.616  25.257  1.00  0.00     0.098 C 
ATOM      8  N   UNL A   1      31.027  24.268  25.358  1.00  0.00    -0.321 N 
ATOM      9  C   UNL A   1      30.693  24.859  23.109  1.00  0.00     0.039 C 
ATOM     10  C   UNL A   1      30.910  23.685  24.035  1.00  0.00     0.122 C 
BRANCH   8  11
ATOM     11  C   UNL A   1      30.838  23.453  26.441  1.00  0.00     0.322 C 
ATOM     12  O   UNL A   1      29.931  23.677  27.251  1.00  0.00    -0.248 OA
ATOM     13  N   UNL A   1      31.506  22.284  26.595  1.00  0.00    -0.308 N 
ATOM     14  H   UNL A   1      30.974  21.601  27.063  1.00  0.00     0.171 HD
BRANCH  13  15
ATOM     15  C   UNL A   1      32.778  21.827  26.239  1.00  0.00     0.043 A 
ATOM     16  C   UNL A   1      32.842  20.792  25.296  1.00  0.00     0.029 A 
ATOM     17  C   UNL A   1      33.957  22.307  26.812  1.00  0.00     0.029 A 
ATOM     18  C   UNL A   1      34.075  20.321  24.845  1.00  0.00     0.041 A 
ATOM     19  C   UNL A   1      35.193  21.828  26.368  1.00  0.00     0.041 A 
ATOM     20  C   UNL A   1      35.242  20.857  25.374  1.00  0.00     0.123 A 
ATOM     21  F   UNL A   1      36.428  20.425  24.926  1.00  0.00    -0.207 F 
ENDBRANCH  13  15
ENDBRANCH   8  11
ENDBRANCH   3   5
ENDBRANCH   2   3
ENDBRANCH   1   2
BRANCH   1  22
ATOM     22  C   UNL A   1      31.778  29.788  26.007  1.00  0.00     0.275 C 
BRANCH  22  23
ATOM     23  O   UNL A   1      33.154  30.207  26.073  1.00  0.00    -0.458 OA
BRANCH  23  24
ATOM     24  C   UNL A   1      33.413  31.160  26.995  1.00  0.00     0.338 C 
ATOM     25  O   UNL A   1      32.674  32.051  27.372  1.00  0.00    -0.246 OA
BRANCH  24  26
ATOM     26  C   UNL A   1      34.713  30.911  27.623  1.00  0.00     0.060 A 
ATOM     27  C   UNL A   1      35.023  29.600  27.998  1.00  0.00     0.016 A 
ATOM     28  C   UNL A   1      35.566  31.966  27.940  1.00  0.00     0.016 A 
ATOM     29  C   UNL A   1      36.182  29.335  28.714  1.00  0.00     0.010 A 
ATOM     30  C   UNL A   1      36.739  31.698  28.645  1.00  0.00     0.010 A 
ATOM     31  C   UNL A   1      37.045  30.384  29.044  1.00  0.00    -0.014 A 
BRANCH  31  32
ATOM     32  C   UNL A   1      38.268  30.117  29.828  1.00  0.00     0.031 A 
ATOM     33  C   UNL A   1      39.321  29.210  29.273  1.00  0.00     0.074 A 
ATOM     34  C   UNL A   1      38.410  30.680  31.040  1.00  0.00     0.049 A 
ATOM     35  N   UNL A   1      40.367  28.698  29.868  1.00  0.00    -0.248 NA
ATOM     36  C   UNL A   1      39.177  28.826  27.861  1.00  0.00     0.031 C 
ATOM     37  C   UNL A   1      37.476  31.629  31.644  1.00  0.00     0.029 A 
ATOM     38  N   UNL A   1      39.385  30.515  31.989  1.00  0.00    -0.354 N 
ATOM     39  C   UNL A   1      40.989  27.906  28.913  1.00  0.00     0.074 A 
ATOM     40  C   UNL A   1      40.208  28.007  27.698  1.00  0.00     0.031 C 
ATOM     41  C   UNL A   1      37.913  31.950  32.872  1.00  0.00     0.029 A 
ATOM     42  C   UNL A   1      39.121  31.184  33.158  1.00  0.00     0.049 A 
ATOM     43  H   UNL A   1      40.194  29.973  31.847  1.00  0.00     0.167 HD
ATOM     44  C   UNL A   1      42.107  27.157  29.051  1.00  0.00     0.037 A 
ATOM     45  C   UNL A   1      39.758  31.139  34.343  1.00  0.00     0.037 A 
ATOM     46  C   UNL A   1      42.879  27.078  30.263  1.00  0.00     0.049 A 
ATOM     47  C   UNL A   1      40.961  30.250  34.491  1.00  0.00     0.074 A 
ATOM     48  C   UNL A   1      44.026  26.346  30.513  1.00  0.00     0.029 A 
ATOM     49  N   UNL A   1      42.576  27.762  31.433  1.00  0.00    -0.354 N 
ATOM     50  N   UNL A   1      41.527  29.475  33.600  1.00  0.00    -0.248 NA
ATOM     51  C   UNL A   1      41.605  30.220  35.811  1.00  0.00     0.031 C 
ATOM     52  C   UNL A   1      44.401  26.564  31.843  1.00  0.00     0.029 A 
ATOM     53  C   UNL A   1      43.508  27.460  32.411  1.00  0.00     0.049 A 
ATOM     54  H   UNL A   1      41.812  28.372  31.549  1.00  0.00     0.167 HD
ATOM     55  C   UNL A   1      42.604  28.880  34.240  1.00  0.00     0.074 A 
ATOM     56  C   UNL A   1      42.615  29.387  35.597  1.00  0.00     0.031 C 
ATOM     57  C   UNL A   1      43.503  27.992  33.748  1.00  0.00     0.037 A 
BRANCH  44  58
ATOM     58  C   UNL A   1      42.539  26.333  27.877  1.00  0.00     0.064 A 
ATOM     59  C   UNL A   1      41.988  25.069  27.621  1.00  0.00     0.173 A 
ATOM     60  C   UNL A   1      43.495  26.831  26.978  1.00  0.00     0.173 A 
ATOM     61  F   UNL A   1      41.085  24.544  28.460  1.00  0.00    -0.203 F 
ATOM     62  C   UNL A   1      42.392  24.327  26.513  1.00  0.00     0.198 A 
ATOM     63  C   UNL A   1      43.879  26.095  25.861  1.00  0.00     0.198 A 
ATOM     64  F   UNL A   1      44.049  28.035  27.181  1.00  0.00    -0.203 F 
ATOM     65  F   UNL A   1      41.879  23.106  26.305  1.00  0.00    -0.200 F 
ATOM     66  C   UNL A   1      43.331  24.842  25.632  1.00  0.00     0.200 A 
ATOM     67  F   UNL A   1      44.781  26.598  25.008  1.00  0.00    -0.200 F 
ATOM     68  F   UNL A   1      43.713  24.128  24.565  1.00  0.00    -0.200 F 
ENDBRANCH  44  58
BRANCH  45  69
ATOM     69  C   UNL A   1      39.238  31.931  35.485  1.00  0.00     0.064 A 
ATOM     70  C   UNL A   1      38.389  31.353  36.436  1.00  0.00     0.173 A 
ATOM     71  C   UNL A   1      39.601  33.275  35.660  1.00  0.00     0.173 A 
ATOM     72  F   UNL A   1      37.998  30.078  36.297  1.00  0.00    -0.203 F 
ATOM     73  C   UNL A   1      37.916  32.091  37.519  1.00  0.00     0.198 A 
ATOM     74  C   UNL A   1      39.146  34.005  36.757  1.00  0.00     0.198 A 
ATOM     75  F   UNL A   1      40.412  33.873  34.776  1.00  0.00    -0.203 F 
ATOM     76  F   UNL A   1      37.080  31.523  38.399  1.00  0.00    -0.200 F 
ATOM     77  C   UNL A   1      38.301  33.413  37.683  1.00  0.00     0.200 A 
ATOM     78  F   UNL A   1      39.531  35.279  36.916  1.00  0.00    -0.200 F 
ATOM     79  F   UNL A   1      37.854  34.120  38.730  1.00  0.00    -0.200 F 
ENDBRANCH  45  69
BRANCH  57  80
ATOM     80  C   UNL A   1      44.596  27.546  34.669  1.00  0.00     0.064 A 
ATOM     81  C   UNL A   1      44.468  26.390  35.450  1.00  0.00     0.173 A 
ATOM     82  C   UNL A   1      45.808  28.250  34.719  1.00  0.00     0.173 A 
ATOM     83  F   UNL A   1      43.321  25.695  35.444  1.00  0.00    -0.203 F 
ATOM     84  C   UNL A   1      45.515  25.957  36.258  1.00  0.00     0.198 A 
ATOM     85  C   UNL A   1      46.860  27.805  35.513  1.00  0.00     0.198 A 
ATOM     86  F   UNL A   1      45.976  29.361  33.985  1.00  0.00    -0.203 F 
ATOM     87  F   UNL A   1      45.366  24.863  37.018  1.00  0.00    -0.200 F 
ATOM     88  C   UNL A   1      46.712  26.660  36.283  1.00  0.00     0.200 A 
ATOM     89  F   UNL A   1      48.017  28.479  35.531  1.00  0.00    -0.200 F 
ATOM     90  F   UNL A   1      47.723  26.236  37.054  1.00  0.00    -0.200 F 
ENDBRANCH  57  80
ENDBRANCH  31  32
ENDBRANCH  24  26
ENDBRANCH  23  24
ENDBRANCH  22  23
ENDBRANCH   1  22
TORSDOF 13
ENDMDL
MODEL 2
REMARK VINA RESULT:     -12.6      4.554      9.628
REMARK SMILES C[C@H]1[C@H](C(=O)OCCOC(=O)c2ccc(-c3c4nc(c(-c5c(F)c(F)c(F)c(F)c5F)c5ccc([nH]5)c(-c5c(F)c(F)c(F)c(F)c5F)c5nc(c(-c6c(F)c(F)c(F)c(F)c6F)c6ccc3[nH]6)C=C5)C=C4)cc2)CCN1C(=O)Nc1ccc(F)cc1
REMARK SMILES IDX 7 1 6 2 4 3 5 4 3 5 1 6 2 7 77 8 75 9 76 10 78 11 79 12
REMARK SMILES IDX 80 13 81 15 82 16 87 17 83 18 86 19 84 20 85 21 8 22 9 23
REMARK SMILES IDX 10 24 11 25 12 26 13 27 74 28 14 29 73 30 15 31 16 32 17 33
REMARK SMILES IDX 67 34 18 35 72 36 66 37 68 38 19 39 71 40 65 41 64 42 20 44
REMARK SMILES IDX 52 45 32 46 51 47 33 48 36 49 50 50 69 51 34 52 35 53 49 55
REMARK SMILES IDX 70 56 37 57 21 58 22 59 30 60 23 61 24 62 28 63 31 64 25 65
REMARK SMILES IDX 26 66 29 67 27 68 53 69 54 70 62 71 55 72 56 73 60 74 63 75
REMARK SMILES IDX 57 76 58 77 61 78 59 79 38 80 39 81 47 82 40 83 41 84 45 85
REMARK SMILES IDX 48 86 42 87 43 88 46 89 44 90
REMARK H PARENT 80 14 68 43 36 54
REMARK Flexibility Score: inf
ROOT
ATOM      1  C   UNL A   1      36.661  23.075  23.749  1.00  0.00     0.274 C 
ENDROOT
BRANCH   1   2
ATOM      2  O   UNL A   1      35.636  22.888  22.752  1.00  0.00    -0.462 OA
BRANCH   2   3
ATOM      3  C   UNL A   1      34.443  23.492  22.988  1.00  0.00     0.311 C 
ATOM      4  O   UNL A   1      34.085  24.550  22.481  1.00  0.00    -0.252 OA
BRANCH   3   5
ATOM      5  C   UNL A   1      33.593  22.764  24.007  1.00  0.00     0.123 C 
ATOM      6  C   UNL A   1      34.073  22.798  26.494  1.00  0.00     0.032 C 
ATOM      7  C   UNL A   1      33.375  23.521  25.337  1.00  0.00     0.098 C 
ATOM      8  N   UNL A   1      31.919  23.558  25.521  1.00  0.00    -0.321 N 
ATOM      9  C   UNL A   1      32.201  22.511  23.436  1.00  0.00     0.039 C 
ATOM     10  C   UNL A   1      31.289  22.594  24.638  1.00  0.00     0.122 C 
BRANCH   8  11
ATOM     11  C   UNL A   1      31.153  24.136  26.496  1.00  0.00     0.322 C 
ATOM     12  O   UNL A   1      30.818  23.497  27.500  1.00  0.00    -0.248 OA
ATOM     13  N   UNL A   1      30.865  25.460  26.503  1.00  0.00    -0.308 N 
ATOM     14  H   UNL A   1      30.780  25.826  27.413  1.00  0.00     0.171 HD
BRANCH  13  15
ATOM     15  C   UNL A   1      30.665  26.425  25.512  1.00  0.00     0.043 A 
ATOM     16  C   UNL A   1      31.406  27.610  25.617  1.00  0.00     0.029 A 
ATOM     17  C   UNL A   1      29.736  26.287  24.479  1.00  0.00     0.029 A 
ATOM     18  C   UNL A   1      31.306  28.596  24.636  1.00  0.00     0.041 A 
ATOM     19  C   UNL A   1      29.627  27.280  23.501  1.00  0.00     0.041 A 
ATOM     20  C   UNL A   1      30.428  28.414  23.576  1.00  0.00     0.123 A 
ATOM     21  F   UNL A   1      30.347  29.348  22.619  1.00  0.00    -0.207 F 
ENDBRANCH  13  15
ENDBRANCH   8  11
ENDBRANCH   3   5
ENDBRANCH   2   3
ENDBRANCH   1   2
BRANCH   1  22
ATOM     22  C   UNL A   1      37.115  21.747  24.364  1.00  0.00     0.275 C 
BRANCH  22  23
ATOM     23  O   UNL A   1      37.450  21.886  25.756  1.00  0.00    -0.458 OA
BRANCH  23  24
ATOM     24  C   UNL A   1      38.737  21.610  26.060  1.00  0.00     0.338 C 
ATOM     25  O   UNL A   1      39.353  20.586  25.828  1.00  0.00    -0.246 OA
BRANCH  24  26
ATOM     26  C   UNL A   1      39.388  22.799  26.618  1.00  0.00     0.060 A 
ATOM     27  C   UNL A   1      39.019  24.049  26.114  1.00  0.00     0.016 A 
ATOM     28  C   UNL A   1      40.424  22.677  27.542  1.00  0.00     0.016 A 
ATOM     29  C   UNL A   1      39.700  25.191  26.514  1.00  0.00     0.010 A 
ATOM     30  C   UNL A   1      41.097  23.826  27.957  1.00  0.00     0.010 A 
ATOM     31  C   UNL A   1      40.745  25.084  27.436  1.00  0.00    -0.014 A 
BRANCH  31  32
ATOM     32  C   UNL A   1      41.492  26.289  27.849  1.00  0.00     0.031 A 
ATOM     33  C   UNL A   1      40.802  27.353  28.643  1.00  0.00     0.074 A 
ATOM     34  C   UNL A   1      42.780  26.422  27.489  1.00  0.00     0.049 A 
ATOM     35  N   UNL A   1      41.212  28.559  28.940  1.00  0.00    -0.248 NA
ATOM     36  C   UNL A   1      39.472  27.018  29.173  1.00  0.00     0.031 C 
ATOM     37  C   UNL A   1      43.564  25.415  26.774  1.00  0.00     0.029 A 
ATOM     38  N   UNL A   1      43.649  27.468  27.658  1.00  0.00    -0.354 N 
ATOM     39  C   UNL A   1      40.179  29.138  29.663  1.00  0.00     0.074 A 
ATOM     40  C   UNL A   1      39.124  28.152  29.765  1.00  0.00     0.031 C 
ATOM     41  C   UNL A   1      44.795  25.901  26.547  1.00  0.00     0.029 A 
ATOM     42  C   UNL A   1      44.862  27.269  27.049  1.00  0.00     0.049 A 
ATOM     43  H   UNL A   1      43.426  28.281  28.166  1.00  0.00     0.167 HD
ATOM     44  C   UNL A   1      40.122  30.386  30.183  1.00  0.00     0.037 A 
ATOM     45  C   UNL A   1      45.891  28.118  26.872  1.00  0.00     0.037 A 
ATOM     46  C   UNL A   1      41.186  31.349  30.082  1.00  0.00     0.049 A 
ATOM     47  C   UNL A   1      45.779  29.520  27.403  1.00  0.00     0.074 A 
ATOM     48  C   UNL A   1      41.231  32.643  30.569  1.00  0.00     0.029 A 
ATOM     49  N   UNL A   1      42.399  31.116  29.448  1.00  0.00    -0.354 N 
ATOM     50  N   UNL A   1      44.788  30.078  28.055  1.00  0.00    -0.248 NA
ATOM     51  C   UNL A   1      46.920  30.414  27.163  1.00  0.00     0.031 C 
ATOM     52  C   UNL A   1      42.460  33.204  30.204  1.00  0.00     0.029 A 
ATOM     53  C   UNL A   1      43.195  32.247  29.520  1.00  0.00     0.049 A 
ATOM     54  H   UNL A   1      42.656  30.272  29.012  1.00  0.00     0.167 HD
ATOM     55  C   UNL A   1      45.191  31.378  28.322  1.00  0.00     0.074 A 
ATOM     56  C   UNL A   1      46.519  31.527  27.764  1.00  0.00     0.031 C 
ATOM     57  C   UNL A   1      44.520  32.361  28.970  1.00  0.00     0.037 A 
BRANCH  44  58
ATOM     58  C   UNL A   1      38.855  30.794  30.870  1.00  0.00     0.064 A 
ATOM     59  C   UNL A   1      38.711  30.705  32.262  1.00  0.00     0.173 A 
ATOM     60  C   UNL A   1      37.784  31.310  30.127  1.00  0.00     0.173 A 
ATOM     61  F   UNL A   1      39.701  30.202  33.013  1.00  0.00    -0.203 F 
ATOM     62  C   UNL A   1      37.530  31.106  32.883  1.00  0.00     0.198 A 
ATOM     63  C   UNL A   1      36.614  31.730  30.754  1.00  0.00     0.198 A 
ATOM     64  F   UNL A   1      37.875  31.415  28.793  1.00  0.00    -0.203 F 
ATOM     65  F   UNL A   1      37.398  30.981  34.212  1.00  0.00    -0.200 F 
ATOM     66  C   UNL A   1      36.486  31.623  32.131  1.00  0.00     0.200 A 
ATOM     67  F   UNL A   1      35.609  32.235  30.025  1.00  0.00    -0.200 F 
ATOM     68  F   UNL A   1      35.353  32.012  32.731  1.00  0.00    -0.200 F 
ENDBRANCH  44  58
BRANCH  45  69
ATOM     69  C   UNL A   1      47.092  27.670  26.125  1.00  0.00     0.064 A 
ATOM     70  C   UNL A   1      48.207  27.155  26.797  1.00  0.00     0.173 A 
ATOM     71  C   UNL A   1      47.137  27.724  24.724  1.00  0.00     0.173 A 
ATOM     72  F   UNL A   1      48.218  27.105  28.136  1.00  0.00    -0.203 F 
ATOM     73  C   UNL A   1      49.328  26.716  26.095  1.00  0.00     0.198 A 
ATOM     74  C   UNL A   1      48.249  27.262  24.022  1.00  0.00     0.198 A 
ATOM     75  F   UNL A   1      46.093  28.209  24.036  1.00  0.00    -0.203 F 
ATOM     76  F   UNL A   1      50.395  26.255  26.762  1.00  0.00    -0.200 F 
ATOM     77  C   UNL A   1      49.345  26.762  24.708  1.00  0.00     0.200 A 
ATOM     78  F   UNL A   1      48.255  27.299  22.683  1.00  0.00    -0.200 F 
ATOM     79  F   UNL A   1      50.419  26.330  24.033  1.00  0.00    -0.200 F 
ENDBRANCH  45  69
BRANCH  57  80
ATOM     80  C   UNL A   1      45.227  33.669  29.148  1.00  0.00     0.064 A 
ATOM     81  C   UNL A   1      45.098  34.703  28.211  1.00  0.00     0.173 A 
ATOM     82  C   UNL A   1      45.989  33.908  30.300  1.00  0.00     0.173 A 
ATOM     83  F   UNL A   1      44.391  34.511  27.088  1.00  0.00    -0.203 F 
ATOM     84  C   UNL A   1      45.716  35.932  28.419  1.00  0.00     0.198 A 
ATOM     85  C   UNL A   1      46.590  35.144  30.514  1.00  0.00     0.198 A 
ATOM     86  F   UNL A   1      46.137  32.947  31.225  1.00  0.00    -0.203 F 
ATOM     87  F   UNL A   1      45.603  36.901  27.500  1.00  0.00    -0.200 F 
ATOM     88  C   UNL A   1      46.455  36.154  29.573  1.00  0.00     0.200 A 
ATOM     89  F   UNL A   1      47.296  35.360  31.632  1.00  0.00    -0.200 F 
ATOM     90  F   UNL A   1      47.040  37.343  29.776  1.00  0.00    -0.200 F 
ENDBRANCH  57  80
ENDBRANCH  31  32
ENDBRANCH  24  26
ENDBRANCH  23  24
ENDBRANCH  22  23
ENDBRANCH   1  22
TORSDOF 13
ENDMDL
MODEL 3
REMARK VINA RESULT:     -12.6      4.563      9.608
REMARK SMILES C[C@H]1[C@H](C(=O)OCCOC(=O)c2ccc(-c3c4nc(c(-c5c(F)c(F)c(F)c(F)c5F)c5ccc([nH]5)c(-c5c(F)c(F)c(F)c(F)c5F)c5nc(c(-c6c(F)c(F)c(F)c(F)c6F)c6ccc3[nH]6)C=C5)C=C4)cc2)CCN1C(=O)Nc1ccc(F)cc1
REMARK SMILES IDX 7 1 6 2 4 3 5 4 3 5 1 6 2 7 77 8 75 9 76 10 78 11 79 12
REMARK SMILES IDX 80 13 81 15 82 16 87 17 83 18 86 19 84 20 85 21 8 22 9 23
REMARK SMILES IDX 10 24 11 25 12 26 13 27 74 28 14 29 73 30 15 31 16 32 17 33
REMARK SMILES IDX 67 34 18 35 72 36 66 37 68 38 19 39 71 40 65 41 64 42 20 44
REMARK SMILES IDX 52 45 32 46 51 47 33 48 36 49 50 50 69 51 34 52 35 53 49 55
REMARK SMILES IDX 70 56 37 57 21 58 22 59 30 60 23 61 24 62 28 63 31 64 25 65
REMARK SMILES IDX 26 66 29 67 27 68 53 69 54 70 62 71 55 72 56 73 60 74 63 75
REMARK SMILES IDX 57 76 58 77 61 78 59 79 38 80 39 81 47 82 40 83 41 84 45 85
REMARK SMILES IDX 48 86 42 87 43 88 46 89 44 90
REMARK H PARENT 80 14 68 43 36 54
REMARK Flexibility Score: inf
ROOT
ATOM      1  C   UNL A   1      36.584  23.145  23.758  1.00  0.00     0.274 C 
ENDROOT
BRANCH   1   2
ATOM      2  O   UNL A   1      35.570  22.951  22.751  1.00  0.00    -0.462 OA
BRANCH   2   3
ATOM      3  C   UNL A   1      34.330  23.424  23.041  1.00  0.00     0.311 C 
ATOM      4  O   UNL A   1      33.771  24.330  22.432  1.00  0.00    -0.252 OA
BRANCH   3   5
ATOM      5  C   UNL A   1      33.704  22.766  24.252  1.00  0.00     0.123 C 
ATOM      6  C   UNL A   1      34.115  23.549  26.626  1.00  0.00     0.032 C 
ATOM      7  C   UNL A   1      33.260  23.739  25.368  1.00  0.00     0.098 C 
ATOM      8  N   UNL A   1      31.850  23.415  25.618  1.00  0.00    -0.321 N 
ATOM      9  C   UNL A   1      32.449  22.003  23.837  1.00  0.00     0.039 C 
ATOM     10  C   UNL A   1      31.532  22.126  25.032  1.00  0.00     0.122 C 
BRANCH   8  11
ATOM     11  C   UNL A   1      30.936  23.982  26.464  1.00  0.00     0.322 C 
ATOM     12  O   UNL A   1      30.386  23.309  27.343  1.00  0.00    -0.248 OA
ATOM     13  N   UNL A   1      30.711  25.317  26.500  1.00  0.00    -0.308 N 
ATOM     14  H   UNL A   1      30.468  25.638  27.398  1.00  0.00     0.171 HD
BRANCH  13  15
ATOM     15  C   UNL A   1      30.749  26.344  25.552  1.00  0.00     0.043 A 
ATOM     16  C   UNL A   1      29.839  26.263  24.489  1.00  0.00     0.029 A 
ATOM     17  C   UNL A   1      31.673  27.390  25.586  1.00  0.00     0.029 A 
ATOM     18  C   UNL A   1      29.775  27.278  23.535  1.00  0.00     0.041 A 
ATOM     19  C   UNL A   1      31.615  28.403  24.624  1.00  0.00     0.041 A 
ATOM     20  C   UNL A   1      30.653  28.350  23.621  1.00  0.00     0.123 A 
ATOM     21  F   UNL A   1      30.578  29.339  22.721  1.00  0.00    -0.207 F 
ENDBRANCH  13  15
ENDBRANCH   8  11
ENDBRANCH   3   5
ENDBRANCH   2   3
ENDBRANCH   1   2
BRANCH   1  22
ATOM     22  C   UNL A   1      37.066  21.817  24.352  1.00  0.00     0.275 C 
BRANCH  22  23
ATOM     23  O   UNL A   1      37.396  21.941  25.748  1.00  0.00    -0.458 OA
BRANCH  23  24
ATOM     24  C   UNL A   1      38.680  21.654  26.054  1.00  0.00     0.338 C 
ATOM     25  O   UNL A   1      39.286  20.623  25.828  1.00  0.00    -0.246 OA
BRANCH  24  26
ATOM     26  C   UNL A   1      39.342  22.840  26.607  1.00  0.00     0.060 A 
ATOM     27  C   UNL A   1      38.964  24.093  26.116  1.00  0.00     0.016 A 
ATOM     28  C   UNL A   1      40.394  22.712  27.511  1.00  0.00     0.016 A 
ATOM     29  C   UNL A   1      39.653  25.232  26.509  1.00  0.00     0.010 A 
ATOM     30  C   UNL A   1      41.075  23.859  27.920  1.00  0.00     0.010 A 
ATOM     31  C   UNL A   1      40.714  25.120  27.412  1.00  0.00    -0.014 A 
BRANCH  31  32
ATOM     32  C   UNL A   1      41.470  26.322  27.818  1.00  0.00     0.031 A 
ATOM     33  C   UNL A   1      40.785  27.398  28.600  1.00  0.00     0.074 A 
ATOM     34  C   UNL A   1      42.760  26.442  27.462  1.00  0.00     0.049 A 
ATOM     35  N   UNL A   1      41.204  28.603  28.889  1.00  0.00    -0.248 NA
ATOM     36  C   UNL A   1      39.450  27.078  29.128  1.00  0.00     0.031 C 
ATOM     37  C   UNL A   1      43.538  25.423  26.758  1.00  0.00     0.029 A 
ATOM     38  N   UNL A   1      43.636  27.483  27.625  1.00  0.00    -0.354 N 
ATOM     39  C   UNL A   1      40.173  29.196  29.603  1.00  0.00     0.074 A 
ATOM     40  C   UNL A   1      39.110  28.220  29.710  1.00  0.00     0.031 C 
ATOM     41  C   UNL A   1      44.774  25.897  26.531  1.00  0.00     0.029 A 
ATOM     42  C   UNL A   1      44.850  27.269  27.022  1.00  0.00     0.049 A 
ATOM     43  H   UNL A   1      43.418  28.302  28.126  1.00  0.00     0.167 HD
ATOM     44  C   UNL A   1      40.124  30.449  30.113  1.00  0.00     0.037 A 
ATOM     45  C   UNL A   1      45.886  28.108  26.842  1.00  0.00     0.037 A 
ATOM     46  C   UNL A   1      41.196  31.403  30.008  1.00  0.00     0.049 A 
ATOM     47  C   UNL A   1      45.784  29.515  27.361  1.00  0.00     0.074 A 
ATOM     48  C   UNL A   1      41.250  32.701  30.485  1.00  0.00     0.029 A 
ATOM     49  N   UNL A   1      42.409  31.155  29.381  1.00  0.00    -0.354 N 
ATOM     50  N   UNL A   1      44.795  30.086  28.004  1.00  0.00    -0.248 NA
ATOM     51  C   UNL A   1      46.932  30.398  27.118  1.00  0.00     0.031 C 
ATOM     52  C   UNL A   1      42.484  33.248  30.119  1.00  0.00     0.029 A 
ATOM     53  C   UNL A   1      43.214  32.280  29.446  1.00  0.00     0.049 A 
ATOM     54  H   UNL A   1      42.661  30.305  28.953  1.00  0.00     0.167 HD
ATOM     55  C   UNL A   1      45.207  31.386  28.262  1.00  0.00     0.074 A 
ATOM     56  C   UNL A   1      46.539  31.519  27.708  1.00  0.00     0.031 C 
ATOM     57  C   UNL A   1      44.542  32.379  28.900  1.00  0.00     0.037 A 
BRANCH  44  58
ATOM     58  C   UNL A   1      38.858  30.872  30.792  1.00  0.00     0.064 A 
ATOM     59  C   UNL A   1      37.779  31.408  30.073  1.00  0.00     0.173 A 
ATOM     60  C   UNL A   1      38.711  30.709  32.177  1.00  0.00     0.173 A 
ATOM     61  F   UNL A   1      37.879  31.599  28.750  1.00  0.00    -0.203 F 
ATOM     62  C   UNL A   1      36.604  31.779  30.722  1.00  0.00     0.198 A 
ATOM     63  C   UNL A   1      37.527  31.061  32.818  1.00  0.00     0.198 A 
ATOM     64  F   UNL A   1      39.714  30.200  32.907  1.00  0.00    -0.203 F 
ATOM     65  F   UNL A   1      35.597  32.321  30.022  1.00  0.00    -0.200 F 
ATOM     66  C   UNL A   1      36.476  31.600  32.091  1.00  0.00     0.200 A 
ATOM     67  F   UNL A   1      37.403  30.881  34.140  1.00  0.00    -0.200 F 
ATOM     68  F   UNL A   1      35.342  31.953  32.712  1.00  0.00    -0.200 F 
ENDBRANCH  44  58
BRANCH  45  69
ATOM     69  C   UNL A   1      47.086  27.644  26.103  1.00  0.00     0.064 A 
ATOM     70  C   UNL A   1      48.189  27.111  26.782  1.00  0.00     0.173 A 
ATOM     71  C   UNL A   1      47.143  27.701  24.702  1.00  0.00     0.173 A 
ATOM     72  F   UNL A   1      48.188  27.058  28.121  1.00  0.00    -0.203 F 
ATOM     73  C   UNL A   1      49.308  26.658  26.087  1.00  0.00     0.198 A 
ATOM     74  C   UNL A   1      48.253  27.225  24.008  1.00  0.00     0.198 A 
ATOM     75  F   UNL A   1      46.111  28.203  24.008  1.00  0.00    -0.203 F 
ATOM     76  F   UNL A   1      50.363  26.179  26.761  1.00  0.00    -0.200 F 
ATOM     77  C   UNL A   1      49.336  26.707  24.701  1.00  0.00     0.200 A 
ATOM     78  F   UNL A   1      48.270  27.264  22.669  1.00  0.00    -0.200 F 
ATOM     79  F   UNL A   1      50.409  26.261  24.033  1.00  0.00    -0.200 F 
ENDBRANCH  45  69
BRANCH  57  80
ATOM     80  C   UNL A   1      45.259  33.682  29.069  1.00  0.00     0.064 A 
ATOM     81  C   UNL A   1      46.101  33.917  30.164  1.00  0.00     0.173 A 
ATOM     82  C   UNL A   1      45.150  34.680  28.089  1.00  0.00     0.173 A 
ATOM     83  F   UNL A   1      46.222  32.996  31.131  1.00  0.00    -0.203 F 
ATOM     84  C   UNL A   1      46.805  35.112  30.277  1.00  0.00     0.198 A 
ATOM     85  C   UNL A   1      45.869  35.866  28.195  1.00  0.00     0.198 A 
ATOM     86  F   UNL A   1      44.358  34.496  27.022  1.00  0.00    -0.203 F 
ATOM     87  F   UNL A   1      47.586  35.330  31.344  1.00  0.00    -0.200 F 
ATOM     88  C   UNL A   1      46.694  36.082  29.289  1.00  0.00     0.200 A 
ATOM     89  F   UNL A   1      45.768  36.797  27.238  1.00  0.00    -0.200 F 
ATOM     90  F   UNL A   1      47.381  37.228  29.395  1.00  0.00    -0.200 F 
ENDBRANCH  57  80
ENDBRANCH  31  32
ENDBRANCH  24  26
ENDBRANCH  23  24
ENDBRANCH  22  23
ENDBRANCH   1  22
TORSDOF 13
ENDMDL
