MODEL 1
REMARK VINA RESULT:     -11.8      0.000      0.000
REMARK SMILES O=C(OCCOC(=O)[C@@H]1CCCCN1c1ccccc1[N+](=O)[O-])c1ccc(-c2c3nc(c(-c4c(F)c(F)c(F)c(F)c4F)c4ccc([nH]4)c(-c4c(F)c(F)c(F)c(F)c4F)c4nc(c(-c5c(F)c(F)c(F)c(F)c5F)c5ccc2[nH]5)C=C4)C=C3)cc1
REMARK SMILES IDX 4 1 3 2 2 3 1 4 24 5 25 6 86 7 26 8 85 9 27 10 28 11 29 12
REMARK SMILES IDX 79 13 30 14 84 15 78 16 80 17 31 18 83 19 77 20 76 21 32 23
REMARK SMILES IDX 64 24 44 25 63 26 45 27 48 28 62 29 81 30 46 31 47 32 61 34
REMARK SMILES IDX 82 35 49 36 33 37 34 38 42 39 35 40 36 41 40 42 43 43 37 44
REMARK SMILES IDX 38 45 41 46 39 47 65 48 66 49 74 50 67 51 68 52 72 53 75 54
REMARK SMILES IDX 69 55 70 56 73 57 71 58 50 59 51 60 59 61 52 62 53 63 57 64
REMARK SMILES IDX 60 65 54 66 55 67 58 68 56 69 5 70 6 71 7 72 8 73 9 74 10 75
REMARK SMILES IDX 14 76 11 77 13 78 12 79 15 80 16 81 20 82 17 83 19 84 18 85
REMARK SMILES IDX 21 86 22 87 23 88
REMARK H PARENT 80 22 48 33
REMARK Flexibility Score: inf
ROOT
ATOM      1  C   UNL A   1      31.694  32.230  26.995  1.00  0.00     0.275 C 
ENDROOT
BRANCH   1   2
ATOM      2  O   UNL A   1      32.320  33.517  27.093  1.00  0.00    -0.458 OA
BRANCH   2   3
ATOM      3  C   UNL A   1      32.912  34.117  28.152  1.00  0.00     0.338 C 
ATOM      4  O   UNL A   1      32.388  35.119  28.625  1.00  0.00    -0.246 OA
BRANCH   3   5
ATOM      5  C   UNL A   1      34.239  33.696  28.711  1.00  0.00     0.060 A 
ATOM      6  C   UNL A   1      35.501  34.188  28.353  1.00  0.00     0.016 A 
ATOM      7  C   UNL A   1      34.181  32.728  29.726  1.00  0.00     0.016 A 
ATOM      8  C   UNL A   1      36.658  33.847  29.073  1.00  0.00     0.010 A 
ATOM      9  C   UNL A   1      35.327  32.390  30.450  1.00  0.00     0.010 A 
ATOM     10  C   UNL A   1      36.576  32.969  30.148  1.00  0.00    -0.014 A 
BRANCH  10  11
ATOM     11  C   UNL A   1      37.781  32.469  30.860  1.00  0.00     0.031 A 
ATOM     12  C   UNL A   1      38.459  31.285  30.239  1.00  0.00     0.074 A 
ATOM     13  C   UNL A   1      38.196  32.942  32.053  1.00  0.00     0.049 A 
ATOM     14  N   UNL A   1      39.379  30.498  30.723  1.00  0.00    -0.248 NA
ATOM     15  C   UNL A   1      37.988  30.914  28.891  1.00  0.00     0.031 C 
ATOM     16  C   UNL A   1      37.662  34.104  32.758  1.00  0.00     0.029 A 
ATOM     17  N   UNL A   1      39.131  32.441  32.931  1.00  0.00    -0.354 N 
ATOM     18  C   UNL A   1      39.589  29.551  29.735  1.00  0.00     0.074 A 
ATOM     19  C   UNL A   1      38.589  29.753  28.714  1.00  0.00     0.031 C 
ATOM     20  C   UNL A   1      38.174  34.155  34.001  1.00  0.00     0.029 A 
ATOM     21  C   UNL A   1      39.128  33.064  34.159  1.00  0.00     0.049 A 
ATOM     22  H   UNL A   1      39.745  31.706  32.701  1.00  0.00     0.167 HD
ATOM     23  C   UNL A   1      40.594  28.653  29.631  1.00  0.00     0.037 A 
ATOM     24  C   UNL A   1      39.829  32.786  35.277  1.00  0.00     0.037 A 
ATOM     25  C   UNL A   1      41.596  28.483  30.638  1.00  0.00     0.049 A 
ATOM     26  C   UNL A   1      40.886  31.714  35.207  1.00  0.00     0.074 A 
ATOM     27  C   UNL A   1      42.695  27.648  30.635  1.00  0.00     0.029 A 
ATOM     28  N   UNL A   1      41.607  29.172  31.843  1.00  0.00    -0.354 N 
ATOM     29  N   UNL A   1      41.167  30.899  34.217  1.00  0.00    -0.248 NA
ATOM     30  C   UNL A   1      41.768  31.566  36.372  1.00  0.00     0.031 C 
ATOM     31  C   UNL A   1      43.346  27.798  31.864  1.00  0.00     0.029 A 
ATOM     32  C   UNL A   1      42.685  28.769  32.605  1.00  0.00     0.049 A 
ATOM     33  H   UNL A   1      40.944  29.848  32.115  1.00  0.00     0.167 HD
ATOM     34  C   UNL A   1      42.302  30.202  34.606  1.00  0.00     0.074 A 
ATOM     35  C   UNL A   1      42.639  30.665  35.937  1.00  0.00     0.031 C 
ATOM     36  C   UNL A   1      43.017  29.282  33.911  1.00  0.00     0.037 A 
BRANCH  23  37
ATOM     37  C   UNL A   1      40.624  27.847  28.368  1.00  0.00     0.064 A 
ATOM     38  C   UNL A   1      40.043  26.566  28.310  1.00  0.00     0.173 A 
ATOM     39  C   UNL A   1      41.344  28.294  27.253  1.00  0.00     0.173 A 
ATOM     40  F   UNL A   1      39.367  26.082  29.364  1.00  0.00    -0.203 F 
ATOM     41  C   UNL A   1      40.258  25.732  27.219  1.00  0.00     0.198 A 
ATOM     42  C   UNL A   1      41.518  27.470  26.144  1.00  0.00     0.198 A 
ATOM     43  F   UNL A   1      41.916  29.505  27.257  1.00  0.00    -0.203 F 
ATOM     44  F   UNL A   1      39.802  24.471  27.241  1.00  0.00    -0.200 F 
ATOM     45  C   UNL A   1      40.997  26.183  26.137  1.00  0.00     0.200 A 
ATOM     46  F   UNL A   1      42.227  27.908  25.095  1.00  0.00    -0.200 F 
ATOM     47  F   UNL A   1      41.232  25.369  25.099  1.00  0.00    -0.200 F 
ENDBRANCH  23  37
BRANCH  24  48
ATOM     48  C   UNL A   1      39.631  33.585  36.520  1.00  0.00     0.064 A 
ATOM     49  C   UNL A   1      38.734  33.165  37.512  1.00  0.00     0.173 A 
ATOM     50  C   UNL A   1      40.312  34.792  36.732  1.00  0.00     0.173 A 
ATOM     51  F   UNL A   1      38.045  32.026  37.349  1.00  0.00    -0.203 F 
ATOM     52  C   UNL A   1      38.504  33.932  38.654  1.00  0.00     0.198 A 
ATOM     53  C   UNL A   1      40.093  35.552  37.883  1.00  0.00     0.198 A 
ATOM     54  F   UNL A   1      41.184  35.242  35.817  1.00  0.00    -0.203 F 
ATOM     55  F   UNL A   1      37.608  33.524  39.563  1.00  0.00    -0.200 F 
ATOM     56  C   UNL A   1      39.184  35.125  38.839  1.00  0.00     0.200 A 
ATOM     57  F   UNL A   1      40.755  36.704  38.061  1.00  0.00    -0.200 F 
ATOM     58  F   UNL A   1      38.957  35.866  39.934  1.00  0.00    -0.200 F 
ENDBRANCH  24  48
BRANCH  36  59
ATOM     59  C   UNL A   1      44.285  28.773  34.524  1.00  0.00     0.064 A 
ATOM     60  C   UNL A   1      45.502  29.450  34.377  1.00  0.00     0.173 A 
ATOM     61  C   UNL A   1      44.244  27.658  35.376  1.00  0.00     0.173 A 
ATOM     62  F   UNL A   1      45.591  30.511  33.562  1.00  0.00    -0.203 F 
ATOM     63  C   UNL A   1      46.635  29.029  35.066  1.00  0.00     0.198 A 
ATOM     64  C   UNL A   1      45.369  27.261  36.087  1.00  0.00     0.198 A 
ATOM     65  F   UNL A   1      43.098  26.983  35.550  1.00  0.00    -0.203 F 
ATOM     66  F   UNL A   1      47.797  29.678  34.900  1.00  0.00    -0.200 F 
ATOM     67  C   UNL A   1      46.564  27.946  35.932  1.00  0.00     0.200 A 
ATOM     68  F   UNL A   1      45.293  26.229  36.938  1.00  0.00    -0.200 F 
ATOM     69  F   UNL A   1      47.649  27.566  36.622  1.00  0.00    -0.200 F 
ENDBRANCH  36  59
ENDBRANCH  10  11
ENDBRANCH   3   5
ENDBRANCH   2   3
ENDBRANCH   1   2
BRANCH   1  70
ATOM     70  C   UNL A   1      32.659  31.041  27.023  1.00  0.00     0.274 C 
BRANCH  70  71
ATOM     71  O   UNL A   1      32.124  29.825  26.461  1.00  0.00    -0.461 OA
BRANCH  71  72
ATOM     72  C   UNL A   1      32.812  29.305  25.391  1.00  0.00     0.328 C 
ATOM     73  O   UNL A   1      34.029  29.151  25.396  1.00  0.00    -0.250 OA
BRANCH  72  74
ATOM     74  C   UNL A   1      31.913  29.001  24.146  1.00  0.00     0.192 C 
ATOM     75  C   UNL A   1      30.571  29.709  24.205  1.00  0.00     0.037 C 
ATOM     76  N   UNL A   1      31.597  27.566  23.929  1.00  0.00    -0.353 N 
ATOM     77  C   UNL A   1      29.646  29.407  23.024  1.00  0.00     0.005 C 
ATOM     78  C   UNL A   1      30.808  27.216  22.749  1.00  0.00     0.118 C 
ATOM     79  C   UNL A   1      29.454  27.905  22.853  1.00  0.00     0.022 C 
BRANCH  76  80
ATOM     80  C   UNL A   1      32.361  26.592  24.534  1.00  0.00     0.116 A 
ATOM     81  C   UNL A   1      33.545  26.221  23.872  1.00  0.00     0.033 A 
ATOM     82  C   UNL A   1      32.036  25.910  25.717  1.00  0.00     0.292 A 
ATOM     83  C   UNL A   1      34.354  25.190  24.349  1.00  0.00     0.003 A 
ATOM     84  C   UNL A   1      32.845  24.871  26.202  1.00  0.00     0.088 A 
ATOM     85  C   UNL A   1      33.999  24.508  25.508  1.00  0.00     0.007 A 
BRANCH  82  86
ATOM     86  N   UNL A   1      30.854  26.258  26.502  1.00  0.00     0.064 N 
ATOM     87  O   UNL A   1      29.814  25.627  26.254  1.00  0.00    -0.258 OA
ATOM     88  O   UNL A   1      30.935  27.156  27.353  1.00  0.00    -0.258 OA
ENDBRANCH  82  86
ENDBRANCH  76  80
ENDBRANCH  72  74
ENDBRANCH  71  72
ENDBRANCH  70  71
ENDBRANCH   1  70
TORSDOF 13
ENDMDL
MODEL 2
REMARK VINA RESULT:     -11.7      5.591     10.735
REMARK SMILES O=C(OCCOC(=O)[C@@H]1CCCCN1c1ccccc1[N+](=O)[O-])c1ccc(-c2c3nc(c(-c4c(F)c(F)c(F)c(F)c4F)c4ccc([nH]4)c(-c4c(F)c(F)c(F)c(F)c4F)c4nc(c(-c5c(F)c(F)c(F)c(F)c5F)c5ccc2[nH]5)C=C4)C=C3)cc1
REMARK SMILES IDX 4 1 3 2 2 3 1 4 24 5 25 6 86 7 26 8 85 9 27 10 28 11 29 12
REMARK SMILES IDX 79 13 30 14 84 15 78 16 80 17 31 18 83 19 77 20 76 21 32 23
REMARK SMILES IDX 64 24 44 25 63 26 45 27 48 28 62 29 81 30 46 31 47 32 61 34
REMARK SMILES IDX 82 35 49 36 33 37 34 38 42 39 35 40 36 41 40 42 43 43 37 44
REMARK SMILES IDX 38 45 41 46 39 47 65 48 66 49 74 50 67 51 68 52 72 53 75 54
REMARK SMILES IDX 69 55 70 56 73 57 71 58 50 59 51 60 59 61 52 62 53 63 57 64
REMARK SMILES IDX 60 65 54 66 55 67 58 68 56 69 5 70 6 71 7 72 8 73 9 74 10 75
REMARK SMILES IDX 14 76 11 77 13 78 12 79 15 80 16 81 20 82 17 83 19 84 18 85
REMARK SMILES IDX 21 86 22 87 23 88
REMARK H PARENT 80 22 48 33
REMARK Flexibility Score: inf
ROOT
ATOM      1  C   UNL A   1      38.646  19.847  24.905  1.00  0.00     0.275 C 
ENDROOT
BRANCH   1   2
ATOM      2  O   UNL A   1      39.580  19.206  25.787  1.00  0.00    -0.458 OA
BRANCH   2   3
ATOM      3  C   UNL A   1      40.900  19.440  25.974  1.00  0.00     0.338 C 
ATOM      4  O   UNL A   1      41.690  18.523  25.779  1.00  0.00    -0.246 OA
BRANCH   3   5
ATOM      5  C   UNL A   1      41.447  20.725  26.520  1.00  0.00     0.060 A 
ATOM      6  C   UNL A   1      41.733  21.020  27.860  1.00  0.00     0.016 A 
ATOM      7  C   UNL A   1      41.725  21.713  25.562  1.00  0.00     0.016 A 
ATOM      8  C   UNL A   1      42.411  22.194  28.228  1.00  0.00     0.010 A 
ATOM      9  C   UNL A   1      42.405  22.879  25.922  1.00  0.00     0.010 A 
ATOM     10  C   UNL A   1      42.781  23.119  27.259  1.00  0.00    -0.014 A 
BRANCH  10  11
ATOM     11  C   UNL A   1      43.378  24.436  27.602  1.00  0.00     0.031 A 
ATOM     12  C   UNL A   1      42.410  25.498  28.026  1.00  0.00     0.074 A 
ATOM     13  C   UNL A   1      44.684  24.732  27.437  1.00  0.00     0.049 A 
ATOM     14  N   UNL A   1      42.587  26.782  28.174  1.00  0.00    -0.248 NA
ATOM     15  C   UNL A   1      41.028  25.043  28.269  1.00  0.00     0.031 C 
ATOM     16  C   UNL A   1      45.744  23.798  27.070  1.00  0.00     0.029 A 
ATOM     17  N   UNL A   1      45.333  25.946  27.486  1.00  0.00    -0.354 N 
ATOM     18  C   UNL A   1      41.341  27.272  28.530  1.00  0.00     0.074 A 
ATOM     19  C   UNL A   1      40.393  26.192  28.402  1.00  0.00     0.031 C 
ATOM     20  C   UNL A   1      46.873  24.479  26.798  1.00  0.00     0.029 A 
ATOM     21  C   UNL A   1      46.634  25.896  27.040  1.00  0.00     0.049 A 
ATOM     22  H   UNL A   1      44.905  26.771  27.811  1.00  0.00     0.167 HD
ATOM     23  C   UNL A   1      41.027  28.490  29.022  1.00  0.00     0.037 A 
ATOM     24  C   UNL A   1      47.531  26.888  26.862  1.00  0.00     0.037 A 
ATOM     25  C   UNL A   1      41.983  29.543  29.172  1.00  0.00     0.049 A 
ATOM     26  C   UNL A   1      47.156  28.276  27.313  1.00  0.00     0.074 A 
ATOM     27  C   UNL A   1      41.808  30.804  29.703  1.00  0.00     0.029 A 
ATOM     28  N   UNL A   1      43.310  29.446  28.772  1.00  0.00    -0.354 N 
ATOM     29  N   UNL A   1      46.005  28.710  27.770  1.00  0.00    -0.248 NA
ATOM     30  C   UNL A   1      48.214  29.295  27.293  1.00  0.00     0.031 C 
ATOM     31  C   UNL A   1      43.022  31.489  29.581  1.00  0.00     0.029 A 
ATOM     32  C   UNL A   1      43.965  30.634  29.028  1.00  0.00     0.049 A 
ATOM     33  H   UNL A   1      43.722  28.649  28.367  1.00  0.00     0.167 HD
ATOM     34  C   UNL A   1      46.221  30.023  28.165  1.00  0.00     0.074 A 
ATOM     35  C   UNL A   1      47.605  30.326  27.863  1.00  0.00     0.031 C 
ATOM     36  C   UNL A   1      45.358  30.888  28.753  1.00  0.00     0.037 A 
BRANCH  23  37
ATOM     37  C   UNL A   1      39.600  28.678  29.442  1.00  0.00     0.064 A 
ATOM     38  C   UNL A   1      38.658  29.261  28.573  1.00  0.00     0.173 A 
ATOM     39  C   UNL A   1      39.199  28.398  30.753  1.00  0.00     0.173 A 
ATOM     40  F   UNL A   1      39.004  29.574  27.314  1.00  0.00    -0.203 F 
ATOM     41  C   UNL A   1      37.400  29.637  29.030  1.00  0.00     0.198 A 
ATOM     42  C   UNL A   1      37.921  28.735  31.193  1.00  0.00     0.198 A 
ATOM     43  F   UNL A   1      40.057  27.842  31.620  1.00  0.00    -0.203 F 
ATOM     44  F   UNL A   1      36.567  30.305  28.219  1.00  0.00    -0.200 F 
ATOM     45  C   UNL A   1      37.033  29.375  30.339  1.00  0.00     0.200 A 
ATOM     46  F   UNL A   1      37.562  28.477  32.457  1.00  0.00    -0.200 F 
ATOM     47  F   UNL A   1      35.832  29.765  30.789  1.00  0.00    -0.200 F 
ENDBRANCH  23  37
BRANCH  24  48
ATOM     48  C   UNL A   1      48.891  26.599  26.324  1.00  0.00     0.064 A 
ATOM     49  C   UNL A   1      49.914  26.134  27.163  1.00  0.00     0.173 A 
ATOM     50  C   UNL A   1      49.204  26.805  24.973  1.00  0.00     0.173 A 
ATOM     51  F   UNL A   1      49.670  25.938  28.467  1.00  0.00    -0.203 F 
ATOM     52  C   UNL A   1      51.203  25.912  26.679  1.00  0.00     0.198 A 
ATOM     53  C   UNL A   1      50.491  26.567  24.486  1.00  0.00     0.198 A 
ATOM     54  F   UNL A   1      48.264  27.247  24.125  1.00  0.00    -0.203 F 
ATOM     55  F   UNL A   1      52.169  25.508  27.515  1.00  0.00    -0.200 F 
ATOM     56  C   UNL A   1      51.491  26.127  25.340  1.00  0.00     0.200 A 
ATOM     57  F   UNL A   1      50.766  26.773  23.190  1.00  0.00    -0.200 F 
ATOM     58  F   UNL A   1      52.732  25.920  24.877  1.00  0.00    -0.200 F 
ENDBRANCH  24  48
BRANCH  36  59
ATOM     59  C   UNL A   1      45.891  32.216  29.195  1.00  0.00     0.064 A 
ATOM     60  C   UNL A   1      45.801  33.356  28.387  1.00  0.00     0.173 A 
ATOM     61  C   UNL A   1      46.384  32.365  30.501  1.00  0.00     0.173 A 
ATOM     62  F   UNL A   1      45.351  33.258  27.127  1.00  0.00    -0.203 F 
ATOM     63  C   UNL A   1      46.183  34.603  28.874  1.00  0.00     0.198 A 
ATOM     64  C   UNL A   1      46.733  33.616  30.994  1.00  0.00     0.198 A 
ATOM     65  F   UNL A   1      46.482  31.301  31.311  1.00  0.00    -0.203 F 
ATOM     66  F   UNL A   1      46.107  35.681  28.081  1.00  0.00    -0.200 F 
ATOM     67  C   UNL A   1      46.632  34.734  30.181  1.00  0.00     0.200 A 
ATOM     68  F   UNL A   1      47.146  33.744  32.263  1.00  0.00    -0.200 F 
ATOM     69  F   UNL A   1      46.964  35.942  30.658  1.00  0.00    -0.200 F 
ENDBRANCH  36  59
ENDBRANCH  10  11
ENDBRANCH   3   5
ENDBRANCH   2   3
ENDBRANCH   1   2
BRANCH   1  70
ATOM     70  C   UNL A   1      38.173  21.229  25.364  1.00  0.00     0.274 C 
BRANCH  70  71
ATOM     71  O   UNL A   1      36.907  21.641  24.810  1.00  0.00    -0.461 OA
BRANCH  71  72
ATOM     72  C   UNL A   1      35.992  22.136  25.708  1.00  0.00     0.328 C 
ATOM     73  O   UNL A   1      36.251  23.049  26.484  1.00  0.00    -0.250 OA
BRANCH  72  74
ATOM     74  C   UNL A   1      34.622  21.377  25.700  1.00  0.00     0.192 C 
ATOM     75  C   UNL A   1      34.675  20.081  24.911  1.00  0.00     0.037 C 
ATOM     76  N   UNL A   1      33.480  22.140  25.136  1.00  0.00    -0.353 N 
ATOM     77  C   UNL A   1      33.344  19.327  24.846  1.00  0.00     0.005 C 
ATOM     78  C   UNL A   1      32.163  21.504  25.155  1.00  0.00     0.118 C 
ATOM     79  C   UNL A   1      32.233  20.230  24.323  1.00  0.00     0.022 C 
BRANCH  76  80
ATOM     80  C   UNL A   1      33.556  23.511  25.018  1.00  0.00     0.116 A 
ATOM     81  C   UNL A   1      33.186  24.261  26.148  1.00  0.00     0.033 A 
ATOM     82  C   UNL A   1      33.922  24.216  23.860  1.00  0.00     0.292 A 
ATOM     83  C   UNL A   1      33.147  25.655  26.118  1.00  0.00     0.003 A 
ATOM     84  C   UNL A   1      33.884  25.619  23.822  1.00  0.00     0.088 A 
ATOM     85  C   UNL A   1      33.486  26.333  24.951  1.00  0.00     0.007 A 
BRANCH  82  86
ATOM     86  N   UNL A   1      34.371  23.527  22.653  1.00  0.00     0.064 N 
ATOM     87  O   UNL A   1      33.497  23.238  21.819  1.00  0.00    -0.258 OA
ATOM     88  O   UNL A   1      35.573  23.255  22.522  1.00  0.00    -0.258 OA
ENDBRANCH  82  86
ENDBRANCH  76  80
ENDBRANCH  72  74
ENDBRANCH  71  72
ENDBRANCH  70  71
ENDBRANCH   1  70
TORSDOF 13
ENDMDL
MODEL 3
REMARK VINA RESULT:     -11.6      3.732      8.725
REMARK SMILES O=C(OCCOC(=O)[C@@H]1CCCCN1c1ccccc1[N+](=O)[O-])c1ccc(-c2c3nc(c(-c4c(F)c(F)c(F)c(F)c4F)c4ccc([nH]4)c(-c4c(F)c(F)c(F)c(F)c4F)c4nc(c(-c5c(F)c(F)c(F)c(F)c5F)c5ccc2[nH]5)C=C4)C=C3)cc1
REMARK SMILES IDX 4 1 3 2 2 3 1 4 24 5 25 6 86 7 26 8 85 9 27 10 28 11 29 12
REMARK SMILES IDX 79 13 30 14 84 15 78 16 80 17 31 18 83 19 77 20 76 21 32 23
REMARK SMILES IDX 64 24 44 25 63 26 45 27 48 28 62 29 81 30 46 31 47 32 61 34
REMARK SMILES IDX 82 35 49 36 33 37 34 38 42 39 35 40 36 41 40 42 43 43 37 44
REMARK SMILES IDX 38 45 41 46 39 47 65 48 66 49 74 50 67 51 68 52 72 53 75 54
REMARK SMILES IDX 69 55 70 56 73 57 71 58 50 59 51 60 59 61 52 62 53 63 57 64
REMARK SMILES IDX 60 65 54 66 55 67 58 68 56 69 5 70 6 71 7 72 8 73 9 74 10 75
REMARK SMILES IDX 14 76 11 77 13 78 12 79 15 80 16 81 20 82 17 83 19 84 18 85
REMARK SMILES IDX 21 86 22 87 23 88
REMARK H PARENT 80 22 48 33
REMARK Flexibility Score: inf
ROOT
ATOM      1  C   UNL A   1      32.958  29.674  26.019  1.00  0.00     0.275 C 
ENDROOT
BRANCH   1   2
ATOM      2  O   UNL A   1      33.681  29.653  27.259  1.00  0.00    -0.458 OA
BRANCH   2   3
ATOM      3  C   UNL A   1      34.616  30.509  27.734  1.00  0.00     0.338 C 
ATOM      4  O   UNL A   1      34.400  31.712  27.656  1.00  0.00    -0.246 OA
BRANCH   3   5
ATOM      5  C   UNL A   1      35.956  30.074  28.245  1.00  0.00     0.060 A 
ATOM      6  C   UNL A   1      36.261  29.615  29.535  1.00  0.00     0.016 A 
ATOM      7  C   UNL A   1      36.997  30.106  27.304  1.00  0.00     0.016 A 
ATOM      8  C   UNL A   1      37.515  29.065  29.845  1.00  0.00     0.010 A 
ATOM      9  C   UNL A   1      38.244  29.554  27.605  1.00  0.00     0.010 A 
ATOM     10  C   UNL A   1      38.508  29.000  28.874  1.00  0.00    -0.014 A 
BRANCH  10  11
ATOM     11  C   UNL A   1      39.892  28.555  29.180  1.00  0.00     0.031 A 
ATOM     12  C   UNL A   1      40.801  29.600  29.752  1.00  0.00     0.074 A 
ATOM     13  C   UNL A   1      40.373  27.335  28.862  1.00  0.00     0.049 A 
ATOM     14  N   UNL A   1      42.094  29.586  29.916  1.00  0.00    -0.248 NA
ATOM     15  C   UNL A   1      40.150  30.862  30.152  1.00  0.00     0.031 C 
ATOM     16  C   UNL A   1      39.604  26.210  28.339  1.00  0.00     0.029 A 
ATOM     17  N   UNL A   1      41.666  26.861  28.867  1.00  0.00    -0.354 N 
ATOM     18  C   UNL A   1      42.398  30.833  30.438  1.00  0.00     0.074 A 
ATOM     19  C   UNL A   1      41.196  31.629  30.397  1.00  0.00     0.031 C 
ATOM     20  C   UNL A   1      40.442  25.231  27.949  1.00  0.00     0.029 A 
ATOM     21  C   UNL A   1      41.808  25.632  28.261  1.00  0.00     0.049 A 
ATOM     22  H   UNL A   1      42.418  27.355  29.267  1.00  0.00     0.167 HD
ATOM     23  C   UNL A   1      43.553  31.249  31.002  1.00  0.00     0.037 A 
ATOM     24  C   UNL A   1      42.919  24.913  28.002  1.00  0.00     0.037 A 
ATOM     25  C   UNL A   1      44.730  30.438  31.062  1.00  0.00     0.049 A 
ATOM     26  C   UNL A   1      44.234  25.417  28.538  1.00  0.00     0.074 A 
ATOM     27  C   UNL A   1      45.947  30.718  31.649  1.00  0.00     0.029 A 
ATOM     28  N   UNL A   1      44.827  29.173  30.498  1.00  0.00    -0.354 N 
ATOM     29  N   UNL A   1      44.495  26.551  29.147  1.00  0.00    -0.248 NA
ATOM     30  C   UNL A   1      45.393  24.523  28.416  1.00  0.00     0.031 C 
ATOM     31  C   UNL A   1      46.799  29.637  31.398  1.00  0.00     0.029 A 
ATOM     32  C   UNL A   1      46.093  28.662  30.706  1.00  0.00     0.049 A 
ATOM     33  H   UNL A   1      44.101  28.708  30.021  1.00  0.00     0.167 HD
ATOM     34  C   UNL A   1      45.820  26.472  29.552  1.00  0.00     0.074 A 
ATOM     35  C   UNL A   1      46.320  25.193  29.089  1.00  0.00     0.031 C 
ATOM     36  C   UNL A   1      46.547  27.365  30.268  1.00  0.00     0.037 A 
BRANCH  23  37
ATOM     37  C   UNL A   1      43.532  32.623  31.601  1.00  0.00     0.064 A 
ATOM     38  C   UNL A   1      43.114  32.830  32.929  1.00  0.00     0.173 A 
ATOM     39  C   UNL A   1      43.804  33.748  30.814  1.00  0.00     0.173 A 
ATOM     40  F   UNL A   1      42.815  31.783  33.714  1.00  0.00    -0.203 F 
ATOM     41  C   UNL A   1      42.884  34.113  33.415  1.00  0.00     0.198 A 
ATOM     42  C   UNL A   1      43.616  35.032  31.321  1.00  0.00     0.198 A 
ATOM     43  F   UNL A   1      44.205  33.606  29.543  1.00  0.00    -0.203 F 
ATOM     44  F   UNL A   1      42.366  34.280  34.640  1.00  0.00    -0.200 F 
ATOM     45  C   UNL A   1      43.133  35.212  32.610  1.00  0.00     0.200 A 
ATOM     46  F   UNL A   1      43.861  36.097  30.546  1.00  0.00    -0.200 F 
ATOM     47  F   UNL A   1      42.882  36.447  33.067  1.00  0.00    -0.200 F 
ENDBRANCH  23  37
BRANCH  24  48
ATOM     48  C   UNL A   1      42.833  23.606  27.291  1.00  0.00     0.064 A 
ATOM     49  C   UNL A   1      42.351  22.462  27.942  1.00  0.00     0.173 A 
ATOM     50  C   UNL A   1      43.253  23.466  25.961  1.00  0.00     0.173 A 
ATOM     51  F   UNL A   1      41.953  22.539  29.220  1.00  0.00    -0.203 F 
ATOM     52  C   UNL A   1      42.316  21.224  27.301  1.00  0.00     0.198 A 
ATOM     53  C   UNL A   1      43.204  22.229  25.314  1.00  0.00     0.198 A 
ATOM     54  F   UNL A   1      43.722  24.527  25.289  1.00  0.00    -0.203 F 
ATOM     55  F   UNL A   1      41.889  20.140  27.964  1.00  0.00    -0.200 F 
ATOM     56  C   UNL A   1      42.742  21.108  25.987  1.00  0.00     0.200 A 
ATOM     57  F   UNL A   1      43.613  22.121  24.042  1.00  0.00    -0.200 F 
ATOM     58  F   UNL A   1      42.716  19.915  25.374  1.00  0.00    -0.200 F 
ENDBRANCH  24  48
BRANCH  36  59
ATOM     59  C   UNL A   1      47.931  26.971  30.679  1.00  0.00     0.064 A 
ATOM     60  C   UNL A   1      48.170  26.169  31.803  1.00  0.00     0.173 A 
ATOM     61  C   UNL A   1      49.020  27.300  29.857  1.00  0.00     0.173 A 
ATOM     62  F   UNL A   1      47.162  25.842  32.626  1.00  0.00    -0.203 F 
ATOM     63  C   UNL A   1      49.451  25.708  32.086  1.00  0.00     0.198 A 
ATOM     64  C   UNL A   1      50.292  26.811  30.124  1.00  0.00     0.198 A 
ATOM     65  F   UNL A   1      48.836  28.062  28.767  1.00  0.00    -0.203 F 
ATOM     66  F   UNL A   1      49.665  24.956  33.175  1.00  0.00    -0.200 F 
ATOM     67  C   UNL A   1      50.507  26.014  31.238  1.00  0.00     0.200 A 
ATOM     68  F   UNL A   1      51.305  27.090  29.293  1.00  0.00    -0.200 F 
ATOM     69  F   UNL A   1      51.733  25.537  31.494  1.00  0.00    -0.200 F 
ENDBRANCH  36  59
ENDBRANCH  10  11
ENDBRANCH   3   5
ENDBRANCH   2   3
ENDBRANCH   1   2
BRANCH   1  70
ATOM     70  C   UNL A   1      33.619  28.900  24.875  1.00  0.00     0.274 C 
BRANCH  70  71
ATOM     71  O   UNL A   1      33.681  27.473  25.077  1.00  0.00    -0.461 OA
BRANCH  71  72
ATOM     72  C   UNL A   1      33.208  26.700  24.043  1.00  0.00     0.328 C 
ATOM     73  O   UNL A   1      33.601  26.824  22.888  1.00  0.00    -0.250 OA
BRANCH  72  74
ATOM     74  C   UNL A   1      32.072  25.707  24.462  1.00  0.00     0.192 C 
ATOM     75  C   UNL A   1      31.176  26.267  25.553  1.00  0.00     0.037 C 
ATOM     76  N   UNL A   1      32.538  24.390  24.967  1.00  0.00    -0.353 N 
ATOM     77  C   UNL A   1      30.076  25.311  26.019  1.00  0.00     0.005 C 
ATOM     78  C   UNL A   1      31.522  23.400  25.320  1.00  0.00     0.118 C 
ATOM     79  C   UNL A   1      30.665  23.970  26.442  1.00  0.00     0.022 C 
BRANCH  76  80
ATOM     80  C   UNL A   1      33.821  23.963  24.700  1.00  0.00     0.116 A 
ATOM     81  C   UNL A   1      34.769  24.146  25.722  1.00  0.00     0.033 A 
ATOM     82  C   UNL A   1      34.268  23.412  23.489  1.00  0.00     0.292 A 
ATOM     83  C   UNL A   1      36.113  23.826  25.536  1.00  0.00     0.003 A 
ATOM     84  C   UNL A   1      35.620  23.089  23.293  1.00  0.00     0.088 A 
ATOM     85  C   UNL A   1      36.541  23.307  24.317  1.00  0.00     0.007 A 
BRANCH  82  86
ATOM     86  N   UNL A   1      33.350  23.137  22.386  1.00  0.00     0.064 N 
ATOM     87  O   UNL A   1      33.271  24.001  21.498  1.00  0.00    -0.258 OA
ATOM     88  O   UNL A   1      32.694  22.085  22.392  1.00  0.00    -0.258 OA
ENDBRANCH  82  86
ENDBRANCH  76  80
ENDBRANCH  72  74
ENDBRANCH  71  72
ENDBRANCH  70  71
ENDBRANCH   1  70
TORSDOF 13
ENDMDL
