MODEL 1
REMARK VINA RESULT:     -11.6      0.000      0.000
REMARK SMILES CC(C)C[C@H](NC(=O)[C@](C)([NH3+])C(F)(F)F)C(=O)OCCOC(=O)c1ccc(-c2c3nc(c(-c4c(F)c(F)c(F)c(F)c4F)c4ccc([nH]4)c(-c4c(F)c(F)c(F)c(F)c4F)c4nc(c(-c5c(F)c(F)c(F)c(F)c5F)c5ccc2[nH]5)C=C4)C=C3)cc1
REMARK SMILES IDX 19 1 18 2 16 3 17 4 5 5 4 6 2 7 1 8 3 9 6 10 7 11 8 13 9 14
REMARK SMILES IDX 10 15 11 16 12 20 13 21 14 22 15 23 20 24 21 25 22 26 23 27
REMARK SMILES IDX 24 28 25 29 86 30 26 31 85 32 27 33 28 34 29 35 79 36 30 37
REMARK SMILES IDX 84 38 78 39 80 40 31 41 83 42 77 43 76 44 32 46 64 47 44 48
REMARK SMILES IDX 63 49 45 50 48 51 62 52 81 53 46 54 47 55 61 57 82 58 49 59
REMARK SMILES IDX 33 60 34 61 42 62 35 63 36 64 40 65 43 66 37 67 38 68 41 69
REMARK SMILES IDX 39 70 65 71 66 72 74 73 67 74 68 75 72 76 75 77 69 78 70 79
REMARK SMILES IDX 73 80 71 81 50 82 51 83 59 84 52 85 53 86 57 87 60 88 54 89
REMARK SMILES IDX 55 90 58 91 56 92
REMARK H PARENT 6 12 11 17 11 18 11 19 80 45 48 56
REMARK Flexibility Score: inf
ROOT
ATOM      1  C   UNL A   1      31.798  29.052  26.843  1.00  0.00     0.274 C 
ENDROOT
BRANCH   1   2
ATOM      2  O   UNL A   1      32.491  28.376  25.766  1.00  0.00    -0.461 OA
BRANCH   2   3
ATOM      3  C   UNL A   1      31.966  28.541  24.527  1.00  0.00     0.328 C 
ATOM      4  O   UNL A   1      32.485  29.238  23.655  1.00  0.00    -0.250 OA
BRANCH   3   5
ATOM      5  C   UNL A   1      30.647  27.768  24.267  1.00  0.00     0.192 C 
BRANCH   5   6
ATOM      6  C   UNL A   1      31.057  26.265  24.315  1.00  0.00     0.040 C 
BRANCH   6   7
ATOM      7  C   UNL A   1      31.010  25.522  22.962  1.00  0.00    -0.015 C 
ATOM      8  C   UNL A   1      32.341  25.551  22.215  1.00  0.00     0.007 C 
ATOM      9  C   UNL A   1      30.591  24.067  23.209  1.00  0.00     0.007 C 
ENDBRANCH   6   7
ENDBRANCH   5   6
BRANCH   5  10
ATOM     10  N   UNL A   1      29.796  27.979  23.063  1.00  0.00    -0.337 N 
ATOM     11  C   UNL A   1      28.785  28.883  22.918  1.00  0.00     0.291 C 
ATOM     12  H   UNL A   1      29.984  27.404  22.287  1.00  0.00     0.164 HD
ATOM     13  O   UNL A   1      27.644  28.441  23.132  1.00  0.00    -0.267 OA
BRANCH  11  14
ATOM     14  C   UNL A   1      28.945  30.302  22.287  1.00  0.00     0.267 C 
ATOM     15  C   UNL A   1      28.040  30.454  21.051  1.00  0.00     0.100 C 
BRANCH  14  16
ATOM     16  N   UNL A   1      30.337  30.298  21.642  1.00  0.00    -0.337 N 
ATOM     17  H   UNL A   1      30.648  29.336  21.509  1.00  0.00     0.345 HD
ATOM     18  H   UNL A   1      30.996  30.786  22.250  1.00  0.00     0.345 HD
ATOM     19  H   UNL A   1      30.295  30.770  20.739  1.00  0.00     0.345 HD
ENDBRANCH  14  16
BRANCH  14  20
ATOM     20  C   UNL A   1      28.815  31.456  23.325  1.00  0.00     0.453 C 
ATOM     21  F   UNL A   1      27.564  31.609  23.813  1.00  0.00    -0.164 F 
ATOM     22  F   UNL A   1      29.654  31.358  24.381  1.00  0.00    -0.164 F 
ATOM     23  F   UNL A   1      29.134  32.651  22.748  1.00  0.00    -0.164 F 
ENDBRANCH  14  20
ENDBRANCH  11  14
ENDBRANCH   5  10
ENDBRANCH   3   5
ENDBRANCH   2   3
ENDBRANCH   1   2
BRANCH   1  24
ATOM     24  C   UNL A   1      32.063  30.568  26.873  1.00  0.00     0.275 C 
BRANCH  24  25
ATOM     25  O   UNL A   1      33.443  30.927  26.654  1.00  0.00    -0.458 OA
BRANCH  25  26
ATOM     26  C   UNL A   1      33.922  31.832  27.530  1.00  0.00     0.338 C 
ATOM     27  O   UNL A   1      33.404  32.874  27.880  1.00  0.00    -0.246 OA
BRANCH  26  28
ATOM     28  C   UNL A   1      35.160  31.415  28.165  1.00  0.00     0.060 A 
ATOM     29  C   UNL A   1      36.181  32.369  28.243  1.00  0.00     0.016 A 
ATOM     30  C   UNL A   1      35.370  30.080  28.496  1.00  0.00     0.016 A 
ATOM     31  C   UNL A   1      37.435  31.991  28.689  1.00  0.00     0.010 A 
ATOM     32  C   UNL A   1      36.623  29.705  28.965  1.00  0.00     0.010 A 
ATOM     33  C   UNL A   1      37.646  30.665  29.081  1.00  0.00    -0.014 A 
BRANCH  33  34
ATOM     34  C   UNL A   1      38.889  30.293  29.773  1.00  0.00     0.031 A 
ATOM     35  C   UNL A   1      39.806  29.273  29.193  1.00  0.00     0.074 A 
ATOM     36  C   UNL A   1      39.088  30.828  30.988  1.00  0.00     0.049 A 
ATOM     37  N   UNL A   1      40.805  28.654  29.760  1.00  0.00    -0.248 NA
ATOM     38  C   UNL A   1      39.560  28.887  27.797  1.00  0.00     0.031 C 
ATOM     39  C   UNL A   1      38.229  31.841  31.609  1.00  0.00     0.029 A 
ATOM     40  N   UNL A   1      40.036  30.564  31.937  1.00  0.00    -0.354 N 
ATOM     41  C   UNL A   1      41.295  27.780  28.802  1.00  0.00     0.074 A 
ATOM     42  C   UNL A   1      40.480  27.948  27.616  1.00  0.00     0.031 C 
ATOM     43  C   UNL A   1      38.667  32.086  32.850  1.00  0.00     0.029 A 
ATOM     44  C   UNL A   1      39.794  31.205  33.125  1.00  0.00     0.049 A 
ATOM     45  H   UNL A   1      40.811  29.977  31.783  1.00  0.00     0.167 HD
ATOM     46  C   UNL A   1      42.325  26.911  28.927  1.00  0.00     0.037 A 
ATOM     47  C   UNL A   1      40.380  31.050  34.324  1.00  0.00     0.037 A 
ATOM     48  C   UNL A   1      43.105  26.770  30.130  1.00  0.00     0.049 A 
ATOM     49  C   UNL A   1      41.498  30.063  34.445  1.00  0.00     0.074 A 
ATOM     50  C   UNL A   1      44.194  25.951  30.368  1.00  0.00     0.029 A 
ATOM     51  N   UNL A   1      42.864  27.467  31.309  1.00  0.00    -0.354 N 
ATOM     52  N   UNL A   1      41.975  29.248  33.535  1.00  0.00    -0.248 NA
ATOM     53  C   UNL A   1      42.162  29.972  35.748  1.00  0.00     0.031 C 
ATOM     54  C   UNL A   1      44.584  26.122  31.702  1.00  0.00     0.029 A 
ATOM     55  C   UNL A   1      43.768  27.082  32.284  1.00  0.00     0.049 A 
ATOM     56  H   UNL A   1      42.153  28.137  31.433  1.00  0.00     0.167 HD
ATOM     57  C   UNL A   1      43.007  28.557  34.146  1.00  0.00     0.074 A 
ATOM     58  C   UNL A   1      43.090  29.057  35.507  1.00  0.00     0.031 C 
ATOM     59  C   UNL A   1      43.818  27.601  33.629  1.00  0.00     0.037 A 
BRANCH  46  60
ATOM     60  C   UNL A   1      42.627  26.024  27.754  1.00  0.00     0.064 A 
ATOM     61  C   UNL A   1      43.601  26.358  26.802  1.00  0.00     0.173 A 
ATOM     62  C   UNL A   1      41.929  24.819  27.582  1.00  0.00     0.173 A 
ATOM     63  F   UNL A   1      44.286  27.505  26.911  1.00  0.00    -0.203 F 
ATOM     64  C   UNL A   1      43.842  25.535  25.703  1.00  0.00     0.198 A 
ATOM     65  C   UNL A   1      42.190  23.985  26.497  1.00  0.00     0.198 A 
ATOM     66  F   UNL A   1      40.988  24.449  28.464  1.00  0.00    -0.203 F 
ATOM     67  F   UNL A   1      44.739  25.900  24.778  1.00  0.00    -0.200 F 
ATOM     68  C   UNL A   1      43.140  24.349  25.554  1.00  0.00     0.200 A 
ATOM     69  F   UNL A   1      41.516  22.835  26.359  1.00  0.00    -0.200 F 
ATOM     70  F   UNL A   1      43.369  23.559  24.494  1.00  0.00    -0.200 F 
ENDBRANCH  46  60
BRANCH  47  71
ATOM     71  C   UNL A   1      39.883  31.844  35.472  1.00  0.00     0.064 A 
ATOM     72  C   UNL A   1      40.411  33.110  35.751  1.00  0.00     0.173 A 
ATOM     73  C   UNL A   1      38.802  31.398  36.248  1.00  0.00     0.173 A 
ATOM     74  F   UNL A   1      41.448  33.573  35.038  1.00  0.00    -0.203 F 
ATOM     75  C   UNL A   1      39.875  33.903  36.763  1.00  0.00     0.198 A 
ATOM     76  C   UNL A   1      38.251  32.201  37.244  1.00  0.00     0.198 A 
ATOM     77  F   UNL A   1      38.250  30.199  36.004  1.00  0.00    -0.203 F 
ATOM     78  F   UNL A   1      40.403  35.107  37.016  1.00  0.00    -0.200 F 
ATOM     79  C   UNL A   1      38.788  33.453  37.501  1.00  0.00     0.200 A 
ATOM     80  F   UNL A   1      37.188  31.771  37.938  1.00  0.00    -0.200 F 
ATOM     81  F   UNL A   1      38.258  34.228  38.455  1.00  0.00    -0.200 F 
ENDBRANCH  47  71
BRANCH  59  82
ATOM     82  C   UNL A   1      44.879  27.060  34.537  1.00  0.00     0.064 A 
ATOM     83  C   UNL A   1      44.656  25.930  35.334  1.00  0.00     0.173 A 
ATOM     84  C   UNL A   1      46.147  27.659  34.574  1.00  0.00     0.173 A 
ATOM     85  F   UNL A   1      43.452  25.337  35.344  1.00  0.00    -0.203 F 
ATOM     86  C   UNL A   1      45.663  25.425  36.152  1.00  0.00     0.198 A 
ATOM     87  C   UNL A   1      47.158  27.138  35.374  1.00  0.00     0.198 A 
ATOM     88  F   UNL A   1      46.405  28.742  33.826  1.00  0.00    -0.203 F 
ATOM     89  F   UNL A   1      45.419  24.366  36.936  1.00  0.00    -0.200 F 
ATOM     90  C   UNL A   1      46.914  26.024  36.164  1.00  0.00     0.200 A 
ATOM     91  F   UNL A   1      48.369  27.711  35.379  1.00  0.00    -0.200 F 
ATOM     92  F   UNL A   1      47.884  25.533  36.946  1.00  0.00    -0.200 F 
ENDBRANCH  59  82
ENDBRANCH  33  34
ENDBRANCH  26  28
ENDBRANCH  25  26
ENDBRANCH  24  25
ENDBRANCH   1  24
TORSDOF 17
ENDMDL
MODEL 2
REMARK VINA RESULT:     -11.6      0.114      1.624
REMARK SMILES CC(C)C[C@H](NC(=O)[C@](C)([NH3+])C(F)(F)F)C(=O)OCCOC(=O)c1ccc(-c2c3nc(c(-c4c(F)c(F)c(F)c(F)c4F)c4ccc([nH]4)c(-c4c(F)c(F)c(F)c(F)c4F)c4nc(c(-c5c(F)c(F)c(F)c(F)c5F)c5ccc2[nH]5)C=C4)C=C3)cc1
REMARK SMILES IDX 19 1 18 2 16 3 17 4 5 5 4 6 2 7 1 8 3 9 6 10 7 11 8 13 9 14
REMARK SMILES IDX 10 15 11 16 12 20 13 21 14 22 15 23 20 24 21 25 22 26 23 27
REMARK SMILES IDX 24 28 25 29 86 30 26 31 85 32 27 33 28 34 29 35 79 36 30 37
REMARK SMILES IDX 84 38 78 39 80 40 31 41 83 42 77 43 76 44 32 46 64 47 44 48
REMARK SMILES IDX 63 49 45 50 48 51 62 52 81 53 46 54 47 55 61 57 82 58 49 59
REMARK SMILES IDX 33 60 34 61 42 62 35 63 36 64 40 65 43 66 37 67 38 68 41 69
REMARK SMILES IDX 39 70 65 71 66 72 74 73 67 74 68 75 72 76 75 77 69 78 70 79
REMARK SMILES IDX 73 80 71 81 50 82 51 83 59 84 52 85 53 86 57 87 60 88 54 89
REMARK SMILES IDX 55 90 58 91 56 92
REMARK H PARENT 6 12 11 17 11 18 11 19 80 45 48 56
REMARK Flexibility Score: inf
ROOT
ATOM      1  C   UNL A   1      31.800  28.996  26.933  1.00  0.00     0.274 C 
ENDROOT
BRANCH   1   2
ATOM      2  O   UNL A   1      32.456  28.290  25.852  1.00  0.00    -0.461 OA
BRANCH   2   3
ATOM      3  C   UNL A   1      31.942  28.491  24.614  1.00  0.00     0.328 C 
ATOM      4  O   UNL A   1      32.467  29.214  23.767  1.00  0.00    -0.250 OA
BRANCH   3   5
ATOM      5  C   UNL A   1      30.625  27.725  24.321  1.00  0.00     0.192 C 
BRANCH   5   6
ATOM      6  C   UNL A   1      31.024  26.220  24.384  1.00  0.00     0.040 C 
BRANCH   6   7
ATOM      7  C   UNL A   1      30.983  25.466  23.038  1.00  0.00    -0.015 C 
ATOM      8  C   UNL A   1      32.321  25.473  22.304  1.00  0.00     0.007 C 
ATOM      9  C   UNL A   1      30.544  24.018  23.293  1.00  0.00     0.007 C 
ENDBRANCH   6   7
ENDBRANCH   5   6
BRANCH   5  10
ATOM     10  N   UNL A   1      29.809  27.938  23.093  1.00  0.00    -0.337 N 
ATOM     11  C   UNL A   1      28.803  28.842  22.919  1.00  0.00     0.291 C 
ATOM     12  H   UNL A   1      30.019  27.363  22.322  1.00  0.00     0.164 HD
ATOM     13  O   UNL A   1      27.657  28.401  23.100  1.00  0.00    -0.267 OA
BRANCH  11  14
ATOM     14  C   UNL A   1      28.981  30.262  22.295  1.00  0.00     0.267 C 
ATOM     15  C   UNL A   1      28.067  30.437  21.068  1.00  0.00     0.100 C 
BRANCH  14  16
ATOM     16  N   UNL A   1      30.367  30.237  21.635  1.00  0.00    -0.337 N 
ATOM     17  H   UNL A   1      30.651  31.188  21.401  1.00  0.00     0.345 HD
ATOM     18  H   UNL A   1      30.328  29.675  20.784  1.00  0.00     0.345 HD
ATOM     19  H   UNL A   1      31.044  29.829  22.281  1.00  0.00     0.345 HD
ENDBRANCH  14  16
BRANCH  14  20
ATOM     20  C   UNL A   1      28.882  31.412  23.340  1.00  0.00     0.453 C 
ATOM     21  F   UNL A   1      27.628  31.624  23.796  1.00  0.00    -0.164 F 
ATOM     22  F   UNL A   1      29.686  31.263  24.417  1.00  0.00    -0.164 F 
ATOM     23  F   UNL A   1      29.277  32.595  22.783  1.00  0.00    -0.164 F 
ENDBRANCH  14  20
ENDBRANCH  11  14
ENDBRANCH   5  10
ENDBRANCH   3   5
ENDBRANCH   2   3
ENDBRANCH   1   2
BRANCH   1  24
ATOM     24  C   UNL A   1      32.010  30.520  26.873  1.00  0.00     0.275 C 
BRANCH  24  25
ATOM     25  O   UNL A   1      33.373  30.916  26.614  1.00  0.00    -0.458 OA
BRANCH  25  26
ATOM     26  C   UNL A   1      33.855  31.828  27.480  1.00  0.00     0.338 C 
ATOM     27  O   UNL A   1      33.336  32.872  27.826  1.00  0.00    -0.246 OA
BRANCH  26  28
ATOM     28  C   UNL A   1      35.098  31.421  28.109  1.00  0.00     0.060 A 
ATOM     29  C   UNL A   1      36.107  32.387  28.200  1.00  0.00     0.016 A 
ATOM     30  C   UNL A   1      35.326  30.084  28.423  1.00  0.00     0.016 A 
ATOM     31  C   UNL A   1      37.365  32.020  28.641  1.00  0.00     0.010 A 
ATOM     32  C   UNL A   1      36.584  29.720  28.887  1.00  0.00     0.010 A 
ATOM     33  C   UNL A   1      37.594  30.691  29.016  1.00  0.00    -0.014 A 
BRANCH  33  34
ATOM     34  C   UNL A   1      38.842  30.328  29.703  1.00  0.00     0.031 A 
ATOM     35  C   UNL A   1      39.755  29.302  29.128  1.00  0.00     0.074 A 
ATOM     36  C   UNL A   1      39.049  30.875  30.912  1.00  0.00     0.049 A 
ATOM     37  N   UNL A   1      40.759  28.689  29.694  1.00  0.00    -0.248 NA
ATOM     38  C   UNL A   1      39.500  28.901  27.737  1.00  0.00     0.031 C 
ATOM     39  C   UNL A   1      38.194  31.895  31.527  1.00  0.00     0.029 A 
ATOM     40  N   UNL A   1      40.004  30.622  31.857  1.00  0.00    -0.354 N 
ATOM     41  C   UNL A   1      41.242  27.805  28.743  1.00  0.00     0.074 A 
ATOM     42  C   UNL A   1      40.419  27.961  27.560  1.00  0.00     0.031 C 
ATOM     43  C   UNL A   1      38.640  32.153  32.763  1.00  0.00     0.029 A 
ATOM     44  C   UNL A   1      39.769  31.275  33.040  1.00  0.00     0.049 A 
ATOM     45  H   UNL A   1      40.777  30.033  31.703  1.00  0.00     0.167 HD
ATOM     46  C   UNL A   1      42.274  26.938  28.869  1.00  0.00     0.037 A 
ATOM     47  C   UNL A   1      40.363  31.133  34.235  1.00  0.00     0.037 A 
ATOM     48  C   UNL A   1      43.062  26.810  30.068  1.00  0.00     0.049 A 
ATOM     49  C   UNL A   1      41.483  30.147  34.359  1.00  0.00     0.074 A 
ATOM     50  C   UNL A   1      44.153  25.994  30.307  1.00  0.00     0.029 A 
ATOM     51  N   UNL A   1      42.828  27.520  31.241  1.00  0.00    -0.354 N 
ATOM     52  N   UNL A   1      41.954  29.323  33.455  1.00  0.00    -0.248 NA
ATOM     53  C   UNL A   1      42.156  30.071  35.659  1.00  0.00     0.031 C 
ATOM     54  C   UNL A   1      44.551  26.179  31.637  1.00  0.00     0.029 A 
ATOM     55  C   UNL A   1      43.740  27.145  32.215  1.00  0.00     0.049 A 
ATOM     56  H   UNL A   1      42.118  28.190  31.363  1.00  0.00     0.167 HD
ATOM     57  C   UNL A   1      42.991  28.639  34.066  1.00  0.00     0.074 A 
ATOM     58  C   UNL A   1      43.083  29.154  35.421  1.00  0.00     0.031 C 
ATOM     59  C   UNL A   1      43.798  27.678  33.554  1.00  0.00     0.037 A 
BRANCH  46  60
ATOM     60  C   UNL A   1      42.568  26.039  27.704  1.00  0.00     0.064 A 
ATOM     61  C   UNL A   1      41.900  24.819  27.521  1.00  0.00     0.173 A 
ATOM     62  C   UNL A   1      43.533  26.405  26.754  1.00  0.00     0.173 A 
ATOM     63  F   UNL A   1      40.978  24.414  28.407  1.00  0.00    -0.203 F 
ATOM     64  C   UNL A   1      42.212  23.984  26.449  1.00  0.00     0.198 A 
ATOM     65  C   UNL A   1      43.825  25.581  25.670  1.00  0.00     0.198 A 
ATOM     66  F   UNL A   1      44.201  27.562  26.879  1.00  0.00    -0.203 F 
ATOM     67  F   UNL A   1      41.599  22.800  26.324  1.00  0.00    -0.200 F 
ATOM     68  C   UNL A   1      43.170  24.367  25.523  1.00  0.00     0.200 A 
ATOM     69  F   UNL A   1      44.745  25.957  24.772  1.00  0.00    -0.200 F 
ATOM     70  F   UNL A   1      43.472  23.562  24.495  1.00  0.00    -0.200 F 
ENDBRANCH  46  60
BRANCH  47  71
ATOM     71  C   UNL A   1      39.874  31.938  35.379  1.00  0.00     0.064 A 
ATOM     72  C   UNL A   1      40.374  33.224  35.617  1.00  0.00     0.173 A 
ATOM     73  C   UNL A   1      38.825  31.481  36.192  1.00  0.00     0.173 A 
ATOM     74  F   UNL A   1      41.380  33.698  34.867  1.00  0.00    -0.203 F 
ATOM     75  C   UNL A   1      39.842  34.025  36.625  1.00  0.00     0.198 A 
ATOM     76  C   UNL A   1      38.278  32.291  37.184  1.00  0.00     0.198 A 
ATOM     77  F   UNL A   1      38.300  30.263  35.988  1.00  0.00    -0.203 F 
ATOM     78  F   UNL A   1      40.344  35.248  36.838  1.00  0.00    -0.200 F 
ATOM     79  C   UNL A   1      38.787  33.562  37.400  1.00  0.00     0.200 A 
ATOM     80  F   UNL A   1      37.245  31.849  37.914  1.00  0.00    -0.200 F 
ATOM     81  F   UNL A   1      38.260  34.344  38.350  1.00  0.00    -0.200 F 
ENDBRANCH  47  71
BRANCH  59  82
ATOM     82  C   UNL A   1      44.866  27.147  34.459  1.00  0.00     0.064 A 
ATOM     83  C   UNL A   1      46.121  27.764  34.553  1.00  0.00     0.173 A 
ATOM     84  C   UNL A   1      44.612  26.032  35.272  1.00  0.00     0.173 A 
ATOM     85  F   UNL A   1      46.413  28.820  33.780  1.00  0.00    -0.203 F 
ATOM     86  C   UNL A   1      47.092  27.272  35.420  1.00  0.00     0.198 A 
ATOM     87  C   UNL A   1      45.577  25.558  36.154  1.00  0.00     0.198 A 
ATOM     88  F   UNL A   1      43.424  25.412  35.215  1.00  0.00    -0.203 F 
ATOM     89  F   UNL A   1      48.300  27.852  35.468  1.00  0.00    -0.200 F 
ATOM     90  C   UNL A   1      46.817  26.176  36.224  1.00  0.00     0.200 A 
ATOM     91  F   UNL A   1      45.307  24.505  36.937  1.00  0.00    -0.200 F 
ATOM     92  F   UNL A   1      47.750  25.709  37.064  1.00  0.00    -0.200 F 
ENDBRANCH  59  82
ENDBRANCH  33  34
ENDBRANCH  26  28
ENDBRANCH  25  26
ENDBRANCH  24  25
ENDBRANCH   1  24
TORSDOF 17
ENDMDL
MODEL 3
REMARK VINA RESULT:     -11.0      5.108     10.054
REMARK SMILES CC(C)C[C@H](NC(=O)[C@](C)([NH3+])C(F)(F)F)C(=O)OCCOC(=O)c1ccc(-c2c3nc(c(-c4c(F)c(F)c(F)c(F)c4F)c4ccc([nH]4)c(-c4c(F)c(F)c(F)c(F)c4F)c4nc(c(-c5c(F)c(F)c(F)c(F)c5F)c5ccc2[nH]5)C=C4)C=C3)cc1
REMARK SMILES IDX 19 1 18 2 16 3 17 4 5 5 4 6 2 7 1 8 3 9 6 10 7 11 8 13 9 14
REMARK SMILES IDX 10 15 11 16 12 20 13 21 14 22 15 23 20 24 21 25 22 26 23 27
REMARK SMILES IDX 24 28 25 29 86 30 26 31 85 32 27 33 28 34 29 35 79 36 30 37
REMARK SMILES IDX 84 38 78 39 80 40 31 41 83 42 77 43 76 44 32 46 64 47 44 48
REMARK SMILES IDX 63 49 45 50 48 51 62 52 81 53 46 54 47 55 61 57 82 58 49 59
REMARK SMILES IDX 33 60 34 61 42 62 35 63 36 64 40 65 43 66 37 67 38 68 41 69
REMARK SMILES IDX 39 70 65 71 66 72 74 73 67 74 68 75 72 76 75 77 69 78 70 79
REMARK SMILES IDX 73 80 71 81 50 82 51 83 59 84 52 85 53 86 57 87 60 88 54 89
REMARK SMILES IDX 55 90 58 91 56 92
REMARK H PARENT 6 12 11 17 11 18 11 19 80 45 48 56
REMARK Flexibility Score: inf
ROOT
ATOM      1  C   UNL A   1      36.096  20.156  24.993  1.00  0.00     0.274 C 
ENDROOT
BRANCH   1   2
ATOM      2  O   UNL A   1      35.368  21.294  25.515  1.00  0.00    -0.461 OA
BRANCH   2   3
ATOM      3  C   UNL A   1      34.270  21.667  24.813  1.00  0.00     0.328 C 
ATOM      4  O   UNL A   1      34.300  22.467  23.877  1.00  0.00    -0.250 OA
BRANCH   3   5
ATOM      5  C   UNL A   1      32.946  21.000  25.266  1.00  0.00     0.192 C 
BRANCH   5   6
ATOM      6  C   UNL A   1      32.493  20.153  24.038  1.00  0.00     0.040 C 
BRANCH   6   7
ATOM      7  C   UNL A   1      32.330  18.641  24.299  1.00  0.00    -0.015 C 
ATOM      8  C   UNL A   1      33.101  17.774  23.306  1.00  0.00     0.007 C 
ATOM      9  C   UNL A   1      32.800  18.329  25.726  1.00  0.00     0.007 C 
ENDBRANCH   6   7
ENDBRANCH   5   6
BRANCH   5  10
ATOM     10  N   UNL A   1      31.768  21.766  25.762  1.00  0.00    -0.337 N 
ATOM     11  C   UNL A   1      31.777  22.986  26.371  1.00  0.00     0.291 C 
ATOM     12  H   UNL A   1      30.887  21.346  25.635  1.00  0.00     0.164 HD
ATOM     13  O   UNL A   1      31.754  22.958  27.613  1.00  0.00    -0.267 OA
BRANCH  11  14
ATOM     14  C   UNL A   1      31.570  24.349  25.638  1.00  0.00     0.267 C 
ATOM     15  C   UNL A   1      30.208  24.964  26.006  1.00  0.00     0.100 C 
BRANCH  14  16
ATOM     16  N   UNL A   1      31.345  23.979  24.165  1.00  0.00    -0.337 N 
ATOM     17  H   UNL A   1      30.647  24.601  23.760  1.00  0.00     0.345 HD
ATOM     18  H   UNL A   1      31.017  23.015  24.103  1.00  0.00     0.345 HD
ATOM     19  H   UNL A   1      32.222  24.072  23.653  1.00  0.00     0.345 HD
ENDBRANCH  14  16
BRANCH  14  20
ATOM     20  C   UNL A   1      32.778  25.319  25.791  1.00  0.00     0.453 C 
ATOM     21  F   UNL A   1      33.912  24.713  26.207  1.00  0.00    -0.164 F 
ATOM     22  F   UNL A   1      33.079  26.022  24.676  1.00  0.00    -0.164 F 
ATOM     23  F   UNL A   1      32.505  26.273  26.729  1.00  0.00    -0.164 F 
ENDBRANCH  14  20
ENDBRANCH  11  14
ENDBRANCH   5  10
ENDBRANCH   3   5
ENDBRANCH   2   3
ENDBRANCH   1   2
BRANCH   1  24
ATOM     24  C   UNL A   1      37.616  20.393  24.921  1.00  0.00     0.275 C 
BRANCH  24  25
ATOM     25  O   UNL A   1      38.078  21.491  25.735  1.00  0.00    -0.458 OA
BRANCH  25  26
ATOM     26  C   UNL A   1      39.325  21.330  26.218  1.00  0.00     0.338 C 
ATOM     27  O   UNL A   1      39.980  20.307  26.259  1.00  0.00    -0.246 OA
BRANCH  26  28
ATOM     28  C   UNL A   1      39.941  22.575  26.642  1.00  0.00     0.060 A 
ATOM     29  C   UNL A   1      40.877  22.495  27.679  1.00  0.00     0.016 A 
ATOM     30  C   UNL A   1      39.469  23.795  26.166  1.00  0.00     0.016 A 
ATOM     31  C   UNL A   1      41.379  23.658  28.236  1.00  0.00     0.010 A 
ATOM     32  C   UNL A   1      39.989  24.962  26.710  1.00  0.00     0.010 A 
ATOM     33  C   UNL A   1      40.958  24.892  27.728  1.00  0.00    -0.014 A 
BRANCH  33  34
ATOM     34  C   UNL A   1      41.644  26.126  28.139  1.00  0.00     0.031 A 
ATOM     35  C   UNL A   1      40.903  27.211  28.839  1.00  0.00     0.074 A 
ATOM     36  C   UNL A   1      42.922  26.265  27.750  1.00  0.00     0.049 A 
ATOM     37  N   UNL A   1      41.271  28.443  29.060  1.00  0.00    -0.248 NA
ATOM     38  C   UNL A   1      39.565  26.872  29.345  1.00  0.00     0.031 C 
ATOM     39  C   UNL A   1      43.708  25.233  27.068  1.00  0.00     0.029 A 
ATOM     40  N   UNL A   1      43.767  27.338  27.824  1.00  0.00    -0.354 N 
ATOM     41  C   UNL A   1      40.201  29.043  29.706  1.00  0.00     0.074 A 
ATOM     42  C   UNL A   1      39.167  28.036  29.841  1.00  0.00     0.031 C 
ATOM     43  C   UNL A   1      44.909  25.735  26.751  1.00  0.00     0.029 A 
ATOM     44  C   UNL A   1      44.947  27.134  27.155  1.00  0.00     0.049 A 
ATOM     45  H   UNL A   1      43.551  28.168  28.307  1.00  0.00     0.167 HD
ATOM     46  C   UNL A   1      40.105  30.325  30.130  1.00  0.00     0.037 A 
ATOM     47  C   UNL A   1      45.925  28.001  26.847  1.00  0.00     0.037 A 
ATOM     48  C   UNL A   1      41.157  31.296  29.969  1.00  0.00     0.049 A 
ATOM     49  C   UNL A   1      45.784  29.420  27.300  1.00  0.00     0.074 A 
ATOM     50  C   UNL A   1      41.193  32.614  30.386  1.00  0.00     0.029 A 
ATOM     51  N   UNL A   1      42.364  31.047  29.324  1.00  0.00    -0.354 N 
ATOM     52  N   UNL A   1      44.780  29.985  27.928  1.00  0.00    -0.248 NA
ATOM     53  C   UNL A   1      46.902  30.322  27.010  1.00  0.00     0.031 C 
ATOM     54  C   UNL A   1      42.402  33.174  29.955  1.00  0.00     0.029 A 
ATOM     55  C   UNL A   1      43.142  32.193  29.311  1.00  0.00     0.049 A 
ATOM     56  H   UNL A   1      42.627  30.184  28.932  1.00  0.00     0.167 HD
ATOM     57  C   UNL A   1      45.149  31.305  28.126  1.00  0.00     0.074 A 
ATOM     58  C   UNL A   1      46.476  31.452  27.555  1.00  0.00     0.031 C 
ATOM     59  C   UNL A   1      44.458  32.303  28.729  1.00  0.00     0.037 A 
BRANCH  46  60
ATOM     60  C   UNL A   1      38.809  30.750  30.756  1.00  0.00     0.064 A 
ATOM     61  C   UNL A   1      38.615  30.731  32.145  1.00  0.00     0.173 A 
ATOM     62  C   UNL A   1      37.745  31.185  29.953  1.00  0.00     0.173 A 
ATOM     63  F   UNL A   1      39.594  30.309  32.958  1.00  0.00    -0.203 F 
ATOM     64  C   UNL A   1      37.392  31.100  32.704  1.00  0.00     0.198 A 
ATOM     65  C   UNL A   1      36.533  31.578  30.515  1.00  0.00     0.198 A 
ATOM     66  F   UNL A   1      37.877  31.226  28.618  1.00  0.00    -0.203 F 
ATOM     67  F   UNL A   1      37.212  31.023  34.029  1.00  0.00    -0.200 F 
ATOM     68  C   UNL A   1      36.354  31.526  31.889  1.00  0.00     0.200 A 
ATOM     69  F   UNL A   1      35.534  31.997  29.726  1.00  0.00    -0.200 F 
ATOM     70  F   UNL A   1      35.177  31.876  32.426  1.00  0.00    -0.200 F 
ENDBRANCH  46  60
BRANCH  47  71
ATOM     71  C   UNL A   1      47.085  27.523  26.058  1.00  0.00     0.064 A 
ATOM     72  C   UNL A   1      47.108  27.658  24.665  1.00  0.00     0.173 A 
ATOM     73  C   UNL A   1      48.232  27.019  26.689  1.00  0.00     0.173 A 
ATOM     74  F   UNL A   1      46.031  28.130  24.021  1.00  0.00    -0.203 F 
ATOM     75  C   UNL A   1      48.239  27.308  23.930  1.00  0.00     0.198 A 
ATOM     76  C   UNL A   1      49.371  26.691  25.956  1.00  0.00     0.198 A 
ATOM     77  F   UNL A   1      48.263  26.891  28.024  1.00  0.00    -0.203 F 
ATOM     78  F   UNL A   1      48.235  27.438  22.597  1.00  0.00    -0.200 F 
ATOM     79  C   UNL A   1      49.373  26.836  24.577  1.00  0.00     0.200 A 
ATOM     80  F   UNL A   1      50.471  26.258  26.588  1.00  0.00    -0.200 F 
ATOM     81  F   UNL A   1      50.468  26.525  23.872  1.00  0.00    -0.200 F 
ENDBRANCH  47  71
BRANCH  59  82
ATOM     82  C   UNL A   1      45.143  33.630  28.825  1.00  0.00     0.064 A 
ATOM     83  C   UNL A   1      46.000  33.938  29.891  1.00  0.00     0.173 A 
ATOM     84  C   UNL A   1      44.971  34.587  27.814  1.00  0.00     0.173 A 
ATOM     85  F   UNL A   1      46.178  33.060  30.889  1.00  0.00    -0.203 F 
ATOM     86  C   UNL A   1      46.649  35.168  29.949  1.00  0.00     0.198 A 
ATOM     87  C   UNL A   1      45.640  35.805  27.864  1.00  0.00     0.198 A 
ATOM     88  F   UNL A   1      44.162  34.334  26.775  1.00  0.00    -0.203 F 
ATOM     89  F   UNL A   1      47.435  35.459  30.995  1.00  0.00    -0.200 F 
ATOM     90  C   UNL A   1      46.475  36.095  28.932  1.00  0.00     0.200 A 
ATOM     91  F   UNL A   1      45.479  36.697  26.877  1.00  0.00    -0.200 F 
ATOM     92  F   UNL A   1      47.108  37.275  28.986  1.00  0.00    -0.200 F 
ENDBRANCH  59  82
ENDBRANCH  33  34
ENDBRANCH  26  28
ENDBRANCH  25  26
ENDBRANCH  24  25
ENDBRANCH   1  24
TORSDOF 17
ENDMDL
