MODEL 1
REMARK VINA RESULT:     -11.1      0.000      0.000
REMARK SMILES O=C(CCC(=O)OCCOC(=O)c1ccc(-c2c3nc(c(-c4c(F)c(F)c(F)c(F)c4F)c4ccc([nH]4)c(-c4c(F)c(F)c(F)c(F)c4F)c4nc(c(-c5c(F)c(F)c(F)c(F)c5F)c5ccc2[nH]5)C=C4)C=C3)cc1)Nc1ncccn1
REMARK SMILES IDX 8 1 7 2 5 3 6 4 4 5 3 6 2 7 1 8 76 9 77 11 78 12 82 13 79 14
REMARK SMILES IDX 81 15 80 16 9 17 10 18 11 19 12 20 13 21 14 22 75 23 15 24
REMARK SMILES IDX 74 25 16 26 17 27 18 28 68 29 19 30 73 31 67 32 69 33 20 34
REMARK SMILES IDX 72 35 66 36 65 37 21 39 53 40 33 41 52 42 34 43 37 44 51 45
REMARK SMILES IDX 70 46 35 47 36 48 50 50 71 51 38 52 22 53 23 54 31 55 24 56
REMARK SMILES IDX 25 57 29 58 32 59 26 60 27 61 30 62 28 63 54 64 55 65 63 66
REMARK SMILES IDX 56 67 57 68 61 69 64 70 58 71 59 72 62 73 60 74 39 75 40 76
REMARK SMILES IDX 48 77 41 78 42 79 46 80 49 81 43 82 44 83 47 84 45 85
REMARK H PARENT 76 10 69 38 37 49
REMARK Flexibility Score: inf
ROOT
ATOM      1  C   UNL A   1      31.567  28.542  26.444  1.00  0.00     0.274 C 
ENDROOT
BRANCH   1   2
ATOM      2  O   UNL A   1      31.567  27.460  25.486  1.00  0.00    -0.462 OA
BRANCH   2   3
ATOM      3  C   UNL A   1      31.022  26.272  25.846  1.00  0.00     0.306 C 
ATOM      4  O   UNL A   1      31.319  25.650  26.857  1.00  0.00    -0.252 OA
BRANCH   3   5
ATOM      5  C   UNL A   1      30.038  25.758  24.810  1.00  0.00     0.132 C 
BRANCH   5   6
ATOM      6  C   UNL A   1      30.088  26.430  23.436  1.00  0.00     0.112 C 
BRANCH   6   7
ATOM      7  C   UNL A   1      29.122  27.601  23.324  1.00  0.00     0.227 C 
ATOM      8  O   UNL A   1      27.920  27.436  23.497  1.00  0.00    -0.275 OA
ATOM      9  N   UNL A   1      29.749  28.749  22.932  1.00  0.00    -0.295 N 
ATOM     10  H   UNL A   1      30.733  28.744  22.956  1.00  0.00     0.173 HD
BRANCH   9  11
ATOM     11  C   UNL A   1      29.151  29.917  22.508  1.00  0.00     0.229 A 
ATOM     12  N   UNL A   1      29.115  30.868  23.459  1.00  0.00    -0.221 NA
ATOM     13  N   UNL A   1      28.710  30.076  21.259  1.00  0.00    -0.221 NA
ATOM     14  C   UNL A   1      28.687  32.083  23.075  1.00  0.00     0.117 A 
ATOM     15  C   UNL A   1      28.222  31.290  20.945  1.00  0.00     0.117 A 
ATOM     16  C   UNL A   1      28.214  32.352  21.815  1.00  0.00     0.040 A 
ENDBRANCH   9  11
ENDBRANCH   6   7
ENDBRANCH   5   6
ENDBRANCH   3   5
ENDBRANCH   2   3
ENDBRANCH   1   2
BRANCH   1  17
ATOM     17  C   UNL A   1      31.728  29.891  25.740  1.00  0.00     0.275 C 
BRANCH  17  18
ATOM     18  O   UNL A   1      33.069  30.385  25.902  1.00  0.00    -0.458 OA
BRANCH  18  19
ATOM     19  C   UNL A   1      33.229  31.292  26.893  1.00  0.00     0.338 C 
ATOM     20  O   UNL A   1      32.436  32.144  27.249  1.00  0.00    -0.246 OA
BRANCH  19  21
ATOM     21  C   UNL A   1      34.491  31.013  27.588  1.00  0.00     0.060 A 
ATOM     22  C   UNL A   1      34.733  29.722  28.071  1.00  0.00     0.016 A 
ATOM     23  C   UNL A   1      35.413  32.038  27.791  1.00  0.00     0.016 A 
ATOM     24  C   UNL A   1      35.914  29.448  28.760  1.00  0.00     0.010 A 
ATOM     25  C   UNL A   1      36.594  31.761  28.478  1.00  0.00     0.010 A 
ATOM     26  C   UNL A   1      36.849  30.469  28.971  1.00  0.00    -0.014 A 
BRANCH  26  27
ATOM     27  C   UNL A   1      38.087  30.223  29.748  1.00  0.00     0.031 A 
ATOM     28  C   UNL A   1      39.125  29.294  29.191  1.00  0.00     0.074 A 
ATOM     29  C   UNL A   1      38.241  30.775  30.965  1.00  0.00     0.049 A 
ATOM     30  N   UNL A   1      40.175  28.778  29.776  1.00  0.00    -0.248 NA
ATOM     31  C   UNL A   1      38.951  28.881  27.789  1.00  0.00     0.031 C 
ATOM     32  C   UNL A   1      37.315  31.719  31.589  1.00  0.00     0.029 A 
ATOM     33  N   UNL A   1      39.221  30.593  31.909  1.00  0.00    -0.354 N 
ATOM     34  C   UNL A   1      40.765  27.953  28.828  1.00  0.00     0.074 A 
ATOM     35  C   UNL A   1      39.957  28.032  27.631  1.00  0.00     0.031 C 
ATOM     36  C   UNL A   1      37.758  32.015  32.823  1.00  0.00     0.029 A 
ATOM     37  C   UNL A   1      38.965  31.239  33.094  1.00  0.00     0.049 A 
ATOM     38  H   UNL A   1      40.028  30.051  31.752  1.00  0.00     0.167 HD
ATOM     39  C   UNL A   1      41.880  27.198  28.956  1.00  0.00     0.037 A 
ATOM     40  C   UNL A   1      39.608  31.172  34.276  1.00  0.00     0.037 A 
ATOM     41  C   UNL A   1      42.691  27.151  30.145  1.00  0.00     0.049 A 
ATOM     42  C   UNL A   1      40.819  30.283  34.401  1.00  0.00     0.074 A 
ATOM     43  C   UNL A   1      43.865  26.450  30.359  1.00  0.00     0.029 A 
ATOM     44  N   UNL A   1      42.409  27.833  31.319  1.00  0.00    -0.354 N 
ATOM     45  N   UNL A   1      41.387  29.523  33.496  1.00  0.00    -0.248 NA
ATOM     46  C   UNL A   1      41.476  30.236  35.716  1.00  0.00     0.031 C 
ATOM     47  C   UNL A   1      44.265  26.665  31.681  1.00  0.00     0.029 A 
ATOM     48  C   UNL A   1      43.374  27.548  32.271  1.00  0.00     0.049 A 
ATOM     49  H   UNL A   1      41.639  28.430  31.455  1.00  0.00     0.167 HD
ATOM     50  C   UNL A   1      42.489  28.948  34.116  1.00  0.00     0.074 A 
ATOM     51  C   UNL A   1      42.512  29.445  35.474  1.00  0.00     0.031 C 
ATOM     52  C   UNL A   1      43.400  28.084  33.606  1.00  0.00     0.037 A 
BRANCH  39  53
ATOM     53  C   UNL A   1      42.288  26.335  27.800  1.00  0.00     0.064 A 
ATOM     54  C   UNL A   1      43.281  26.731  26.893  1.00  0.00     0.173 A 
ATOM     55  C   UNL A   1      41.732  25.054  27.649  1.00  0.00     0.173 A 
ATOM     56  F   UNL A   1      43.834  27.949  26.988  1.00  0.00    -0.203 F 
ATOM     57  C   UNL A   1      43.697  25.880  25.873  1.00  0.00     0.198 A 
ATOM     58  C   UNL A   1      42.169  24.197  26.643  1.00  0.00     0.198 A 
ATOM     59  F   UNL A   1      40.780  24.626  28.492  1.00  0.00    -0.203 F 
ATOM     60  F   UNL A   1      44.630  26.288  25.001  1.00  0.00    -0.200 F 
ATOM     61  C   UNL A   1      43.150  24.610  25.756  1.00  0.00     0.200 A 
ATOM     62  F   UNL A   1      41.649  22.965  26.542  1.00  0.00    -0.200 F 
ATOM     63  F   UNL A   1      43.568  23.785  24.786  1.00  0.00    -0.200 F 
ENDBRANCH  39  53
BRANCH  40  64
ATOM     64  C   UNL A   1      39.108  31.936  35.451  1.00  0.00     0.064 A 
ATOM     65  C   UNL A   1      39.508  33.261  35.673  1.00  0.00     0.173 A 
ATOM     66  C   UNL A   1      38.264  31.343  36.402  1.00  0.00     0.173 A 
ATOM     67  F   UNL A   1      40.335  33.865  34.807  1.00  0.00    -0.203 F 
ATOM     68  C   UNL A   1      39.114  33.950  36.819  1.00  0.00     0.198 A 
ATOM     69  C   UNL A   1      37.842  32.044  37.529  1.00  0.00     0.198 A 
ATOM     70  F   UNL A   1      37.851  30.077  36.239  1.00  0.00    -0.203 F 
ATOM     71  F   UNL A   1      39.569  35.191  37.041  1.00  0.00    -0.200 F 
ATOM     72  C   UNL A   1      38.279  33.342  37.745  1.00  0.00     0.200 A 
ATOM     73  F   UNL A   1      37.025  31.458  38.415  1.00  0.00    -0.200 F 
ATOM     74  F   UNL A   1      37.908  34.003  38.850  1.00  0.00    -0.200 F 
ENDBRANCH  40  64
BRANCH  52  75
ATOM     75  C   UNL A   1      44.544  27.678  34.489  1.00  0.00     0.064 A 
ATOM     76  C   UNL A   1      45.720  28.436  34.574  1.00  0.00     0.173 A 
ATOM     77  C   UNL A   1      44.427  26.548  35.313  1.00  0.00     0.173 A 
ATOM     78  F   UNL A   1      45.885  29.516  33.796  1.00  0.00    -0.203 F 
ATOM     79  C   UNL A   1      46.745  28.068  35.440  1.00  0.00     0.198 A 
ATOM     80  C   UNL A   1      45.440  26.201  36.200  1.00  0.00     0.198 A 
ATOM     81  F   UNL A   1      43.317  25.794  35.275  1.00  0.00    -0.203 F 
ATOM     82  F   UNL A   1      47.877  28.783  35.479  1.00  0.00    -0.200 F 
ATOM     83  C   UNL A   1      46.601  26.957  36.259  1.00  0.00     0.200 A 
ATOM     84  F   UNL A   1      45.291  25.138  37.004  1.00  0.00    -0.200 F 
ATOM     85  F   UNL A   1      47.582  26.615  37.106  1.00  0.00    -0.200 F 
ENDBRANCH  52  75
ENDBRANCH  26  27
ENDBRANCH  19  21
ENDBRANCH  18  19
ENDBRANCH  17  18
ENDBRANCH   1  17
TORSDOF 14
ENDMDL
MODEL 2
REMARK VINA RESULT:     -10.9      4.491      9.769
REMARK SMILES O=C(CCC(=O)OCCOC(=O)c1ccc(-c2c3nc(c(-c4c(F)c(F)c(F)c(F)c4F)c4ccc([nH]4)c(-c4c(F)c(F)c(F)c(F)c4F)c4nc(c(-c5c(F)c(F)c(F)c(F)c5F)c5ccc2[nH]5)C=C4)C=C3)cc1)Nc1ncccn1
REMARK SMILES IDX 8 1 7 2 5 3 6 4 4 5 3 6 2 7 1 8 76 9 77 11 78 12 82 13 79 14
REMARK SMILES IDX 81 15 80 16 9 17 10 18 11 19 12 20 13 21 14 22 75 23 15 24
REMARK SMILES IDX 74 25 16 26 17 27 18 28 68 29 19 30 73 31 67 32 69 33 20 34
REMARK SMILES IDX 72 35 66 36 65 37 21 39 53 40 33 41 52 42 34 43 37 44 51 45
REMARK SMILES IDX 70 46 35 47 36 48 50 50 71 51 38 52 22 53 23 54 31 55 24 56
REMARK SMILES IDX 25 57 29 58 32 59 26 60 27 61 30 62 28 63 54 64 55 65 63 66
REMARK SMILES IDX 56 67 57 68 61 69 64 70 58 71 59 72 62 73 60 74 39 75 40 76
REMARK SMILES IDX 48 77 41 78 42 79 46 80 49 81 43 82 44 83 47 84 45 85
REMARK H PARENT 76 10 69 38 37 49
REMARK Flexibility Score: inf
ROOT
ATOM      1  C   UNL A   1      34.084  34.139  28.631  1.00  0.00     0.274 C 
ENDROOT
BRANCH   1   2
ATOM      2  O   UNL A   1      33.206  34.551  29.703  1.00  0.00    -0.462 OA
BRANCH   2   3
ATOM      3  C   UNL A   1      32.814  35.848  29.760  1.00  0.00     0.306 C 
ATOM      4  O   UNL A   1      32.295  36.458  28.835  1.00  0.00    -0.252 OA
BRANCH   3   5
ATOM      5  C   UNL A   1      33.153  36.488  31.094  1.00  0.00     0.132 C 
BRANCH   5   6
ATOM      6  C   UNL A   1      32.903  35.633  32.339  1.00  0.00     0.112 C 
BRANCH   6   7
ATOM      7  C   UNL A   1      34.195  35.176  33.000  1.00  0.00     0.227 C 
ATOM      8  O   UNL A   1      35.083  35.980  33.259  1.00  0.00    -0.275 OA
ATOM      9  N   UNL A   1      34.241  33.820  33.156  1.00  0.00    -0.295 N 
ATOM     10  H   UNL A   1      33.399  33.331  33.012  1.00  0.00     0.173 HD
BRANCH   9  11
ATOM     11  C   UNL A   1      35.341  33.061  33.492  1.00  0.00     0.229 A 
ATOM     12  N   UNL A   1      35.623  32.106  32.586  1.00  0.00    -0.221 NA
ATOM     13  N   UNL A   1      36.066  33.305  34.586  1.00  0.00    -0.221 NA
ATOM     14  C   UNL A   1      36.769  31.427  32.767  1.00  0.00     0.117 A 
ATOM     15  C   UNL A   1      37.164  32.548  34.760  1.00  0.00     0.117 A 
ATOM     16  C   UNL A   1      37.585  31.603  33.856  1.00  0.00     0.040 A 
ENDBRANCH   9  11
ENDBRANCH   6   7
ENDBRANCH   5   6
ENDBRANCH   3   5
ENDBRANCH   2   3
ENDBRANCH   1   2
BRANCH   1  17
ATOM     17  C   UNL A   1      33.704  32.747  28.123  1.00  0.00     0.275 C 
BRANCH  17  18
ATOM     18  O   UNL A   1      34.531  31.745  28.740  1.00  0.00    -0.458 OA
BRANCH  18  19
ATOM     19  C   UNL A   1      34.796  30.666  27.967  1.00  0.00     0.338 C 
ATOM     20  O   UNL A   1      34.135  30.244  27.037  1.00  0.00    -0.246 OA
BRANCH  19  21
ATOM     21  C   UNL A   1      36.109  30.128  28.344  1.00  0.00     0.060 A 
ATOM     22  C   UNL A   1      36.280  29.577  29.618  1.00  0.00     0.016 A 
ATOM     23  C   UNL A   1      37.173  30.205  27.447  1.00  0.00     0.016 A 
ATOM     24  C   UNL A   1      37.528  29.088  30.002  1.00  0.00     0.010 A 
ATOM     25  C   UNL A   1      38.420  29.714  27.833  1.00  0.00     0.010 A 
ATOM     26  C   UNL A   1      38.607  29.159  29.112  1.00  0.00    -0.014 A 
BRANCH  26  27
ATOM     27  C   UNL A   1      39.958  28.701  29.509  1.00  0.00     0.031 A 
ATOM     28  C   UNL A   1      40.824  29.610  30.331  1.00  0.00     0.074 A 
ATOM     29  C   UNL A   1      40.422  27.513  29.080  1.00  0.00     0.049 A 
ATOM     30  N   UNL A   1      42.097  29.507  30.618  1.00  0.00    -0.248 NA
ATOM     31  C   UNL A   1      40.173  30.803  30.896  1.00  0.00     0.031 C 
ATOM     32  C   UNL A   1      39.658  26.535  28.308  1.00  0.00     0.029 A 
ATOM     33  N   UNL A   1      41.665  26.944  29.206  1.00  0.00    -0.354 N 
ATOM     34  C   UNL A   1      42.405  30.637  31.363  1.00  0.00     0.074 A 
ATOM     35  C   UNL A   1      41.191  31.414  31.484  1.00  0.00     0.031 C 
ATOM     36  C   UNL A   1      40.455  25.496  28.007  1.00  0.00     0.029 A 
ATOM     37  C   UNL A   1      41.797  25.762  28.517  1.00  0.00     0.049 A 
ATOM     38  H   UNL A   1      42.392  27.343  29.738  1.00  0.00     0.167 HD
ATOM     39  C   UNL A   1      43.600  30.986  31.894  1.00  0.00     0.037 A 
ATOM     40  C   UNL A   1      42.890  25.009  28.285  1.00  0.00     0.037 A 
ATOM     41  C   UNL A   1      44.793  30.189  31.791  1.00  0.00     0.049 A 
ATOM     42  C   UNL A   1      44.216  25.452  28.848  1.00  0.00     0.074 A 
ATOM     43  C   UNL A   1      46.043  30.435  32.332  1.00  0.00     0.029 A 
ATOM     44  N   UNL A   1      44.883  28.990  31.100  1.00  0.00    -0.354 N 
ATOM     45  N   UNL A   1      44.499  26.507  29.573  1.00  0.00    -0.248 NA
ATOM     46  C   UNL A   1      45.380  24.601  28.556  1.00  0.00     0.031 C 
ATOM     47  C   UNL A   1      46.904  29.413  31.923  1.00  0.00     0.029 A 
ATOM     48  C   UNL A   1      46.176  28.498  31.179  1.00  0.00     0.049 A 
ATOM     49  H   UNL A   1      44.140  28.554  30.625  1.00  0.00     0.167 HD
ATOM     50  C   UNL A   1      45.855  26.423  29.861  1.00  0.00     0.074 A 
ATOM     51  C   UNL A   1      46.341  25.213  29.234  1.00  0.00     0.031 C 
ATOM     52  C   UNL A   1      46.630  27.271  30.579  1.00  0.00     0.037 A 
BRANCH  39  53
ATOM     53  C   UNL A   1      43.698  32.298  32.614  1.00  0.00     0.064 A 
ATOM     54  C   UNL A   1      43.987  33.493  31.940  1.00  0.00     0.173 A 
ATOM     55  C   UNL A   1      43.413  32.369  33.987  1.00  0.00     0.173 A 
ATOM     56  F   UNL A   1      44.277  33.477  30.631  1.00  0.00    -0.203 F 
ATOM     57  C   UNL A   1      43.996  34.710  32.616  1.00  0.00     0.198 A 
ATOM     58  C   UNL A   1      43.397  33.591  34.654  1.00  0.00     0.198 A 
ATOM     59  F   UNL A   1      43.127  31.255  34.677  1.00  0.00    -0.203 F 
ATOM     60  F   UNL A   1      44.301  35.838  31.959  1.00  0.00    -0.200 F 
ATOM     61  C   UNL A   1      43.690  34.760  33.969  1.00  0.00     0.200 A 
ATOM     62  F   UNL A   1      43.087  33.637  35.957  1.00  0.00    -0.200 F 
ATOM     63  F   UNL A   1      43.678  35.935  34.612  1.00  0.00    -0.200 F 
ENDBRANCH  39  53
BRANCH  40  64
ATOM     64  C   UNL A   1      42.796  23.779  27.455  1.00  0.00     0.064 A 
ATOM     65  C   UNL A   1      42.379  22.562  28.013  1.00  0.00     0.173 A 
ATOM     66  C   UNL A   1      43.170  23.779  26.103  1.00  0.00     0.173 A 
ATOM     67  F   UNL A   1      42.034  22.502  29.308  1.00  0.00    -0.203 F 
ATOM     68  C   UNL A   1      42.375  21.388  27.262  1.00  0.00     0.198 A 
ATOM     69  C   UNL A   1      43.132  22.613  25.343  1.00  0.00     0.198 A 
ATOM     70  F   UNL A   1      43.578  24.916  25.518  1.00  0.00    -0.203 F 
ATOM     71  F   UNL A   1      42.039  20.226  27.839  1.00  0.00    -0.200 F 
ATOM     72  C   UNL A   1      42.748  21.415  25.926  1.00  0.00     0.200 A 
ATOM     73  F   UNL A   1      43.482  22.645  24.050  1.00  0.00    -0.200 F 
ATOM     74  F   UNL A   1      42.753  20.284  25.207  1.00  0.00    -0.200 F 
ENDBRANCH  40  64
BRANCH  52  75
ATOM     75  C   UNL A   1      48.065  26.890  30.795  1.00  0.00     0.064 A 
ATOM     76  C   UNL A   1      49.090  27.358  29.962  1.00  0.00     0.173 A 
ATOM     77  C   UNL A   1      48.422  26.097  31.898  1.00  0.00     0.173 A 
ATOM     78  F   UNL A   1      48.798  28.106  28.888  1.00  0.00    -0.203 F 
ATOM     79  C   UNL A   1      50.420  27.034  30.215  1.00  0.00     0.198 A 
ATOM     80  C   UNL A   1      49.755  25.801  32.165  1.00  0.00     0.198 A 
ATOM     81  F   UNL A   1      47.479  25.631  32.731  1.00  0.00    -0.203 F 
ATOM     82  F   UNL A   1      51.381  27.459  29.384  1.00  0.00    -0.200 F 
ATOM     83  C   UNL A   1      50.752  26.264  31.321  1.00  0.00     0.200 A 
ATOM     84  F   UNL A   1      50.074  25.073  33.244  1.00  0.00    -0.200 F 
ATOM     85  F   UNL A   1      52.035  25.968  31.572  1.00  0.00    -0.200 F 
ENDBRANCH  52  75
ENDBRANCH  26  27
ENDBRANCH  19  21
ENDBRANCH  18  19
ENDBRANCH  17  18
ENDBRANCH   1  17
TORSDOF 14
ENDMDL
MODEL 3
REMARK VINA RESULT:     -10.8      5.371     10.816
REMARK SMILES O=C(CCC(=O)OCCOC(=O)c1ccc(-c2c3nc(c(-c4c(F)c(F)c(F)c(F)c4F)c4ccc([nH]4)c(-c4c(F)c(F)c(F)c(F)c4F)c4nc(c(-c5c(F)c(F)c(F)c(F)c5F)c5ccc2[nH]5)C=C4)C=C3)cc1)Nc1ncccn1
REMARK SMILES IDX 8 1 7 2 5 3 6 4 4 5 3 6 2 7 1 8 76 9 77 11 78 12 82 13 79 14
REMARK SMILES IDX 81 15 80 16 9 17 10 18 11 19 12 20 13 21 14 22 75 23 15 24
REMARK SMILES IDX 74 25 16 26 17 27 18 28 68 29 19 30 73 31 67 32 69 33 20 34
REMARK SMILES IDX 72 35 66 36 65 37 21 39 53 40 33 41 52 42 34 43 37 44 51 45
REMARK SMILES IDX 70 46 35 47 36 48 50 50 71 51 38 52 22 53 23 54 31 55 24 56
REMARK SMILES IDX 25 57 29 58 32 59 26 60 27 61 30 62 28 63 54 64 55 65 63 66
REMARK SMILES IDX 56 67 57 68 61 69 64 70 58 71 59 72 62 73 60 74 39 75 40 76
REMARK SMILES IDX 48 77 41 78 42 79 46 80 49 81 43 82 44 83 47 84 45 85
REMARK H PARENT 76 10 69 38 37 49
REMARK Flexibility Score: inf
ROOT
ATOM      1  C   UNL A   1      41.190  19.681  26.033  1.00  0.00     0.274 C 
ENDROOT
BRANCH   1   2
ATOM      2  O   UNL A   1      42.410  19.291  25.365  1.00  0.00    -0.462 OA
BRANCH   2   3
ATOM      3  C   UNL A   1      43.182  18.329  25.928  1.00  0.00     0.306 C 
ATOM      4  O   UNL A   1      42.774  17.483  26.712  1.00  0.00    -0.252 OA
BRANCH   3   5
ATOM      5  C   UNL A   1      44.640  18.460  25.526  1.00  0.00     0.132 C 
BRANCH   5   6
ATOM      6  C   UNL A   1      44.924  19.279  24.266  1.00  0.00     0.112 C 
BRANCH   6   7
ATOM      7  C   UNL A   1      45.978  20.353  24.494  1.00  0.00     0.227 C 
ATOM      8  O   UNL A   1      47.166  20.058  24.560  1.00  0.00    -0.275 OA
ATOM      9  N   UNL A   1      45.423  21.584  24.696  1.00  0.00    -0.295 N 
ATOM     10  H   UNL A   1      44.465  21.675  24.487  1.00  0.00     0.173 HD
BRANCH   9  11
ATOM     11  C   UNL A   1      46.060  22.715  25.161  1.00  0.00     0.229 A 
ATOM     12  N   UNL A   1      46.469  23.535  24.174  1.00  0.00    -0.221 NA
ATOM     13  N   UNL A   1      46.196  22.970  26.463  1.00  0.00    -0.221 NA
ATOM     14  C   UNL A   1      46.960  24.728  24.551  1.00  0.00     0.117 A 
ATOM     15  C   UNL A   1      46.761  24.146  26.788  1.00  0.00     0.117 A 
ATOM     16  C   UNL A   1      47.139  25.088  25.863  1.00  0.00     0.040 A 
ENDBRANCH   9  11
ENDBRANCH   6   7
ENDBRANCH   5   6
ENDBRANCH   3   5
ENDBRANCH   2   3
ENDBRANCH   1   2
BRANCH   1  17
ATOM     17  C   UNL A   1      41.088  21.205  26.131  1.00  0.00     0.275 C 
BRANCH  17  18
ATOM     18  O   UNL A   1      42.395  21.787  26.277  1.00  0.00    -0.458 OA
BRANCH  18  19
ATOM     19  C   UNL A   1      42.586  22.942  25.600  1.00  0.00     0.338 C 
ATOM     20  O   UNL A   1      42.757  23.075  24.402  1.00  0.00    -0.246 OA
BRANCH  19  21
ATOM     21  C   UNL A   1      42.431  24.066  26.530  1.00  0.00     0.060 A 
ATOM     22  C   UNL A   1      41.586  23.924  27.636  1.00  0.00     0.016 A 
ATOM     23  C   UNL A   1      43.093  25.268  26.284  1.00  0.00     0.016 A 
ATOM     24  C   UNL A   1      41.405  24.993  28.513  1.00  0.00     0.010 A 
ATOM     25  C   UNL A   1      42.912  26.334  27.163  1.00  0.00     0.010 A 
ATOM     26  C   UNL A   1      42.063  26.206  28.278  1.00  0.00    -0.014 A 
BRANCH  26  27
ATOM     27  C   UNL A   1      41.847  27.377  29.159  1.00  0.00     0.031 A 
ATOM     28  C   UNL A   1      42.741  27.571  30.348  1.00  0.00     0.074 A 
ATOM     29  C   UNL A   1      40.820  28.215  28.929  1.00  0.00     0.049 A 
ATOM     30  N   UNL A   1      42.613  28.394  31.357  1.00  0.00    -0.248 NA
ATOM     31  C   UNL A   1      43.935  26.712  30.418  1.00  0.00     0.031 C 
ATOM     32  C   UNL A   1      39.910  28.144  27.787  1.00  0.00     0.029 A 
ATOM     33  N   UNL A   1      40.348  29.271  29.668  1.00  0.00    -0.354 N 
ATOM     34  C   UNL A   1      43.686  28.128  32.197  1.00  0.00     0.074 A 
ATOM     35  C   UNL A   1      44.455  27.066  31.585  1.00  0.00     0.031 C 
ATOM     36  C   UNL A   1      38.974  29.100  27.913  1.00  0.00     0.029 A 
ATOM     37  C   UNL A   1      39.187  29.811  29.170  1.00  0.00     0.049 A 
ATOM     38  H   UNL A   1      40.798  29.609  30.476  1.00  0.00     0.167 HD
ATOM     39  C   UNL A   1      43.993  28.722  33.373  1.00  0.00     0.037 A 
ATOM     40  C   UNL A   1      38.366  30.741  29.697  1.00  0.00     0.037 A 
ATOM     41  C   UNL A   1      43.235  29.797  33.956  1.00  0.00     0.049 A 
ATOM     42  C   UNL A   1      38.709  31.347  31.034  1.00  0.00     0.074 A 
ATOM     43  C   UNL A   1      43.489  30.495  35.124  1.00  0.00     0.029 A 
ATOM     44  N   UNL A   1      42.075  30.329  33.414  1.00  0.00    -0.354 N 
ATOM     45  N   UNL A   1      39.737  31.111  31.812  1.00  0.00    -0.248 NA
ATOM     46  C   UNL A   1      37.773  32.348  31.570  1.00  0.00     0.031 C 
ATOM     47  C   UNL A   1      42.452  31.413  35.317  1.00  0.00     0.029 A 
ATOM     48  C   UNL A   1      41.586  31.329  34.238  1.00  0.00     0.049 A 
ATOM     49  H   UNL A   1      41.661  30.039  32.570  1.00  0.00     0.167 HD
ATOM     50  C   UNL A   1      39.596  31.961  32.901  1.00  0.00     0.074 A 
ATOM     51  C   UNL A   1      38.385  32.721  32.685  1.00  0.00     0.031 C 
ATOM     52  C   UNL A   1      40.398  32.101  33.985  1.00  0.00     0.037 A 
BRANCH  39  53
ATOM     53  C   UNL A   1      45.181  28.213  34.134  1.00  0.00     0.064 A 
ATOM     54  C   UNL A   1      45.079  27.153  35.046  1.00  0.00     0.173 A 
ATOM     55  C   UNL A   1      46.457  28.743  33.880  1.00  0.00     0.173 A 
ATOM     56  F   UNL A   1      43.881  26.621  35.331  1.00  0.00    -0.203 F 
ATOM     57  C   UNL A   1      46.209  26.647  35.682  1.00  0.00     0.198 A 
ATOM     58  C   UNL A   1      47.587  28.216  34.499  1.00  0.00     0.198 A 
ATOM     59  F   UNL A   1      46.609  29.755  33.014  1.00  0.00    -0.203 F 
ATOM     60  F   UNL A   1      46.087  25.650  36.570  1.00  0.00    -0.200 F 
ATOM     61  C   UNL A   1      47.463  27.171  35.400  1.00  0.00     0.200 A 
ATOM     62  F   UNL A   1      48.798  28.715  34.213  1.00  0.00    -0.200 F 
ATOM     63  F   UNL A   1      48.552  26.667  35.998  1.00  0.00    -0.200 F 
ENDBRANCH  39  53
BRANCH  40  64
ATOM     64  C   UNL A   1      37.120  31.135  28.987  1.00  0.00     0.064 A 
ATOM     65  C   UNL A   1      36.960  32.431  28.474  1.00  0.00     0.173 A 
ATOM     66  C   UNL A   1      36.043  30.246  28.852  1.00  0.00     0.173 A 
ATOM     67  F   UNL A   1      37.951  33.327  28.600  1.00  0.00    -0.203 F 
ATOM     68  C   UNL A   1      35.762  32.832  27.888  1.00  0.00     0.198 A 
ATOM     69  C   UNL A   1      34.857  30.637  28.235  1.00  0.00     0.198 A 
ATOM     70  F   UNL A   1      36.141  28.994  29.325  1.00  0.00    -0.203 F 
ATOM     71  F   UNL A   1      35.612  34.096  27.470  1.00  0.00    -0.200 F 
ATOM     72  C   UNL A   1      34.712  31.933  27.766  1.00  0.00     0.200 A 
ATOM     73  F   UNL A   1      33.850  29.763  28.107  1.00  0.00    -0.200 F 
ATOM     74  F   UNL A   1      33.556  32.323  27.210  1.00  0.00    -0.200 F 
ENDBRANCH  40  64
BRANCH  52  75
ATOM     75  C   UNL A   1      40.041  33.162  34.984  1.00  0.00     0.064 A 
ATOM     76  C   UNL A   1      39.292  32.875  36.133  1.00  0.00     0.173 A 
ATOM     77  C   UNL A   1      40.518  34.472  34.818  1.00  0.00     0.173 A 
ATOM     78  F   UNL A   1      38.801  31.643  36.329  1.00  0.00    -0.203 F 
ATOM     79  C   UNL A   1      39.018  33.866  37.072  1.00  0.00     0.198 A 
ATOM     80  C   UNL A   1      40.270  35.451  35.773  1.00  0.00     0.198 A 
ATOM     81  F   UNL A   1      41.248  34.794  33.738  1.00  0.00    -0.203 F 
ATOM     82  F   UNL A   1      38.267  33.582  38.144  1.00  0.00    -0.200 F 
ATOM     83  C   UNL A   1      39.515  35.150  36.896  1.00  0.00     0.200 A 
ATOM     84  F   UNL A   1      40.767  36.685  35.611  1.00  0.00    -0.200 F 
ATOM     85  F   UNL A   1      39.266  36.097  37.811  1.00  0.00    -0.200 F 
ENDBRANCH  52  75
ENDBRANCH  26  27
ENDBRANCH  19  21
ENDBRANCH  18  19
ENDBRANCH  17  18
ENDBRANCH   1  17
TORSDOF 14
ENDMDL
