MODEL 1
REMARK VINA RESULT:     -12.3      0.000      0.000
REMARK SMILES C/C(=N/OCc1ccccc1Nc1c(Cl)cccc1Cl)C(=O)OCCOC(=O)c1ccc(-c2c3nc(c(-c4c(F)c(F)c(F)c(F)c4F)c4ccc([nH]4)c(-c4c(F)c(F)c(F)c(F)c4F)c4nc(c(-c5c(F)c(F)c(F)c(F)c5F)c5ccc2[nH]5)C=C4)C=C3)cc1
REMARK SMILES IDX 23 1 21 2 22 3 2 4 1 5 3 6 4 7 5 8 6 9 7 10 11 11 8 12 10 13
REMARK SMILES IDX 9 14 12 15 13 17 14 18 19 19 15 20 16 21 18 22 20 23 17 24
REMARK SMILES IDX 24 25 25 26 26 27 27 28 28 29 29 30 30 31 91 32 31 33 90 34
REMARK SMILES IDX 32 35 33 36 34 37 84 38 35 39 89 40 83 41 85 42 36 43 88 44
REMARK SMILES IDX 82 45 81 46 37 48 69 49 49 50 68 51 50 52 53 53 67 54 86 55
REMARK SMILES IDX 51 56 52 57 66 59 87 60 54 61 38 62 39 63 47 64 40 65 41 66
REMARK SMILES IDX 45 67 48 68 42 69 43 70 46 71 44 72 70 73 71 74 79 75 72 76
REMARK SMILES IDX 73 77 77 78 80 79 74 80 75 81 78 82 76 83 55 84 56 85 64 86
REMARK SMILES IDX 57 87 58 88 62 89 65 90 59 91 60 92 63 93 61 94
REMARK H PARENT 12 16 85 47 53 58
REMARK Flexibility Score: inf
ROOT
ATOM      1  O   UNL A   1      32.453  27.317  26.210  1.00  0.00    -0.458 OA
ENDROOT
BRANCH   1   2
ATOM      2  C   UNL A   1      31.907  26.088  26.142  1.00  0.00     0.355 C 
ATOM      3  O   UNL A   1      31.047  25.620  26.871  1.00  0.00    -0.245 OA
BRANCH   2   4
ATOM      4  C   UNL A   1      32.406  25.323  24.922  1.00  0.00     0.161 C 
ATOM      5  C   UNL A   1      31.635  25.509  23.646  1.00  0.00     0.079 C 
ATOM      6  N   UNL A   1      33.432  24.529  24.901  1.00  0.00    -0.084 NA
BRANCH   6   7
ATOM      7  O   UNL A   1      33.975  24.332  26.174  1.00  0.00    -0.390 OA
BRANCH   7   8
ATOM      8  C   UNL A   1      34.047  22.922  26.412  1.00  0.00     0.302 C 
BRANCH   8   9
ATOM      9  C   UNL A   1      35.354  22.352  25.895  1.00  0.00     0.016 A 
ATOM     10  C   UNL A   1      36.465  23.222  25.877  1.00  0.00     0.009 A 
ATOM     11  C   UNL A   1      35.506  21.013  25.465  1.00  0.00     0.045 A 
ATOM     12  C   UNL A   1      37.713  22.790  25.441  1.00  0.00     0.001 A 
ATOM     13  C   UNL A   1      36.773  20.611  25.012  1.00  0.00     0.026 A 
ATOM     14  C   UNL A   1      37.866  21.484  25.001  1.00  0.00     0.002 A 
BRANCH  11  15
ATOM     15  N   UNL A   1      34.435  20.095  25.542  1.00  0.00    -0.353 N 
ATOM     16  H   UNL A   1      34.066  19.981  26.448  1.00  0.00     0.167 HD
BRANCH  15  17
ATOM     17  C   UNL A   1      33.797  19.309  24.551  1.00  0.00     0.076 A 
ATOM     18  C   UNL A   1      32.739  19.887  23.812  1.00  0.00     0.066 A 
ATOM     19  C   UNL A   1      34.182  18.000  24.203  1.00  0.00     0.066 A 
ATOM     20  Cl  UNL A   1      32.156  21.475  24.200  1.00  0.00    -0.082 Cl
ATOM     21  C   UNL A   1      32.127  19.214  22.751  1.00  0.00     0.023 A 
ATOM     22  C   UNL A   1      33.570  17.329  23.133  1.00  0.00     0.023 A 
ATOM     23  Cl  UNL A   1      35.332  17.092  25.128  1.00  0.00    -0.082 Cl
ATOM     24  C   UNL A   1      32.554  17.938  22.401  1.00  0.00     0.003 A 
ENDBRANCH  15  17
ENDBRANCH  11  15
ENDBRANCH   8   9
ENDBRANCH   7   8
ENDBRANCH   6   7
ENDBRANCH   2   4
ENDBRANCH   1   2
BRANCH   1  25
ATOM     25  C   UNL A   1      31.798  28.291  27.044  1.00  0.00     0.275 C 
BRANCH  25  26
ATOM     26  C   UNL A   1      31.698  29.629  26.310  1.00  0.00     0.275 C 
BRANCH  26  27
ATOM     27  O   UNL A   1      33.011  30.177  26.086  1.00  0.00    -0.458 OA
BRANCH  27  28
ATOM     28  C   UNL A   1      33.343  31.196  26.908  1.00  0.00     0.338 C 
ATOM     29  O   UNL A   1      32.647  32.126  27.272  1.00  0.00    -0.246 OA
BRANCH  28  30
ATOM     30  C   UNL A   1      34.678  30.954  27.463  1.00  0.00     0.060 A 
ATOM     31  C   UNL A   1      35.063  29.628  27.649  1.00  0.00     0.016 A 
ATOM     32  C   UNL A   1      35.475  31.998  27.925  1.00  0.00     0.016 A 
ATOM     33  C   UNL A   1      36.204  29.327  28.380  1.00  0.00     0.010 A 
ATOM     34  C   UNL A   1      36.660  31.696  28.605  1.00  0.00     0.010 A 
ATOM     35  C   UNL A   1      37.013  30.359  28.870  1.00  0.00    -0.014 A 
BRANCH  35  36
ATOM     36  C   UNL A   1      38.193  30.032  29.709  1.00  0.00     0.031 A 
ATOM     37  C   UNL A   1      39.277  29.146  29.163  1.00  0.00     0.074 A 
ATOM     38  C   UNL A   1      38.312  30.558  30.942  1.00  0.00     0.049 A 
ATOM     39  N   UNL A   1      40.314  28.630  29.773  1.00  0.00    -0.248 NA
ATOM     40  C   UNL A   1      39.177  28.783  27.741  1.00  0.00     0.031 C 
ATOM     41  C   UNL A   1      37.361  31.480  31.564  1.00  0.00     0.029 A 
ATOM     42  N   UNL A   1      39.289  30.396  31.893  1.00  0.00    -0.354 N 
ATOM     43  C   UNL A   1      40.960  27.847  28.826  1.00  0.00     0.074 A 
ATOM     44  C   UNL A   1      40.200  27.952  27.599  1.00  0.00     0.031 C 
ATOM     45  C   UNL A   1      37.812  31.821  32.782  1.00  0.00     0.029 A 
ATOM     46  C   UNL A   1      39.045  31.089  33.053  1.00  0.00     0.049 A 
ATOM     47  H   UNL A   1      40.088  29.839  31.755  1.00  0.00     0.167 HD
ATOM     48  C   UNL A   1      42.086  27.107  28.971  1.00  0.00     0.037 A 
ATOM     49  C   UNL A   1      39.719  31.104  34.217  1.00  0.00     0.037 A 
ATOM     50  C   UNL A   1      42.864  27.045  30.180  1.00  0.00     0.049 A 
ATOM     51  C   UNL A   1      40.953  30.256  34.360  1.00  0.00     0.074 A 
ATOM     52  C   UNL A   1      44.019  26.325  30.430  1.00  0.00     0.029 A 
ATOM     53  N   UNL A   1      42.572  27.746  31.341  1.00  0.00    -0.354 N 
ATOM     54  N   UNL A   1      41.525  29.474  33.477  1.00  0.00    -0.248 NA
ATOM     55  C   UNL A   1      41.625  30.281  35.666  1.00  0.00     0.031 C 
ATOM     56  C   UNL A   1      44.411  26.568  31.751  1.00  0.00     0.029 A 
ATOM     57  C   UNL A   1      43.522  27.471  32.311  1.00  0.00     0.049 A 
ATOM     58  H   UNL A   1      41.804  28.352  31.458  1.00  0.00     0.167 HD
ATOM     59  C   UNL A   1      42.630  28.926  34.113  1.00  0.00     0.074 A 
ATOM     60  C   UNL A   1      42.659  29.480  35.452  1.00  0.00     0.031 C 
ATOM     61  C   UNL A   1      43.537  28.041  33.634  1.00  0.00     0.037 A 
BRANCH  48  62
ATOM     62  C   UNL A   1      42.524  26.277  27.802  1.00  0.00     0.064 A 
ATOM     63  C   UNL A   1      43.511  26.715  26.908  1.00  0.00     0.173 A 
ATOM     64  C   UNL A   1      41.965  25.006  27.592  1.00  0.00     0.173 A 
ATOM     65  F   UNL A   1      44.065  27.929  27.056  1.00  0.00    -0.203 F 
ATOM     66  C   UNL A   1      43.907  25.922  25.833  1.00  0.00     0.198 A 
ATOM     67  C   UNL A   1      42.380  24.206  26.532  1.00  0.00     0.198 A 
ATOM     68  F   UNL A   1      41.019  24.538  28.420  1.00  0.00    -0.203 F 
ATOM     69  F   UNL A   1      44.822  26.378  24.967  1.00  0.00    -0.200 F 
ATOM     70  C   UNL A   1      43.346  24.666  25.650  1.00  0.00     0.200 A 
ATOM     71  F   UNL A   1      41.845  22.989  26.363  1.00  0.00    -0.200 F 
ATOM     72  F   UNL A   1      43.732  23.902  24.618  1.00  0.00    -0.200 F 
ENDBRANCH  48  62
BRANCH  49  73
ATOM     73  C   UNL A   1      39.225  31.931  35.347  1.00  0.00     0.064 A 
ATOM     74  C   UNL A   1      39.540  33.293  35.436  1.00  0.00     0.173 A 
ATOM     75  C   UNL A   1      38.423  31.379  36.356  1.00  0.00     0.173 A 
ATOM     76  F   UNL A   1      40.325  33.861  34.508  1.00  0.00    -0.203 F 
ATOM     77  C   UNL A   1      39.080  34.069  36.498  1.00  0.00     0.198 A 
ATOM     78  C   UNL A   1      37.940  32.162  37.402  1.00  0.00     0.198 A 
ATOM     79  F   UNL A   1      38.094  30.079  36.317  1.00  0.00    -0.203 F 
ATOM     80  F   UNL A   1      39.428  35.361  36.581  1.00  0.00    -0.200 F 
ATOM     81  C   UNL A   1      38.274  33.505  37.475  1.00  0.00     0.200 A 
ATOM     82  F   UNL A   1      37.152  31.614  38.337  1.00  0.00    -0.200 F 
ATOM     83  F   UNL A   1      37.827  34.253  38.492  1.00  0.00    -0.200 F 
ENDBRANCH  49  73
BRANCH  61  84
ATOM     84  C   UNL A   1      44.654  27.645  34.551  1.00  0.00     0.064 A 
ATOM     85  C   UNL A   1      44.566  26.504  35.363  1.00  0.00     0.173 A 
ATOM     86  C   UNL A   1      45.836  28.398  34.596  1.00  0.00     0.173 A 
ATOM     87  F   UNL A   1      43.448  25.763  35.367  1.00  0.00    -0.203 F 
ATOM     88  C   UNL A   1      45.615  26.145  36.204  1.00  0.00     0.198 A 
ATOM     89  C   UNL A   1      46.893  28.021  35.419  1.00  0.00     0.198 A 
ATOM     90  F   UNL A   1      45.968  29.493  33.833  1.00  0.00    -0.203 F 
ATOM     91  F   UNL A   1      45.495  25.075  37.003  1.00  0.00    -0.200 F 
ATOM     92  C   UNL A   1      46.779  26.899  36.227  1.00  0.00     0.200 A 
ATOM     93  F   UNL A   1      48.020  28.745  35.434  1.00  0.00    -0.200 F 
ATOM     94  F   UNL A   1      47.789  26.549  37.035  1.00  0.00    -0.200 F 
ENDBRANCH  61  84
ENDBRANCH  35  36
ENDBRANCH  28  30
ENDBRANCH  27  28
ENDBRANCH  26  27
ENDBRANCH  25  26
ENDBRANCH   1  25
TORSDOF 16
ENDMDL
MODEL 2
REMARK VINA RESULT:     -12.1      4.393      9.988
REMARK SMILES C/C(=N/OCc1ccccc1Nc1c(Cl)cccc1Cl)C(=O)OCCOC(=O)c1ccc(-c2c3nc(c(-c4c(F)c(F)c(F)c(F)c4F)c4ccc([nH]4)c(-c4c(F)c(F)c(F)c(F)c4F)c4nc(c(-c5c(F)c(F)c(F)c(F)c5F)c5ccc2[nH]5)C=C4)C=C3)cc1
REMARK SMILES IDX 23 1 21 2 22 3 2 4 1 5 3 6 4 7 5 8 6 9 7 10 11 11 8 12 10 13
REMARK SMILES IDX 9 14 12 15 13 17 14 18 19 19 15 20 16 21 18 22 20 23 17 24
REMARK SMILES IDX 24 25 25 26 26 27 27 28 28 29 29 30 30 31 91 32 31 33 90 34
REMARK SMILES IDX 32 35 33 36 34 37 84 38 35 39 89 40 83 41 85 42 36 43 88 44
REMARK SMILES IDX 82 45 81 46 37 48 69 49 49 50 68 51 50 52 53 53 67 54 86 55
REMARK SMILES IDX 51 56 52 57 66 59 87 60 54 61 38 62 39 63 47 64 40 65 41 66
REMARK SMILES IDX 45 67 48 68 42 69 43 70 46 71 44 72 70 73 71 74 79 75 72 76
REMARK SMILES IDX 73 77 77 78 80 79 74 80 75 81 78 82 76 83 55 84 56 85 64 86
REMARK SMILES IDX 57 87 58 88 62 89 65 90 59 91 60 92 63 93 61 94
REMARK H PARENT 12 16 85 47 53 58
REMARK Flexibility Score: inf
ROOT
ATOM      1  O   UNL A   1      35.359  23.225  24.325  1.00  0.00    -0.458 OA
ENDROOT
BRANCH   1   2
ATOM      2  C   UNL A   1      34.426  23.899  23.626  1.00  0.00     0.355 C 
ATOM      3  O   UNL A   1      34.408  24.099  22.422  1.00  0.00    -0.245 OA
BRANCH   2   4
ATOM      4  C   UNL A   1      33.258  24.317  24.511  1.00  0.00     0.161 C 
ATOM      5  C   UNL A   1      32.202  23.280  24.769  1.00  0.00     0.079 C 
ATOM      6  N   UNL A   1      33.105  25.487  25.051  1.00  0.00    -0.084 NA
BRANCH   6   7
ATOM      7  O   UNL A   1      34.076  26.398  24.622  1.00  0.00    -0.390 OA
BRANCH   7   8
ATOM      8  C   UNL A   1      33.405  27.523  24.045  1.00  0.00     0.302 C 
BRANCH   8   9
ATOM      9  C   UNL A   1      33.102  28.572  25.098  1.00  0.00     0.016 A 
ATOM     10  C   UNL A   1      33.934  28.587  26.238  1.00  0.00     0.009 A 
ATOM     11  C   UNL A   1      32.064  29.524  24.975  1.00  0.00     0.045 A 
ATOM     12  C   UNL A   1      33.753  29.523  27.251  1.00  0.00     0.001 A 
ATOM     13  C   UNL A   1      31.894  30.445  26.023  1.00  0.00     0.026 A 
ATOM     14  C   UNL A   1      32.726  30.449  27.146  1.00  0.00     0.002 A 
BRANCH  11  15
ATOM     15  N   UNL A   1      31.264  29.587  23.814  1.00  0.00    -0.353 N 
ATOM     16  H   UNL A   1      31.752  29.851  23.000  1.00  0.00     0.167 HD
BRANCH  15  17
ATOM     17  C   UNL A   1      29.885  29.337  23.607  1.00  0.00     0.076 A 
ATOM     18  C   UNL A   1      29.008  30.441  23.502  1.00  0.00     0.066 A 
ATOM     19  C   UNL A   1      29.325  28.055  23.438  1.00  0.00     0.066 A 
ATOM     20  Cl  UNL A   1      29.591  32.057  23.747  1.00  0.00    -0.082 Cl
ATOM     21  C   UNL A   1      27.653  30.281  23.197  1.00  0.00     0.023 A 
ATOM     22  C   UNL A   1      27.965  27.897  23.126  1.00  0.00     0.023 A 
ATOM     23  Cl  UNL A   1      30.227  26.602  23.717  1.00  0.00    -0.082 Cl
ATOM     24  C   UNL A   1      27.134  29.007  22.995  1.00  0.00     0.003 A 
ENDBRANCH  15  17
ENDBRANCH  11  15
ENDBRANCH   8   9
ENDBRANCH   7   8
ENDBRANCH   6   7
ENDBRANCH   2   4
ENDBRANCH   1   2
BRANCH   1  25
ATOM     25  C   UNL A   1      36.469  22.672  23.595  1.00  0.00     0.275 C 
BRANCH  25  26
ATOM     26  C   UNL A   1      37.029  21.454  24.332  1.00  0.00     0.275 C 
BRANCH  26  27
ATOM     27  O   UNL A   1      37.383  21.806  25.683  1.00  0.00    -0.458 OA
BRANCH  27  28
ATOM     28  C   UNL A   1      38.668  21.552  26.011  1.00  0.00     0.338 C 
ATOM     29  O   UNL A   1      39.330  20.563  25.751  1.00  0.00    -0.246 OA
BRANCH  28  30
ATOM     30  C   UNL A   1      39.255  22.745  26.629  1.00  0.00     0.060 A 
ATOM     31  C   UNL A   1      38.779  23.984  26.204  1.00  0.00     0.016 A 
ATOM     32  C   UNL A   1      40.343  22.658  27.493  1.00  0.00     0.016 A 
ATOM     33  C   UNL A   1      39.443  25.148  26.566  1.00  0.00     0.010 A 
ATOM     34  C   UNL A   1      40.971  23.836  27.911  1.00  0.00     0.010 A 
ATOM     35  C   UNL A   1      40.549  25.087  27.421  1.00  0.00    -0.014 A 
BRANCH  35  36
ATOM     36  C   UNL A   1      41.295  26.328  27.748  1.00  0.00     0.031 A 
ATOM     37  C   UNL A   1      40.637  27.401  28.568  1.00  0.00     0.074 A 
ATOM     38  C   UNL A   1      42.571  26.475  27.345  1.00  0.00     0.049 A 
ATOM     39  N   UNL A   1      41.059  28.609  28.846  1.00  0.00    -0.248 NA
ATOM     40  C   UNL A   1      39.323  27.078  29.145  1.00  0.00     0.031 C 
ATOM     41  C   UNL A   1      43.343  25.481  26.598  1.00  0.00     0.029 A 
ATOM     42  N   UNL A   1      43.446  27.519  27.514  1.00  0.00    -0.354 N 
ATOM     43  C   UNL A   1      40.046  29.203  29.587  1.00  0.00     0.074 A 
ATOM     44  C   UNL A   1      38.986  28.225  29.716  1.00  0.00     0.031 C 
ATOM     45  C   UNL A   1      44.583  25.953  26.393  1.00  0.00     0.029 A 
ATOM     46  C   UNL A   1      44.671  27.306  26.932  1.00  0.00     0.049 A 
ATOM     47  H   UNL A   1      43.218  28.340  28.006  1.00  0.00     0.167 HD
ATOM     48  C   UNL A   1      40.007  30.452  30.111  1.00  0.00     0.037 A 
ATOM     49  C   UNL A   1      45.734  28.123  26.814  1.00  0.00     0.037 A 
ATOM     50  C   UNL A   1      41.083  31.402  30.021  1.00  0.00     0.049 A 
ATOM     51  C   UNL A   1      45.656  29.513  27.383  1.00  0.00     0.074 A 
ATOM     52  C   UNL A   1      41.142  32.693  30.516  1.00  0.00     0.029 A 
ATOM     53  N   UNL A   1      42.302  31.155  29.405  1.00  0.00    -0.354 N 
ATOM     54  N   UNL A   1      44.672  30.086  28.033  1.00  0.00    -0.248 NA
ATOM     55  C   UNL A   1      46.831  30.374  27.189  1.00  0.00     0.031 C 
ATOM     56  C   UNL A   1      42.385  33.237  30.175  1.00  0.00     0.029 A 
ATOM     57  C   UNL A   1      43.116  32.271  29.502  1.00  0.00     0.049 A 
ATOM     58  H   UNL A   1      42.552  30.311  28.964  1.00  0.00     0.167 HD
ATOM     59  C   UNL A   1      45.112  31.366  28.339  1.00  0.00     0.074 A 
ATOM     60  C   UNL A   1      46.460  31.480  27.818  1.00  0.00     0.031 C 
ATOM     61  C   UNL A   1      44.458  32.360  28.986  1.00  0.00     0.037 A 
BRANCH  48  62
ATOM     62  C   UNL A   1      38.742  30.875  30.798  1.00  0.00     0.064 A 
ATOM     63  C   UNL A   1      37.617  31.308  30.082  1.00  0.00     0.173 A 
ATOM     64  C   UNL A   1      38.649  30.817  32.197  1.00  0.00     0.173 A 
ATOM     65  F   UNL A   1      37.661  31.397  28.744  1.00  0.00    -0.203 F 
ATOM     66  C   UNL A   1      36.451  31.689  30.744  1.00  0.00     0.198 A 
ATOM     67  C   UNL A   1      37.475  31.174  32.853  1.00  0.00     0.198 A 
ATOM     68  F   UNL A   1      39.696  30.407  32.929  1.00  0.00    -0.203 F 
ATOM     69  F   UNL A   1      35.402  32.140  30.043  1.00  0.00    -0.200 F 
ATOM     70  C   UNL A   1      36.379  31.616  32.127  1.00  0.00     0.200 A 
ATOM     71  F   UNL A   1      37.404  31.093  34.190  1.00  0.00    -0.200 F 
ATOM     72  F   UNL A   1      35.255  31.978  32.762  1.00  0.00    -0.200 F 
ENDBRANCH  48  62
BRANCH  49  73
ATOM     73  C   UNL A   1      46.951  27.654  26.104  1.00  0.00     0.064 A 
ATOM     74  C   UNL A   1      48.042  27.132  26.810  1.00  0.00     0.173 A 
ATOM     75  C   UNL A   1      47.046  27.714  24.706  1.00  0.00     0.173 A 
ATOM     76  F   UNL A   1      48.009  27.078  28.150  1.00  0.00    -0.203 F 
ATOM     77  C   UNL A   1      49.186  26.695  26.145  1.00  0.00     0.198 A 
ATOM     78  C   UNL A   1      48.178  27.252  24.040  1.00  0.00     0.198 A 
ATOM     79  F   UNL A   1      46.028  28.207  23.984  1.00  0.00    -0.203 F 
ATOM     80  F   UNL A   1      50.232  26.236  26.846  1.00  0.00    -0.200 F 
ATOM     81  C   UNL A   1      49.250  26.748  24.761  1.00  0.00     0.200 A 
ATOM     82  F   UNL A   1      48.230  27.294  22.702  1.00  0.00    -0.200 F 
ATOM     83  F   UNL A   1      50.348  26.322  24.122  1.00  0.00    -0.200 F 
ENDBRANCH  49  73
BRANCH  61  84
ATOM     84  C   UNL A   1      45.204  33.642  29.199  1.00  0.00     0.064 A 
ATOM     85  C   UNL A   1      45.133  34.693  28.274  1.00  0.00     0.173 A 
ATOM     86  C   UNL A   1      45.974  33.831  30.356  1.00  0.00     0.173 A 
ATOM     87  F   UNL A   1      44.423  34.551  27.144  1.00  0.00    -0.203 F 
ATOM     88  C   UNL A   1      45.825  35.881  28.489  1.00  0.00     0.198 A 
ATOM     89  C   UNL A   1      46.645  35.030  30.580  1.00  0.00     0.198 A 
ATOM     90  F   UNL A   1      46.067  32.856  31.272  1.00  0.00    -0.203 F 
ATOM     91  F   UNL A   1      45.778  36.858  27.572  1.00  0.00    -0.200 F 
ATOM     92  C   UNL A   1      46.575  36.051  29.644  1.00  0.00     0.200 A 
ATOM     93  F   UNL A   1      47.361  35.196  31.700  1.00  0.00    -0.200 F 
ATOM     94  F   UNL A   1      47.238  37.196  29.851  1.00  0.00    -0.200 F 
ENDBRANCH  61  84
ENDBRANCH  35  36
ENDBRANCH  28  30
ENDBRANCH  27  28
ENDBRANCH  26  27
ENDBRANCH  25  26
ENDBRANCH   1  25
TORSDOF 16
ENDMDL
MODEL 3
REMARK VINA RESULT:     -11.9      4.982     10.676
REMARK SMILES C/C(=N/OCc1ccccc1Nc1c(Cl)cccc1Cl)C(=O)OCCOC(=O)c1ccc(-c2c3nc(c(-c4c(F)c(F)c(F)c(F)c4F)c4ccc([nH]4)c(-c4c(F)c(F)c(F)c(F)c4F)c4nc(c(-c5c(F)c(F)c(F)c(F)c5F)c5ccc2[nH]5)C=C4)C=C3)cc1
REMARK SMILES IDX 23 1 21 2 22 3 2 4 1 5 3 6 4 7 5 8 6 9 7 10 11 11 8 12 10 13
REMARK SMILES IDX 9 14 12 15 13 17 14 18 19 19 15 20 16 21 18 22 20 23 17 24
REMARK SMILES IDX 24 25 25 26 26 27 27 28 28 29 29 30 30 31 91 32 31 33 90 34
REMARK SMILES IDX 32 35 33 36 34 37 84 38 35 39 89 40 83 41 85 42 36 43 88 44
REMARK SMILES IDX 82 45 81 46 37 48 69 49 49 50 68 51 50 52 53 53 67 54 86 55
REMARK SMILES IDX 51 56 52 57 66 59 87 60 54 61 38 62 39 63 47 64 40 65 41 66
REMARK SMILES IDX 45 67 48 68 42 69 43 70 46 71 44 72 70 73 71 74 79 75 72 76
REMARK SMILES IDX 73 77 77 78 80 79 74 80 75 81 78 82 76 83 55 84 56 85 64 86
REMARK SMILES IDX 57 87 58 88 62 89 65 90 59 91 60 92 63 93 61 94
REMARK H PARENT 12 16 85 47 53 58
REMARK Flexibility Score: inf
ROOT
ATOM      1  O   UNL A   1      34.406  34.743  29.530  1.00  0.00    -0.458 OA
ENDROOT
BRANCH   1   2
ATOM      2  C   UNL A   1      33.507  35.032  30.489  1.00  0.00     0.355 C 
ATOM      3  O   UNL A   1      32.324  35.293  30.338  1.00  0.00    -0.245 OA
BRANCH   2   4
ATOM      4  C   UNL A   1      34.108  34.879  31.882  1.00  0.00     0.161 C 
ATOM      5  C   UNL A   1      34.178  36.118  32.727  1.00  0.00     0.079 C 
ATOM      6  N   UNL A   1      34.562  33.773  32.386  1.00  0.00    -0.084 NA
BRANCH   6   7
ATOM      7  O   UNL A   1      34.570  32.730  31.454  1.00  0.00    -0.390 OA
BRANCH   7   8
ATOM      8  C   UNL A   1      35.820  32.042  31.569  1.00  0.00     0.302 C 
BRANCH   8   9
ATOM      9  C   UNL A   1      36.971  32.935  31.146  1.00  0.00     0.016 A 
ATOM     10  C   UNL A   1      37.134  33.151  29.761  1.00  0.00     0.009 A 
ATOM     11  C   UNL A   1      37.847  33.563  32.061  1.00  0.00     0.045 A 
ATOM     12  C   UNL A   1      38.146  33.970  29.272  1.00  0.00     0.001 A 
ATOM     13  C   UNL A   1      38.871  34.370  31.537  1.00  0.00     0.026 A 
ATOM     14  C   UNL A   1      39.020  34.576  30.162  1.00  0.00     0.002 A 
BRANCH  11  15
ATOM     15  N   UNL A   1      37.666  33.432  33.455  1.00  0.00    -0.353 N 
ATOM     16  H   UNL A   1      36.837  33.842  33.795  1.00  0.00     0.167 HD
BRANCH  15  17
ATOM     17  C   UNL A   1      38.460  32.816  34.453  1.00  0.00     0.076 A 
ATOM     18  C   UNL A   1      39.217  33.642  35.317  1.00  0.00     0.066 A 
ATOM     19  C   UNL A   1      38.506  31.428  34.690  1.00  0.00     0.066 A 
ATOM     20  Cl  UNL A   1      39.267  35.359  35.075  1.00  0.00    -0.082 Cl
ATOM     21  C   UNL A   1      39.944  33.117  36.389  1.00  0.00     0.023 A 
ATOM     22  C   UNL A   1      39.233  30.904  35.771  1.00  0.00     0.023 A 
ATOM     23  Cl  UNL A   1      37.785  30.277  33.614  1.00  0.00    -0.082 Cl
ATOM     24  C   UNL A   1      39.940  31.747  36.625  1.00  0.00     0.003 A 
ENDBRANCH  15  17
ENDBRANCH  11  15
ENDBRANCH   8   9
ENDBRANCH   7   8
ENDBRANCH   6   7
ENDBRANCH   2   4
ENDBRANCH   1   2
BRANCH   1  25
ATOM     25  C   UNL A   1      33.901  34.370  28.234  1.00  0.00     0.275 C 
BRANCH  25  26
ATOM     26  C   UNL A   1      33.598  32.871  28.201  1.00  0.00     0.275 C 
BRANCH  26  27
ATOM     27  O   UNL A   1      34.813  32.117  28.029  1.00  0.00    -0.458 OA
BRANCH  27  28
ATOM     28  C   UNL A   1      34.643  30.779  27.977  1.00  0.00     0.338 C 
ATOM     29  O   UNL A   1      33.635  30.159  27.688  1.00  0.00    -0.246 OA
BRANCH  28  30
ATOM     30  C   UNL A   1      35.936  30.118  28.179  1.00  0.00     0.060 A 
ATOM     31  C   UNL A   1      36.148  29.488  29.403  1.00  0.00     0.016 A 
ATOM     32  C   UNL A   1      36.967  30.239  27.251  1.00  0.00     0.016 A 
ATOM     33  C   UNL A   1      37.418  29.051  29.753  1.00  0.00     0.010 A 
ATOM     34  C   UNL A   1      38.232  29.738  27.577  1.00  0.00     0.010 A 
ATOM     35  C   UNL A   1      38.476  29.175  28.844  1.00  0.00    -0.014 A 
BRANCH  35  36
ATOM     36  C   UNL A   1      39.845  28.768  29.250  1.00  0.00     0.031 A 
ATOM     37  C   UNL A   1      40.642  29.646  30.174  1.00  0.00     0.074 A 
ATOM     38  C   UNL A   1      40.357  27.600  28.823  1.00  0.00     0.049 A 
ATOM     39  N   UNL A   1      41.895  29.545  30.538  1.00  0.00    -0.248 NA
ATOM     40  C   UNL A   1      39.938  30.796  30.762  1.00  0.00     0.031 C 
ATOM     41  C   UNL A   1      39.663  26.631  27.974  1.00  0.00     0.029 A 
ATOM     42  N   UNL A   1      41.583  27.025  29.050  1.00  0.00    -0.354 N 
ATOM     43  C   UNL A   1      42.142  30.641  31.354  1.00  0.00     0.074 A 
ATOM     44  C   UNL A   1      40.909  31.396  31.434  1.00  0.00     0.031 C 
ATOM     45  C   UNL A   1      40.462  25.572  27.771  1.00  0.00     0.029 A 
ATOM     46  C   UNL A   1      41.748  25.818  28.416  1.00  0.00     0.049 A 
ATOM     47  H   UNL A   1      42.276  27.437  29.614  1.00  0.00     0.167 HD
ATOM     48  C   UNL A   1      43.294  30.983  31.979  1.00  0.00     0.037 A 
ATOM     49  C   UNL A   1      42.827  25.018  28.333  1.00  0.00     0.037 A 
ATOM     50  C   UNL A   1      44.502  30.203  31.935  1.00  0.00     0.049 A 
ATOM     51  C   UNL A   1      44.100  25.432  29.017  1.00  0.00     0.074 A 
ATOM     52  C   UNL A   1      45.724  30.463  32.533  1.00  0.00     0.029 A 
ATOM     53  N   UNL A   1      44.636  28.995  31.265  1.00  0.00    -0.354 N 
ATOM     54  N   UNL A   1      44.341  26.499  29.740  1.00  0.00    -0.248 NA
ATOM     55  C   UNL A   1      45.256  24.539  28.859  1.00  0.00     0.031 C 
ATOM     56  C   UNL A   1      46.604  29.427  32.201  1.00  0.00     0.029 A 
ATOM     57  C   UNL A   1      45.919  28.501  31.429  1.00  0.00     0.049 A 
ATOM     58  H   UNL A   1      43.923  28.553  30.749  1.00  0.00     0.167 HD
ATOM     59  C   UNL A   1      45.667  26.399  30.136  1.00  0.00     0.074 A 
ATOM     60  C   UNL A   1      46.175  25.158  29.587  1.00  0.00     0.031 C 
ATOM     61  C   UNL A   1      46.401  27.259  30.882  1.00  0.00     0.037 A 
BRANCH  48  62
ATOM     62  C   UNL A   1      43.313  32.277  32.737  1.00  0.00     0.064 A 
ATOM     63  C   UNL A   1      43.138  32.327  34.127  1.00  0.00     0.173 A 
ATOM     64  C   UNL A   1      43.541  33.486  32.060  1.00  0.00     0.173 A 
ATOM     65  F   UNL A   1      42.900  31.201  34.818  1.00  0.00    -0.203 F 
ATOM     66  C   UNL A   1      43.167  33.541  34.809  1.00  0.00     0.198 A 
ATOM     67  C   UNL A   1      43.595  34.694  32.747  1.00  0.00     0.198 A 
ATOM     68  F   UNL A   1      43.719  33.493  30.730  1.00  0.00    -0.203 F 
ATOM     69  F   UNL A   1      42.955  33.570  36.132  1.00  0.00    -0.200 F 
ATOM     70  C   UNL A   1      43.402  34.722  34.120  1.00  0.00     0.200 A 
ATOM     71  F   UNL A   1      43.832  35.833  32.081  1.00  0.00    -0.200 F 
ATOM     72  F   UNL A   1      43.435  35.890  34.779  1.00  0.00    -0.200 F 
ENDBRANCH  48  62
BRANCH  49  73
ATOM     73  C   UNL A   1      42.753  23.758  27.552  1.00  0.00     0.064 A 
ATOM     74  C   UNL A   1      43.135  23.720  26.205  1.00  0.00     0.173 A 
ATOM     75  C   UNL A   1      42.303  22.564  28.138  1.00  0.00     0.173 A 
ATOM     76  F   UNL A   1      43.547  24.840  25.594  1.00  0.00    -0.203 F 
ATOM     77  C   UNL A   1      43.062  22.538  25.470  1.00  0.00     0.198 A 
ATOM     78  C   UNL A   1      42.257  21.378  27.410  1.00  0.00     0.198 A 
ATOM     79  F   UNL A   1      41.925  22.548  29.424  1.00  0.00    -0.203 F 
ATOM     80  F   UNL A   1      43.396  22.537  24.172  1.00  0.00    -0.200 F 
ATOM     81  C   UNL A   1      42.631  21.367  26.075  1.00  0.00     0.200 A 
ATOM     82  F   UNL A   1      41.852  20.247  28.003  1.00  0.00    -0.200 F 
ATOM     83  F   UNL A   1      42.567  20.230  25.370  1.00  0.00    -0.200 F 
ENDBRANCH  49  73
BRANCH  61  84
ATOM     84  C   UNL A   1      47.818  26.870  31.177  1.00  0.00     0.064 A 
ATOM     85  C   UNL A   1      48.135  26.010  32.239  1.00  0.00     0.173 A 
ATOM     86  C   UNL A   1      48.865  27.338  30.371  1.00  0.00     0.173 A 
ATOM     87  F   UNL A   1      47.169  25.551  33.047  1.00  0.00    -0.203 F 
ATOM     88  C   UNL A   1      49.455  25.651  32.496  1.00  0.00     0.198 A 
ATOM     89  C   UNL A   1      50.181  26.958  30.615  1.00  0.00     0.198 A 
ATOM     90  F   UNL A   1      48.609  28.159  29.341  1.00  0.00    -0.203 F 
ATOM     91  F   UNL A   1      49.742  24.862  33.540  1.00  0.00    -0.200 F 
ATOM     92  C   UNL A   1      50.475  26.119  31.681  1.00  0.00     0.200 A 
ATOM     93  F   UNL A   1      51.165  27.404  29.823  1.00  0.00    -0.200 F 
ATOM     94  F   UNL A   1      51.745  25.770  31.928  1.00  0.00    -0.200 F 
ENDBRANCH  61  84
ENDBRANCH  35  36
ENDBRANCH  28  30
ENDBRANCH  27  28
ENDBRANCH  26  27
ENDBRANCH  25  26
ENDBRANCH   1  25
TORSDOF 16
ENDMDL
