MODEL 1
REMARK VINA RESULT:     -10.8      0.000      0.000
REMARK SMILES O=C(CCC(=O)OCCOC(=O)c1ccc(-c2c3nc(c(-c4c(F)c(F)c(F)c(F)c4F)c4ccc([nH]4)c(-c4c(F)c(F)c(F)c(F)c4F)c4nc(c(-c5c(F)c(F)c(F)c(F)c5F)c5ccc2[nH]5)C=C4)C=C3)cc1)Nc1cccc2c1C(=O)c1ccccc1C2=O
REMARK SMILES IDX 8 1 7 2 5 3 6 4 4 5 3 6 2 7 1 8 76 9 77 11 78 12 82 13 79 14
REMARK SMILES IDX 81 15 83 16 80 17 91 18 84 19 85 20 90 21 92 22 86 23 89 24
REMARK SMILES IDX 87 25 88 26 9 27 10 28 11 29 12 30 13 31 14 32 75 33 15 34
REMARK SMILES IDX 74 35 16 36 17 37 18 38 68 39 19 40 73 41 67 42 69 43 20 44
REMARK SMILES IDX 72 45 66 46 65 47 21 49 53 50 33 51 52 52 34 53 37 54 51 55
REMARK SMILES IDX 70 56 35 57 36 58 50 60 71 61 38 62 22 63 23 64 31 65 24 66
REMARK SMILES IDX 25 67 29 68 32 69 26 70 27 71 30 72 28 73 54 74 55 75 63 76
REMARK SMILES IDX 56 77 57 78 61 79 64 80 58 81 59 82 62 83 60 84 39 85 40 86
REMARK SMILES IDX 48 87 41 88 42 89 46 90 49 91 43 92 44 93 47 94 45 95
REMARK H PARENT 76 10 69 48 37 59
REMARK Flexibility Score: inf
ROOT
ATOM      1  C   UNL A   1      40.912  19.733  26.224  1.00  0.00     0.274 C 
ENDROOT
BRANCH   1   2
ATOM      2  O   UNL A   1      42.089  19.667  25.385  1.00  0.00    -0.462 OA
BRANCH   2   3
ATOM      3  C   UNL A   1      42.964  18.653  25.621  1.00  0.00     0.306 C 
ATOM      4  O   UNL A   1      42.838  17.818  26.507  1.00  0.00    -0.252 OA
BRANCH   3   5
ATOM      5  C   UNL A   1      44.194  18.749  24.737  1.00  0.00     0.132 C 
BRANCH   5   6
ATOM      6  C   UNL A   1      44.579  20.167  24.334  1.00  0.00     0.112 C 
BRANCH   6   7
ATOM      7  C   UNL A   1      45.192  21.091  25.391  1.00  0.00     0.224 C 
ATOM      8  O   UNL A   1      46.403  21.304  25.374  1.00  0.00    -0.275 OA
ATOM      9  N   UNL A   1      44.274  21.803  26.144  1.00  0.00    -0.325 N 
ATOM     10  H   UNL A   1      43.461  21.342  26.454  1.00  0.00     0.169 HD
BRANCH   9  11
ATOM     11  C   UNL A   1      44.451  23.168  26.490  1.00  0.00     0.053 A 
ATOM     12  C   UNL A   1      44.293  24.049  25.411  1.00  0.00     0.027 A 
ATOM     13  C   UNL A   1      45.118  23.625  27.628  1.00  0.00     0.057 A 
ATOM     14  C   UNL A   1      45.055  25.213  25.338  1.00  0.00     0.003 A 
ATOM     15  C   UNL A   1      45.983  24.706  27.491  1.00  0.00     0.036 A 
ATOM     16  C   UNL A   1      44.550  23.388  28.991  1.00  0.00     0.196 C 
ATOM     17  C   UNL A   1      45.981  25.490  26.337  1.00  0.00     0.013 A 
ATOM     18  C   UNL A   1      46.792  25.128  28.638  1.00  0.00     0.194 C 
ATOM     19  O   UNL A   1      43.636  22.597  29.187  1.00  0.00    -0.288 OA
ATOM     20  C   UNL A   1      44.965  24.320  30.083  1.00  0.00     0.034 A 
ATOM     21  C   UNL A   1      46.114  25.098  29.938  1.00  0.00     0.034 A 
ATOM     22  O   UNL A   1      47.913  25.591  28.488  1.00  0.00    -0.289 OA
ATOM     23  C   UNL A   1      44.154  24.520  31.205  1.00  0.00     0.013 A 
ATOM     24  C   UNL A   1      46.511  26.007  30.924  1.00  0.00     0.013 A 
ATOM     25  C   UNL A   1      44.509  25.478  32.163  1.00  0.00     0.001 A 
ATOM     26  C   UNL A   1      45.696  26.203  32.034  1.00  0.00     0.001 A 
ENDBRANCH   9  11
ENDBRANCH   6   7
ENDBRANCH   5   6
ENDBRANCH   3   5
ENDBRANCH   2   3
ENDBRANCH   1   2
BRANCH   1  27
ATOM     27  C   UNL A   1      40.828  21.042  27.014  1.00  0.00     0.275 C 
BRANCH  27  28
ATOM     28  O   UNL A   1      40.666  22.167  26.134  1.00  0.00    -0.458 OA
BRANCH  28  29
ATOM     29  C   UNL A   1      39.517  22.861  26.299  1.00  0.00     0.338 C 
ATOM     30  O   UNL A   1      38.383  22.451  26.119  1.00  0.00    -0.246 OA
BRANCH  29  31
ATOM     31  C   UNL A   1      39.815  24.179  26.889  1.00  0.00     0.060 A 
ATOM     32  C   UNL A   1      40.349  25.156  26.044  1.00  0.00     0.016 A 
ATOM     33  C   UNL A   1      39.598  24.454  28.244  1.00  0.00     0.016 A 
ATOM     34  C   UNL A   1      40.669  26.412  26.549  1.00  0.00     0.010 A 
ATOM     35  C   UNL A   1      39.925  25.715  28.752  1.00  0.00     0.010 A 
ATOM     36  C   UNL A   1      40.471  26.695  27.908  1.00  0.00    -0.014 A 
BRANCH  36  37
ATOM     37  C   UNL A   1      40.874  28.018  28.431  1.00  0.00     0.031 A 
ATOM     38  C   UNL A   1      42.327  28.356  28.568  1.00  0.00     0.074 A 
ATOM     39  C   UNL A   1      39.933  28.930  28.730  1.00  0.00     0.049 A 
ATOM     40  N   UNL A   1      42.885  29.488  28.918  1.00  0.00    -0.248 NA
ATOM     41  C   UNL A   1      43.283  27.277  28.272  1.00  0.00     0.031 C 
ATOM     42  C   UNL A   1      38.491  28.717  28.624  1.00  0.00     0.029 A 
ATOM     43  N   UNL A   1      40.054  30.223  29.169  1.00  0.00    -0.354 N 
ATOM     44  C   UNL A   1      44.253  29.261  28.880  1.00  0.00     0.074 A 
ATOM     45  C   UNL A   1      44.444  27.877  28.499  1.00  0.00     0.031 C 
ATOM     46  C   UNL A   1      37.857  29.850  28.974  1.00  0.00     0.029 A 
ATOM     47  C   UNL A   1      38.849  30.859  29.336  1.00  0.00     0.049 A 
ATOM     48  H   UNL A   1      40.921  30.654  29.348  1.00  0.00     0.167 HD
ATOM     49  C   UNL A   1      45.257  30.134  29.129  1.00  0.00     0.037 A 
ATOM     50  C   UNL A   1      38.581  32.118  29.727  1.00  0.00     0.037 A 
ATOM     51  C   UNL A   1      45.068  31.511  29.502  1.00  0.00     0.049 A 
ATOM     52  C   UNL A   1      39.716  33.057  30.027  1.00  0.00     0.074 A 
ATOM     53  C   UNL A   1      46.026  32.482  29.738  1.00  0.00     0.029 A 
ATOM     54  N   UNL A   1      43.834  32.109  29.702  1.00  0.00    -0.354 N 
ATOM     55  N   UNL A   1      41.007  32.849  29.940  1.00  0.00    -0.248 NA
ATOM     56  C   UNL A   1      39.353  34.408  30.478  1.00  0.00     0.031 C 
ATOM     57  C   UNL A   1      45.370  33.661  30.114  1.00  0.00     0.029 A 
ATOM     58  C   UNL A   1      44.005  33.430  30.083  1.00  0.00     0.049 A 
ATOM     59  H   UNL A   1      42.965  31.660  29.591  1.00  0.00     0.167 HD
ATOM     60  C   UNL A   1      41.611  34.044  30.303  1.00  0.00     0.074 A 
ATOM     61  C   UNL A   1      40.545  34.978  30.604  1.00  0.00     0.031 C 
ATOM     62  C   UNL A   1      42.931  34.342  30.380  1.00  0.00     0.037 A 
BRANCH  49  63
ATOM     63  C   UNL A   1      46.656  29.614  29.017  1.00  0.00     0.064 A 
ATOM     64  C   UNL A   1      47.298  29.504  27.774  1.00  0.00     0.173 A 
ATOM     65  C   UNL A   1      47.371  29.243  30.164  1.00  0.00     0.173 A 
ATOM     66  F   UNL A   1      46.649  29.833  26.648  1.00  0.00    -0.203 F 
ATOM     67  C   UNL A   1      48.601  29.021  27.685  1.00  0.00     0.198 A 
ATOM     68  C   UNL A   1      48.679  28.777  30.073  1.00  0.00     0.198 A 
ATOM     69  F   UNL A   1      46.797  29.331  31.375  1.00  0.00    -0.203 F 
ATOM     70  F   UNL A   1      49.184  28.890  26.485  1.00  0.00    -0.200 F 
ATOM     71  C   UNL A   1      49.292  28.662  28.833  1.00  0.00     0.200 A 
ATOM     72  F   UNL A   1      49.347  28.435  31.183  1.00  0.00    -0.200 F 
ATOM     73  F   UNL A   1      50.545  28.198  28.746  1.00  0.00    -0.200 F 
ENDBRANCH  49  63
BRANCH  50  74
ATOM     74  C   UNL A   1      37.175  32.573  29.826  1.00  0.00     0.064 A 
ATOM     75  C   UNL A   1      36.552  33.218  28.750  1.00  0.00     0.173 A 
ATOM     76  C   UNL A   1      36.427  32.372  30.994  1.00  0.00     0.173 A 
ATOM     77  F   UNL A   1      37.239  33.453  27.622  1.00  0.00    -0.203 F 
ATOM     78  C   UNL A   1      35.232  33.653  28.842  1.00  0.00     0.198 A 
ATOM     79  C   UNL A   1      35.102  32.791  31.079  1.00  0.00     0.198 A 
ATOM     80  F   UNL A   1      36.985  31.762  32.051  1.00  0.00    -0.203 F 
ATOM     81  F   UNL A   1      34.667  34.295  27.810  1.00  0.00    -0.200 F 
ATOM     82  C   UNL A   1      34.506  33.435  30.003  1.00  0.00     0.200 A 
ATOM     83  F   UNL A   1      34.403  32.574  32.201  1.00  0.00    -0.200 F 
ATOM     84  F   UNL A   1      33.237  33.852  30.091  1.00  0.00    -0.200 F 
ENDBRANCH  50  74
BRANCH  62  85
ATOM     85  C   UNL A   1      43.289  35.738  30.792  1.00  0.00     0.064 A 
ATOM     86  C   UNL A   1      43.465  36.077  32.141  1.00  0.00     0.173 A 
ATOM     87  C   UNL A   1      43.476  36.739  29.828  1.00  0.00     0.173 A 
ATOM     88  F   UNL A   1      43.280  35.156  33.098  1.00  0.00    -0.203 F 
ATOM     89  C   UNL A   1      43.796  37.377  32.512  1.00  0.00     0.198 A 
ATOM     90  C   UNL A   1      43.827  38.033  30.202  1.00  0.00     0.198 A 
ATOM     91  F   UNL A   1      43.320  36.461  28.525  1.00  0.00    -0.203 F 
ATOM     92  F   UNL A   1      43.921  37.690  33.809  1.00  0.00    -0.200 F 
ATOM     93  C   UNL A   1      43.980  38.352  31.543  1.00  0.00     0.200 A 
ATOM     94  F   UNL A   1      44.009  38.974  29.265  1.00  0.00    -0.200 F 
ATOM     95  F   UNL A   1      44.297  39.604  31.902  1.00  0.00    -0.200 F 
ENDBRANCH  62  85
ENDBRANCH  36  37
ENDBRANCH  29  31
ENDBRANCH  28  29
ENDBRANCH  27  28
ENDBRANCH   1  27
TORSDOF 14
ENDMDL
MODEL 2
REMARK VINA RESULT:     -10.8      5.176     11.843
REMARK SMILES O=C(CCC(=O)OCCOC(=O)c1ccc(-c2c3nc(c(-c4c(F)c(F)c(F)c(F)c4F)c4ccc([nH]4)c(-c4c(F)c(F)c(F)c(F)c4F)c4nc(c(-c5c(F)c(F)c(F)c(F)c5F)c5ccc2[nH]5)C=C4)C=C3)cc1)Nc1cccc2c1C(=O)c1ccccc1C2=O
REMARK SMILES IDX 8 1 7 2 5 3 6 4 4 5 3 6 2 7 1 8 76 9 77 11 78 12 82 13 79 14
REMARK SMILES IDX 81 15 83 16 80 17 91 18 84 19 85 20 90 21 92 22 86 23 89 24
REMARK SMILES IDX 87 25 88 26 9 27 10 28 11 29 12 30 13 31 14 32 75 33 15 34
REMARK SMILES IDX 74 35 16 36 17 37 18 38 68 39 19 40 73 41 67 42 69 43 20 44
REMARK SMILES IDX 72 45 66 46 65 47 21 49 53 50 33 51 52 52 34 53 37 54 51 55
REMARK SMILES IDX 70 56 35 57 36 58 50 60 71 61 38 62 22 63 23 64 31 65 24 66
REMARK SMILES IDX 25 67 29 68 32 69 26 70 27 71 30 72 28 73 54 74 55 75 63 76
REMARK SMILES IDX 56 77 57 78 61 79 64 80 58 81 59 82 62 83 60 84 39 85 40 86
REMARK SMILES IDX 48 87 41 88 42 89 46 90 49 91 43 92 44 93 47 94 45 95
REMARK H PARENT 76 10 69 48 37 59
REMARK Flexibility Score: inf
ROOT
ATOM      1  C   UNL A   1      33.791  34.361  28.403  1.00  0.00     0.274 C 
ENDROOT
BRANCH   1   2
ATOM      2  O   UNL A   1      32.900  34.748  29.476  1.00  0.00    -0.462 OA
BRANCH   2   3
ATOM      3  C   UNL A   1      32.817  36.074  29.766  1.00  0.00     0.306 C 
ATOM      4  O   UNL A   1      33.054  36.976  28.972  1.00  0.00    -0.252 OA
BRANCH   3   5
ATOM      5  C   UNL A   1      32.522  36.315  31.234  1.00  0.00     0.132 C 
BRANCH   5   6
ATOM      6  C   UNL A   1      33.184  35.329  32.188  1.00  0.00     0.112 C 
BRANCH   6   7
ATOM      7  C   UNL A   1      34.704  35.390  32.369  1.00  0.00     0.224 C 
ATOM      8  O   UNL A   1      35.175  36.077  33.273  1.00  0.00    -0.275 OA
ATOM      9  N   UNL A   1      35.416  34.461  31.629  1.00  0.00    -0.325 N 
ATOM     10  H   UNL A   1      35.142  34.290  30.699  1.00  0.00     0.169 HD
BRANCH   9  11
ATOM     11  C   UNL A   1      36.525  33.744  32.151  1.00  0.00     0.053 A 
ATOM     12  C   UNL A   1      36.168  32.722  33.041  1.00  0.00     0.027 A 
ATOM     13  C   UNL A   1      37.842  34.206  32.163  1.00  0.00     0.057 A 
ATOM     14  C   UNL A   1      36.993  32.412  34.121  1.00  0.00     0.003 A 
ATOM     15  C   UNL A   1      38.597  34.004  33.314  1.00  0.00     0.036 A 
ATOM     16  C   UNL A   1      38.600  34.384  30.886  1.00  0.00     0.196 C 
ATOM     17  C   UNL A   1      38.167  33.131  34.315  1.00  0.00     0.013 A 
ATOM     18  C   UNL A   1      39.938  34.588  33.405  1.00  0.00     0.194 C 
ATOM     19  O   UNL A   1      38.047  34.372  29.793  1.00  0.00    -0.288 OA
ATOM     20  C   UNL A   1      40.092  34.338  30.957  1.00  0.00     0.034 A 
ATOM     21  C   UNL A   1      40.739  34.531  32.178  1.00  0.00     0.034 A 
ATOM     22  O   UNL A   1      40.390  34.976  34.473  1.00  0.00    -0.289 OA
ATOM     23  C   UNL A   1      40.855  33.984  29.839  1.00  0.00     0.013 A 
ATOM     24  C   UNL A   1      42.131  34.459  32.287  1.00  0.00     0.013 A 
ATOM     25  C   UNL A   1      42.244  33.843  29.957  1.00  0.00     0.001 A 
ATOM     26  C   UNL A   1      42.882  34.102  31.172  1.00  0.00     0.001 A 
ENDBRANCH   9  11
ENDBRANCH   6   7
ENDBRANCH   5   6
ENDBRANCH   3   5
ENDBRANCH   2   3
ENDBRANCH   1   2
BRANCH   1  27
ATOM     27  C   UNL A   1      33.594  32.905  27.973  1.00  0.00     0.275 C 
BRANCH  27  28
ATOM     28  O   UNL A   1      34.857  32.255  27.753  1.00  0.00    -0.458 OA
BRANCH  28  29
ATOM     29  C   UNL A   1      34.800  30.906  27.681  1.00  0.00     0.338 C 
ATOM     30  O   UNL A   1      33.898  30.237  27.208  1.00  0.00    -0.246 OA
BRANCH  29  31
ATOM     31  C   UNL A   1      36.082  30.332  28.129  1.00  0.00     0.060 A 
ATOM     32  C   UNL A   1      36.130  29.794  29.419  1.00  0.00     0.016 A 
ATOM     33  C   UNL A   1      37.222  30.333  27.318  1.00  0.00     0.016 A 
ATOM     34  C   UNL A   1      37.319  29.257  29.904  1.00  0.00     0.010 A 
ATOM     35  C   UNL A   1      38.417  29.798  27.808  1.00  0.00     0.010 A 
ATOM     36  C   UNL A   1      38.471  29.266  29.106  1.00  0.00    -0.014 A 
BRANCH  36  37
ATOM     37  C   UNL A   1      39.736  28.742  29.667  1.00  0.00     0.031 A 
ATOM     38  C   UNL A   1      40.325  29.369  30.894  1.00  0.00     0.074 A 
ATOM     39  C   UNL A   1      40.319  27.672  29.103  1.00  0.00     0.049 A 
ATOM     40  N   UNL A   1      41.371  29.000  31.590  1.00  0.00    -0.248 NA
ATOM     41  C   UNL A   1      39.648  30.570  31.408  1.00  0.00     0.031 C 
ATOM     42  C   UNL A   1      39.830  26.973  27.916  1.00  0.00     0.029 A 
ATOM     43  N   UNL A   1      41.444  26.977  29.466  1.00  0.00    -0.354 N 
ATOM     44  C   UNL A   1      41.475  29.918  32.626  1.00  0.00     0.074 A 
ATOM     45  C   UNL A   1      40.404  30.877  32.453  1.00  0.00     0.031 C 
ATOM     46  C   UNL A   1      40.643  25.935  27.655  1.00  0.00     0.029 A 
ATOM     47  C   UNL A   1      41.712  25.905  28.651  1.00  0.00     0.049 A 
ATOM     48  H   UNL A   1      42.007  27.222  30.236  1.00  0.00     0.167 HD
ATOM     49  C   UNL A   1      42.378  29.948  33.634  1.00  0.00     0.037 A 
ATOM     50  C   UNL A   1      42.703  24.997  28.711  1.00  0.00     0.037 A 
ATOM     51  C   UNL A   1      43.439  28.993  33.810  1.00  0.00     0.049 A 
ATOM     52  C   UNL A   1      43.710  25.074  29.825  1.00  0.00     0.074 A 
ATOM     53  C   UNL A   1      44.379  28.921  34.823  1.00  0.00     0.029 A 
ATOM     54  N   UNL A   1      43.705  27.946  32.941  1.00  0.00    -0.354 N 
ATOM     55  N   UNL A   1      43.772  25.915  30.828  1.00  0.00    -0.248 NA
ATOM     56  C   UNL A   1      44.783  24.070  29.814  1.00  0.00     0.031 C 
ATOM     57  C   UNL A   1      45.236  27.847  34.549  1.00  0.00     0.029 A 
ATOM     58  C   UNL A   1      44.810  27.235  33.382  1.00  0.00     0.049 A 
ATOM     59  H   UNL A   1      43.185  27.738  32.132  1.00  0.00     0.167 HD
ATOM     60  C   UNL A   1      44.874  25.532  31.578  1.00  0.00     0.074 A 
ATOM     61  C   UNL A   1      45.448  24.376  30.921  1.00  0.00     0.031 C 
ATOM     62  C   UNL A   1      45.367  26.089  32.712  1.00  0.00     0.037 A 
BRANCH  49  63
ATOM     63  C   UNL A   1      42.259  31.067  34.622  1.00  0.00     0.064 A 
ATOM     64  C   UNL A   1      41.261  31.069  35.609  1.00  0.00     0.173 A 
ATOM     65  C   UNL A   1      43.165  32.137  34.597  1.00  0.00     0.173 A 
ATOM     66  F   UNL A   1      40.364  30.074  35.662  1.00  0.00    -0.203 F 
ATOM     67  C   UNL A   1      41.165  32.115  36.522  1.00  0.00     0.198 A 
ATOM     68  C   UNL A   1      43.075  33.172  35.523  1.00  0.00     0.198 A 
ATOM     69  F   UNL A   1      44.135  32.178  33.670  1.00  0.00    -0.203 F 
ATOM     70  F   UNL A   1      40.183  32.115  37.436  1.00  0.00    -0.200 F 
ATOM     71  C   UNL A   1      42.073  33.162  36.482  1.00  0.00     0.200 A 
ATOM     72  F   UNL A   1      43.956  34.181  35.485  1.00  0.00    -0.200 F 
ATOM     73  F   UNL A   1      41.978  34.168  37.362  1.00  0.00    -0.200 F 
ENDBRANCH  49  63
BRANCH  50  74
ATOM     74  C   UNL A   1      42.772  23.916  27.700  1.00  0.00     0.064 A 
ATOM     75  C   UNL A   1      43.392  24.130  26.463  1.00  0.00     0.173 A 
ATOM     76  C   UNL A   1      42.224  22.651  27.951  1.00  0.00     0.173 A 
ATOM     77  F   UNL A   1      43.910  25.334  26.173  1.00  0.00    -0.203 F 
ATOM     78  C   UNL A   1      43.454  23.119  25.507  1.00  0.00     0.198 A 
ATOM     79  C   UNL A   1      42.302  21.635  27.002  1.00  0.00     0.198 A 
ATOM     80  F   UNL A   1      41.617  22.403  29.122  1.00  0.00    -0.203 F 
ATOM     81  F   UNL A   1      44.026  23.356  24.319  1.00  0.00    -0.200 F 
ATOM     82  C   UNL A   1      42.913  21.871  25.779  1.00  0.00     0.200 A 
ATOM     83  F   UNL A   1      41.782  20.430  27.270  1.00  0.00    -0.200 F 
ATOM     84  F   UNL A   1      42.974  20.898  24.861  1.00  0.00    -0.200 F 
ENDBRANCH  50  74
BRANCH  62  85
ATOM     85  C   UNL A   1      46.576  25.442  33.315  1.00  0.00     0.064 A 
ATOM     86  C   UNL A   1      47.872  25.852  32.967  1.00  0.00     0.173 A 
ATOM     87  C   UNL A   1      46.439  24.417  34.263  1.00  0.00     0.173 A 
ATOM     88  F   UNL A   1      48.051  26.816  32.053  1.00  0.00    -0.203 F 
ATOM     89  C   UNL A   1      48.988  25.243  33.533  1.00  0.00     0.198 A 
ATOM     90  C   UNL A   1      47.557  23.825  34.841  1.00  0.00     0.198 A 
ATOM     91  F   UNL A   1      45.219  23.993  34.628  1.00  0.00    -0.203 F 
ATOM     92  F   UNL A   1      50.218  25.622  33.159  1.00  0.00    -0.200 F 
ATOM     93  C   UNL A   1      48.830  24.234  34.472  1.00  0.00     0.200 A 
ATOM     94  F   UNL A   1      47.404  22.853  35.751  1.00  0.00    -0.200 F 
ATOM     95  F   UNL A   1      49.907  23.647  35.014  1.00  0.00    -0.200 F 
ENDBRANCH  62  85
ENDBRANCH  36  37
ENDBRANCH  29  31
ENDBRANCH  28  29
ENDBRANCH  27  28
ENDBRANCH   1  27
TORSDOF 14
ENDMDL
MODEL 3
REMARK VINA RESULT:     -10.7      5.837     11.567
REMARK SMILES O=C(CCC(=O)OCCOC(=O)c1ccc(-c2c3nc(c(-c4c(F)c(F)c(F)c(F)c4F)c4ccc([nH]4)c(-c4c(F)c(F)c(F)c(F)c4F)c4nc(c(-c5c(F)c(F)c(F)c(F)c5F)c5ccc2[nH]5)C=C4)C=C3)cc1)Nc1cccc2c1C(=O)c1ccccc1C2=O
REMARK SMILES IDX 8 1 7 2 5 3 6 4 4 5 3 6 2 7 1 8 76 9 77 11 78 12 82 13 79 14
REMARK SMILES IDX 81 15 83 16 80 17 91 18 84 19 85 20 90 21 92 22 86 23 89 24
REMARK SMILES IDX 87 25 88 26 9 27 10 28 11 29 12 30 13 31 14 32 75 33 15 34
REMARK SMILES IDX 74 35 16 36 17 37 18 38 68 39 19 40 73 41 67 42 69 43 20 44
REMARK SMILES IDX 72 45 66 46 65 47 21 49 53 50 33 51 52 52 34 53 37 54 51 55
REMARK SMILES IDX 70 56 35 57 36 58 50 60 71 61 38 62 22 63 23 64 31 65 24 66
REMARK SMILES IDX 25 67 29 68 32 69 26 70 27 71 30 72 28 73 54 74 55 75 63 76
REMARK SMILES IDX 56 77 57 78 61 79 64 80 58 81 59 82 62 83 60 84 39 85 40 86
REMARK SMILES IDX 48 87 41 88 42 89 46 90 49 91 43 92 44 93 47 94 45 95
REMARK H PARENT 76 10 69 48 37 59
REMARK Flexibility Score: inf
ROOT
ATOM      1  C   UNL A   1      31.449  29.316  24.906  1.00  0.00     0.274 C 
ENDROOT
BRANCH   1   2
ATOM      2  O   UNL A   1      30.407  29.738  23.995  1.00  0.00    -0.462 OA
BRANCH   2   3
ATOM      3  C   UNL A   1      30.207  28.979  22.884  1.00  0.00     0.306 C 
ATOM      4  O   UNL A   1      29.929  29.424  21.778  1.00  0.00    -0.252 OA
BRANCH   3   5
ATOM      5  C   UNL A   1      30.239  27.495  23.201  1.00  0.00     0.132 C 
BRANCH   5   6
ATOM      6  C   UNL A   1      31.122  26.665  22.278  1.00  0.00     0.112 C 
BRANCH   6   7
ATOM      7  C   UNL A   1      31.938  25.515  22.879  1.00  0.00     0.224 C 
ATOM      8  O   UNL A   1      32.919  25.773  23.573  1.00  0.00    -0.275 OA
ATOM      9  N   UNL A   1      31.346  24.267  22.777  1.00  0.00    -0.325 N 
ATOM     10  H   UNL A   1      30.897  24.027  21.934  1.00  0.00     0.169 HD
BRANCH   9  11
ATOM     11  C   UNL A   1      31.360  23.318  23.832  1.00  0.00     0.053 A 
ATOM     12  C   UNL A   1      30.672  23.739  24.979  1.00  0.00     0.027 A 
ATOM     13  C   UNL A   1      32.271  22.268  23.952  1.00  0.00     0.057 A 
ATOM     14  C   UNL A   1      31.119  23.360  26.243  1.00  0.00     0.003 A 
ATOM     15  C   UNL A   1      32.807  22.005  25.209  1.00  0.00     0.036 A 
ATOM     16  C   UNL A   1      32.262  21.134  22.977  1.00  0.00     0.196 C 
ATOM     17  C   UNL A   1      32.258  22.571  26.360  1.00  0.00     0.013 A 
ATOM     18  C   UNL A   1      33.860  20.995  25.344  1.00  0.00     0.194 C 
ATOM     19  O   UNL A   1      31.644  21.189  21.920  1.00  0.00    -0.288 OA
ATOM     20  C   UNL A   1      32.833  19.829  23.429  1.00  0.00     0.034 A 
ATOM     21  C   UNL A   1      33.687  19.786  24.532  1.00  0.00     0.034 A 
ATOM     22  O   UNL A   1      34.748  21.111  26.176  1.00  0.00    -0.289 OA
ATOM     23  C   UNL A   1      32.431  18.626  22.841  1.00  0.00     0.013 A 
ATOM     24  C   UNL A   1      34.210  18.578  25.004  1.00  0.00     0.013 A 
ATOM     25  C   UNL A   1      32.897  17.407  23.352  1.00  0.00     0.001 A 
ATOM     26  C   UNL A   1      33.801  17.385  24.416  1.00  0.00     0.001 A 
ENDBRANCH   9  11
ENDBRANCH   6   7
ENDBRANCH   5   6
ENDBRANCH   3   5
ENDBRANCH   2   3
ENDBRANCH   1   2
BRANCH   1  27
ATOM     27  C   UNL A   1      31.714  30.342  26.010  1.00  0.00     0.275 C 
BRANCH  27  28
ATOM     28  O   UNL A   1      33.063  30.242  26.496  1.00  0.00    -0.458 OA
BRANCH  28  29
ATOM     29  C   UNL A   1      33.521  31.338  27.142  1.00  0.00     0.338 C 
ATOM     30  O   UNL A   1      32.934  32.396  27.292  1.00  0.00    -0.246 OA
BRANCH  29  31
ATOM     31  C   UNL A   1      34.807  31.029  27.793  1.00  0.00     0.060 A 
ATOM     32  C   UNL A   1      35.005  29.717  28.234  1.00  0.00     0.016 A 
ATOM     33  C   UNL A   1      35.795  32.000  27.989  1.00  0.00     0.016 A 
ATOM     34  C   UNL A   1      36.191  29.370  28.875  1.00  0.00     0.010 A 
ATOM     35  C   UNL A   1      36.984  31.652  28.637  1.00  0.00     0.010 A 
ATOM     36  C   UNL A   1      37.182  30.338  29.090  1.00  0.00    -0.014 A 
BRANCH  36  37
ATOM     37  C   UNL A   1      38.408  29.958  29.825  1.00  0.00     0.031 A 
ATOM     38  C   UNL A   1      38.632  30.464  31.217  1.00  0.00     0.074 A 
ATOM     39  C   UNL A   1      39.288  29.116  29.258  1.00  0.00     0.049 A 
ATOM     40  N   UNL A   1      39.592  30.174  32.059  1.00  0.00    -0.248 NA
ATOM     41  C   UNL A   1      37.644  31.425  31.734  1.00  0.00     0.031 C 
ATOM     42  C   UNL A   1      39.168  28.550  27.916  1.00  0.00     0.029 A 
ATOM     43  N   UNL A   1      40.450  28.578  29.750  1.00  0.00    -0.354 N 
ATOM     44  C   UNL A   1      39.323  30.910  33.204  1.00  0.00     0.074 A 
ATOM     45  C   UNL A   1      38.125  31.681  32.942  1.00  0.00     0.031 C 
ATOM     46  C   UNL A   1      40.209  27.730  27.694  1.00  0.00     0.029 A 
ATOM     47  C   UNL A   1      41.070  27.722  28.875  1.00  0.00     0.049 A 
ATOM     48  H   UNL A   1      40.806  28.787  30.644  1.00  0.00     0.167 HD
ATOM     49  C   UNL A   1      40.009  30.930  34.371  1.00  0.00     0.037 A 
ATOM     50  C   UNL A   1      42.199  27.004  29.018  1.00  0.00     0.037 A 
ATOM     51  C   UNL A   1      41.195  30.160  34.634  1.00  0.00     0.049 A 
ATOM     52  C   UNL A   1      42.957  27.070  30.314  1.00  0.00     0.074 A 
ATOM     53  C   UNL A   1      41.938  30.086  35.800  1.00  0.00     0.029 A 
ATOM     54  N   UNL A   1      41.818  29.335  33.710  1.00  0.00    -0.354 N 
ATOM     55  N   UNL A   1      42.669  27.730  31.409  1.00  0.00    -0.248 NA
ATOM     56  C   UNL A   1      44.198  26.286  30.393  1.00  0.00     0.031 C 
ATOM     57  C   UNL A   1      43.030  29.240  35.570  1.00  0.00     0.029 A 
ATOM     58  C   UNL A   1      42.950  28.766  34.271  1.00  0.00     0.049 A 
ATOM     59  H   UNL A   1      41.502  29.178  32.791  1.00  0.00     0.167 HD
ATOM     60  C   UNL A   1      43.677  27.426  32.314  1.00  0.00     0.074 A 
ATOM     61  C   UNL A   1      44.581  26.515  31.643  1.00  0.00     0.031 C 
ATOM     62  C   UNL A   1      43.838  27.863  33.586  1.00  0.00     0.037 A 
BRANCH  49  63
ATOM     63  C   UNL A   1      39.492  31.829  35.450  1.00  0.00     0.064 A 
ATOM     64  C   UNL A   1      38.591  31.365  36.421  1.00  0.00     0.173 A 
ATOM     65  C   UNL A   1      39.919  33.162  35.529  1.00  0.00     0.173 A 
ATOM     66  F   UNL A   1      38.145  30.102  36.377  1.00  0.00    -0.203 F 
ATOM     67  C   UNL A   1      38.121  32.213  37.420  1.00  0.00     0.198 A 
ATOM     68  C   UNL A   1      39.460  34.002  36.540  1.00  0.00     0.198 A 
ATOM     69  F   UNL A   1      40.780  33.651  34.622  1.00  0.00    -0.203 F 
ATOM     70  F   UNL A   1      37.234  31.760  38.318  1.00  0.00    -0.200 F 
ATOM     71  C   UNL A   1      38.559  33.528  37.483  1.00  0.00     0.200 A 
ATOM     72  F   UNL A   1      39.886  35.271  36.601  1.00  0.00    -0.200 F 
ATOM     73  F   UNL A   1      38.105  34.342  38.445  1.00  0.00    -0.200 F 
ENDBRANCH  49  63
BRANCH  50  74
ATOM     74  C   UNL A   1      42.664  26.137  27.911  1.00  0.00     0.064 A 
ATOM     75  C   UNL A   1      42.195  24.823  27.784  1.00  0.00     0.173 A 
ATOM     76  C   UNL A   1      43.582  26.602  26.960  1.00  0.00     0.173 A 
ATOM     77  F   UNL A   1      41.333  24.330  28.686  1.00  0.00    -0.203 F 
ATOM     78  C   UNL A   1      42.635  24.002  26.748  1.00  0.00     0.198 A 
ATOM     79  C   UNL A   1      44.008  25.787  25.915  1.00  0.00     0.198 A 
ATOM     80  F   UNL A   1      44.062  27.853  27.046  1.00  0.00    -0.203 F 
ATOM     81  F   UNL A   1      42.195  22.739  26.664  1.00  0.00    -0.200 F 
ATOM     82  C   UNL A   1      43.537  24.486  25.812  1.00  0.00     0.200 A 
ATOM     83  F   UNL A   1      44.876  26.259  25.010  1.00  0.00    -0.200 F 
ATOM     84  F   UNL A   1      43.959  23.697  24.815  1.00  0.00    -0.200 F 
ENDBRANCH  50  74
BRANCH  62  85
ATOM     85  C   UNL A   1      45.029  27.347  34.335  1.00  0.00     0.064 A 
ATOM     86  C   UNL A   1      44.963  26.162  35.081  1.00  0.00     0.173 A 
ATOM     87  C   UNL A   1      46.251  28.034  34.292  1.00  0.00     0.173 A 
ATOM     88  F   UNL A   1      43.811  25.481  35.165  1.00  0.00    -0.203 F 
ATOM     89  C   UNL A   1      46.075  25.693  35.774  1.00  0.00     0.198 A 
ATOM     90  C   UNL A   1      47.366  27.551  34.970  1.00  0.00     0.198 A 
ATOM     91  F   UNL A   1      46.362  29.172  33.590  1.00  0.00    -0.203 F 
ATOM     92  F   UNL A   1      45.981  24.578  36.513  1.00  0.00    -0.200 F 
ATOM     93  C   UNL A   1      47.275  26.385  35.715  1.00  0.00     0.200 A 
ATOM     94  F   UNL A   1      48.527  28.218  34.909  1.00  0.00    -0.200 F 
ATOM     95  F   UNL A   1      48.345  25.933  36.385  1.00  0.00    -0.200 F 
ENDBRANCH  62  85
ENDBRANCH  36  37
ENDBRANCH  29  31
ENDBRANCH  28  29
ENDBRANCH  27  28
ENDBRANCH   1  27
TORSDOF 14
ENDMDL
