MODEL 1
REMARK VINA RESULT:     -12.0      0.000      0.000
REMARK SMILES O=C(OCCOC(=O)c1cn(-c2ccnc3ccc(Cl)cc23)cn1)c1ccc(-c2c3nc(c(-c4c(F)c(F)c(F)c(F)c4F)c4ccc([nH]4)c(-c4c(F)c(F)c(F)c(F)c4F)c4nc(c(-c5c(F)c(F)c(F)c(F)c5F)c5ccc2[nH]5)C=C4)C=C3)cc1
REMARK SMILES IDX 4 1 3 2 2 3 1 4 25 5 26 6 87 7 27 8 86 9 28 10 29 11 30 12
REMARK SMILES IDX 80 13 31 14 85 15 79 16 81 17 32 18 84 19 78 20 77 21 33 23
REMARK SMILES IDX 65 24 45 25 64 26 46 27 49 28 63 29 82 30 47 31 48 32 62 34
REMARK SMILES IDX 83 35 50 36 34 37 35 38 43 39 36 40 37 41 41 42 44 43 38 44
REMARK SMILES IDX 39 45 42 46 40 47 66 48 67 49 75 50 68 51 69 52 73 53 76 54
REMARK SMILES IDX 70 55 71 56 74 57 72 58 51 59 52 60 60 61 53 62 54 63 58 64
REMARK SMILES IDX 61 65 55 66 56 67 59 68 57 69 5 70 6 71 7 72 8 73 9 74 10 75
REMARK SMILES IDX 24 76 11 77 23 78 12 79 13 80 22 81 14 82 16 83 21 84 15 85
REMARK SMILES IDX 17 86 19 87 18 88 20 89
REMARK H PARENT 81 22 49 33
REMARK Flexibility Score: inf
ROOT
ATOM      1  C   UNL A   1      41.003  20.330  27.444  1.00  0.00     0.275 C 
ENDROOT
BRANCH   1   2
ATOM      2  O   UNL A   1      41.147  21.758  27.271  1.00  0.00    -0.458 OA
BRANCH   2   3
ATOM      3  C   UNL A   1      40.094  22.497  26.853  1.00  0.00     0.338 C 
ATOM      4  O   UNL A   1      39.076  22.023  26.377  1.00  0.00    -0.246 OA
BRANCH   3   5
ATOM      5  C   UNL A   1      40.234  23.922  27.248  1.00  0.00     0.060 A 
ATOM      6  C   UNL A   1      41.325  24.374  27.999  1.00  0.00     0.016 A 
ATOM      7  C   UNL A   1      39.245  24.828  26.847  1.00  0.00     0.016 A 
ATOM      8  C   UNL A   1      41.388  25.698  28.411  1.00  0.00     0.010 A 
ATOM      9  C   UNL A   1      39.313  26.159  27.251  1.00  0.00     0.010 A 
ATOM     10  C   UNL A   1      40.363  26.584  28.071  1.00  0.00    -0.014 A 
BRANCH  10  11
ATOM     11  C   UNL A   1      40.452  27.946  28.593  1.00  0.00     0.031 A 
ATOM     12  C   UNL A   1      41.602  28.786  28.135  1.00  0.00     0.074 A 
ATOM     13  C   UNL A   1      39.501  28.493  29.376  1.00  0.00     0.049 A 
ATOM     14  N   UNL A   1      42.505  29.393  28.843  1.00  0.00    -0.248 NA
ATOM     15  C   UNL A   1      41.775  28.953  26.686  1.00  0.00     0.031 C 
ATOM     16  C   UNL A   1      38.174  27.971  29.709  1.00  0.00     0.029 A 
ATOM     17  N   UNL A   1      39.516  29.714  29.983  1.00  0.00    -0.354 N 
ATOM     18  C   UNL A   1      43.286  30.125  27.945  1.00  0.00     0.074 A 
ATOM     19  C   UNL A   1      42.832  29.764  26.625  1.00  0.00     0.031 C 
ATOM     20  C   UNL A   1      37.440  28.953  30.279  1.00  0.00     0.029 A 
ATOM     21  C   UNL A   1      38.290  30.112  30.485  1.00  0.00     0.049 A 
ATOM     22  H   UNL A   1      40.329  30.264  30.058  1.00  0.00     0.167 HD
ATOM     23  C   UNL A   1      44.174  31.081  28.340  1.00  0.00     0.037 A 
ATOM     24  C   UNL A   1      37.982  31.332  30.984  1.00  0.00     0.037 A 
ATOM     25  C   UNL A   1      44.554  30.929  29.717  1.00  0.00     0.049 A 
ATOM     26  C   UNL A   1      39.248  32.004  31.365  1.00  0.00     0.074 A 
ATOM     27  C   UNL A   1      45.200  29.942  30.437  1.00  0.00     0.029 A 
ATOM     28  N   UNL A   1      44.007  31.757  30.663  1.00  0.00    -0.354 N 
ATOM     29  N   UNL A   1      40.004  31.632  32.359  1.00  0.00    -0.248 NA
ATOM     30  C   UNL A   1      39.888  32.857  30.376  1.00  0.00     0.031 C 
ATOM     31  C   UNL A   1      44.554  29.933  31.708  1.00  0.00     0.029 A 
ATOM     32  C   UNL A   1      43.590  30.939  31.684  1.00  0.00     0.049 A 
ATOM     33  H   UNL A   1      43.929  32.738  30.619  1.00  0.00     0.167 HD
ATOM     34  C   UNL A   1      41.300  31.855  31.920  1.00  0.00     0.074 A 
ATOM     35  C   UNL A   1      41.163  32.696  30.736  1.00  0.00     0.031 C 
ATOM     36  C   UNL A   1      42.347  31.117  32.393  1.00  0.00     0.037 A 
BRANCH  23  37
ATOM     37  C   UNL A   1      44.542  32.303  27.536  1.00  0.00     0.064 A 
ATOM     38  C   UNL A   1      45.763  32.352  26.832  1.00  0.00     0.173 A 
ATOM     39  C   UNL A   1      43.858  33.531  27.652  1.00  0.00     0.173 A 
ATOM     40  F   UNL A   1      46.512  31.250  26.685  1.00  0.00    -0.203 F 
ATOM     41  C   UNL A   1      46.279  33.551  26.328  1.00  0.00     0.198 A 
ATOM     42  C   UNL A   1      44.352  34.716  27.105  1.00  0.00     0.198 A 
ATOM     43  F   UNL A   1      42.739  33.647  28.379  1.00  0.00    -0.203 F 
ATOM     44  F   UNL A   1      47.491  33.565  25.755  1.00  0.00    -0.200 F 
ATOM     45  C   UNL A   1      45.575  34.732  26.467  1.00  0.00     0.200 A 
ATOM     46  F   UNL A   1      43.661  35.854  27.264  1.00  0.00    -0.200 F 
ATOM     47  F   UNL A   1      46.089  35.888  26.028  1.00  0.00    -0.200 F 
ENDBRANCH  23  37
BRANCH  24  48
ATOM     48  C   UNL A   1      36.699  32.055  30.862  1.00  0.00     0.064 A 
ATOM     49  C   UNL A   1      35.852  32.231  31.966  1.00  0.00     0.173 A 
ATOM     50  C   UNL A   1      36.409  32.819  29.716  1.00  0.00     0.173 A 
ATOM     51  F   UNL A   1      36.094  31.579  33.112  1.00  0.00    -0.203 F 
ATOM     52  C   UNL A   1      34.784  33.131  31.928  1.00  0.00     0.198 A 
ATOM     53  C   UNL A   1      35.339  33.712  29.676  1.00  0.00     0.198 A 
ATOM     54  F   UNL A   1      37.217  32.786  28.645  1.00  0.00    -0.203 F 
ATOM     55  F   UNL A   1      34.028  33.318  33.020  1.00  0.00    -0.200 F 
ATOM     56  C   UNL A   1      34.532  33.876  30.786  1.00  0.00     0.200 A 
ATOM     57  F   UNL A   1      35.133  34.454  28.580  1.00  0.00    -0.200 F 
ATOM     58  F   UNL A   1      33.545  34.782  30.771  1.00  0.00    -0.200 F 
ENDBRANCH  24  48
BRANCH  36  59
ATOM     59  C   UNL A   1      42.094  30.207  33.564  1.00  0.00     0.064 A 
ATOM     60  C   UNL A   1      41.685  28.869  33.430  1.00  0.00     0.173 A 
ATOM     61  C   UNL A   1      42.424  30.652  34.851  1.00  0.00     0.173 A 
ATOM     62  F   UNL A   1      41.465  28.334  32.224  1.00  0.00    -0.203 F 
ATOM     63  C   UNL A   1      41.557  28.034  34.539  1.00  0.00     0.198 A 
ATOM     64  C   UNL A   1      42.333  29.806  35.953  1.00  0.00     0.198 A 
ATOM     65  F   UNL A   1      42.886  31.900  35.034  1.00  0.00    -0.203 F 
ATOM     66  F   UNL A   1      41.153  26.765  34.382  1.00  0.00    -0.200 F 
ATOM     67  C   UNL A   1      41.888  28.502  35.799  1.00  0.00     0.200 A 
ATOM     68  F   UNL A   1      42.707  30.244  37.163  1.00  0.00    -0.200 F 
ATOM     69  F   UNL A   1      41.810  27.687  36.861  1.00  0.00    -0.200 F 
ENDBRANCH  36  59
ENDBRANCH  10  11
ENDBRANCH   3   5
ENDBRANCH   2   3
ENDBRANCH   1   2
BRANCH   1  70
ATOM     70  C   UNL A   1      41.677  19.422  26.418  1.00  0.00     0.275 C 
BRANCH  70  71
ATOM     71  O   UNL A   1      42.414  20.232  25.494  1.00  0.00    -0.457 OA
BRANCH  71  72
ATOM     72  C   UNL A   1      43.715  19.877  25.294  1.00  0.00     0.358 C 
ATOM     73  O   UNL A   1      44.127  18.734  25.141  1.00  0.00    -0.244 OA
BRANCH  72  74
ATOM     74  C   UNL A   1      44.582  21.037  25.376  1.00  0.00     0.166 A 
ATOM     75  C   UNL A   1      44.158  22.324  25.619  1.00  0.00     0.129 A 
ATOM     76  N   UNL A   1      45.954  21.019  25.192  1.00  0.00    -0.229 NA
ATOM     77  N   UNL A   1      45.295  23.086  25.661  1.00  0.00    -0.305 N 
ATOM     78  C   UNL A   1      46.347  22.262  25.360  1.00  0.00     0.205 A 
BRANCH  77  79
ATOM     79  C   UNL A   1      45.356  24.444  26.006  1.00  0.00     0.057 A 
ATOM     80  C   UNL A   1      45.641  25.364  25.001  1.00  0.00     0.047 A 
ATOM     81  C   UNL A   1      45.078  24.850  27.333  1.00  0.00     0.026 A 
ATOM     82  C   UNL A   1      45.569  26.696  25.343  1.00  0.00     0.114 A 
ATOM     83  C   UNL A   1      45.043  26.239  27.559  1.00  0.00     0.072 A 
ATOM     84  C   UNL A   1      44.899  23.968  28.435  1.00  0.00     0.033 A 
ATOM     85  N   UNL A   1      45.269  27.138  26.584  1.00  0.00    -0.256 NA
ATOM     86  C   UNL A   1      44.779  26.698  28.844  1.00  0.00     0.030 A 
ATOM     87  C   UNL A   1      44.653  24.457  29.711  1.00  0.00     0.041 A 
ATOM     88  C   UNL A   1      44.583  25.824  29.920  1.00  0.00     0.023 A 
ATOM     89  Cl  UNL A   1      44.456  23.366  31.022  1.00  0.00    -0.084 Cl
ENDBRANCH  77  79
ENDBRANCH  72  74
ENDBRANCH  71  72
ENDBRANCH  70  71
ENDBRANCH   1  70
TORSDOF 12
ENDMDL
MODEL 2
REMARK VINA RESULT:     -11.9      4.343     11.229
REMARK SMILES O=C(OCCOC(=O)c1cn(-c2ccnc3ccc(Cl)cc23)cn1)c1ccc(-c2c3nc(c(-c4c(F)c(F)c(F)c(F)c4F)c4ccc([nH]4)c(-c4c(F)c(F)c(F)c(F)c4F)c4nc(c(-c5c(F)c(F)c(F)c(F)c5F)c5ccc2[nH]5)C=C4)C=C3)cc1
REMARK SMILES IDX 4 1 3 2 2 3 1 4 25 5 26 6 87 7 27 8 86 9 28 10 29 11 30 12
REMARK SMILES IDX 80 13 31 14 85 15 79 16 81 17 32 18 84 19 78 20 77 21 33 23
REMARK SMILES IDX 65 24 45 25 64 26 46 27 49 28 63 29 82 30 47 31 48 32 62 34
REMARK SMILES IDX 83 35 50 36 34 37 35 38 43 39 36 40 37 41 41 42 44 43 38 44
REMARK SMILES IDX 39 45 42 46 40 47 66 48 67 49 75 50 68 51 69 52 73 53 76 54
REMARK SMILES IDX 70 55 71 56 74 57 72 58 51 59 52 60 60 61 53 62 54 63 58 64
REMARK SMILES IDX 61 65 55 66 56 67 59 68 57 69 5 70 6 71 7 72 8 73 9 74 10 75
REMARK SMILES IDX 24 76 11 77 23 78 12 79 13 80 22 81 14 82 16 83 21 84 15 85
REMARK SMILES IDX 17 86 19 87 18 88 20 89
REMARK H PARENT 81 22 49 33
REMARK Flexibility Score: inf
ROOT
ATOM      1  C   UNL A   1      33.866  34.149  27.992  1.00  0.00     0.275 C 
ENDROOT
BRANCH   1   2
ATOM      2  O   UNL A   1      34.964  33.304  28.404  1.00  0.00    -0.458 OA
BRANCH   2   3
ATOM      3  C   UNL A   1      34.851  31.959  28.313  1.00  0.00     0.338 C 
ATOM      4  O   UNL A   1      33.830  31.382  27.981  1.00  0.00    -0.246 OA
BRANCH   3   5
ATOM      5  C   UNL A   1      36.171  31.290  28.445  1.00  0.00     0.060 A 
ATOM      6  C   UNL A   1      36.379  29.978  28.005  1.00  0.00     0.016 A 
ATOM      7  C   UNL A   1      37.228  32.004  29.023  1.00  0.00     0.016 A 
ATOM      8  C   UNL A   1      37.604  29.359  28.208  1.00  0.00     0.010 A 
ATOM      9  C   UNL A   1      38.462  31.387  29.217  1.00  0.00     0.010 A 
ATOM     10  C   UNL A   1      38.636  30.049  28.849  1.00  0.00    -0.014 A 
BRANCH  10  11
ATOM     11  C   UNL A   1      39.879  29.320  29.097  1.00  0.00     0.031 A 
ATOM     12  C   UNL A   1      40.248  29.052  30.522  1.00  0.00     0.074 A 
ATOM     13  C   UNL A   1      40.635  28.805  28.107  1.00  0.00     0.049 A 
ATOM     14  N   UNL A   1      41.335  29.367  31.158  1.00  0.00    -0.248 NA
ATOM     15  C   UNL A   1      39.259  28.352  31.350  1.00  0.00     0.031 C 
ATOM     16  C   UNL A   1      40.325  28.693  26.680  1.00  0.00     0.029 A 
ATOM     17  N   UNL A   1      41.843  28.183  28.212  1.00  0.00    -0.354 N 
ATOM     18  C   UNL A   1      41.228  28.797  32.429  1.00  0.00     0.074 A 
ATOM     19  C   UNL A   1      39.901  28.240  32.514  1.00  0.00     0.031 C 
ATOM     20  C   UNL A   1      41.219  27.864  26.095  1.00  0.00     0.029 A 
ATOM     21  C   UNL A   1      42.238  27.515  27.068  1.00  0.00     0.049 A 
ATOM     22  H   UNL A   1      42.387  28.208  29.033  1.00  0.00     0.167 HD
ATOM     23  C   UNL A   1      42.280  28.703  33.293  1.00  0.00     0.037 A 
ATOM     24  C   UNL A   1      43.301  26.686  26.947  1.00  0.00     0.037 A 
ATOM     25  C   UNL A   1      43.327  29.631  32.970  1.00  0.00     0.049 A 
ATOM     26  C   UNL A   1      44.242  26.982  28.053  1.00  0.00     0.074 A 
ATOM     27  C   UNL A   1      43.414  31.010  32.915  1.00  0.00     0.029 A 
ATOM     28  N   UNL A   1      44.456  29.180  32.335  1.00  0.00    -0.354 N 
ATOM     29  N   UNL A   1      44.934  28.082  28.153  1.00  0.00    -0.248 NA
ATOM     30  C   UNL A   1      44.111  26.211  29.280  1.00  0.00     0.031 C 
ATOM     31  C   UNL A   1      44.271  31.279  31.808  1.00  0.00     0.029 A 
ATOM     32  C   UNL A   1      44.675  30.048  31.294  1.00  0.00     0.049 A 
ATOM     33  H   UNL A   1      44.997  28.393  32.575  1.00  0.00     0.167 HD
ATOM     34  C   UNL A   1      44.973  28.353  29.512  1.00  0.00     0.074 A 
ATOM     35  C   UNL A   1      44.536  27.120  30.159  1.00  0.00     0.031 C 
ATOM     36  C   UNL A   1      45.095  29.630  29.979  1.00  0.00     0.037 A 
BRANCH  23  37
ATOM     37  C   UNL A   1      42.462  27.610  34.315  1.00  0.00     0.064 A 
ATOM     38  C   UNL A   1      43.071  26.390  33.953  1.00  0.00     0.173 A 
ATOM     39  C   UNL A   1      41.817  27.618  35.570  1.00  0.00     0.173 A 
ATOM     40  F   UNL A   1      43.688  26.259  32.770  1.00  0.00    -0.203 F 
ATOM     41  C   UNL A   1      42.994  25.254  34.766  1.00  0.00     0.198 A 
ATOM     42  C   UNL A   1      41.785  26.497  36.400  1.00  0.00     0.198 A 
ATOM     43  F   UNL A   1      41.115  28.678  35.992  1.00  0.00    -0.203 F 
ATOM     44  F   UNL A   1      43.500  24.091  34.335  1.00  0.00    -0.200 F 
ATOM     45  C   UNL A   1      42.349  25.308  35.989  1.00  0.00     0.200 A 
ATOM     46  F   UNL A   1      41.142  26.566  37.574  1.00  0.00    -0.200 F 
ATOM     47  F   UNL A   1      42.233  24.211  36.747  1.00  0.00    -0.200 F 
ENDBRANCH  23  37
BRANCH  24  48
ATOM     48  C   UNL A   1      43.398  25.464  26.121  1.00  0.00     0.064 A 
ATOM     49  C   UNL A   1      44.506  25.227  25.294  1.00  0.00     0.173 A 
ATOM     50  C   UNL A   1      42.527  24.379  26.335  1.00  0.00     0.173 A 
ATOM     51  F   UNL A   1      45.410  26.194  25.083  1.00  0.00    -0.203 F 
ATOM     52  C   UNL A   1      44.735  23.971  24.725  1.00  0.00     0.198 A 
ATOM     53  C   UNL A   1      42.752  23.128  25.761  1.00  0.00     0.198 A 
ATOM     54  F   UNL A   1      41.493  24.485  27.184  1.00  0.00    -0.203 F 
ATOM     55  F   UNL A   1      45.834  23.762  23.986  1.00  0.00    -0.200 F 
ATOM     56  C   UNL A   1      43.862  22.921  24.965  1.00  0.00     0.200 A 
ATOM     57  F   UNL A   1      41.922  22.112  26.035  1.00  0.00    -0.200 F 
ATOM     58  F   UNL A   1      44.114  21.702  24.468  1.00  0.00    -0.200 F 
ENDBRANCH  24  48
BRANCH  36  59
ATOM     59  C   UNL A   1      45.407  30.715  28.986  1.00  0.00     0.064 A 
ATOM     60  C   UNL A   1      44.424  31.383  28.235  1.00  0.00     0.173 A 
ATOM     61  C   UNL A   1      46.719  31.201  28.903  1.00  0.00     0.173 A 
ATOM     62  F   UNL A   1      43.131  31.057  28.348  1.00  0.00    -0.203 F 
ATOM     63  C   UNL A   1      44.749  32.450  27.399  1.00  0.00     0.198 A 
ATOM     64  C   UNL A   1      47.035  32.291  28.096  1.00  0.00     0.198 A 
ATOM     65  F   UNL A   1      47.689  30.648  29.647  1.00  0.00    -0.203 F 
ATOM     66  F   UNL A   1      43.791  33.061  26.685  1.00  0.00    -0.200 F 
ATOM     67  C   UNL A   1      46.053  32.908  27.335  1.00  0.00     0.200 A 
ATOM     68  F   UNL A   1      48.288  32.767  28.080  1.00  0.00    -0.200 F 
ATOM     69  F   UNL A   1      46.360  33.962  26.566  1.00  0.00    -0.200 F 
ENDBRANCH  36  59
ENDBRANCH  10  11
ENDBRANCH   3   5
ENDBRANCH   2   3
ENDBRANCH   1   2
BRANCH   1  70
ATOM     70  C   UNL A   1      33.578  35.394  28.828  1.00  0.00     0.275 C 
BRANCH  70  71
ATOM     71  O   UNL A   1      32.646  35.052  29.862  1.00  0.00    -0.457 OA
BRANCH  71  72
ATOM     72  C   UNL A   1      32.956  35.494  31.114  1.00  0.00     0.358 C 
ATOM     73  O   UNL A   1      32.482  36.482  31.660  1.00  0.00    -0.244 OA
BRANCH  72  74
ATOM     74  C   UNL A   1      34.006  34.681  31.699  1.00  0.00     0.166 A 
ATOM     75  C   UNL A   1      35.127  35.174  32.328  1.00  0.00     0.129 A 
ATOM     76  N   UNL A   1      34.045  33.298  31.681  1.00  0.00    -0.229 NA
ATOM     77  N   UNL A   1      35.817  34.076  32.768  1.00  0.00    -0.305 N 
ATOM     78  C   UNL A   1      35.146  32.969  32.320  1.00  0.00     0.205 A 
BRANCH  77  79
ATOM     79  C   UNL A   1      36.965  34.101  33.572  1.00  0.00     0.057 A 
ATOM     80  C   UNL A   1      36.802  34.017  34.952  1.00  0.00     0.047 A 
ATOM     81  C   UNL A   1      38.247  34.156  32.974  1.00  0.00     0.026 A 
ATOM     82  C   UNL A   1      37.950  33.917  35.706  1.00  0.00     0.114 A 
ATOM     83  C   UNL A   1      39.343  34.055  33.852  1.00  0.00     0.072 A 
ATOM     84  C   UNL A   1      38.491  34.364  31.588  1.00  0.00     0.033 A 
ATOM     85  N   UNL A   1      39.196  33.925  35.183  1.00  0.00    -0.256 NA
ATOM     86  C   UNL A   1      40.626  34.107  33.322  1.00  0.00     0.030 A 
ATOM     87  C   UNL A   1      39.786  34.428  31.092  1.00  0.00     0.041 A 
ATOM     88  C   UNL A   1      40.860  34.291  31.955  1.00  0.00     0.023 A 
ATOM     89  Cl  UNL A   1      40.047  34.695  29.415  1.00  0.00    -0.084 Cl
ENDBRANCH  77  79
ENDBRANCH  72  74
ENDBRANCH  71  72
ENDBRANCH  70  71
ENDBRANCH   1  70
TORSDOF 12
ENDMDL
MODEL 3
REMARK VINA RESULT:     -11.9      4.358     11.294
REMARK SMILES O=C(OCCOC(=O)c1cn(-c2ccnc3ccc(Cl)cc23)cn1)c1ccc(-c2c3nc(c(-c4c(F)c(F)c(F)c(F)c4F)c4ccc([nH]4)c(-c4c(F)c(F)c(F)c(F)c4F)c4nc(c(-c5c(F)c(F)c(F)c(F)c5F)c5ccc2[nH]5)C=C4)C=C3)cc1
REMARK SMILES IDX 4 1 3 2 2 3 1 4 25 5 26 6 87 7 27 8 86 9 28 10 29 11 30 12
REMARK SMILES IDX 80 13 31 14 85 15 79 16 81 17 32 18 84 19 78 20 77 21 33 23
REMARK SMILES IDX 65 24 45 25 64 26 46 27 49 28 63 29 82 30 47 31 48 32 62 34
REMARK SMILES IDX 83 35 50 36 34 37 35 38 43 39 36 40 37 41 41 42 44 43 38 44
REMARK SMILES IDX 39 45 42 46 40 47 66 48 67 49 75 50 68 51 69 52 73 53 76 54
REMARK SMILES IDX 70 55 71 56 74 57 72 58 51 59 52 60 60 61 53 62 54 63 58 64
REMARK SMILES IDX 61 65 55 66 56 67 59 68 57 69 5 70 6 71 7 72 8 73 9 74 10 75
REMARK SMILES IDX 24 76 11 77 23 78 12 79 13 80 22 81 14 82 16 83 21 84 15 85
REMARK SMILES IDX 17 86 19 87 18 88 20 89
REMARK H PARENT 81 22 49 33
REMARK Flexibility Score: inf
ROOT
ATOM      1  C   UNL A   1      34.023  34.308  27.987  1.00  0.00     0.275 C 
ENDROOT
BRANCH   1   2
ATOM      2  O   UNL A   1      35.075  33.416  28.420  1.00  0.00    -0.458 OA
BRANCH   2   3
ATOM      3  C   UNL A   1      34.950  32.082  28.232  1.00  0.00     0.338 C 
ATOM      4  O   UNL A   1      33.937  31.545  27.816  1.00  0.00    -0.246 OA
BRANCH   3   5
ATOM      5  C   UNL A   1      36.254  31.385  28.377  1.00  0.00     0.060 A 
ATOM      6  C   UNL A   1      36.445  30.078  27.916  1.00  0.00     0.016 A 
ATOM      7  C   UNL A   1      37.313  32.067  28.988  1.00  0.00     0.016 A 
ATOM      8  C   UNL A   1      37.654  29.431  28.132  1.00  0.00     0.010 A 
ATOM      9  C   UNL A   1      38.530  31.422  29.195  1.00  0.00     0.010 A 
ATOM     10  C   UNL A   1      38.686  30.089  28.806  1.00  0.00    -0.014 A 
BRANCH  10  11
ATOM     11  C   UNL A   1      39.909  29.331  29.063  1.00  0.00     0.031 A 
ATOM     12  C   UNL A   1      40.257  29.049  30.491  1.00  0.00     0.074 A 
ATOM     13  C   UNL A   1      40.664  28.803  28.080  1.00  0.00     0.049 A 
ATOM     14  N   UNL A   1      41.343  29.336  31.140  1.00  0.00    -0.248 NA
ATOM     15  C   UNL A   1      39.243  28.368  31.306  1.00  0.00     0.031 C 
ATOM     16  C   UNL A   1      40.368  28.704  26.649  1.00  0.00     0.029 A 
ATOM     17  N   UNL A   1      41.857  28.154  28.195  1.00  0.00    -0.354 N 
ATOM     18  C   UNL A   1      41.210  28.765  32.408  1.00  0.00     0.074 A 
ATOM     19  C   UNL A   1      39.870  28.237  32.476  1.00  0.00     0.031 C 
ATOM     20  C   UNL A   1      41.249  27.858  26.070  1.00  0.00     0.029 A 
ATOM     21  C   UNL A   1      42.249  27.481  27.053  1.00  0.00     0.049 A 
ATOM     22  H   UNL A   1      42.392  28.163  29.022  1.00  0.00     0.167 HD
ATOM     23  C   UNL A   1      42.249  28.643  33.282  1.00  0.00     0.037 A 
ATOM     24  C   UNL A   1      43.295  26.629  26.939  1.00  0.00     0.037 A 
ATOM     25  C   UNL A   1      43.321  29.549  32.975  1.00  0.00     0.049 A 
ATOM     26  C   UNL A   1      44.230  26.899  28.057  1.00  0.00     0.074 A 
ATOM     27  C   UNL A   1      43.439  30.925  32.927  1.00  0.00     0.029 A 
ATOM     28  N   UNL A   1      44.446  29.075  32.350  1.00  0.00    -0.354 N 
ATOM     29  N   UNL A   1      44.945  27.984  28.169  1.00  0.00    -0.248 NA
ATOM     30  C   UNL A   1      44.068  26.127  29.279  1.00  0.00     0.031 C 
ATOM     31  C   UNL A   1      44.314  31.180  31.830  1.00  0.00     0.029 A 
ATOM     32  C   UNL A   1      44.696  29.942  31.315  1.00  0.00     0.049 A 
ATOM     33  H   UNL A   1      44.967  28.275  32.592  1.00  0.00     0.167 HD
ATOM     34  C   UNL A   1      44.976  28.247  29.529  1.00  0.00     0.074 A 
ATOM     35  C   UNL A   1      44.504  27.023  30.167  1.00  0.00     0.031 C 
ATOM     36  C   UNL A   1      45.121  29.520  30.004  1.00  0.00     0.037 A 
BRANCH  23  37
ATOM     37  C   UNL A   1      42.396  27.542  34.302  1.00  0.00     0.064 A 
ATOM     38  C   UNL A   1      42.996  26.316  33.946  1.00  0.00     0.173 A 
ATOM     39  C   UNL A   1      41.725  27.552  35.543  1.00  0.00     0.173 A 
ATOM     40  F   UNL A   1      43.637  26.183  32.776  1.00  0.00    -0.203 F 
ATOM     41  C   UNL A   1      42.888  25.177  34.751  1.00  0.00     0.198 A 
ATOM     42  C   UNL A   1      41.661  26.427  36.366  1.00  0.00     0.198 A 
ATOM     43  F   UNL A   1      41.028  28.618  35.956  1.00  0.00    -0.203 F 
ATOM     44  F   UNL A   1      43.388  24.009  34.323  1.00  0.00    -0.200 F 
ATOM     45  C   UNL A   1      42.218  25.233  35.959  1.00  0.00     0.200 A 
ATOM     46  F   UNL A   1      40.994  26.497  37.527  1.00  0.00    -0.200 F 
ATOM     47  F   UNL A   1      42.072  24.133  36.708  1.00  0.00    -0.200 F 
ENDBRANCH  23  37
BRANCH  24  48
ATOM     48  C   UNL A   1      43.373  25.408  26.109  1.00  0.00     0.064 A 
ATOM     49  C   UNL A   1      44.467  25.169  25.264  1.00  0.00     0.173 A 
ATOM     50  C   UNL A   1      42.501  24.327  26.335  1.00  0.00     0.173 A 
ATOM     51  F   UNL A   1      45.371  26.133  25.041  1.00  0.00    -0.203 F 
ATOM     52  C   UNL A   1      44.681  23.913  24.688  1.00  0.00     0.198 A 
ATOM     53  C   UNL A   1      42.711  23.076  25.755  1.00  0.00     0.198 A 
ATOM     54  F   UNL A   1      41.482  24.435  27.200  1.00  0.00    -0.203 F 
ATOM     55  F   UNL A   1      45.767  23.702  23.931  1.00  0.00    -0.200 F 
ATOM     56  C   UNL A   1      43.808  22.866  24.941  1.00  0.00     0.200 A 
ATOM     57  F   UNL A   1      41.882  22.063  26.040  1.00  0.00    -0.200 F 
ATOM     58  F   UNL A   1      44.047  21.648  24.436  1.00  0.00    -0.200 F 
ENDBRANCH  24  48
BRANCH  36  59
ATOM     59  C   UNL A   1      45.468  30.602  29.018  1.00  0.00     0.064 A 
ATOM     60  C   UNL A   1      46.788  30.927  28.659  1.00  0.00     0.173 A 
ATOM     61  C   UNL A   1      44.436  31.222  28.302  1.00  0.00     0.173 A 
ATOM     62  F   UNL A   1      47.829  30.294  29.213  1.00  0.00    -0.203 F 
ATOM     63  C   UNL A   1      47.059  31.869  27.668  1.00  0.00     0.198 A 
ATOM     64  C   UNL A   1      44.710  32.135  27.286  1.00  0.00     0.198 A 
ATOM     65  F   UNL A   1      43.157  30.902  28.553  1.00  0.00    -0.203 F 
ATOM     66  F   UNL A   1      48.329  32.168  27.355  1.00  0.00    -0.200 F 
ATOM     67  C   UNL A   1      46.019  32.467  26.978  1.00  0.00     0.200 A 
ATOM     68  F   UNL A   1      43.702  32.670  26.582  1.00  0.00    -0.200 F 
ATOM     69  F   UNL A   1      46.279  33.340  25.994  1.00  0.00    -0.200 F 
ENDBRANCH  36  59
ENDBRANCH  10  11
ENDBRANCH   3   5
ENDBRANCH   2   3
ENDBRANCH   1   2
BRANCH   1  70
ATOM     70  C   UNL A   1      33.710  35.515  28.867  1.00  0.00     0.275 C 
BRANCH  70  71
ATOM     71  O   UNL A   1      32.694  35.151  29.811  1.00  0.00    -0.457 OA
BRANCH  71  72
ATOM     72  C   UNL A   1      32.920  35.522  31.103  1.00  0.00     0.358 C 
ATOM     73  O   UNL A   1      32.389  36.463  31.679  1.00  0.00    -0.244 OA
BRANCH  72  74
ATOM     74  C   UNL A   1      33.956  34.700  31.699  1.00  0.00     0.166 A 
ATOM     75  C   UNL A   1      35.067  35.183  32.354  1.00  0.00     0.129 A 
ATOM     76  N   UNL A   1      33.991  33.317  31.668  1.00  0.00    -0.229 NA
ATOM     77  N   UNL A   1      35.745  34.077  32.795  1.00  0.00    -0.305 N 
ATOM     78  C   UNL A   1      35.079  32.978  32.324  1.00  0.00     0.205 A 
BRANCH  77  79
ATOM     79  C   UNL A   1      36.878  34.091  33.621  1.00  0.00     0.057 A 
ATOM     80  C   UNL A   1      36.690  33.993  34.997  1.00  0.00     0.047 A 
ATOM     81  C   UNL A   1      38.172  34.148  33.048  1.00  0.00     0.026 A 
ATOM     82  C   UNL A   1      37.823  33.882  35.771  1.00  0.00     0.114 A 
ATOM     83  C   UNL A   1      39.250  34.034  33.945  1.00  0.00     0.072 A 
ATOM     84  C   UNL A   1      38.442  34.369  31.669  1.00  0.00     0.033 A 
ATOM     85  N   UNL A   1      39.078  33.891  35.271  1.00  0.00    -0.256 NA
ATOM     86  C   UNL A   1      40.544  34.088  33.439  1.00  0.00     0.030 A 
ATOM     87  C   UNL A   1      39.746  34.434  31.197  1.00  0.00     0.041 A 
ATOM     88  C   UNL A   1      40.803  34.285  32.078  1.00  0.00     0.023 A 
ATOM     89  Cl  UNL A   1      40.039  34.717  29.528  1.00  0.00    -0.084 Cl
ENDBRANCH  77  79
ENDBRANCH  72  74
ENDBRANCH  71  72
ENDBRANCH  70  71
ENDBRANCH   1  70
TORSDOF 12
ENDMDL
