MODEL 1
REMARK VINA RESULT:     -11.5      0.000      0.000
REMARK SMILES CC(C)N(CCCC(=O)OCCOC(=O)c1ccc(-c2c3nc(c(-c4c(F)c(F)c(F)c(F)c4F)c4ccc([nH]4)c(-c4c(F)c(F)c(F)c(F)c4F)c4nc(c(-c5c(F)c(F)c(F)c(F)c5F)c5ccc2[nH]5)C=C4)C=C3)cc1)C(=O)Cc1c(F)cccc1F
REMARK SMILES IDX 8 1 9 2 7 3 6 4 5 5 4 6 2 7 1 8 3 9 79 10 80 11 81 12 82 13
REMARK SMILES IDX 83 14 88 15 84 16 85 17 87 18 89 19 86 20 10 21 11 22 12 23
REMARK SMILES IDX 13 24 14 25 15 26 16 27 17 28 78 29 18 30 77 31 19 32 20 33
REMARK SMILES IDX 21 34 71 35 22 36 76 37 70 38 72 39 23 40 75 41 69 42 68 43
REMARK SMILES IDX 24 45 56 46 36 47 55 48 37 49 40 50 54 51 73 52 38 53 39 54
REMARK SMILES IDX 53 56 74 57 41 58 25 59 26 60 34 61 27 62 28 63 32 64 35 65
REMARK SMILES IDX 29 66 30 67 33 68 31 69 57 70 58 71 66 72 59 73 60 74 64 75
REMARK SMILES IDX 67 76 61 77 62 78 65 79 63 80 42 81 43 82 51 83 44 84 45 85
REMARK SMILES IDX 49 86 52 87 46 88 47 89 50 90 48 91
REMARK H PARENT 72 44 40 55
REMARK Flexibility Score: inf
ROOT
ATOM      1  C   UNL A   1      31.769  26.471  26.344  1.00  0.00     0.305 C 
ATOM      2  O   UNL A   1      31.288  25.477  26.874  1.00  0.00    -0.252 OA
ENDROOT
BRANCH   1   3
ATOM      3  C   UNL A   1      33.266  26.608  26.095  1.00  0.00     0.124 C 
BRANCH   3   4
ATOM      4  C   UNL A   1      33.967  25.431  25.447  1.00  0.00     0.033 C 
BRANCH   4   5
ATOM      5  C   UNL A   1      34.318  25.377  23.950  1.00  0.00     0.120 C 
BRANCH   5   6
ATOM      6  N   UNL A   1      33.418  25.003  22.836  1.00  0.00    -0.340 N 
BRANCH   6   7
ATOM      7  C   UNL A   1      32.961  26.167  22.023  1.00  0.00     0.078 C 
ATOM      8  C   UNL A   1      31.452  26.449  22.136  1.00  0.00     0.031 C 
ATOM      9  C   UNL A   1      33.797  27.420  22.276  1.00  0.00     0.031 C 
ENDBRANCH   6   7
BRANCH   6  10
ATOM     10  C   UNL A   1      32.999  23.770  22.366  1.00  0.00     0.227 C 
ATOM     11  O   UNL A   1      33.400  23.382  21.255  1.00  0.00    -0.275 OA
BRANCH  10  12
ATOM     12  C   UNL A   1      32.048  22.838  23.081  1.00  0.00     0.142 C 
BRANCH  12  13
ATOM     13  C   UNL A   1      32.449  21.467  23.571  1.00  0.00     0.033 A 
ATOM     14  C   UNL A   1      32.839  21.151  24.869  1.00  0.00     0.129 A 
ATOM     15  C   UNL A   1      32.217  20.374  22.721  1.00  0.00     0.129 A 
ATOM     16  F   UNL A   1      33.068  22.097  25.771  1.00  0.00    -0.207 F 
ATOM     17  C   UNL A   1      32.966  19.834  25.318  1.00  0.00     0.040 A 
ATOM     18  C   UNL A   1      32.356  19.050  23.143  1.00  0.00     0.040 A 
ATOM     19  F   UNL A   1      31.784  20.582  21.469  1.00  0.00    -0.207 F 
ATOM     20  C   UNL A   1      32.721  18.775  24.454  1.00  0.00     0.006 A 
ENDBRANCH  12  13
ENDBRANCH  10  12
ENDBRANCH   6  10
ENDBRANCH   5   6
ENDBRANCH   4   5
ENDBRANCH   3   4
ENDBRANCH   1   3
BRANCH   1  21
ATOM     21  O   UNL A   1      31.059  27.568  25.979  1.00  0.00    -0.462 OA
BRANCH  21  22
ATOM     22  C   UNL A   1      31.727  28.536  25.137  1.00  0.00     0.274 C 
BRANCH  22  23
ATOM     23  C   UNL A   1      31.811  29.885  25.856  1.00  0.00     0.275 C 
BRANCH  23  24
ATOM     24  O   UNL A   1      33.179  30.124  26.221  1.00  0.00    -0.458 OA
BRANCH  24  25
ATOM     25  C   UNL A   1      33.371  31.233  26.971  1.00  0.00     0.338 C 
ATOM     26  O   UNL A   1      32.555  32.091  27.261  1.00  0.00    -0.246 OA
BRANCH  25  27
ATOM     27  C   UNL A   1      34.659  31.051  27.654  1.00  0.00     0.060 A 
ATOM     28  C   UNL A   1      35.039  29.744  27.984  1.00  0.00     0.016 A 
ATOM     29  C   UNL A   1      35.512  32.128  27.891  1.00  0.00     0.016 A 
ATOM     30  C   UNL A   1      36.289  29.497  28.533  1.00  0.00     0.010 A 
ATOM     31  C   UNL A   1      36.750  31.888  28.476  1.00  0.00     0.010 A 
ATOM     32  C   UNL A   1      37.134  30.575  28.806  1.00  0.00    -0.014 A 
BRANCH  32  33
ATOM     33  C   UNL A   1      38.346  30.373  29.622  1.00  0.00     0.031 A 
ATOM     34  C   UNL A   1      39.388  29.445  29.076  1.00  0.00     0.074 A 
ATOM     35  C   UNL A   1      38.474  30.962  30.821  1.00  0.00     0.049 A 
ATOM     36  N   UNL A   1      40.411  28.901  29.674  1.00  0.00    -0.248 NA
ATOM     37  C   UNL A   1      39.239  29.060  27.660  1.00  0.00     0.031 C 
ATOM     38  C   UNL A   1      37.540  31.932  31.391  1.00  0.00     0.029 A 
ATOM     39  N   UNL A   1      39.429  30.801  31.789  1.00  0.00    -0.354 N 
ATOM     40  C   UNL A   1      40.997  28.075  28.725  1.00  0.00     0.074 A 
ATOM     41  C   UNL A   1      40.226  28.190  27.511  1.00  0.00     0.031 C 
ATOM     42  C   UNL A   1      37.948  32.251  32.631  1.00  0.00     0.029 A 
ATOM     43  C   UNL A   1      39.136  31.465  32.956  1.00  0.00     0.049 A 
ATOM     44  H   UNL A   1      40.243  30.263  31.663  1.00  0.00     0.167 HD
ATOM     45  C   UNL A   1      42.080  27.281  28.876  1.00  0.00     0.037 A 
ATOM     46  C   UNL A   1      39.737  31.391  34.159  1.00  0.00     0.037 A 
ATOM     47  C   UNL A   1      42.839  27.210  30.095  1.00  0.00     0.049 A 
ATOM     48  C   UNL A   1      40.922  30.467  34.308  1.00  0.00     0.074 A 
ATOM     49  C   UNL A   1      43.972  26.468  30.365  1.00  0.00     0.029 A 
ATOM     50  N   UNL A   1      42.530  27.917  31.250  1.00  0.00    -0.354 N 
ATOM     51  N   UNL A   1      41.480  29.684  33.415  1.00  0.00    -0.248 NA
ATOM     52  C   UNL A   1      41.556  30.409  35.632  1.00  0.00     0.031 C 
ATOM     53  C   UNL A   1      44.323  26.689  31.699  1.00  0.00     0.029 A 
ATOM     54  C   UNL A   1      43.442  27.612  32.243  1.00  0.00     0.049 A 
ATOM     55  H   UNL A   1      41.776  28.542  31.346  1.00  0.00     0.167 HD
ATOM     56  C   UNL A   1      42.548  29.071  34.054  1.00  0.00     0.074 A 
ATOM     57  C   UNL A   1      42.565  29.578  35.411  1.00  0.00     0.031 C 
ATOM     58  C   UNL A   1      43.438  28.168  33.572  1.00  0.00     0.037 A 
BRANCH  45  59
ATOM     59  C   UNL A   1      42.477  26.402  27.729  1.00  0.00     0.064 A 
ATOM     60  C   UNL A   1      41.857  25.168  27.487  1.00  0.00     0.173 A 
ATOM     61  C   UNL A   1      43.468  26.827  26.831  1.00  0.00     0.173 A 
ATOM     62  F   UNL A   1      40.921  24.705  28.330  1.00  0.00    -0.203 F 
ATOM     63  C   UNL A   1      42.221  24.388  26.392  1.00  0.00     0.198 A 
ATOM     64  C   UNL A   1      43.811  26.057  25.723  1.00  0.00     0.198 A 
ATOM     65  F   UNL A   1      44.098  27.996  27.023  1.00  0.00    -0.203 F 
ATOM     66  F   UNL A   1      41.641  23.196  26.198  1.00  0.00    -0.200 F 
ATOM     67  C   UNL A   1      43.188  24.838  25.506  1.00  0.00     0.200 A 
ATOM     68  F   UNL A   1      44.740  26.498  24.865  1.00  0.00    -0.200 F 
ATOM     69  F   UNL A   1      43.525  24.093  24.443  1.00  0.00    -0.200 F 
ENDBRANCH  45  59
BRANCH  46  70
ATOM     70  C   UNL A   1      39.213  32.159  35.320  1.00  0.00     0.064 A 
ATOM     71  C   UNL A   1      39.525  33.515  35.495  1.00  0.00     0.173 A 
ATOM     72  C   UNL A   1      38.422  31.546  36.305  1.00  0.00     0.173 A 
ATOM     73  F   UNL A   1      40.297  34.144  34.597  1.00  0.00    -0.203 F 
ATOM     74  C   UNL A   1      39.098  34.216  36.621  1.00  0.00     0.198 A 
ATOM     75  C   UNL A   1      37.966  32.257  37.414  1.00  0.00     0.198 A 
ATOM     76  F   UNL A   1      38.092  30.250  36.193  1.00  0.00    -0.203 F 
ATOM     77  F   UNL A   1      39.468  35.493  36.794  1.00  0.00    -0.200 F 
ATOM     78  C   UNL A   1      38.316  33.588  37.578  1.00  0.00     0.200 A 
ATOM     79  F   UNL A   1      37.201  31.647  38.330  1.00  0.00    -0.200 F 
ATOM     80  F   UNL A   1      37.911  34.261  38.664  1.00  0.00    -0.200 F 
ENDBRANCH  46  70
BRANCH  58  81
ATOM     81  C   UNL A   1      44.535  27.726  34.493  1.00  0.00     0.064 A 
ATOM     82  C   UNL A   1      45.728  28.450  34.621  1.00  0.00     0.173 A 
ATOM     83  C   UNL A   1      44.353  26.598  35.309  1.00  0.00     0.173 A 
ATOM     84  F   UNL A   1      45.950  29.527  33.852  1.00  0.00    -0.203 F 
ATOM     85  C   UNL A   1      46.710  28.048  35.521  1.00  0.00     0.198 A 
ATOM     86  C   UNL A   1      45.322  26.220  36.230  1.00  0.00     0.198 A 
ATOM     87  F   UNL A   1      43.221  25.882  35.230  1.00  0.00    -0.203 F 
ATOM     88  F   UNL A   1      47.861  28.729  35.600  1.00  0.00    -0.200 F 
ATOM     89  C   UNL A   1      46.502  26.941  36.332  1.00  0.00     0.200 A 
ATOM     90  F   UNL A   1      45.112  25.162  37.025  1.00  0.00    -0.200 F 
ATOM     91  F   UNL A   1      47.443  26.567  37.209  1.00  0.00    -0.200 F 
ENDBRANCH  58  81
ENDBRANCH  32  33
ENDBRANCH  25  27
ENDBRANCH  24  25
ENDBRANCH  23  24
ENDBRANCH  22  23
ENDBRANCH  21  22
ENDBRANCH   1  21
TORSDOF 18
ENDMDL
MODEL 2
REMARK VINA RESULT:     -11.3      1.451      2.863
REMARK SMILES CC(C)N(CCCC(=O)OCCOC(=O)c1ccc(-c2c3nc(c(-c4c(F)c(F)c(F)c(F)c4F)c4ccc([nH]4)c(-c4c(F)c(F)c(F)c(F)c4F)c4nc(c(-c5c(F)c(F)c(F)c(F)c5F)c5ccc2[nH]5)C=C4)C=C3)cc1)C(=O)Cc1c(F)cccc1F
REMARK SMILES IDX 8 1 9 2 7 3 6 4 5 5 4 6 2 7 1 8 3 9 79 10 80 11 81 12 82 13
REMARK SMILES IDX 83 14 88 15 84 16 85 17 87 18 89 19 86 20 10 21 11 22 12 23
REMARK SMILES IDX 13 24 14 25 15 26 16 27 17 28 78 29 18 30 77 31 19 32 20 33
REMARK SMILES IDX 21 34 71 35 22 36 76 37 70 38 72 39 23 40 75 41 69 42 68 43
REMARK SMILES IDX 24 45 56 46 36 47 55 48 37 49 40 50 54 51 73 52 38 53 39 54
REMARK SMILES IDX 53 56 74 57 41 58 25 59 26 60 34 61 27 62 28 63 32 64 35 65
REMARK SMILES IDX 29 66 30 67 33 68 31 69 57 70 58 71 66 72 59 73 60 74 64 75
REMARK SMILES IDX 67 76 61 77 62 78 65 79 63 80 42 81 43 82 51 83 44 84 45 85
REMARK SMILES IDX 49 86 52 87 46 88 47 89 50 90 48 91
REMARK H PARENT 72 44 40 55
REMARK Flexibility Score: inf
ROOT
ATOM      1  C   UNL A   1      33.348  28.567  24.246  1.00  0.00     0.305 C 
ATOM      2  O   UNL A   1      34.201  28.562  23.367  1.00  0.00    -0.252 OA
ENDROOT
BRANCH   1   3
ATOM      3  C   UNL A   1      33.376  27.576  25.403  1.00  0.00     0.124 C 
BRANCH   3   4
ATOM      4  C   UNL A   1      34.089  26.259  25.165  1.00  0.00     0.033 C 
BRANCH   4   5
ATOM      5  C   UNL A   1      33.385  25.002  24.629  1.00  0.00     0.120 C 
BRANCH   5   6
ATOM      6  N   UNL A   1      32.669  23.975  25.418  1.00  0.00    -0.340 N 
BRANCH   6   7
ATOM      7  C   UNL A   1      31.465  23.426  24.729  1.00  0.00     0.078 C 
ATOM      8  C   UNL A   1      30.731  24.453  23.848  1.00  0.00     0.031 C 
ATOM      9  C   UNL A   1      31.765  22.135  23.970  1.00  0.00     0.031 C 
ENDBRANCH   6   7
BRANCH   6  10
ATOM     10  C   UNL A   1      32.962  23.377  26.631  1.00  0.00     0.227 C 
ATOM     11  O   UNL A   1      32.044  23.195  27.450  1.00  0.00    -0.275 OA
BRANCH  10  12
ATOM     12  C   UNL A   1      34.336  22.939  27.082  1.00  0.00     0.142 C 
BRANCH  12  13
ATOM     13  C   UNL A   1      35.381  22.395  26.138  1.00  0.00     0.033 A 
ATOM     14  C   UNL A   1      36.587  23.011  25.818  1.00  0.00     0.129 A 
ATOM     15  C   UNL A   1      35.239  21.069  25.697  1.00  0.00     0.129 A 
ATOM     16  F   UNL A   1      36.848  24.256  26.198  1.00  0.00    -0.207 F 
ATOM     17  C   UNL A   1      37.611  22.354  25.131  1.00  0.00     0.040 A 
ATOM     18  C   UNL A   1      36.242  20.399  24.992  1.00  0.00     0.040 A 
ATOM     19  F   UNL A   1      34.133  20.378  26.006  1.00  0.00    -0.207 F 
ATOM     20  C   UNL A   1      37.442  21.040  24.716  1.00  0.00     0.006 A 
ENDBRANCH  12  13
ENDBRANCH  10  12
ENDBRANCH   6  10
ENDBRANCH   5   6
ENDBRANCH   4   5
ENDBRANCH   3   4
ENDBRANCH   1   3
BRANCH   1  21
ATOM     21  O   UNL A   1      32.268  29.389  24.266  1.00  0.00    -0.462 OA
BRANCH  21  22
ATOM     22  C   UNL A   1      31.516  29.458  25.499  1.00  0.00     0.274 C 
BRANCH  22  23
ATOM     23  C   UNL A   1      31.782  30.794  26.200  1.00  0.00     0.275 C 
BRANCH  23  24
ATOM     24  O   UNL A   1      32.997  30.678  26.956  1.00  0.00    -0.458 OA
BRANCH  24  25
ATOM     25  C   UNL A   1      33.511  31.859  27.370  1.00  0.00     0.338 C 
ATOM     26  O   UNL A   1      32.938  32.931  27.468  1.00  0.00    -0.246 OA
BRANCH  25  27
ATOM     27  C   UNL A   1      34.801  31.549  28.002  1.00  0.00     0.060 A 
ATOM     28  C   UNL A   1      35.017  30.230  28.420  1.00  0.00     0.016 A 
ATOM     29  C   UNL A   1      35.806  32.509  28.106  1.00  0.00     0.016 A 
ATOM     30  C   UNL A   1      36.252  29.851  28.925  1.00  0.00     0.010 A 
ATOM     31  C   UNL A   1      37.032  32.141  28.647  1.00  0.00     0.010 A 
ATOM     32  C   UNL A   1      37.252  30.816  29.066  1.00  0.00    -0.014 A 
BRANCH  32  33
ATOM     33  C   UNL A   1      38.472  30.507  29.834  1.00  0.00     0.031 A 
ATOM     34  C   UNL A   1      39.428  29.525  29.229  1.00  0.00     0.074 A 
ATOM     35  C   UNL A   1      38.679  31.051  31.043  1.00  0.00     0.049 A 
ATOM     36  N   UNL A   1      40.429  28.894  29.778  1.00  0.00    -0.248 NA
ATOM     37  C   UNL A   1      39.207  29.192  27.810  1.00  0.00     0.031 C 
ATOM     38  C   UNL A   1      37.834  32.067  31.670  1.00  0.00     0.029 A 
ATOM     39  N   UNL A   1      39.651  30.796  31.974  1.00  0.00    -0.354 N 
ATOM     40  C   UNL A   1      40.924  28.056  28.788  1.00  0.00     0.074 A 
ATOM     41  C   UNL A   1      40.125  28.260  27.604  1.00  0.00     0.031 C 
ATOM     42  C   UNL A   1      38.304  32.320  32.904  1.00  0.00     0.029 A 
ATOM     43  C   UNL A   1      39.443  31.445  33.168  1.00  0.00     0.049 A 
ATOM     44  H   UNL A   1      40.421  30.207  31.807  1.00  0.00     0.167 HD
ATOM     45  C   UNL A   1      41.953  27.185  28.882  1.00  0.00     0.037 A 
ATOM     46  C   UNL A   1      40.075  31.294  34.347  1.00  0.00     0.037 A 
ATOM     47  C   UNL A   1      42.744  27.027  30.072  1.00  0.00     0.049 A 
ATOM     48  C   UNL A   1      41.196  30.287  34.431  1.00  0.00     0.074 A 
ATOM     49  C   UNL A   1      43.830  26.200  30.283  1.00  0.00     0.029 A 
ATOM     50  N   UNL A   1      42.523  27.720  31.254  1.00  0.00    -0.354 N 
ATOM     51  N   UNL A   1      41.669  29.492  33.499  1.00  0.00    -0.248 NA
ATOM     52  C   UNL A   1      41.867  30.146  35.731  1.00  0.00     0.031 C 
ATOM     53  C   UNL A   1      44.238  26.357  31.611  1.00  0.00     0.029 A 
ATOM     54  C   UNL A   1      43.442  27.324  32.208  1.00  0.00     0.049 A 
ATOM     55  H   UNL A   1      41.818  28.393  31.393  1.00  0.00     0.167 HD
ATOM     56  C   UNL A   1      42.711  28.788  34.086  1.00  0.00     0.074 A 
ATOM     57  C   UNL A   1      42.807  29.255  35.455  1.00  0.00     0.031 C 
ATOM     58  C   UNL A   1      43.519  27.840  33.550  1.00  0.00     0.037 A 
BRANCH  45  59
ATOM     59  C   UNL A   1      42.251  26.314  27.699  1.00  0.00     0.064 A 
ATOM     60  C   UNL A   1      43.264  26.624  26.781  1.00  0.00     0.173 A 
ATOM     61  C   UNL A   1      41.534  25.122  27.510  1.00  0.00     0.173 A 
ATOM     62  F   UNL A   1      43.961  27.763  26.903  1.00  0.00    -0.203 F 
ATOM     63  C   UNL A   1      43.543  25.777  25.711  1.00  0.00     0.198 A 
ATOM     64  C   UNL A   1      41.833  24.265  26.455  1.00  0.00     0.198 A 
ATOM     65  F   UNL A   1      40.549  24.783  28.355  1.00  0.00    -0.203 F 
ATOM     66  F   UNL A   1      44.491  26.109  24.825  1.00  0.00    -0.200 F 
ATOM     67  C   UNL A   1      42.835  24.593  25.556  1.00  0.00     0.200 A 
ATOM     68  F   UNL A   1      41.153  23.119  26.311  1.00  0.00    -0.200 F 
ATOM     69  F   UNL A   1      43.117  23.772  24.534  1.00  0.00    -0.200 F 
ENDBRANCH  45  59
BRANCH  46  70
ATOM     70  C   UNL A   1      39.643  32.063  35.545  1.00  0.00     0.064 A 
ATOM     71  C   UNL A   1      38.676  31.555  36.424  1.00  0.00     0.173 A 
ATOM     72  C   UNL A   1      40.156  33.341  35.817  1.00  0.00     0.173 A 
ATOM     73  F   UNL A   1      38.134  30.350  36.198  1.00  0.00    -0.203 F 
ATOM     74  C   UNL A   1      38.215  32.306  37.505  1.00  0.00     0.198 A 
ATOM     75  C   UNL A   1      39.720  34.078  36.918  1.00  0.00     0.198 A 
ATOM     76  F   UNL A   1      41.083  33.881  35.010  1.00  0.00    -0.203 F 
ATOM     77  F   UNL A   1      37.242  31.822  38.288  1.00  0.00    -0.200 F 
ATOM     78  C   UNL A   1      38.740  33.565  37.753  1.00  0.00     0.200 A 
ATOM     79  F   UNL A   1      40.239  35.290  37.159  1.00  0.00    -0.200 F 
ATOM     80  F   UNL A   1      38.291  34.289  38.787  1.00  0.00    -0.200 F 
ENDBRANCH  46  70
BRANCH  58  81
ATOM     81  C   UNL A   1      44.611  27.296  34.422  1.00  0.00     0.064 A 
ATOM     82  C   UNL A   1      44.438  26.132  35.182  1.00  0.00     0.173 A 
ATOM     83  C   UNL A   1      45.870  27.916  34.437  1.00  0.00     0.173 A 
ATOM     84  F   UNL A   1      43.247  25.513  35.207  1.00  0.00    -0.203 F 
ATOM     85  C   UNL A   1      45.482  25.617  35.943  1.00  0.00     0.198 A 
ATOM     86  C   UNL A   1      46.920  27.381  35.172  1.00  0.00     0.198 A 
ATOM     87  F   UNL A   1      46.086  29.027  33.715  1.00  0.00    -0.203 F 
ATOM     88  F   UNL A   1      45.285  24.526  36.695  1.00  0.00    -0.200 F 
ATOM     89  C   UNL A   1      46.724  26.235  35.929  1.00  0.00     0.200 A 
ATOM     90  F   UNL A   1      48.125  27.968  35.144  1.00  0.00    -0.200 F 
ATOM     91  F   UNL A   1      47.733  25.728  36.650  1.00  0.00    -0.200 F 
ENDBRANCH  58  81
ENDBRANCH  32  33
ENDBRANCH  25  27
ENDBRANCH  24  25
ENDBRANCH  23  24
ENDBRANCH  22  23
ENDBRANCH  21  22
ENDBRANCH   1  21
TORSDOF 18
ENDMDL
MODEL 3
REMARK VINA RESULT:     -11.1      1.101      2.092
REMARK SMILES CC(C)N(CCCC(=O)OCCOC(=O)c1ccc(-c2c3nc(c(-c4c(F)c(F)c(F)c(F)c4F)c4ccc([nH]4)c(-c4c(F)c(F)c(F)c(F)c4F)c4nc(c(-c5c(F)c(F)c(F)c(F)c5F)c5ccc2[nH]5)C=C4)C=C3)cc1)C(=O)Cc1c(F)cccc1F
REMARK SMILES IDX 8 1 9 2 7 3 6 4 5 5 4 6 2 7 1 8 3 9 79 10 80 11 81 12 82 13
REMARK SMILES IDX 83 14 88 15 84 16 85 17 87 18 89 19 86 20 10 21 11 22 12 23
REMARK SMILES IDX 13 24 14 25 15 26 16 27 17 28 78 29 18 30 77 31 19 32 20 33
REMARK SMILES IDX 21 34 71 35 22 36 76 37 70 38 72 39 23 40 75 41 69 42 68 43
REMARK SMILES IDX 24 45 56 46 36 47 55 48 37 49 40 50 54 51 73 52 38 53 39 54
REMARK SMILES IDX 53 56 74 57 41 58 25 59 26 60 34 61 27 62 28 63 32 64 35 65
REMARK SMILES IDX 29 66 30 67 33 68 31 69 57 70 58 71 66 72 59 73 60 74 64 75
REMARK SMILES IDX 67 76 61 77 62 78 65 79 63 80 42 81 43 82 51 83 44 84 45 85
REMARK SMILES IDX 49 86 52 87 46 88 47 89 50 90 48 91
REMARK H PARENT 72 44 40 55
REMARK Flexibility Score: inf
ROOT
ATOM      1  C   UNL A   1      31.864  27.260  26.320  1.00  0.00     0.305 C 
ATOM      2  O   UNL A   1      31.461  26.199  26.782  1.00  0.00    -0.252 OA
ENDROOT
BRANCH   1   3
ATOM      3  C   UNL A   1      33.283  27.421  25.788  1.00  0.00     0.124 C 
BRANCH   3   4
ATOM      4  C   UNL A   1      33.908  26.215  25.115  1.00  0.00     0.033 C 
BRANCH   4   5
ATOM      5  C   UNL A   1      33.803  25.943  23.605  1.00  0.00     0.120 C 
BRANCH   5   6
ATOM      6  N   UNL A   1      32.957  24.929  22.937  1.00  0.00    -0.340 N 
BRANCH   6   7
ATOM      7  C   UNL A   1      31.619  25.446  22.527  1.00  0.00     0.078 C 
ATOM      8  C   UNL A   1      30.492  25.106  23.518  1.00  0.00     0.031 C 
ATOM      9  C   UNL A   1      31.649  26.934  22.184  1.00  0.00     0.031 C 
ENDBRANCH   6   7
BRANCH   6  10
ATOM     10  C   UNL A   1      33.215  23.624  22.551  1.00  0.00     0.227 C 
ATOM     11  O   UNL A   1      33.425  23.383  21.350  1.00  0.00    -0.275 OA
BRANCH  10  12
ATOM     12  C   UNL A   1      33.235  22.427  23.473  1.00  0.00     0.142 C 
BRANCH  12  13
ATOM     13  C   UNL A   1      33.322  22.543  24.975  1.00  0.00     0.033 A 
ATOM     14  C   UNL A   1      32.241  22.608  25.849  1.00  0.00     0.129 A 
ATOM     15  C   UNL A   1      34.580  22.364  25.575  1.00  0.00     0.129 A 
ATOM     16  F   UNL A   1      30.999  22.755  25.402  1.00  0.00    -0.207 F 
ATOM     17  C   UNL A   1      32.381  22.475  27.233  1.00  0.00     0.040 A 
ATOM     18  C   UNL A   1      34.744  22.247  26.957  1.00  0.00     0.040 A 
ATOM     19  F   UNL A   1      35.672  22.235  24.809  1.00  0.00    -0.207 F 
ATOM     20  C   UNL A   1      33.636  22.290  27.794  1.00  0.00     0.006 A 
ENDBRANCH  12  13
ENDBRANCH  10  12
ENDBRANCH   6  10
ENDBRANCH   5   6
ENDBRANCH   4   5
ENDBRANCH   3   4
ENDBRANCH   1   3
BRANCH   1  21
ATOM     21  O   UNL A   1      31.140  28.407  26.281  1.00  0.00    -0.462 OA
BRANCH  21  22
ATOM     22  C   UNL A   1      31.718  29.528  25.574  1.00  0.00     0.274 C 
BRANCH  22  23
ATOM     23  C   UNL A   1      31.971  30.685  26.544  1.00  0.00     0.275 C 
BRANCH  23  24
ATOM     24  O   UNL A   1      33.389  30.872  26.673  1.00  0.00    -0.458 OA
BRANCH  24  25
ATOM     25  C   UNL A   1      33.746  31.953  27.403  1.00  0.00     0.338 C 
ATOM     26  O   UNL A   1      33.055  32.909  27.709  1.00  0.00    -0.246 OA
BRANCH  25  27
ATOM     27  C   UNL A   1      35.023  31.615  28.045  1.00  0.00     0.060 A 
ATOM     28  C   UNL A   1      35.186  30.306  28.515  1.00  0.00     0.016 A 
ATOM     29  C   UNL A   1      36.068  32.535  28.108  1.00  0.00     0.016 A 
ATOM     30  C   UNL A   1      36.405  29.896  29.035  1.00  0.00     0.010 A 
ATOM     31  C   UNL A   1      37.280  32.138  28.662  1.00  0.00     0.010 A 
ATOM     32  C   UNL A   1      37.445  30.823  29.134  1.00  0.00    -0.014 A 
BRANCH  32  33
ATOM     33  C   UNL A   1      38.653  30.494  29.913  1.00  0.00     0.031 A 
ATOM     34  C   UNL A   1      39.607  29.511  29.307  1.00  0.00     0.074 A 
ATOM     35  C   UNL A   1      38.850  31.021  31.131  1.00  0.00     0.049 A 
ATOM     36  N   UNL A   1      40.596  28.865  29.860  1.00  0.00    -0.248 NA
ATOM     37  C   UNL A   1      39.401  29.197  27.882  1.00  0.00     0.031 C 
ATOM     38  C   UNL A   1      38.007  32.037  31.761  1.00  0.00     0.029 A 
ATOM     39  N   UNL A   1      39.809  30.747  32.070  1.00  0.00    -0.354 N 
ATOM     40  C   UNL A   1      41.097  28.035  28.866  1.00  0.00     0.074 A 
ATOM     41  C   UNL A   1      40.313  28.260  27.675  1.00  0.00     0.031 C 
ATOM     42  C   UNL A   1      38.464  32.272  33.003  1.00  0.00     0.029 A 
ATOM     43  C   UNL A   1      39.592  31.383  33.269  1.00  0.00     0.049 A 
ATOM     44  H   UNL A   1      40.575  30.153  31.905  1.00  0.00     0.167 HD
ATOM     45  C   UNL A   1      42.117  27.154  28.961  1.00  0.00     0.037 A 
ATOM     46  C   UNL A   1      40.209  31.213  34.454  1.00  0.00     0.037 A 
ATOM     47  C   UNL A   1      42.892  26.975  30.158  1.00  0.00     0.049 A 
ATOM     48  C   UNL A   1      41.321  30.195  34.539  1.00  0.00     0.074 A 
ATOM     49  C   UNL A   1      43.969  26.136  30.372  1.00  0.00     0.029 A 
ATOM     50  N   UNL A   1      42.663  27.655  31.346  1.00  0.00    -0.354 N 
ATOM     51  N   UNL A   1      41.798  29.408  33.603  1.00  0.00    -0.248 NA
ATOM     52  C   UNL A   1      41.974  30.032  35.845  1.00  0.00     0.031 C 
ATOM     53  C   UNL A   1      44.362  26.274  31.706  1.00  0.00     0.029 A 
ATOM     54  C   UNL A   1      43.567  27.240  32.306  1.00  0.00     0.049 A 
ATOM     55  H   UNL A   1      41.962  28.333  31.485  1.00  0.00     0.167 HD
ATOM     56  C   UNL A   1      42.826  28.688  34.193  1.00  0.00     0.074 A 
ATOM     57  C   UNL A   1      42.910  29.136  35.568  1.00  0.00     0.031 C 
ATOM     58  C   UNL A   1      43.633  27.739  33.656  1.00  0.00     0.037 A 
BRANCH  45  59
ATOM     59  C   UNL A   1      42.421  26.295  27.771  1.00  0.00     0.064 A 
ATOM     60  C   UNL A   1      43.427  26.624  26.852  1.00  0.00     0.173 A 
ATOM     61  C   UNL A   1      41.719  25.096  27.576  1.00  0.00     0.173 A 
ATOM     62  F   UNL A   1      44.111  27.771  26.980  1.00  0.00    -0.203 F 
ATOM     63  C   UNL A   1      43.712  25.788  25.775  1.00  0.00     0.198 A 
ATOM     64  C   UNL A   1      42.024  24.249  26.514  1.00  0.00     0.198 A 
ATOM     65  F   UNL A   1      40.741  24.739  28.423  1.00  0.00    -0.203 F 
ATOM     66  F   UNL A   1      44.653  26.137  24.888  1.00  0.00    -0.200 F 
ATOM     67  C   UNL A   1      43.019  24.597  25.614  1.00  0.00     0.200 A 
ATOM     68  F   UNL A   1      41.358  23.096  26.366  1.00  0.00    -0.200 F 
ATOM     69  F   UNL A   1      43.307  23.785  24.586  1.00  0.00    -0.200 F 
ENDBRANCH  45  59
BRANCH  46  70
ATOM     70  C   UNL A   1      39.770  31.971  35.656  1.00  0.00     0.064 A 
ATOM     71  C   UNL A   1      38.705  31.519  36.450  1.00  0.00     0.173 A 
ATOM     72  C   UNL A   1      40.375  33.185  36.016  1.00  0.00     0.173 A 
ATOM     73  F   UNL A   1      38.075  30.378  36.138  1.00  0.00    -0.203 F 
ATOM     74  C   UNL A   1      38.243  32.267  37.533  1.00  0.00     0.198 A 
ATOM     75  C   UNL A   1      39.934  33.916  37.119  1.00  0.00     0.198 A 
ATOM     76  F   UNL A   1      41.396  33.669  35.292  1.00  0.00    -0.203 F 
ATOM     77  F   UNL A   1      37.182  31.843  38.233  1.00  0.00    -0.200 F 
ATOM     78  C   UNL A   1      38.860  33.462  37.869  1.00  0.00     0.200 A 
ATOM     79  F   UNL A   1      40.542  35.065  37.446  1.00  0.00    -0.200 F 
ATOM     80  F   UNL A   1      38.411  34.183  38.905  1.00  0.00    -0.200 F 
ENDBRANCH  46  70
BRANCH  58  81
ATOM     81  C   UNL A   1      44.710  27.175  34.533  1.00  0.00     0.064 A 
ATOM     82  C   UNL A   1      45.963  27.790  34.651  1.00  0.00     0.173 A 
ATOM     83  C   UNL A   1      44.451  26.042  35.319  1.00  0.00     0.173 A 
ATOM     84  F   UNL A   1      46.259  28.869  33.909  1.00  0.00    -0.203 F 
ATOM     85  C   UNL A   1      46.929  27.278  35.512  1.00  0.00     0.198 A 
ATOM     86  C   UNL A   1      45.406  25.553  36.202  1.00  0.00     0.198 A 
ATOM     87  F   UNL A   1      43.260  25.427  35.249  1.00  0.00    -0.203 F 
ATOM     88  F   UNL A   1      48.136  27.855  35.580  1.00  0.00    -0.200 F 
ATOM     89  C   UNL A   1      46.646  26.167  36.294  1.00  0.00     0.200 A 
ATOM     90  F   UNL A   1      45.125  24.491  36.971  1.00  0.00    -0.200 F 
ATOM     91  F   UNL A   1      47.572  25.686  37.134  1.00  0.00    -0.200 F 
ENDBRANCH  58  81
ENDBRANCH  32  33
ENDBRANCH  25  27
ENDBRANCH  24  25
ENDBRANCH  23  24
ENDBRANCH  22  23
ENDBRANCH  21  22
ENDBRANCH   1  21
TORSDOF 18
ENDMDL
