MODEL 1
REMARK VINA RESULT:     -10.8      0.000      0.000
REMARK SMILES CCCN(CC)S(=O)(=O)c1ccc(C(=O)OCCOC(=O)c2ccc(-c3c4nc(c(-c5c(F)c(F)c(F)c(F)c5F)c5ccc([nH]5)c(-c5c(F)c(F)c(F)c(F)c5F)c5nc(c(-c6c(F)c(F)c(F)c(F)c6F)c6ccc3[nH]6)C=C5)C=C4)cc2)o1
REMARK SMILES IDX 17 1 16 2 14 3 15 4 13 5 10 6 11 7 85 8 12 9 7 10 8 11 9 12
REMARK SMILES IDX 4 13 3 14 2 15 1 16 5 17 6 18 18 19 19 20 20 21 21 22 22 23
REMARK SMILES IDX 23 24 84 25 24 26 83 27 25 28 26 29 27 30 77 31 28 32 82 33
REMARK SMILES IDX 76 34 78 35 29 36 81 37 75 38 74 39 30 41 62 42 42 43 61 44
REMARK SMILES IDX 43 45 46 46 60 47 79 48 44 49 45 50 59 52 80 53 47 54 31 55
REMARK SMILES IDX 32 56 40 57 33 58 34 59 38 60 41 61 35 62 36 63 39 64 37 65
REMARK SMILES IDX 63 66 64 67 72 68 65 69 66 70 70 71 73 72 67 73 68 74 71 75
REMARK SMILES IDX 69 76 48 77 49 78 57 79 50 80 51 81 55 82 58 83 52 84 53 85
REMARK SMILES IDX 56 86 54 87
REMARK H PARENT 78 40 46 51
REMARK Flexibility Score: inf
ROOT
ATOM      1  C   UNL A   1      35.142  21.291  24.644  1.00  0.00     0.275 C 
ENDROOT
BRANCH   1   2
ATOM      2  O   UNL A   1      35.144  22.700  24.951  1.00  0.00    -0.456 OA
BRANCH   2   3
ATOM      3  C   UNL A   1      34.924  23.557  23.910  1.00  0.00     0.374 C 
ATOM      4  O   UNL A   1      35.092  23.271  22.730  1.00  0.00    -0.242 OA
BRANCH   3   5
ATOM      5  C   UNL A   1      34.398  24.813  24.405  1.00  0.00     0.213 A 
ATOM      6  C   UNL A   1      33.544  26.879  24.204  1.00  0.00     0.234 A 
ATOM      7  C   UNL A   1      33.600  26.562  25.557  1.00  0.00     0.065 A 
ATOM      8  O   UNL A   1      34.043  25.791  23.504  1.00  0.00    -0.436 OA
ATOM      9  C   UNL A   1      34.138  25.263  25.683  1.00  0.00     0.060 A 
BRANCH   6  10
ATOM     10  S   UNL A   1      33.012  28.418  23.403  1.00  0.00     0.276 S 
ATOM     11  O   UNL A   1      33.961  28.630  22.332  1.00  0.00    -0.204 OA
ATOM     12  O   UNL A   1      32.923  29.345  24.510  1.00  0.00    -0.204 OA
BRANCH  10  13
ATOM     13  N   UNL A   1      31.448  28.239  22.724  1.00  0.00    -0.195 NA
BRANCH  13  14
ATOM     14  C   UNL A   1      30.819  26.886  22.874  1.00  0.00     0.102 C 
BRANCH  14  15
ATOM     15  C   UNL A   1      29.680  26.836  23.887  1.00  0.00     0.013 C 
ATOM     16  C   UNL A   1      29.965  25.945  25.089  1.00  0.00     0.005 C 
ENDBRANCH  14  15
ENDBRANCH  13  14
BRANCH  13  17
ATOM     17  C   UNL A   1      30.471  29.314  23.055  1.00  0.00     0.099 C 
ATOM     18  C   UNL A   1      29.758  29.904  21.844  1.00  0.00     0.022 C 
ENDBRANCH  13  17
ENDBRANCH  10  13
ENDBRANCH   6  10
ENDBRANCH   3   5
ENDBRANCH   2   3
ENDBRANCH   1   2
BRANCH   1  19
ATOM     19  C   UNL A   1      36.482  20.646  25.012  1.00  0.00     0.275 C 
BRANCH  19  20
ATOM     20  O   UNL A   1      37.521  21.639  25.115  1.00  0.00    -0.458 OA
BRANCH  20  21
ATOM     21  C   UNL A   1      38.625  21.255  25.793  1.00  0.00     0.338 C 
ATOM     22  O   UNL A   1      39.156  20.158  25.792  1.00  0.00    -0.246 OA
BRANCH  21  23
ATOM     23  C   UNL A   1      39.229  22.425  26.446  1.00  0.00     0.060 A 
ATOM     24  C   UNL A   1      38.705  23.668  26.125  1.00  0.00     0.016 A 
ATOM     25  C   UNL A   1      40.368  22.333  27.247  1.00  0.00     0.016 A 
ATOM     26  C   UNL A   1      39.345  24.820  26.557  1.00  0.00     0.010 A 
ATOM     27  C   UNL A   1      40.998  23.508  27.698  1.00  0.00     0.010 A 
ATOM     28  C   UNL A   1      40.518  24.772  27.318  1.00  0.00    -0.014 A 
BRANCH  28  29
ATOM     29  C   UNL A   1      41.256  26.050  27.564  1.00  0.00     0.031 A 
ATOM     30  C   UNL A   1      40.666  27.103  28.471  1.00  0.00     0.074 A 
ATOM     31  C   UNL A   1      42.517  26.225  27.111  1.00  0.00     0.049 A 
ATOM     32  N   UNL A   1      41.119  28.298  28.762  1.00  0.00    -0.248 NA
ATOM     33  C   UNL A   1      39.402  26.766  29.142  1.00  0.00     0.031 C 
ATOM     34  C   UNL A   1      43.268  25.261  26.305  1.00  0.00     0.029 A 
ATOM     35  N   UNL A   1      43.407  27.257  27.303  1.00  0.00    -0.354 N 
ATOM     36  C   UNL A   1      40.165  28.877  29.590  1.00  0.00     0.074 A 
ATOM     37  C   UNL A   1      39.113  27.900  29.767  1.00  0.00     0.031 C 
ATOM     38  C   UNL A   1      44.520  25.714  26.131  1.00  0.00     0.029 A 
ATOM     39  C   UNL A   1      44.636  27.042  26.725  1.00  0.00     0.049 A 
ATOM     40  H   UNL A   1      43.184  28.073  27.807  1.00  0.00     0.167 HD
ATOM     41  C   UNL A   1      40.160  30.113  30.148  1.00  0.00     0.037 A 
ATOM     42  C   UNL A   1      45.724  27.833  26.647  1.00  0.00     0.037 A 
ATOM     43  C   UNL A   1      41.234  31.066  30.039  1.00  0.00     0.049 A 
ATOM     44  C   UNL A   1      45.683  29.213  27.247  1.00  0.00     0.074 A 
ATOM     45  C   UNL A   1      41.308  32.346  30.564  1.00  0.00     0.029 A 
ATOM     46  N   UNL A   1      42.430  30.838  29.379  1.00  0.00    -0.354 N 
ATOM     47  N   UNL A   1      44.733  29.785  27.945  1.00  0.00    -0.248 NA
ATOM     48  C   UNL A   1      46.858  30.068  27.021  1.00  0.00     0.031 C 
ATOM     49  C   UNL A   1      42.536  32.904  30.193  1.00  0.00     0.029 A 
ATOM     50  C   UNL A   1      43.245  31.955  29.476  1.00  0.00     0.049 A 
ATOM     51  H   UNL A   1      42.667  30.005  28.911  1.00  0.00     0.167 HD
ATOM     52  C   UNL A   1      45.196  31.059  28.245  1.00  0.00     0.074 A 
ATOM     53  C   UNL A   1      46.525  31.168  27.681  1.00  0.00     0.031 C 
ATOM     54  C   UNL A   1      44.568  32.055  28.917  1.00  0.00     0.037 A 
BRANCH  41  55
ATOM     55  C   UNL A   1      38.926  30.533  30.894  1.00  0.00     0.064 A 
ATOM     56  C   UNL A   1      38.804  30.383  32.283  1.00  0.00     0.173 A 
ATOM     57  C   UNL A   1      37.863  31.133  30.200  1.00  0.00     0.173 A 
ATOM     58  F   UNL A   1      39.785  29.801  32.987  1.00  0.00    -0.203 F 
ATOM     59  C   UNL A   1      37.651  30.799  32.946  1.00  0.00     0.198 A 
ATOM     60  C   UNL A   1      36.725  31.573  30.872  1.00  0.00     0.198 A 
ATOM     61  F   UNL A   1      37.932  31.305  28.872  1.00  0.00    -0.203 F 
ATOM     62  F   UNL A   1      37.536  30.607  34.268  1.00  0.00    -0.200 F 
ATOM     63  C   UNL A   1      36.618  31.399  32.243  1.00  0.00     0.200 A 
ATOM     64  F   UNL A   1      35.734  32.164  30.191  1.00  0.00    -0.200 F 
ATOM     65  F   UNL A   1      35.513  31.805  32.885  1.00  0.00    -0.200 F 
ENDBRANCH  41  55
BRANCH  42  66
ATOM     66  C   UNL A   1      46.939  27.363  25.925  1.00  0.00     0.064 A 
ATOM     67  C   UNL A   1      47.977  26.708  26.602  1.00  0.00     0.173 A 
ATOM     68  C   UNL A   1      47.097  27.584  24.549  1.00  0.00     0.173 A 
ATOM     69  F   UNL A   1      47.890  26.504  27.925  1.00  0.00    -0.203 F 
ATOM     70  C   UNL A   1      49.130  26.301  25.932  1.00  0.00     0.198 A 
ATOM     71  C   UNL A   1      48.233  27.146  23.874  1.00  0.00     0.198 A 
ATOM     72  F   UNL A   1      46.140  28.218  23.855  1.00  0.00    -0.203 F 
ATOM     73  F   UNL A   1      50.129  25.723  26.612  1.00  0.00    -0.200 F 
ATOM     74  C   UNL A   1      49.252  26.512  24.567  1.00  0.00     0.200 A 
ATOM     75  F   UNL A   1      48.342  27.342  22.553  1.00  0.00    -0.200 F 
ATOM     76  F   UNL A   1      50.359  26.117  23.922  1.00  0.00    -0.200 F 
ENDBRANCH  42  66
BRANCH  54  77
ATOM     77  C   UNL A   1      45.319  33.341  29.102  1.00  0.00     0.064 A 
ATOM     78  C   UNL A   1      46.165  33.546  30.202  1.00  0.00     0.173 A 
ATOM     79  C   UNL A   1      45.211  34.371  28.156  1.00  0.00     0.173 A 
ATOM     80  F   UNL A   1      46.291  32.598  31.142  1.00  0.00    -0.203 F 
ATOM     81  C   UNL A   1      46.855  34.746  30.361  1.00  0.00     0.198 A 
ATOM     82  C   UNL A   1      45.923  35.559  28.304  1.00  0.00     0.198 A 
ATOM     83  F   UNL A   1      44.419  34.223  27.083  1.00  0.00    -0.203 F 
ATOM     84  F   UNL A   1      47.621  34.938  31.444  1.00  0.00    -0.200 F 
ATOM     85  C   UNL A   1      46.738  35.748  29.410  1.00  0.00     0.200 A 
ATOM     86  F   UNL A   1      45.817  36.522  27.378  1.00  0.00    -0.200 F 
ATOM     87  F   UNL A   1      47.403  36.901  29.563  1.00  0.00    -0.200 F 
ENDBRANCH  54  77
ENDBRANCH  28  29
ENDBRANCH  21  23
ENDBRANCH  20  21
ENDBRANCH  19  20
ENDBRANCH   1  19
TORSDOF 16
ENDMDL
MODEL 2
REMARK VINA RESULT:     -10.7      4.234      9.769
REMARK SMILES CCCN(CC)S(=O)(=O)c1ccc(C(=O)OCCOC(=O)c2ccc(-c3c4nc(c(-c5c(F)c(F)c(F)c(F)c5F)c5ccc([nH]5)c(-c5c(F)c(F)c(F)c(F)c5F)c5nc(c(-c6c(F)c(F)c(F)c(F)c6F)c6ccc3[nH]6)C=C5)C=C4)cc2)o1
REMARK SMILES IDX 17 1 16 2 14 3 15 4 13 5 10 6 11 7 85 8 12 9 7 10 8 11 9 12
REMARK SMILES IDX 4 13 3 14 2 15 1 16 5 17 6 18 18 19 19 20 20 21 21 22 22 23
REMARK SMILES IDX 23 24 84 25 24 26 83 27 25 28 26 29 27 30 77 31 28 32 82 33
REMARK SMILES IDX 76 34 78 35 29 36 81 37 75 38 74 39 30 41 62 42 42 43 61 44
REMARK SMILES IDX 43 45 46 46 60 47 79 48 44 49 45 50 59 52 80 53 47 54 31 55
REMARK SMILES IDX 32 56 40 57 33 58 34 59 38 60 41 61 35 62 36 63 39 64 37 65
REMARK SMILES IDX 63 66 64 67 72 68 65 69 66 70 70 71 73 72 67 73 68 74 71 75
REMARK SMILES IDX 69 76 48 77 49 78 57 79 50 80 51 81 55 82 58 83 52 84 53 85
REMARK SMILES IDX 56 86 54 87
REMARK H PARENT 78 40 46 51
REMARK Flexibility Score: inf
ROOT
ATOM      1  C   UNL A   1      32.252  29.077  25.115  1.00  0.00     0.275 C 
ENDROOT
BRANCH   1   2
ATOM      2  O   UNL A   1      32.728  28.102  26.065  1.00  0.00    -0.456 OA
BRANCH   2   3
ATOM      3  C   UNL A   1      31.813  27.203  26.534  1.00  0.00     0.374 C 
ATOM      4  O   UNL A   1      31.084  27.397  27.501  1.00  0.00    -0.242 OA
BRANCH   3   5
ATOM      5  C   UNL A   1      31.786  26.032  25.681  1.00  0.00     0.213 A 
ATOM      6  C   UNL A   1      32.697  24.315  24.558  1.00  0.00     0.234 A 
ATOM      7  C   UNL A   1      31.317  24.256  24.397  1.00  0.00     0.065 A 
ATOM      8  O   UNL A   1      32.973  25.419  25.350  1.00  0.00    -0.436 OA
ATOM      9  C   UNL A   1      30.744  25.336  25.104  1.00  0.00     0.060 A 
BRANCH   6  10
ATOM     10  S   UNL A   1      33.986  23.252  23.849  1.00  0.00     0.276 S 
ATOM     11  O   UNL A   1      34.810  24.139  23.058  1.00  0.00    -0.204 OA
ATOM     12  O   UNL A   1      33.224  22.193  23.224  1.00  0.00    -0.204 OA
BRANCH  10  13
ATOM     13  N   UNL A   1      34.951  22.562  25.087  1.00  0.00    -0.195 NA
BRANCH  13  14
ATOM     14  C   UNL A   1      35.849  23.510  25.823  1.00  0.00     0.102 C 
BRANCH  14  15
ATOM     15  C   UNL A   1      37.326  23.371  25.470  1.00  0.00     0.013 C 
ATOM     16  C   UNL A   1      38.259  24.076  26.446  1.00  0.00     0.005 C 
ENDBRANCH  14  15
ENDBRANCH  13  14
BRANCH  13  17
ATOM     17  C   UNL A   1      34.239  21.663  26.037  1.00  0.00     0.099 C 
ATOM     18  C   UNL A   1      34.171  22.191  27.465  1.00  0.00     0.022 C 
ENDBRANCH  13  17
ENDBRANCH  10  13
ENDBRANCH   6  10
ENDBRANCH   3   5
ENDBRANCH   2   3
ENDBRANCH   1   2
BRANCH   1  19
ATOM     19  C   UNL A   1      31.798  30.358  25.822  1.00  0.00     0.275 C 
BRANCH  19  20
ATOM     20  O   UNL A   1      32.426  30.485  27.113  1.00  0.00    -0.458 OA
BRANCH  20  21
ATOM     21  C   UNL A   1      33.134  31.620  27.305  1.00  0.00     0.338 C 
ATOM     22  O   UNL A   1      32.730  32.769  27.245  1.00  0.00    -0.246 OA
BRANCH  21  23
ATOM     23  C   UNL A   1      34.485  31.281  27.772  1.00  0.00     0.060 A 
ATOM     24  C   UNL A   1      34.725  29.956  28.106  1.00  0.00     0.016 A 
ATOM     25  C   UNL A   1      35.463  32.249  28.010  1.00  0.00     0.016 A 
ATOM     26  C   UNL A   1      35.914  29.604  28.726  1.00  0.00     0.010 A 
ATOM     27  C   UNL A   1      36.675  31.877  28.622  1.00  0.00     0.010 A 
ATOM     28  C   UNL A   1      36.896  30.552  29.031  1.00  0.00    -0.014 A 
BRANCH  28  29
ATOM     29  C   UNL A   1      38.051  30.128  29.883  1.00  0.00     0.031 A 
ATOM     30  C   UNL A   1      39.155  29.281  29.296  1.00  0.00     0.074 A 
ATOM     31  C   UNL A   1      38.207  30.610  31.135  1.00  0.00     0.049 A 
ATOM     32  N   UNL A   1      40.206  28.761  29.883  1.00  0.00    -0.248 NA
ATOM     33  C   UNL A   1      39.069  28.984  27.859  1.00  0.00     0.031 C 
ATOM     34  C   UNL A   1      37.282  31.518  31.814  1.00  0.00     0.029 A 
ATOM     35  N   UNL A   1      39.227  30.441  32.044  1.00  0.00    -0.354 N 
ATOM     36  C   UNL A   1      40.862  28.022  28.906  1.00  0.00     0.074 A 
ATOM     37  C   UNL A   1      40.101  28.170  27.685  1.00  0.00     0.031 C 
ATOM     38  C   UNL A   1      37.805  31.879  32.996  1.00  0.00     0.029 A 
ATOM     39  C   UNL A   1      39.055  31.154  33.207  1.00  0.00     0.049 A 
ATOM     40  H   UNL A   1      40.007  29.864  31.876  1.00  0.00     0.167 HD
ATOM     41  C   UNL A   1      41.993  27.283  29.016  1.00  0.00     0.037 A 
ATOM     42  C   UNL A   1      39.795  31.197  34.333  1.00  0.00     0.037 A 
ATOM     43  C   UNL A   1      42.798  27.187  30.206  1.00  0.00     0.049 A 
ATOM     44  C   UNL A   1      41.029  30.341  34.443  1.00  0.00     0.074 A 
ATOM     45  C   UNL A   1      43.955  26.451  30.409  1.00  0.00     0.029 A 
ATOM     46  N   UNL A   1      42.547  27.865  31.388  1.00  0.00    -0.354 N 
ATOM     47  N   UNL A   1      41.585  29.570  33.541  1.00  0.00    -0.248 NA
ATOM     48  C   UNL A   1      41.721  30.342  35.740  1.00  0.00     0.031 C 
ATOM     49  C   UNL A   1      44.383  26.658  31.724  1.00  0.00     0.029 A 
ATOM     50  C   UNL A   1      43.520  27.558  32.326  1.00  0.00     0.049 A 
ATOM     51  H   UNL A   1      41.788  28.474  31.539  1.00  0.00     0.167 HD
ATOM     52  C   UNL A   1      42.691  29.000  34.159  1.00  0.00     0.074 A 
ATOM     53  C   UNL A   1      42.747  29.538  35.501  1.00  0.00     0.031 C 
ATOM     54  C   UNL A   1      43.573  28.100  33.659  1.00  0.00     0.037 A 
BRANCH  41  55
ATOM     55  C   UNL A   1      42.408  26.468  27.825  1.00  0.00     0.064 A 
ATOM     56  C   UNL A   1      41.923  25.173  27.598  1.00  0.00     0.173 A 
ATOM     57  C   UNL A   1      43.282  27.020  26.874  1.00  0.00     0.173 A 
ATOM     58  F   UNL A   1      41.099  24.597  28.485  1.00  0.00    -0.203 F 
ATOM     59  C   UNL A   1      42.316  24.451  26.473  1.00  0.00     0.198 A 
ATOM     60  C   UNL A   1      43.650  26.305  25.737  1.00  0.00     0.198 A 
ATOM     61  F   UNL A   1      43.771  28.258  27.041  1.00  0.00    -0.203 F 
ATOM     62  F   UNL A   1      41.874  23.197  26.297  1.00  0.00    -0.200 F 
ATOM     63  C   UNL A   1      43.171  25.018  25.541  1.00  0.00     0.200 A 
ATOM     64  F   UNL A   1      44.466  26.862  24.832  1.00  0.00    -0.200 F 
ATOM     65  F   UNL A   1      43.541  24.324  24.456  1.00  0.00    -0.200 F 
ENDBRANCH  41  55
BRANCH  42  66
ATOM     66  C   UNL A   1      39.363  32.044  35.479  1.00  0.00     0.064 A 
ATOM     67  C   UNL A   1      38.525  31.535  36.481  1.00  0.00     0.173 A 
ATOM     68  C   UNL A   1      39.758  33.385  35.581  1.00  0.00     0.173 A 
ATOM     69  F   UNL A   1      38.090  30.267  36.411  1.00  0.00    -0.203 F 
ATOM     70  C   UNL A   1      38.092  32.339  37.534  1.00  0.00     0.198 A 
ATOM     71  C   UNL A   1      39.354  34.178  36.651  1.00  0.00     0.198 A 
ATOM     72  F   UNL A   1      40.550  33.926  34.642  1.00  0.00    -0.203 F 
ATOM     73  F   UNL A   1      37.250  31.843  38.451  1.00  0.00    -0.200 F 
ATOM     74  C   UNL A   1      38.515  33.656  37.624  1.00  0.00     0.200 A 
ATOM     75  F   UNL A   1      39.774  35.447  36.739  1.00  0.00    -0.200 F 
ATOM     76  F   UNL A   1      38.102  34.428  38.639  1.00  0.00    -0.200 F 
ENDBRANCH  42  66
BRANCH  54  77
ATOM     77  C   UNL A   1      44.690  27.658  34.559  1.00  0.00     0.064 A 
ATOM     78  C   UNL A   1      44.562  26.535  35.389  1.00  0.00     0.173 A 
ATOM     79  C   UNL A   1      45.910  28.349  34.572  1.00  0.00     0.173 A 
ATOM     80  F   UNL A   1      43.411  25.848  35.425  1.00  0.00    -0.203 F 
ATOM     81  C   UNL A   1      45.607  26.137  36.220  1.00  0.00     0.198 A 
ATOM     82  C   UNL A   1      46.962  27.932  35.383  1.00  0.00     0.198 A 
ATOM     83  F   UNL A   1      46.085  29.427  33.791  1.00  0.00    -0.203 F 
ATOM     84  F   UNL A   1      45.447  25.089  37.041  1.00  0.00    -0.200 F 
ATOM     85  C   UNL A   1      46.807  26.831  36.212  1.00  0.00     0.200 A 
ATOM     86  F   UNL A   1      48.125  28.599  35.366  1.00  0.00    -0.200 F 
ATOM     87  F   UNL A   1      47.812  26.446  37.010  1.00  0.00    -0.200 F 
ENDBRANCH  54  77
ENDBRANCH  28  29
ENDBRANCH  21  23
ENDBRANCH  20  21
ENDBRANCH  19  20
ENDBRANCH   1  19
TORSDOF 16
ENDMDL
MODEL 3
REMARK VINA RESULT:     -10.7      4.235      9.766
REMARK SMILES CCCN(CC)S(=O)(=O)c1ccc(C(=O)OCCOC(=O)c2ccc(-c3c4nc(c(-c5c(F)c(F)c(F)c(F)c5F)c5ccc([nH]5)c(-c5c(F)c(F)c(F)c(F)c5F)c5nc(c(-c6c(F)c(F)c(F)c(F)c6F)c6ccc3[nH]6)C=C5)C=C4)cc2)o1
REMARK SMILES IDX 17 1 16 2 14 3 15 4 13 5 10 6 11 7 85 8 12 9 7 10 8 11 9 12
REMARK SMILES IDX 4 13 3 14 2 15 1 16 5 17 6 18 18 19 19 20 20 21 21 22 22 23
REMARK SMILES IDX 23 24 84 25 24 26 83 27 25 28 26 29 27 30 77 31 28 32 82 33
REMARK SMILES IDX 76 34 78 35 29 36 81 37 75 38 74 39 30 41 62 42 42 43 61 44
REMARK SMILES IDX 43 45 46 46 60 47 79 48 44 49 45 50 59 52 80 53 47 54 31 55
REMARK SMILES IDX 32 56 40 57 33 58 34 59 38 60 41 61 35 62 36 63 39 64 37 65
REMARK SMILES IDX 63 66 64 67 72 68 65 69 66 70 70 71 73 72 67 73 68 74 71 75
REMARK SMILES IDX 69 76 48 77 49 78 57 79 50 80 51 81 55 82 58 83 52 84 53 85
REMARK SMILES IDX 56 86 54 87
REMARK H PARENT 78 40 46 51
REMARK Flexibility Score: inf
ROOT
ATOM      1  C   UNL A   1      31.397  28.861  24.663  1.00  0.00     0.275 C 
ENDROOT
BRANCH   1   2
ATOM      2  O   UNL A   1      30.840  27.747  25.390  1.00  0.00    -0.456 OA
BRANCH   2   3
ATOM      3  C   UNL A   1      31.515  27.340  26.506  1.00  0.00     0.374 C 
ATOM      4  O   UNL A   1      31.229  27.675  27.650  1.00  0.00    -0.242 OA
BRANCH   3   5
ATOM      5  C   UNL A   1      32.559  26.406  26.138  1.00  0.00     0.213 A 
ATOM      6  C   UNL A   1      33.522  24.382  26.011  1.00  0.00     0.234 A 
ATOM      7  C   UNL A   1      34.344  25.296  25.359  1.00  0.00     0.065 A 
ATOM      8  O   UNL A   1      32.426  25.081  26.490  1.00  0.00    -0.436 OA
ATOM      9  C   UNL A   1      33.738  26.569  25.440  1.00  0.00     0.060 A 
BRANCH   6  10
ATOM     10  S   UNL A   1      33.777  22.609  26.303  1.00  0.00     0.276 S 
ATOM     11  O   UNL A   1      33.319  22.383  27.656  1.00  0.00    -0.204 OA
ATOM     12  O   UNL A   1      35.167  22.419  25.948  1.00  0.00    -0.204 OA
BRANCH  10  13
ATOM     13  N   UNL A   1      32.816  21.674  25.234  1.00  0.00    -0.195 NA
BRANCH  13  14
ATOM     14  C   UNL A   1      32.040  22.443  24.208  1.00  0.00     0.102 C 
BRANCH  14  15
ATOM     15  C   UNL A   1      32.557  22.277  22.782  1.00  0.00     0.013 C 
ATOM     16  C   UNL A   1      33.612  23.303  22.388  1.00  0.00     0.005 C 
ENDBRANCH  14  15
ENDBRANCH  13  14
BRANCH  13  17
ATOM     17  C   UNL A   1      33.492  20.500  24.615  1.00  0.00     0.099 C 
ATOM     18  C   UNL A   1      32.909  19.154  25.028  1.00  0.00     0.022 C 
ENDBRANCH  13  17
ENDBRANCH  10  13
ENDBRANCH   6  10
ENDBRANCH   3   5
ENDBRANCH   2   3
ENDBRANCH   1   2
BRANCH   1  19
ATOM     19  C   UNL A   1      31.592  30.074  25.578  1.00  0.00     0.275 C 
BRANCH  19  20
ATOM     20  O   UNL A   1      32.985  30.264  25.891  1.00  0.00    -0.458 OA
BRANCH  20  21
ATOM     21  C   UNL A   1      33.243  31.166  26.863  1.00  0.00     0.338 C 
ATOM     22  O   UNL A   1      32.476  31.980  27.347  1.00  0.00    -0.246 OA
BRANCH  21  23
ATOM     23  C   UNL A   1      34.590  30.933  27.403  1.00  0.00     0.060 A 
ATOM     24  C   UNL A   1      34.977  29.613  27.585  1.00  0.00     0.016 A 
ATOM     25  C   UNL A   1      35.411  31.969  27.851  1.00  0.00     0.016 A 
ATOM     26  C   UNL A   1      36.153  29.325  28.260  1.00  0.00     0.010 A 
ATOM     27  C   UNL A   1      36.613  31.665  28.517  1.00  0.00     0.010 A 
ATOM     28  C   UNL A   1      36.977  30.333  28.771  1.00  0.00    -0.014 A 
BRANCH  28  29
ATOM     29  C   UNL A   1      38.112  29.938  29.663  1.00  0.00     0.031 A 
ATOM     30  C   UNL A   1      39.249  29.108  29.118  1.00  0.00     0.074 A 
ATOM     31  C   UNL A   1      38.220  30.434  30.915  1.00  0.00     0.049 A 
ATOM     32  N   UNL A   1      40.291  28.612  29.743  1.00  0.00    -0.248 NA
ATOM     33  C   UNL A   1      39.214  28.797  27.682  1.00  0.00     0.031 C 
ATOM     34  C   UNL A   1      37.256  31.329  31.556  1.00  0.00     0.029 A 
ATOM     35  N   UNL A   1      39.213  30.292  31.857  1.00  0.00    -0.354 N 
ATOM     36  C   UNL A   1      40.991  27.878  28.794  1.00  0.00     0.074 A 
ATOM     37  C   UNL A   1      40.267  28.001  27.548  1.00  0.00     0.031 C 
ATOM     38  C   UNL A   1      37.736  31.710  32.752  1.00  0.00     0.029 A 
ATOM     39  C   UNL A   1      38.991  31.010  33.008  1.00  0.00     0.049 A 
ATOM     40  H   UNL A   1      40.009  29.728  31.719  1.00  0.00     0.167 HD
ATOM     41  C   UNL A   1      42.132  27.161  28.946  1.00  0.00     0.037 A 
ATOM     42  C   UNL A   1      39.695  31.076  34.156  1.00  0.00     0.037 A 
ATOM     43  C   UNL A   1      42.901  27.090  30.161  1.00  0.00     0.049 A 
ATOM     44  C   UNL A   1      40.940  30.246  34.312  1.00  0.00     0.074 A 
ATOM     45  C   UNL A   1      44.064  26.379  30.407  1.00  0.00     0.029 A 
ATOM     46  N   UNL A   1      42.599  27.773  31.329  1.00  0.00    -0.354 N 
ATOM     47  N   UNL A   1      41.539  29.478  33.435  1.00  0.00    -0.248 NA
ATOM     48  C   UNL A   1      41.591  30.270  35.630  1.00  0.00     0.031 C 
ATOM     49  C   UNL A   1      44.446  26.604  31.733  1.00  0.00     0.029 A 
ATOM     50  C   UNL A   1      43.548  27.492  32.300  1.00  0.00     0.049 A 
ATOM     51  H   UNL A   1      41.826  28.369  31.450  1.00  0.00     0.167 HD
ATOM     52  C   UNL A   1      42.635  28.934  34.092  1.00  0.00     0.074 A 
ATOM     53  C   UNL A   1      42.639  29.484  35.431  1.00  0.00     0.031 C 
ATOM     54  C   UNL A   1      43.549  28.047  33.629  1.00  0.00     0.037 A 
BRANCH  41  55
ATOM     55  C   UNL A   1      42.600  26.345  27.775  1.00  0.00     0.064 A 
ATOM     56  C   UNL A   1      43.582  26.805  26.887  1.00  0.00     0.173 A 
ATOM     57  C   UNL A   1      42.075  25.059  27.568  1.00  0.00     0.173 A 
ATOM     58  F   UNL A   1      44.102  28.032  27.034  1.00  0.00    -0.203 F 
ATOM     59  C   UNL A   1      44.006  26.015  25.820  1.00  0.00     0.198 A 
ATOM     60  C   UNL A   1      42.522  24.262  26.517  1.00  0.00     0.198 A 
ATOM     61  F   UNL A   1      41.137  24.569  28.392  1.00  0.00    -0.203 F 
ATOM     62  F   UNL A   1      44.915  26.491  24.957  1.00  0.00    -0.200 F 
ATOM     63  C   UNL A   1      43.481  24.744  25.640  1.00  0.00     0.200 A 
ATOM     64  F   UNL A   1      42.023  23.029  26.354  1.00  0.00    -0.200 F 
ATOM     65  F   UNL A   1      43.896  23.983  24.618  1.00  0.00    -0.200 F 
ENDBRANCH  41  55
BRANCH  42  66
ATOM     66  C   UNL A   1      39.211  31.924  35.280  1.00  0.00     0.064 A 
ATOM     67  C   UNL A   1      39.540  33.285  35.355  1.00  0.00     0.173 A 
ATOM     68  C   UNL A   1      38.433  31.385  36.315  1.00  0.00     0.173 A 
ATOM     69  F   UNL A   1      40.311  33.842  34.409  1.00  0.00    -0.203 F 
ATOM     70  C   UNL A   1      39.117  34.070  36.427  1.00  0.00     0.198 A 
ATOM     71  C   UNL A   1      37.982  32.177  37.367  1.00  0.00     0.198 A 
ATOM     72  F   UNL A   1      38.101  30.085  36.299  1.00  0.00    -0.203 F 
ATOM     73  F   UNL A   1      39.488  35.355  36.502  1.00  0.00    -0.200 F 
ATOM     74  C   UNL A   1      38.330  33.518  37.427  1.00  0.00     0.200 A 
ATOM     75  F   UNL A   1      37.213  31.641  38.325  1.00  0.00    -0.200 F 
ATOM     76  F   UNL A   1      37.920  34.273  38.455  1.00  0.00    -0.200 F 
ENDBRANCH  42  66
BRANCH  54  77
ATOM     77  C   UNL A   1      44.645  27.633  34.567  1.00  0.00     0.064 A 
ATOM     78  C   UNL A   1      44.520  26.503  35.389  1.00  0.00     0.173 A 
ATOM     79  C   UNL A   1      45.844  28.359  34.626  1.00  0.00     0.173 A 
ATOM     80  F   UNL A   1      43.388  25.784  35.381  1.00  0.00    -0.203 F 
ATOM     81  C   UNL A   1      45.545  26.132  36.256  1.00  0.00     0.198 A 
ATOM     82  C   UNL A   1      46.878  27.968  35.473  1.00  0.00     0.198 A 
ATOM     83  F   UNL A   1      46.016  29.444  33.855  1.00  0.00    -0.203 F 
ATOM     84  F   UNL A   1      45.385  25.077  37.067  1.00  0.00    -0.200 F 
ATOM     85  C   UNL A   1      46.724  26.861  36.293  1.00  0.00     0.200 A 
ATOM     86  F   UNL A   1      48.020  28.668  35.500  1.00  0.00    -0.200 F 
ATOM     87  F   UNL A   1      47.711  26.501  37.126  1.00  0.00    -0.200 F 
ENDBRANCH  54  77
ENDBRANCH  28  29
ENDBRANCH  21  23
ENDBRANCH  20  21
ENDBRANCH  19  20
ENDBRANCH   1  19
TORSDOF 16
ENDMDL
