MODEL 1
REMARK VINA RESULT:     -12.1      0.000      0.000
REMARK SMILES O=C(Cc1ccn(-c2ccccc2F)c1)OCCOC(=O)c1ccc(-c2c3nc(c(-c4c(F)c(F)c(F)c(F)c4F)c4ccc([nH]4)c(-c4c(F)c(F)c(F)c(F)c4F)c4nc(c(-c5c(F)c(F)c(F)c(F)c5F)c5ccc2[nH]5)C=C4)C=C3)cc1
REMARK SMILES IDX 17 1 16 2 2 3 1 4 3 5 4 6 5 7 15 8 6 9 7 10 8 11 9 12 13 13
REMARK SMILES IDX 10 14 12 15 14 16 11 17 18 18 19 19 20 20 21 21 22 22 23 23
REMARK SMILES IDX 84 24 24 25 83 26 25 27 26 28 27 29 77 30 28 31 82 32 76 33
REMARK SMILES IDX 78 34 29 35 81 36 75 37 74 38 30 40 62 41 42 42 61 43 43 44
REMARK SMILES IDX 46 45 60 46 79 47 44 48 45 49 59 51 80 52 47 53 31 54 32 55
REMARK SMILES IDX 40 56 33 57 34 58 38 59 41 60 35 61 36 62 39 63 37 64 63 65
REMARK SMILES IDX 64 66 72 67 65 68 66 69 70 70 73 71 67 72 68 73 71 74 69 75
REMARK SMILES IDX 48 76 49 77 57 78 50 79 51 80 55 81 58 82 52 83 53 84 56 85
REMARK SMILES IDX 54 86
REMARK H PARENT 78 39 46 50
REMARK Flexibility Score: inf
ROOT
ATOM      1  C   UNL A   1      38.969  21.553  25.811  1.00  0.00     0.274 C 
ENDROOT
BRANCH   1   2
ATOM      2  O   UNL A   1      37.526  21.684  25.766  1.00  0.00    -0.462 OA
BRANCH   2   3
ATOM      3  C   UNL A   1      36.784  22.632  25.135  1.00  0.00     0.310 C 
ATOM      4  O   UNL A   1      37.307  23.334  24.268  1.00  0.00    -0.252 OA
BRANCH   3   5
ATOM      5  C   UNL A   1      35.321  22.831  25.490  1.00  0.00     0.159 C 
BRANCH   5   6
ATOM      6  C   UNL A   1      34.395  21.825  24.910  1.00  0.00    -0.019 A 
ATOM      7  C   UNL A   1      33.203  22.061  24.167  1.00  0.00     0.024 A 
ATOM      8  C   UNL A   1      34.519  20.459  25.009  1.00  0.00     0.095 A 
ATOM      9  C   UNL A   1      32.658  20.832  23.848  1.00  0.00     0.091 A 
ATOM     10  N   UNL A   1      33.427  19.864  24.443  1.00  0.00    -0.321 N 
BRANCH  10  11
ATOM     11  C   UNL A   1      33.268  18.478  24.417  1.00  0.00     0.081 A 
ATOM     12  C   UNL A   1      33.754  17.766  23.323  1.00  0.00     0.030 A 
ATOM     13  C   UNL A   1      32.885  17.828  25.592  1.00  0.00     0.147 A 
ATOM     14  C   UNL A   1      33.887  16.383  23.436  1.00  0.00     0.002 A 
ATOM     15  C   UNL A   1      32.979  16.449  25.686  1.00  0.00     0.041 A 
ATOM     16  F   UNL A   1      32.431  18.524  26.647  1.00  0.00    -0.205 F 
ATOM     17  C   UNL A   1      33.501  15.727  24.612  1.00  0.00     0.003 A 
ENDBRANCH  10  11
ENDBRANCH   5   6
ENDBRANCH   3   5
ENDBRANCH   2   3
ENDBRANCH   1   2
BRANCH   1  18
ATOM     18  C   UNL A   1      39.436  20.142  25.506  1.00  0.00     0.275 C 
BRANCH  18  19
ATOM     19  O   UNL A   1      40.274  19.692  26.562  1.00  0.00    -0.458 OA
BRANCH  19  20
ATOM     20  C   UNL A   1      41.526  19.372  26.166  1.00  0.00     0.338 C 
ATOM     21  O   UNL A   1      41.917  18.326  25.698  1.00  0.00    -0.246 OA
BRANCH  20  22
ATOM     22  C   UNL A   1      42.408  20.492  26.478  1.00  0.00     0.060 A 
ATOM     23  C   UNL A   1      42.383  20.945  27.797  1.00  0.00     0.016 A 
ATOM     24  C   UNL A   1      42.957  21.233  25.423  1.00  0.00     0.016 A 
ATOM     25  C   UNL A   1      42.695  22.261  28.027  1.00  0.00     0.010 A 
ATOM     26  C   UNL A   1      43.217  22.560  25.639  1.00  0.00     0.010 A 
ATOM     27  C   UNL A   1      43.021  23.062  26.928  1.00  0.00    -0.014 A 
BRANCH  27  28
ATOM     28  C   UNL A   1      43.282  24.470  27.178  1.00  0.00     0.031 A 
ATOM     29  C   UNL A   1      41.942  25.198  27.396  1.00  0.00     0.074 A 
ATOM     30  C   UNL A   1      44.610  24.808  27.116  1.00  0.00     0.049 A 
ATOM     31  N   UNL A   1      41.652  26.450  27.264  1.00  0.00    -0.248 NA
ATOM     32  C   UNL A   1      40.719  24.418  27.770  1.00  0.00     0.031 C 
ATOM     33  C   UNL A   1      45.740  23.856  26.920  1.00  0.00     0.029 A 
ATOM     34  N   UNL A   1      45.295  25.999  27.183  1.00  0.00    -0.354 N 
ATOM     35  C   UNL A   1      40.337  26.641  27.740  1.00  0.00     0.074 A 
ATOM     36  C   UNL A   1      39.775  25.346  27.935  1.00  0.00     0.031 C 
ATOM     37  C   UNL A   1      46.916  24.510  26.774  1.00  0.00     0.029 A 
ATOM     38  C   UNL A   1      46.688  25.936  26.886  1.00  0.00     0.049 A 
ATOM     39  H   UNL A   1      44.850  26.844  27.422  1.00  0.00     0.167 HD
ATOM     40  C   UNL A   1      39.856  27.876  28.065  1.00  0.00     0.037 A 
ATOM     41  C   UNL A   1      47.560  26.978  26.694  1.00  0.00     0.037 A 
ATOM     42  C   UNL A   1      40.827  28.863  27.729  1.00  0.00     0.049 A 
ATOM     43  C   UNL A   1      46.775  28.158  27.074  1.00  0.00     0.074 A 
ATOM     44  C   UNL A   1      41.252  29.310  26.505  1.00  0.00     0.029 A 
ATOM     45  N   UNL A   1      41.781  29.144  28.677  1.00  0.00    -0.354 N 
ATOM     46  N   UNL A   1      46.428  28.449  28.292  1.00  0.00    -0.248 NA
ATOM     47  C   UNL A   1      46.225  29.001  26.007  1.00  0.00     0.031 C 
ATOM     48  C   UNL A   1      42.650  29.362  26.664  1.00  0.00     0.029 A 
ATOM     49  C   UNL A   1      42.981  29.254  28.021  1.00  0.00     0.049 A 
ATOM     50  H   UNL A   1      41.631  29.246  29.644  1.00  0.00     0.167 HD
ATOM     51  C   UNL A   1      45.355  29.280  28.089  1.00  0.00     0.074 A 
ATOM     52  C   UNL A   1      45.488  29.820  26.752  1.00  0.00     0.031 C 
ATOM     53  C   UNL A   1      44.198  29.054  28.765  1.00  0.00     0.037 A 
BRANCH  40  54
ATOM     54  C   UNL A   1      38.667  28.320  28.857  1.00  0.00     0.064 A 
ATOM     55  C   UNL A   1      38.483  28.009  30.209  1.00  0.00     0.173 A 
ATOM     56  C   UNL A   1      37.892  29.391  28.345  1.00  0.00     0.173 A 
ATOM     57  F   UNL A   1      39.179  27.026  30.795  1.00  0.00    -0.203 F 
ATOM     58  C   UNL A   1      37.647  28.782  31.020  1.00  0.00     0.198 A 
ATOM     59  C   UNL A   1      37.100  30.186  29.166  1.00  0.00     0.198 A 
ATOM     60  F   UNL A   1      37.964  29.732  27.048  1.00  0.00    -0.203 F 
ATOM     61  F   UNL A   1      37.538  28.494  32.325  1.00  0.00    -0.200 F 
ATOM     62  C   UNL A   1      36.992  29.892  30.510  1.00  0.00     0.200 A 
ATOM     63  F   UNL A   1      36.501  31.276  28.663  1.00  0.00    -0.200 F 
ATOM     64  F   UNL A   1      36.288  30.695  31.319  1.00  0.00    -0.200 F 
ENDBRANCH  40  54
BRANCH  41  65
ATOM     65  C   UNL A   1      48.943  27.259  26.138  1.00  0.00     0.064 A 
ATOM     66  C   UNL A   1      49.873  28.004  26.928  1.00  0.00     0.173 A 
ATOM     67  C   UNL A   1      49.394  26.988  24.842  1.00  0.00     0.173 A 
ATOM     68  F   UNL A   1      49.687  28.194  28.242  1.00  0.00    -0.203 F 
ATOM     69  C   UNL A   1      51.021  28.606  26.414  1.00  0.00     0.198 A 
ATOM     70  C   UNL A   1      50.595  27.537  24.342  1.00  0.00     0.198 A 
ATOM     71  F   UNL A   1      48.696  26.191  24.025  1.00  0.00    -0.203 F 
ATOM     72  F   UNL A   1      51.752  29.418  27.195  1.00  0.00    -0.200 F 
ATOM     73  C   UNL A   1      51.374  28.389  25.108  1.00  0.00     0.200 A 
ATOM     74  F   UNL A   1      50.985  27.256  23.090  1.00  0.00    -0.200 F 
ATOM     75  F   UNL A   1      52.460  28.986  24.598  1.00  0.00    -0.200 F 
ENDBRANCH  41  65
BRANCH  53  76
ATOM     76  C   UNL A   1      44.358  28.285  30.067  1.00  0.00     0.064 A 
ATOM     77  C   UNL A   1      43.932  26.961  30.273  1.00  0.00     0.173 A 
ATOM     78  C   UNL A   1      45.057  28.868  31.135  1.00  0.00     0.173 A 
ATOM     79  F   UNL A   1      43.233  26.318  29.345  1.00  0.00    -0.203 F 
ATOM     80  C   UNL A   1      44.199  26.255  31.452  1.00  0.00     0.198 A 
ATOM     81  C   UNL A   1      45.322  28.169  32.318  1.00  0.00     0.198 A 
ATOM     82  F   UNL A   1      45.480  30.138  31.041  1.00  0.00    -0.203 F 
ATOM     83  F   UNL A   1      43.761  24.993  31.592  1.00  0.00    -0.200 F 
ATOM     84  C   UNL A   1      44.896  26.862  32.475  1.00  0.00     0.200 A 
ATOM     85  F   UNL A   1      45.983  28.773  33.315  1.00  0.00    -0.200 F 
ATOM     86  F   UNL A   1      45.133  26.199  33.616  1.00  0.00    -0.200 F 
ENDBRANCH  53  76
ENDBRANCH  27  28
ENDBRANCH  20  22
ENDBRANCH  19  20
ENDBRANCH  18  19
ENDBRANCH   1  18
TORSDOF 13
ENDMDL
MODEL 2
REMARK VINA RESULT:     -12.0      4.809      9.186
REMARK SMILES O=C(Cc1ccn(-c2ccccc2F)c1)OCCOC(=O)c1ccc(-c2c3nc(c(-c4c(F)c(F)c(F)c(F)c4F)c4ccc([nH]4)c(-c4c(F)c(F)c(F)c(F)c4F)c4nc(c(-c5c(F)c(F)c(F)c(F)c5F)c5ccc2[nH]5)C=C4)C=C3)cc1
REMARK SMILES IDX 17 1 16 2 2 3 1 4 3 5 4 6 5 7 15 8 6 9 7 10 8 11 9 12 13 13
REMARK SMILES IDX 10 14 12 15 14 16 11 17 18 18 19 19 20 20 21 21 22 22 23 23
REMARK SMILES IDX 84 24 24 25 83 26 25 27 26 28 27 29 77 30 28 31 82 32 76 33
REMARK SMILES IDX 78 34 29 35 81 36 75 37 74 38 30 40 62 41 42 42 61 43 43 44
REMARK SMILES IDX 46 45 60 46 79 47 44 48 45 49 59 51 80 52 47 53 31 54 32 55
REMARK SMILES IDX 40 56 33 57 34 58 38 59 41 60 35 61 36 62 39 63 37 64 63 65
REMARK SMILES IDX 64 66 72 67 65 68 66 69 70 70 73 71 67 72 68 73 71 74 69 75
REMARK SMILES IDX 48 76 49 77 57 78 50 79 51 80 55 81 58 82 52 83 53 84 56 85
REMARK SMILES IDX 54 86
REMARK H PARENT 78 39 46 50
REMARK Flexibility Score: inf
ROOT
ATOM      1  C   UNL A   1      33.440  30.406  27.116  1.00  0.00     0.274 C 
ENDROOT
BRANCH   1   2
ATOM      2  O   UNL A   1      33.369  28.980  27.363  1.00  0.00    -0.462 OA
BRANCH   2   3
ATOM      3  C   UNL A   1      32.330  28.134  27.134  1.00  0.00     0.310 C 
ATOM      4  O   UNL A   1      31.428  28.042  27.967  1.00  0.00    -0.252 OA
BRANCH   3   5
ATOM      5  C   UNL A   1      32.273  27.306  25.861  1.00  0.00     0.159 C 
BRANCH   5   6
ATOM      6  C   UNL A   1      31.233  27.727  24.888  1.00  0.00    -0.019 A 
ATOM      7  C   UNL A   1      30.337  26.899  24.153  1.00  0.00     0.024 A 
ATOM      8  C   UNL A   1      30.962  29.020  24.503  1.00  0.00     0.095 A 
ATOM      9  C   UNL A   1      29.563  27.722  23.357  1.00  0.00     0.091 A 
ATOM     10  N   UNL A   1      30.014  29.007  23.518  1.00  0.00    -0.321 N 
BRANCH  10  11
ATOM     11  C   UNL A   1      29.556  30.179  22.915  1.00  0.00     0.081 A 
ATOM     12  C   UNL A   1      29.022  30.108  21.630  1.00  0.00     0.030 A 
ATOM     13  C   UNL A   1      29.390  31.317  23.707  1.00  0.00     0.147 A 
ATOM     14  C   UNL A   1      28.282  31.191  21.158  1.00  0.00     0.002 A 
ATOM     15  C   UNL A   1      28.688  32.407  23.218  1.00  0.00     0.041 A 
ATOM     16  F   UNL A   1      29.894  31.370  24.950  1.00  0.00    -0.205 F 
ATOM     17  C   UNL A   1      28.115  32.336  21.947  1.00  0.00     0.003 A 
ENDBRANCH  10  11
ENDBRANCH   5   6
ENDBRANCH   3   5
ENDBRANCH   2   3
ENDBRANCH   1   2
BRANCH   1  18
ATOM     18  C   UNL A   1      34.711  31.030  27.663  1.00  0.00     0.275 C 
BRANCH  18  19
ATOM     19  O   UNL A   1      35.781  30.107  27.516  1.00  0.00    -0.458 OA
BRANCH  19  20
ATOM     20  C   UNL A   1      36.899  30.456  28.188  1.00  0.00     0.338 C 
ATOM     21  O   UNL A   1      37.152  31.515  28.720  1.00  0.00    -0.246 OA
BRANCH  20  22
ATOM     22  C   UNL A   1      37.850  29.351  28.109  1.00  0.00     0.060 A 
ATOM     23  C   UNL A   1      37.924  28.523  29.230  1.00  0.00     0.016 A 
ATOM     24  C   UNL A   1      38.827  29.373  27.106  1.00  0.00     0.016 A 
ATOM     25  C   UNL A   1      39.110  27.879  29.471  1.00  0.00     0.010 A 
ATOM     26  C   UNL A   1      40.030  28.775  27.370  1.00  0.00     0.010 A 
ATOM     27  C   UNL A   1      40.168  28.090  28.580  1.00  0.00    -0.014 A 
BRANCH  27  28
ATOM     28  C   UNL A   1      41.440  27.457  28.887  1.00  0.00     0.031 A 
ATOM     29  C   UNL A   1      41.427  26.016  28.341  1.00  0.00     0.074 A 
ATOM     30  C   UNL A   1      42.296  28.252  29.605  1.00  0.00     0.049 A 
ATOM     31  N   UNL A   1      42.134  24.994  28.694  1.00  0.00    -0.248 NA
ATOM     32  C   UNL A   1      40.452  25.630  27.272  1.00  0.00     0.031 C 
ATOM     33  C   UNL A   1      42.054  29.674  29.978  1.00  0.00     0.029 A 
ATOM     34  N   UNL A   1      43.526  28.047  30.186  1.00  0.00    -0.354 N 
ATOM     35  C   UNL A   1      41.870  23.950  27.781  1.00  0.00     0.074 A 
ATOM     36  C   UNL A   1      40.752  24.359  26.997  1.00  0.00     0.031 C 
ATOM     37  C   UNL A   1      43.025  30.142  30.795  1.00  0.00     0.029 A 
ATOM     38  C   UNL A   1      44.008  29.101  31.016  1.00  0.00     0.049 A 
ATOM     39  H   UNL A   1      44.042  27.222  30.037  1.00  0.00     0.167 HD
ATOM     40  C   UNL A   1      42.695  22.870  27.657  1.00  0.00     0.037 A 
ATOM     41  C   UNL A   1      45.093  29.087  31.856  1.00  0.00     0.037 A 
ATOM     42  C   UNL A   1      43.717  22.942  28.646  1.00  0.00     0.049 A 
ATOM     43  C   UNL A   1      45.757  27.817  31.540  1.00  0.00     0.074 A 
ATOM     44  C   UNL A   1      43.651  22.782  30.006  1.00  0.00     0.029 A 
ATOM     45  N   UNL A   1      44.845  23.658  28.323  1.00  0.00    -0.354 N 
ATOM     46  N   UNL A   1      46.396  27.578  30.433  1.00  0.00    -0.248 NA
ATOM     47  C   UNL A   1      45.584  26.692  32.463  1.00  0.00     0.031 C 
ATOM     48  C   UNL A   1      44.441  23.846  30.481  1.00  0.00     0.029 A 
ATOM     49  C   UNL A   1      45.184  24.396  29.429  1.00  0.00     0.049 A 
ATOM     50  H   UNL A   1      45.318  23.644  27.460  1.00  0.00     0.167 HD
ATOM     51  C   UNL A   1      46.383  26.207  30.391  1.00  0.00     0.074 A 
ATOM     52  C   UNL A   1      46.187  25.746  31.750  1.00  0.00     0.031 C 
ATOM     53  C   UNL A   1      45.989  25.578  29.253  1.00  0.00     0.037 A 
BRANCH  40  54
ATOM     54  C   UNL A   1      42.830  21.819  26.601  1.00  0.00     0.064 A 
ATOM     55  C   UNL A   1      43.747  21.900  25.547  1.00  0.00     0.173 A 
ATOM     56  C   UNL A   1      42.289  20.537  26.869  1.00  0.00     0.173 A 
ATOM     57  F   UNL A   1      44.329  23.062  25.223  1.00  0.00    -0.203 F 
ATOM     58  C   UNL A   1      44.169  20.754  24.868  1.00  0.00     0.198 A 
ATOM     59  C   UNL A   1      42.747  19.394  26.223  1.00  0.00     0.198 A 
ATOM     60  F   UNL A   1      41.365  20.368  27.829  1.00  0.00    -0.203 F 
ATOM     61  F   UNL A   1      45.093  20.858  23.902  1.00  0.00    -0.200 F 
ATOM     62  C   UNL A   1      43.703  19.501  25.233  1.00  0.00     0.200 A 
ATOM     63  F   UNL A   1      42.311  18.187  26.614  1.00  0.00    -0.200 F 
ATOM     64  F   UNL A   1      44.200  18.398  24.657  1.00  0.00    -0.200 F 
ENDBRANCH  40  54
BRANCH  41  65
ATOM     65  C   UNL A   1      45.694  29.875  33.004  1.00  0.00     0.064 A 
ATOM     66  C   UNL A   1      44.942  30.033  34.211  1.00  0.00     0.173 A 
ATOM     67  C   UNL A   1      46.883  30.611  32.981  1.00  0.00     0.173 A 
ATOM     68  F   UNL A   1      43.877  29.266  34.480  1.00  0.00    -0.203 F 
ATOM     69  C   UNL A   1      45.226  30.990  35.183  1.00  0.00     0.198 A 
ATOM     70  C   UNL A   1      47.210  31.530  34.003  1.00  0.00     0.198 A 
ATOM     71  F   UNL A   1      47.759  30.469  31.980  1.00  0.00    -0.203 F 
ATOM     72  F   UNL A   1      44.375  31.173  36.204  1.00  0.00    -0.200 F 
ATOM     73  C   UNL A   1      46.356  31.759  35.069  1.00  0.00     0.200 A 
ATOM     74  F   UNL A   1      48.357  32.221  33.935  1.00  0.00    -0.200 F 
ATOM     75  F   UNL A   1      46.622  32.701  35.984  1.00  0.00    -0.200 F 
ENDBRANCH  41  65
BRANCH  53  76
ATOM     76  C   UNL A   1      46.142  26.399  27.983  1.00  0.00     0.064 A 
ATOM     77  C   UNL A   1      45.078  26.807  27.159  1.00  0.00     0.173 A 
ATOM     78  C   UNL A   1      47.408  26.883  27.618  1.00  0.00     0.173 A 
ATOM     79  F   UNL A   1      43.839  26.385  27.387  1.00  0.00    -0.203 F 
ATOM     80  C   UNL A   1      45.254  27.655  26.060  1.00  0.00     0.198 A 
ATOM     81  C   UNL A   1      47.591  27.727  26.517  1.00  0.00     0.198 A 
ATOM     82  F   UNL A   1      48.488  26.525  28.328  1.00  0.00    -0.203 F 
ATOM     83  F   UNL A   1      44.198  28.006  25.307  1.00  0.00    -0.200 F 
ATOM     84  C   UNL A   1      46.513  28.115  25.740  1.00  0.00     0.200 A 
ATOM     85  F   UNL A   1      48.821  28.154  26.202  1.00  0.00    -0.200 F 
ATOM     86  F   UNL A   1      46.692  28.909  24.673  1.00  0.00    -0.200 F 
ENDBRANCH  53  76
ENDBRANCH  27  28
ENDBRANCH  20  22
ENDBRANCH  19  20
ENDBRANCH  18  19
ENDBRANCH   1  18
TORSDOF 13
ENDMDL
MODEL 3
REMARK VINA RESULT:     -12.0      2.220      3.477
REMARK SMILES O=C(Cc1ccn(-c2ccccc2F)c1)OCCOC(=O)c1ccc(-c2c3nc(c(-c4c(F)c(F)c(F)c(F)c4F)c4ccc([nH]4)c(-c4c(F)c(F)c(F)c(F)c4F)c4nc(c(-c5c(F)c(F)c(F)c(F)c5F)c5ccc2[nH]5)C=C4)C=C3)cc1
REMARK SMILES IDX 17 1 16 2 2 3 1 4 3 5 4 6 5 7 15 8 6 9 7 10 8 11 9 12 13 13
REMARK SMILES IDX 10 14 12 15 14 16 11 17 18 18 19 19 20 20 21 21 22 22 23 23
REMARK SMILES IDX 84 24 24 25 83 26 25 27 26 28 27 29 77 30 28 31 82 32 76 33
REMARK SMILES IDX 78 34 29 35 81 36 75 37 74 38 30 40 62 41 42 42 61 43 43 44
REMARK SMILES IDX 46 45 60 46 79 47 44 48 45 49 59 51 80 52 47 53 31 54 32 55
REMARK SMILES IDX 40 56 33 57 34 58 38 59 41 60 35 61 36 62 39 63 37 64 63 65
REMARK SMILES IDX 64 66 72 67 65 68 66 69 70 70 73 71 67 72 68 73 71 74 69 75
REMARK SMILES IDX 48 76 49 77 57 78 50 79 51 80 55 81 58 82 52 83 53 84 56 85
REMARK SMILES IDX 54 86
REMARK H PARENT 78 39 46 50
REMARK Flexibility Score: inf
ROOT
ATOM      1  C   UNL A   1      38.963  21.557  25.877  1.00  0.00     0.274 C 
ENDROOT
BRANCH   1   2
ATOM      2  O   UNL A   1      37.531  21.703  25.700  1.00  0.00    -0.462 OA
BRANCH   2   3
ATOM      3  C   UNL A   1      36.788  22.839  25.738  1.00  0.00     0.310 C 
ATOM      4  O   UNL A   1      37.353  23.934  25.764  1.00  0.00    -0.252 OA
BRANCH   3   5
ATOM      5  C   UNL A   1      35.270  22.771  25.749  1.00  0.00     0.159 C 
BRANCH   5   6
ATOM      6  C   UNL A   1      34.587  23.984  25.230  1.00  0.00    -0.019 A 
ATOM      7  C   UNL A   1      34.433  24.388  23.873  1.00  0.00     0.024 A 
ATOM      8  C   UNL A   1      33.988  24.962  25.991  1.00  0.00     0.095 A 
ATOM      9  C   UNL A   1      33.749  25.588  23.868  1.00  0.00     0.091 A 
ATOM     10  N   UNL A   1      33.559  25.969  25.172  1.00  0.00    -0.321 N 
BRANCH  10  11
ATOM     11  C   UNL A   1      32.931  27.112  25.670  1.00  0.00     0.081 A 
ATOM     12  C   UNL A   1      31.985  26.971  26.682  1.00  0.00     0.030 A 
ATOM     13  C   UNL A   1      33.462  28.362  25.342  1.00  0.00     0.147 A 
ATOM     14  C   UNL A   1      31.599  28.107  27.393  1.00  0.00     0.002 A 
ATOM     15  C   UNL A   1      33.046  29.494  26.024  1.00  0.00     0.041 A 
ATOM     16  F   UNL A   1      34.385  28.485  24.375  1.00  0.00    -0.205 F 
ATOM     17  C   UNL A   1      32.126  29.362  27.066  1.00  0.00     0.003 A 
ENDBRANCH  10  11
ENDBRANCH   5   6
ENDBRANCH   3   5
ENDBRANCH   2   3
ENDBRANCH   1   2
BRANCH   1  18
ATOM     18  C   UNL A   1      39.456  20.169  25.513  1.00  0.00     0.275 C 
BRANCH  18  19
ATOM     19  O   UNL A   1      40.273  19.677  26.566  1.00  0.00    -0.458 OA
BRANCH  19  20
ATOM     20  C   UNL A   1      41.527  19.355  26.179  1.00  0.00     0.338 C 
ATOM     21  O   UNL A   1      41.920  18.306  25.717  1.00  0.00    -0.246 OA
BRANCH  20  22
ATOM     22  C   UNL A   1      42.409  20.474  26.493  1.00  0.00     0.060 A 
ATOM     23  C   UNL A   1      42.376  20.931  27.811  1.00  0.00     0.016 A 
ATOM     24  C   UNL A   1      42.964  21.212  25.440  1.00  0.00     0.016 A 
ATOM     25  C   UNL A   1      42.687  22.247  28.039  1.00  0.00     0.010 A 
ATOM     26  C   UNL A   1      43.225  22.538  25.654  1.00  0.00     0.010 A 
ATOM     27  C   UNL A   1      43.022  23.045  26.940  1.00  0.00    -0.014 A 
BRANCH  27  28
ATOM     28  C   UNL A   1      43.282  24.454  27.188  1.00  0.00     0.031 A 
ATOM     29  C   UNL A   1      41.941  25.183  27.397  1.00  0.00     0.074 A 
ATOM     30  C   UNL A   1      44.611  24.790  27.130  1.00  0.00     0.049 A 
ATOM     31  N   UNL A   1      41.653  26.434  27.261  1.00  0.00    -0.248 NA
ATOM     32  C   UNL A   1      40.716  24.404  27.768  1.00  0.00     0.031 C 
ATOM     33  C   UNL A   1      45.741  23.837  26.941  1.00  0.00     0.029 A 
ATOM     34  N   UNL A   1      45.296  25.981  27.197  1.00  0.00    -0.354 N 
ATOM     35  C   UNL A   1      40.336  26.628  27.731  1.00  0.00     0.074 A 
ATOM     36  C   UNL A   1      39.773  25.333  27.927  1.00  0.00     0.031 C 
ATOM     37  C   UNL A   1      46.918  24.489  26.798  1.00  0.00     0.029 A 
ATOM     38  C   UNL A   1      46.690  25.916  26.907  1.00  0.00     0.049 A 
ATOM     39  H   UNL A   1      44.850  26.827  27.432  1.00  0.00     0.167 HD
ATOM     40  C   UNL A   1      39.855  27.864  28.050  1.00  0.00     0.037 A 
ATOM     41  C   UNL A   1      47.564  26.957  26.715  1.00  0.00     0.037 A 
ATOM     42  C   UNL A   1      40.827  28.850  27.716  1.00  0.00     0.049 A 
ATOM     43  C   UNL A   1      46.778  28.139  27.088  1.00  0.00     0.074 A 
ATOM     44  C   UNL A   1      41.258  29.293  26.493  1.00  0.00     0.029 A 
ATOM     45  N   UNL A   1      41.778  29.133  28.667  1.00  0.00    -0.354 N 
ATOM     46  N   UNL A   1      46.426  28.434  28.304  1.00  0.00    -0.248 NA
ATOM     47  C   UNL A   1      46.233  28.979  26.017  1.00  0.00     0.031 C 
ATOM     48  C   UNL A   1      42.656  29.344  26.658  1.00  0.00     0.029 A 
ATOM     49  C   UNL A   1      42.980  29.240  28.016  1.00  0.00     0.049 A 
ATOM     50  H   UNL A   1      41.624  29.237  29.634  1.00  0.00     0.167 HD
ATOM     51  C   UNL A   1      45.354  29.265  28.095  1.00  0.00     0.074 A 
ATOM     52  C   UNL A   1      45.494  29.801  26.756  1.00  0.00     0.031 C 
ATOM     53  C   UNL A   1      44.195  29.040  28.766  1.00  0.00     0.037 A 
BRANCH  40  54
ATOM     54  C   UNL A   1      38.662  28.311  28.836  1.00  0.00     0.064 A 
ATOM     55  C   UNL A   1      38.474  28.006  30.189  1.00  0.00     0.173 A 
ATOM     56  C   UNL A   1      37.888  29.378  28.316  1.00  0.00     0.173 A 
ATOM     57  F   UNL A   1      39.169  27.026  30.782  1.00  0.00    -0.203 F 
ATOM     58  C   UNL A   1      37.635  28.783  30.993  1.00  0.00     0.198 A 
ATOM     59  C   UNL A   1      37.093  30.177  29.130  1.00  0.00     0.198 A 
ATOM     60  F   UNL A   1      37.965  29.713  27.017  1.00  0.00    -0.203 F 
ATOM     61  F   UNL A   1      37.521  28.500  32.299  1.00  0.00    -0.200 F 
ATOM     62  C   UNL A   1      36.981  29.889  30.476  1.00  0.00     0.200 A 
ATOM     63  F   UNL A   1      36.495  31.264  28.620  1.00  0.00    -0.200 F 
ATOM     64  F   UNL A   1      36.273  30.696  31.279  1.00  0.00    -0.200 F 
ENDBRANCH  40  54
BRANCH  41  65
ATOM     65  C   UNL A   1      48.949  27.236  26.164  1.00  0.00     0.064 A 
ATOM     66  C   UNL A   1      49.874  27.989  26.953  1.00  0.00     0.173 A 
ATOM     67  C   UNL A   1      49.408  26.954  24.873  1.00  0.00     0.173 A 
ATOM     68  F   UNL A   1      49.680  28.190  28.264  1.00  0.00    -0.203 F 
ATOM     69  C   UNL A   1      51.024  28.589  26.441  1.00  0.00     0.198 A 
ATOM     70  C   UNL A   1      50.611  27.501  24.375  1.00  0.00     0.198 A 
ATOM     71  F   UNL A   1      48.716  26.149  24.059  1.00  0.00    -0.203 F 
ATOM     72  F   UNL A   1      51.748  29.409  27.218  1.00  0.00    -0.200 F 
ATOM     73  C   UNL A   1      51.384  28.361  25.138  1.00  0.00     0.200 A 
ATOM     74  F   UNL A   1      51.009  27.210  23.128  1.00  0.00    -0.200 F 
ATOM     75  F   UNL A   1      52.472  28.956  24.629  1.00  0.00    -0.200 F 
ENDBRANCH  41  65
BRANCH  53  76
ATOM     76  C   UNL A   1      44.349  28.275  30.070  1.00  0.00     0.064 A 
ATOM     77  C   UNL A   1      43.912  26.955  30.281  1.00  0.00     0.173 A 
ATOM     78  C   UNL A   1      45.052  28.856  31.137  1.00  0.00     0.173 A 
ATOM     79  F   UNL A   1      43.207  26.314  29.356  1.00  0.00    -0.203 F 
ATOM     80  C   UNL A   1      44.172  26.252  31.463  1.00  0.00     0.198 A 
ATOM     81  C   UNL A   1      45.311  28.159  32.322  1.00  0.00     0.198 A 
ATOM     82  F   UNL A   1      45.485  30.122  31.038  1.00  0.00    -0.203 F 
ATOM     83  F   UNL A   1      43.725  24.993  31.607  1.00  0.00    -0.200 F 
ATOM     84  C   UNL A   1      44.874  26.856  32.484  1.00  0.00     0.200 A 
ATOM     85  F   UNL A   1      45.977  28.762  33.317  1.00  0.00    -0.200 F 
ATOM     86  F   UNL A   1      45.107  26.195  33.627  1.00  0.00    -0.200 F 
ENDBRANCH  53  76
ENDBRANCH  27  28
ENDBRANCH  20  22
ENDBRANCH  19  20
ENDBRANCH  18  19
ENDBRANCH   1  18
TORSDOF 13
ENDMDL
