MODEL 1
REMARK VINA RESULT:     -12.5      0.000      0.000
REMARK SMILES Cc1ccsc1CNC(=O)N[C@@H]1CCCC[C@H]1C(=O)OCCOC(=O)c1ccc(-c2c3nc(c(-c4c(F)c(F)c(F)c(F)c4F)c4ccc([nH]4)c(-c4c(F)c(F)c(F)c(F)c4F)c4nc(c(-c5c(F)c(F)c(F)c(F)c5F)c5ccc2[nH]5)C=C4)C=C3)cc1
REMARK SMILES IDX 21 1 20 2 18 3 19 4 17 5 12 6 13 7 14 8 16 9 15 10 11 11
REMARK SMILES IDX 8 12 9 13 10 15 7 17 6 18 1 19 2 20 3 21 4 22 5 23 22 24
REMARK SMILES IDX 23 25 24 26 25 27 26 28 27 29 88 30 28 31 87 32 29 33 30 34
REMARK SMILES IDX 31 35 81 36 32 37 86 38 80 39 82 40 33 41 85 42 79 43 78 44
REMARK SMILES IDX 34 46 66 47 46 48 65 49 47 50 50 51 64 52 83 53 48 54 49 55
REMARK SMILES IDX 63 57 84 58 51 59 35 60 36 61 44 62 37 63 38 64 42 65 45 66
REMARK SMILES IDX 39 67 40 68 43 69 41 70 67 71 68 72 76 73 69 74 70 75 74 76
REMARK SMILES IDX 77 77 71 78 72 79 75 80 73 81 52 82 53 83 61 84 54 85 55 86
REMARK SMILES IDX 59 87 62 88 56 89 57 90 60 91 58 92
REMARK H PARENT 8 14 11 16 82 45 50 56
REMARK Flexibility Score: inf
ROOT
ATOM      1  C   UNL A   1      31.637  28.728  25.160  1.00  0.00     0.274 C 
ENDROOT
BRANCH   1   2
ATOM      2  O   UNL A   1      30.517  28.564  24.262  1.00  0.00    -0.462 OA
BRANCH   2   3
ATOM      3  C   UNL A   1      30.797  27.907  23.108  1.00  0.00     0.311 C 
ATOM      4  O   UNL A   1      30.353  28.220  22.008  1.00  0.00    -0.252 OA
BRANCH   3   5
ATOM      5  C   UNL A   1      31.627  26.650  23.309  1.00  0.00     0.121 C 
ATOM      6  C   UNL A   1      30.846  25.338  23.469  1.00  0.00     0.098 C 
ATOM      7  C   UNL A   1      31.644  24.034  23.266  1.00  0.00     0.026 C 
ATOM      8  C   UNL A   1      32.728  24.113  22.201  1.00  0.00     0.002 C 
ATOM      9  C   UNL A   1      32.692  26.608  22.212  1.00  0.00     0.017 C 
ATOM     10  C   UNL A   1      33.571  25.371  22.323  1.00  0.00     0.001 C 
BRANCH   6  11
ATOM     11  N   UNL A   1      30.075  25.246  24.719  1.00  0.00    -0.335 N 
ATOM     12  N   UNL A   1      31.479  25.332  26.644  1.00  0.00    -0.333 N 
ATOM     13  C   UNL A   1      30.299  25.205  26.033  1.00  0.00     0.315 C 
ATOM     14  H   UNL A   1      31.375  25.533  27.602  1.00  0.00     0.165 HD
ATOM     15  O   UNL A   1      29.307  25.069  26.757  1.00  0.00    -0.249 OA
ATOM     16  H   UNL A   1      29.110  25.202  24.528  1.00  0.00     0.165 HD
BRANCH  12  17
ATOM     17  C   UNL A   1      32.871  25.250  26.260  1.00  0.00     0.164 C 
BRANCH  17  18
ATOM     18  C   UNL A   1      33.457  23.864  26.420  1.00  0.00     0.027 A 
ATOM     19  C   UNL A   1      35.674  24.130  25.129  1.00  0.00     0.045 C 
ATOM     20  C   UNL A   1      34.679  23.383  25.957  1.00  0.00    -0.035 A 
ATOM     21  C   UNL A   1      34.924  22.038  26.402  1.00  0.00     0.015 A 
ATOM     22  C   UNL A   1      33.916  21.543  27.189  1.00  0.00     0.065 A 
ATOM     23  S   UNL A   1      32.677  22.680  27.394  1.00  0.00    -0.147 S 
ENDBRANCH  17  18
ENDBRANCH  12  17
ENDBRANCH   6  11
ENDBRANCH   3   5
ENDBRANCH   2   3
ENDBRANCH   1   2
BRANCH   1  24
ATOM     24  C   UNL A   1      31.776  30.187  25.587  1.00  0.00     0.275 C 
BRANCH  24  25
ATOM     25  O   UNL A   1      32.325  30.255  26.913  1.00  0.00    -0.458 OA
BRANCH  25  26
ATOM     26  C   UNL A   1      33.001  31.397  27.195  1.00  0.00     0.338 C 
ATOM     27  O   UNL A   1      32.582  32.535  27.071  1.00  0.00    -0.246 OA
BRANCH  26  28
ATOM     28  C   UNL A   1      34.366  31.081  27.675  1.00  0.00     0.060 A 
ATOM     29  C   UNL A   1      34.742  29.770  27.953  1.00  0.00     0.016 A 
ATOM     30  C   UNL A   1      35.249  32.126  27.960  1.00  0.00     0.016 A 
ATOM     31  C   UNL A   1      35.951  29.515  28.608  1.00  0.00     0.010 A 
ATOM     32  C   UNL A   1      36.496  31.855  28.544  1.00  0.00     0.010 A 
ATOM     33  C   UNL A   1      36.841  30.547  28.921  1.00  0.00    -0.014 A 
BRANCH  33  34
ATOM     34  C   UNL A   1      38.062  30.273  29.735  1.00  0.00     0.031 A 
ATOM     35  C   UNL A   1      39.163  29.421  29.162  1.00  0.00     0.074 A 
ATOM     36  C   UNL A   1      38.238  30.816  30.957  1.00  0.00     0.049 A 
ATOM     37  N   UNL A   1      40.192  28.873  29.762  1.00  0.00    -0.248 NA
ATOM     38  C   UNL A   1      39.099  29.152  27.717  1.00  0.00     0.031 C 
ATOM     39  C   UNL A   1      37.330  31.754  31.614  1.00  0.00     0.029 A 
ATOM     40  N   UNL A   1      39.260  30.653  31.865  1.00  0.00    -0.354 N 
ATOM     41  C   UNL A   1      40.855  28.142  28.785  1.00  0.00     0.074 A 
ATOM     42  C   UNL A   1      40.121  28.324  27.550  1.00  0.00     0.031 C 
ATOM     43  C   UNL A   1      37.840  32.097  32.808  1.00  0.00     0.029 A 
ATOM     44  C   UNL A   1      39.066  31.338  33.039  1.00  0.00     0.049 A 
ATOM     45  H   UNL A   1      40.054  30.098  31.689  1.00  0.00     0.167 HD
ATOM     46  C   UNL A   1      41.973  27.387  28.906  1.00  0.00     0.037 A 
ATOM     47  C   UNL A   1      39.761  31.319  34.193  1.00  0.00     0.037 A 
ATOM     48  C   UNL A   1      42.748  27.254  30.112  1.00  0.00     0.049 A 
ATOM     49  C   UNL A   1      40.967  30.428  34.328  1.00  0.00     0.074 A 
ATOM     50  C   UNL A   1      43.880  26.488  30.333  1.00  0.00     0.029 A 
ATOM     51  N   UNL A   1      42.485  27.927  31.294  1.00  0.00    -0.354 N 
ATOM     52  N   UNL A   1      41.521  29.645  33.436  1.00  0.00    -0.248 NA
ATOM     53  C   UNL A   1      41.629  30.404  35.641  1.00  0.00     0.031 C 
ATOM     54  C   UNL A   1      44.290  26.681  31.657  1.00  0.00     0.029 A 
ATOM     55  C   UNL A   1      43.432  27.594  32.249  1.00  0.00     0.049 A 
ATOM     56  H   UNL A   1      41.735  28.550  31.435  1.00  0.00     0.167 HD
ATOM     57  C   UNL A   1      42.595  29.039  34.075  1.00  0.00     0.074 A 
ATOM     58  C   UNL A   1      42.632  29.563  35.424  1.00  0.00     0.031 C 
ATOM     59  C   UNL A   1      43.466  28.124  33.587  1.00  0.00     0.037 A 
BRANCH  46  60
ATOM     60  C   UNL A   1      42.407  26.603  27.704  1.00  0.00     0.064 A 
ATOM     61  C   UNL A   1      43.400  27.071  26.831  1.00  0.00     0.173 A 
ATOM     62  C   UNL A   1      41.837  25.347  27.442  1.00  0.00     0.173 A 
ATOM     63  F   UNL A   1      43.966  28.270  27.034  1.00  0.00    -0.203 F 
ATOM     64  C   UNL A   1      43.792  26.318  25.727  1.00  0.00     0.198 A 
ATOM     65  C   UNL A   1      42.249  24.587  26.352  1.00  0.00     0.198 A 
ATOM     66  F   UNL A   1      40.889  24.853  28.253  1.00  0.00    -0.203 F 
ATOM     67  F   UNL A   1      44.716  26.798  24.885  1.00  0.00    -0.200 F 
ATOM     68  C   UNL A   1      43.220  25.076  25.492  1.00  0.00     0.200 A 
ATOM     69  F   UNL A   1      41.705  23.382  26.133  1.00  0.00    -0.200 F 
ATOM     70  F   UNL A   1      43.604  24.349  24.432  1.00  0.00    -0.200 F 
ENDBRANCH  46  60
BRANCH  47  71
ATOM     71  C   UNL A   1      39.295  32.129  35.347  1.00  0.00     0.064 A 
ATOM     72  C   UNL A   1      39.683  33.467  35.498  1.00  0.00     0.173 A 
ATOM     73  C   UNL A   1      38.462  31.575  36.332  1.00  0.00     0.173 A 
ATOM     74  F   UNL A   1      40.506  34.030  34.601  1.00  0.00    -0.203 F 
ATOM     75  C   UNL A   1      39.263  34.217  36.594  1.00  0.00     0.198 A 
ATOM     76  C   UNL A   1      38.019  32.335  37.411  1.00  0.00     0.198 A 
ATOM     77  F   UNL A   1      38.070  30.296  36.237  1.00  0.00    -0.203 F 
ATOM     78  F   UNL A   1      39.682  35.482  36.737  1.00  0.00    -0.200 F 
ATOM     79  C   UNL A   1      38.425  33.654  37.545  1.00  0.00     0.200 A 
ATOM     80  F   UNL A   1      37.202  31.788  38.322  1.00  0.00    -0.200 F 
ATOM     81  F   UNL A   1      38.016  34.378  38.595  1.00  0.00    -0.200 F 
ENDBRANCH  47  71
BRANCH  59  82
ATOM     82  C   UNL A   1      44.550  27.646  34.506  1.00  0.00     0.064 A 
ATOM     83  C   UNL A   1      45.773  28.326  34.613  1.00  0.00     0.173 A 
ATOM     84  C   UNL A   1      44.354  26.515  35.312  1.00  0.00     0.173 A 
ATOM     85  F   UNL A   1      46.014  29.402  33.850  1.00  0.00    -0.203 F 
ATOM     86  C   UNL A   1      46.766  27.878  35.479  1.00  0.00     0.198 A 
ATOM     87  C   UNL A   1      45.341  26.083  36.192  1.00  0.00     0.198 A 
ATOM     88  F   UNL A   1      43.201  25.831  35.247  1.00  0.00    -0.203 F 
ATOM     89  F   UNL A   1      47.942  28.520  35.537  1.00  0.00    -0.200 F 
ATOM     90  C   UNL A   1      46.548  26.761  36.272  1.00  0.00     0.200 A 
ATOM     91  F   UNL A   1      45.127  25.007  36.963  1.00  0.00    -0.200 F 
ATOM     92  F   UNL A   1      47.505  26.333  37.106  1.00  0.00    -0.200 F 
ENDBRANCH  59  82
ENDBRANCH  33  34
ENDBRANCH  26  28
ENDBRANCH  25  26
ENDBRANCH  24  25
ENDBRANCH   1  24
TORSDOF 14
ENDMDL
MODEL 2
REMARK VINA RESULT:     -12.4      0.078      1.603
REMARK SMILES Cc1ccsc1CNC(=O)N[C@@H]1CCCC[C@H]1C(=O)OCCOC(=O)c1ccc(-c2c3nc(c(-c4c(F)c(F)c(F)c(F)c4F)c4ccc([nH]4)c(-c4c(F)c(F)c(F)c(F)c4F)c4nc(c(-c5c(F)c(F)c(F)c(F)c5F)c5ccc2[nH]5)C=C4)C=C3)cc1
REMARK SMILES IDX 21 1 20 2 18 3 19 4 17 5 12 6 13 7 14 8 16 9 15 10 11 11
REMARK SMILES IDX 8 12 9 13 10 15 7 17 6 18 1 19 2 20 3 21 4 22 5 23 22 24
REMARK SMILES IDX 23 25 24 26 25 27 26 28 27 29 88 30 28 31 87 32 29 33 30 34
REMARK SMILES IDX 31 35 81 36 32 37 86 38 80 39 82 40 33 41 85 42 79 43 78 44
REMARK SMILES IDX 34 46 66 47 46 48 65 49 47 50 50 51 64 52 83 53 48 54 49 55
REMARK SMILES IDX 63 57 84 58 51 59 35 60 36 61 44 62 37 63 38 64 42 65 45 66
REMARK SMILES IDX 39 67 40 68 43 69 41 70 67 71 68 72 76 73 69 74 70 75 74 76
REMARK SMILES IDX 77 77 71 78 72 79 75 80 73 81 52 82 53 83 61 84 54 85 55 86
REMARK SMILES IDX 59 87 62 88 56 89 57 90 60 91 58 92
REMARK H PARENT 8 14 11 16 82 45 50 56
REMARK Flexibility Score: inf
ROOT
ATOM      1  C   UNL A   1      31.687  28.702  25.081  1.00  0.00     0.274 C 
ENDROOT
BRANCH   1   2
ATOM      2  O   UNL A   1      30.539  28.510  24.226  1.00  0.00    -0.462 OA
BRANCH   2   3
ATOM      3  C   UNL A   1      30.783  27.817  23.085  1.00  0.00     0.311 C 
ATOM      4  O   UNL A   1      30.318  28.106  21.986  1.00  0.00    -0.252 OA
BRANCH   3   5
ATOM      5  C   UNL A   1      31.598  26.554  23.302  1.00  0.00     0.121 C 
ATOM      6  C   UNL A   1      30.801  25.253  23.482  1.00  0.00     0.098 C 
ATOM      7  C   UNL A   1      31.584  23.938  23.296  1.00  0.00     0.026 C 
ATOM      8  C   UNL A   1      32.668  23.989  22.229  1.00  0.00     0.002 C 
ATOM      9  C   UNL A   1      32.661  26.484  22.205  1.00  0.00     0.017 C 
ATOM     10  C   UNL A   1      33.525  25.239  22.333  1.00  0.00     0.001 C 
BRANCH   6  11
ATOM     11  N   UNL A   1      30.031  25.187  24.733  1.00  0.00    -0.335 N 
ATOM     12  N   UNL A   1      31.433  25.344  26.655  1.00  0.00    -0.333 N 
ATOM     13  C   UNL A   1      30.255  25.186  26.048  1.00  0.00     0.315 C 
ATOM     14  H   UNL A   1      31.326  25.571  27.607  1.00  0.00     0.165 HD
ATOM     15  O   UNL A   1      29.264  25.059  26.775  1.00  0.00    -0.249 OA
ATOM     16  H   UNL A   1      29.067  25.127  24.544  1.00  0.00     0.165 HD
BRANCH  12  17
ATOM     17  C   UNL A   1      32.826  25.268  26.274  1.00  0.00     0.164 C 
BRANCH  17  18
ATOM     18  C   UNL A   1      33.418  23.884  26.438  1.00  0.00     0.027 A 
ATOM     19  C   UNL A   1      35.664  24.176  25.205  1.00  0.00     0.045 C 
ATOM     20  C   UNL A   1      34.655  23.416  26.003  1.00  0.00    -0.035 A 
ATOM     21  C   UNL A   1      34.898  22.069  26.443  1.00  0.00     0.015 A 
ATOM     22  C   UNL A   1      33.874  21.560  27.200  1.00  0.00     0.065 A 
ATOM     23  S   UNL A   1      32.622  22.687  27.383  1.00  0.00    -0.147 S 
ENDBRANCH  17  18
ENDBRANCH  12  17
ENDBRANCH   6  11
ENDBRANCH   3   5
ENDBRANCH   2   3
ENDBRANCH   1   2
BRANCH   1  24
ATOM     24  C   UNL A   1      31.749  30.142  25.586  1.00  0.00     0.275 C 
BRANCH  24  25
ATOM     25  O   UNL A   1      32.343  30.173  26.894  1.00  0.00    -0.458 OA
BRANCH  25  26
ATOM     26  C   UNL A   1      32.998  31.321  27.198  1.00  0.00     0.338 C 
ATOM     27  O   UNL A   1      32.558  32.454  27.095  1.00  0.00    -0.246 OA
BRANCH  26  28
ATOM     28  C   UNL A   1      34.368  31.021  27.673  1.00  0.00     0.060 A 
ATOM     29  C   UNL A   1      34.768  29.712  27.924  1.00  0.00     0.016 A 
ATOM     30  C   UNL A   1      35.232  32.076  27.980  1.00  0.00     0.016 A 
ATOM     31  C   UNL A   1      35.981  29.466  28.575  1.00  0.00     0.010 A 
ATOM     32  C   UNL A   1      36.483  31.816  28.559  1.00  0.00     0.010 A 
ATOM     33  C   UNL A   1      36.852  30.508  28.909  1.00  0.00    -0.014 A 
BRANCH  33  34
ATOM     34  C   UNL A   1      38.078  30.240  29.719  1.00  0.00     0.031 A 
ATOM     35  C   UNL A   1      39.180  29.392  29.142  1.00  0.00     0.074 A 
ATOM     36  C   UNL A   1      38.257  30.785  30.939  1.00  0.00     0.049 A 
ATOM     37  N   UNL A   1      40.213  28.848  29.739  1.00  0.00    -0.248 NA
ATOM     38  C   UNL A   1      39.111  29.121  27.698  1.00  0.00     0.031 C 
ATOM     39  C   UNL A   1      37.348  31.719  31.599  1.00  0.00     0.029 A 
ATOM     40  N   UNL A   1      39.283  30.626  31.843  1.00  0.00    -0.354 N 
ATOM     41  C   UNL A   1      40.876  28.119  28.759  1.00  0.00     0.074 A 
ATOM     42  C   UNL A   1      40.136  28.297  27.527  1.00  0.00     0.031 C 
ATOM     43  C   UNL A   1      37.861  32.066  32.790  1.00  0.00     0.029 A 
ATOM     44  C   UNL A   1      39.091  31.312  33.017  1.00  0.00     0.049 A 
ATOM     45  H   UNL A   1      40.079  30.074  31.665  1.00  0.00     0.167 HD
ATOM     46  C   UNL A   1      41.997  27.369  28.876  1.00  0.00     0.037 A 
ATOM     47  C   UNL A   1      39.791  31.297  34.168  1.00  0.00     0.037 A 
ATOM     48  C   UNL A   1      42.777  27.240  30.079  1.00  0.00     0.049 A 
ATOM     49  C   UNL A   1      41.001  30.412  34.299  1.00  0.00     0.074 A 
ATOM     50  C   UNL A   1      43.914  26.479  30.297  1.00  0.00     0.029 A 
ATOM     51  N   UNL A   1      42.516  27.913  31.262  1.00  0.00    -0.354 N 
ATOM     52  N   UNL A   1      41.554  29.629  33.406  1.00  0.00    -0.248 NA
ATOM     53  C   UNL A   1      41.669  30.391  35.609  1.00  0.00     0.031 C 
ATOM     54  C   UNL A   1      44.329  26.676  31.619  1.00  0.00     0.029 A 
ATOM     55  C   UNL A   1      43.470  27.585  32.213  1.00  0.00     0.049 A 
ATOM     56  H   UNL A   1      41.765  28.533  31.405  1.00  0.00     0.167 HD
ATOM     57  C   UNL A   1      42.634  29.030  34.041  1.00  0.00     0.074 A 
ATOM     58  C   UNL A   1      42.674  29.555  35.389  1.00  0.00     0.031 C 
ATOM     59  C   UNL A   1      43.507  28.117  33.550  1.00  0.00     0.037 A 
BRANCH  46  60
ATOM     60  C   UNL A   1      42.429  26.586  27.673  1.00  0.00     0.064 A 
ATOM     61  C   UNL A   1      43.419  27.055  26.798  1.00  0.00     0.173 A 
ATOM     62  C   UNL A   1      41.862  25.328  27.413  1.00  0.00     0.173 A 
ATOM     63  F   UNL A   1      43.982  28.255  26.999  1.00  0.00    -0.203 F 
ATOM     64  C   UNL A   1      43.809  26.303  25.693  1.00  0.00     0.198 A 
ATOM     65  C   UNL A   1      42.272  24.569  26.322  1.00  0.00     0.198 A 
ATOM     66  F   UNL A   1      40.917  24.833  28.227  1.00  0.00    -0.203 F 
ATOM     67  F   UNL A   1      44.730  26.785  24.847  1.00  0.00    -0.200 F 
ATOM     68  C   UNL A   1      43.239  25.059  25.459  1.00  0.00     0.200 A 
ATOM     69  F   UNL A   1      41.730  23.363  26.106  1.00  0.00    -0.200 F 
ATOM     70  F   UNL A   1      43.622  24.333  24.399  1.00  0.00    -0.200 F 
ENDBRANCH  46  60
BRANCH  47  71
ATOM     71  C   UNL A   1      39.326  32.107  35.324  1.00  0.00     0.064 A 
ATOM     72  C   UNL A   1      38.496  31.555  36.308  1.00  0.00     0.173 A 
ATOM     73  C   UNL A   1      39.693  33.455  35.458  1.00  0.00     0.173 A 
ATOM     74  F   UNL A   1      38.092  30.281  36.205  1.00  0.00    -0.203 F 
ATOM     75  C   UNL A   1      38.044  32.323  37.378  1.00  0.00     0.198 A 
ATOM     76  C   UNL A   1      39.264  34.213  36.544  1.00  0.00     0.198 A 
ATOM     77  F   UNL A   1      40.479  34.032  34.536  1.00  0.00    -0.203 F 
ATOM     78  F   UNL A   1      37.217  31.783  38.284  1.00  0.00    -0.200 F 
ATOM     79  C   UNL A   1      38.434  33.648  37.500  1.00  0.00     0.200 A 
ATOM     80  F   UNL A   1      39.651  35.490  36.661  1.00  0.00    -0.200 F 
ATOM     81  F   UNL A   1      38.003  34.385  38.534  1.00  0.00    -0.200 F 
ENDBRANCH  47  71
BRANCH  59  82
ATOM     82  C   UNL A   1      44.597  27.645  34.466  1.00  0.00     0.064 A 
ATOM     83  C   UNL A   1      44.441  26.499  35.260  1.00  0.00     0.173 A 
ATOM     84  C   UNL A   1      45.820  28.327  34.526  1.00  0.00     0.173 A 
ATOM     85  F   UNL A   1      43.283  25.823  35.249  1.00  0.00    -0.203 F 
ATOM     86  C   UNL A   1      45.465  26.065  36.096  1.00  0.00     0.198 A 
ATOM     87  C   UNL A   1      46.850  27.878  35.348  1.00  0.00     0.198 A 
ATOM     88  F   UNL A   1      46.019  29.427  33.785  1.00  0.00    -0.203 F 
ATOM     89  F   UNL A   1      45.282  24.990  36.876  1.00  0.00    -0.200 F 
ATOM     90  C   UNL A   1      46.671  26.750  36.136  1.00  0.00     0.200 A 
ATOM     91  F   UNL A   1      48.017  28.536  35.381  1.00  0.00    -0.200 F 
ATOM     92  F   UNL A   1      47.656  26.330  36.940  1.00  0.00    -0.200 F 
ENDBRANCH  59  82
ENDBRANCH  33  34
ENDBRANCH  26  28
ENDBRANCH  25  26
ENDBRANCH  24  25
ENDBRANCH   1  24
TORSDOF 14
ENDMDL
MODEL 3
REMARK VINA RESULT:     -12.2      1.266      2.507
REMARK SMILES Cc1ccsc1CNC(=O)N[C@@H]1CCCC[C@H]1C(=O)OCCOC(=O)c1ccc(-c2c3nc(c(-c4c(F)c(F)c(F)c(F)c4F)c4ccc([nH]4)c(-c4c(F)c(F)c(F)c(F)c4F)c4nc(c(-c5c(F)c(F)c(F)c(F)c5F)c5ccc2[nH]5)C=C4)C=C3)cc1
REMARK SMILES IDX 21 1 20 2 18 3 19 4 17 5 12 6 13 7 14 8 16 9 15 10 11 11
REMARK SMILES IDX 8 12 9 13 10 15 7 17 6 18 1 19 2 20 3 21 4 22 5 23 22 24
REMARK SMILES IDX 23 25 24 26 25 27 26 28 27 29 88 30 28 31 87 32 29 33 30 34
REMARK SMILES IDX 31 35 81 36 32 37 86 38 80 39 82 40 33 41 85 42 79 43 78 44
REMARK SMILES IDX 34 46 66 47 46 48 65 49 47 50 50 51 64 52 83 53 48 54 49 55
REMARK SMILES IDX 63 57 84 58 51 59 35 60 36 61 44 62 37 63 38 64 42 65 45 66
REMARK SMILES IDX 39 67 40 68 43 69 41 70 67 71 68 72 76 73 69 74 70 75 74 76
REMARK SMILES IDX 77 77 71 78 72 79 75 80 73 81 52 82 53 83 61 84 54 85 55 86
REMARK SMILES IDX 59 87 62 88 56 89 57 90 60 91 58 92
REMARK H PARENT 8 14 11 16 82 45 50 56
REMARK Flexibility Score: inf
ROOT
ATOM      1  C   UNL A   1      31.048  30.307  24.788  1.00  0.00     0.274 C 
ENDROOT
BRANCH   1   2
ATOM      2  O   UNL A   1      31.041  28.884  24.541  1.00  0.00    -0.462 OA
BRANCH   2   3
ATOM      3  C   UNL A   1      32.151  28.402  23.926  1.00  0.00     0.311 C 
ATOM      4  O   UNL A   1      32.750  28.982  23.025  1.00  0.00    -0.252 OA
BRANCH   3   5
ATOM      5  C   UNL A   1      32.531  26.999  24.367  1.00  0.00     0.121 C 
ATOM      6  C   UNL A   1      33.765  26.384  23.689  1.00  0.00     0.098 C 
ATOM      7  C   UNL A   1      34.398  25.167  24.391  1.00  0.00     0.026 C 
ATOM      8  C   UNL A   1      34.348  25.213  25.912  1.00  0.00     0.002 C 
ATOM      9  C   UNL A   1      32.592  26.986  25.895  1.00  0.00     0.017 C 
ATOM     10  C   UNL A   1      32.980  25.618  26.434  1.00  0.00     0.001 C 
BRANCH   6  11
ATOM     11  N   UNL A   1      33.576  26.079  22.263  1.00  0.00    -0.335 N 
ATOM     12  N   UNL A   1      31.581  24.835  21.869  1.00  0.00    -0.333 N 
ATOM     13  C   UNL A   1      32.717  25.419  21.484  1.00  0.00     0.315 C 
ATOM     14  H   UNL A   1      30.990  24.645  21.105  1.00  0.00     0.165 HD
ATOM     15  O   UNL A   1      32.987  25.377  20.279  1.00  0.00    -0.249 OA
ATOM     16  H   UNL A   1      34.297  26.480  21.724  1.00  0.00     0.165 HD
BRANCH  12  17
ATOM     17  C   UNL A   1      30.996  24.408  23.121  1.00  0.00     0.164 C 
BRANCH  17  18
ATOM     18  C   UNL A   1      31.596  23.126  23.658  1.00  0.00     0.027 A 
ATOM     19  C   UNL A   1      30.623  23.105  26.046  1.00  0.00     0.045 C 
ATOM     20  C   UNL A   1      31.416  22.545  24.910  1.00  0.00    -0.035 A 
ATOM     21  C   UNL A   1      32.074  21.270  25.004  1.00  0.00     0.015 A 
ATOM     22  C   UNL A   1      32.710  20.909  23.843  1.00  0.00     0.065 A 
ATOM     23  S   UNL A   1      32.524  22.091  22.645  1.00  0.00    -0.147 S 
ENDBRANCH  17  18
ENDBRANCH  12  17
ENDBRANCH   6  11
ENDBRANCH   3   5
ENDBRANCH   2   3
ENDBRANCH   1   2
BRANCH   1  24
ATOM     24  C   UNL A   1      31.438  30.601  26.235  1.00  0.00     0.275 C 
BRANCH  24  25
ATOM     25  O   UNL A   1      32.869  30.627  26.357  1.00  0.00    -0.458 OA
BRANCH  25  26
ATOM     26  C   UNL A   1      33.357  31.595  27.172  1.00  0.00     0.338 C 
ATOM     27  O   UNL A   1      32.806  32.643  27.460  1.00  0.00    -0.246 OA
BRANCH  26  28
ATOM     28  C   UNL A   1      34.696  31.215  27.678  1.00  0.00     0.060 A 
ATOM     29  C   UNL A   1      34.995  29.892  27.992  1.00  0.00     0.016 A 
ATOM     30  C   UNL A   1      35.634  32.215  27.949  1.00  0.00     0.016 A 
ATOM     31  C   UNL A   1      36.180  29.586  28.668  1.00  0.00     0.010 A 
ATOM     32  C   UNL A   1      36.856  31.889  28.555  1.00  0.00     0.010 A 
ATOM     33  C   UNL A   1      37.123  30.574  28.967  1.00  0.00    -0.014 A 
BRANCH  33  34
ATOM     34  C   UNL A   1      38.317  30.252  29.803  1.00  0.00     0.031 A 
ATOM     35  C   UNL A   1      39.404  29.374  29.242  1.00  0.00     0.074 A 
ATOM     36  C   UNL A   1      38.484  30.773  31.035  1.00  0.00     0.049 A 
ATOM     37  N   UNL A   1      40.402  28.786  29.856  1.00  0.00    -0.248 NA
ATOM     38  C   UNL A   1      39.363  29.125  27.793  1.00  0.00     0.031 C 
ATOM     39  C   UNL A   1      37.591  31.730  31.686  1.00  0.00     0.029 A 
ATOM     40  N   UNL A   1      39.481  30.567  31.963  1.00  0.00    -0.354 N 
ATOM     41  C   UNL A   1      41.064  28.048  28.883  1.00  0.00     0.074 A 
ATOM     42  C   UNL A   1      40.363  28.269  27.636  1.00  0.00     0.031 C 
ATOM     43  C   UNL A   1      38.086  32.042  32.894  1.00  0.00     0.029 A 
ATOM     44  C   UNL A   1      39.282  31.243  33.141  1.00  0.00     0.049 A 
ATOM     45  H   UNL A   1      40.261  29.990  31.796  1.00  0.00     0.167 HD
ATOM     46  C   UNL A   1      42.155  27.257  29.018  1.00  0.00     0.037 A 
ATOM     47  C   UNL A   1      39.952  31.188  34.309  1.00  0.00     0.037 A 
ATOM     48  C   UNL A   1      42.899  27.085  30.238  1.00  0.00     0.049 A 
ATOM     49  C   UNL A   1      41.126  30.258  34.458  1.00  0.00     0.074 A 
ATOM     50  C   UNL A   1      44.003  26.282  30.473  1.00  0.00     0.029 A 
ATOM     51  N   UNL A   1      42.632  27.751  31.423  1.00  0.00    -0.354 N 
ATOM     52  N   UNL A   1      41.675  29.470  33.567  1.00  0.00    -0.248 NA
ATOM     53  C   UNL A   1      41.759  30.197  35.784  1.00  0.00     0.031 C 
ATOM     54  C   UNL A   1      44.390  26.445  31.808  1.00  0.00     0.029 A 
ATOM     55  C   UNL A   1      43.548  27.376  32.393  1.00  0.00     0.049 A 
ATOM     56  H   UNL A   1      41.899  28.394  31.557  1.00  0.00     0.167 HD
ATOM     57  C   UNL A   1      42.716  28.824  34.220  1.00  0.00     0.074 A 
ATOM     58  C   UNL A   1      42.740  29.329  35.577  1.00  0.00     0.031 C 
ATOM     59  C   UNL A   1      43.569  27.888  33.738  1.00  0.00     0.037 A 
BRANCH  46  60
ATOM     60  C   UNL A   1      42.591  26.476  27.814  1.00  0.00     0.064 A 
ATOM     61  C   UNL A   1      42.057  25.215  27.515  1.00  0.00     0.173 A 
ATOM     62  C   UNL A   1      43.538  27.018  26.931  1.00  0.00     0.173 A 
ATOM     63  F   UNL A   1      41.158  24.651  28.335  1.00  0.00    -0.203 F 
ATOM     64  C   UNL A   1      42.472  24.515  26.385  1.00  0.00     0.198 A 
ATOM     65  C   UNL A   1      43.932  26.327  25.790  1.00  0.00     0.198 A 
ATOM     66  F   UNL A   1      44.071  28.226  27.171  1.00  0.00    -0.203 F 
ATOM     67  F   UNL A   1      41.978  23.295  26.135  1.00  0.00    -0.200 F 
ATOM     68  C   UNL A   1      43.405  25.073  25.522  1.00  0.00     0.200 A 
ATOM     69  F   UNL A   1      44.822  26.873  24.951  1.00  0.00    -0.200 F 
ATOM     70  F   UNL A   1      43.797  24.401  24.430  1.00  0.00    -0.200 F 
ENDBRANCH  46  60
BRANCH  47  71
ATOM     71  C   UNL A   1      39.486  31.997  35.465  1.00  0.00     0.064 A 
ATOM     72  C   UNL A   1      38.565  31.482  36.386  1.00  0.00     0.173 A 
ATOM     73  C   UNL A   1      39.943  33.309  35.661  1.00  0.00     0.173 A 
ATOM     74  F   UNL A   1      38.075  30.245  36.221  1.00  0.00    -0.203 F 
ATOM     75  C   UNL A   1      38.113  32.251  37.456  1.00  0.00     0.198 A 
ATOM     76  C   UNL A   1      39.513  34.067  36.746  1.00  0.00     0.198 A 
ATOM     77  F   UNL A   1      40.818  33.852  34.800  1.00  0.00    -0.203 F 
ATOM     78  F   UNL A   1      37.201  31.750  38.300  1.00  0.00    -0.200 F 
ATOM     79  C   UNL A   1      38.593  33.540  37.640  1.00  0.00     0.200 A 
ATOM     80  F   UNL A   1      39.986  35.308  36.925  1.00  0.00    -0.200 F 
ATOM     81  F   UNL A   1      38.162  34.277  38.673  1.00  0.00    -0.200 F 
ENDBRANCH  47  71
BRANCH  59  82
ATOM     82  C   UNL A   1      44.619  27.365  34.674  1.00  0.00     0.064 A 
ATOM     83  C   UNL A   1      45.858  28.006  34.817  1.00  0.00     0.173 A 
ATOM     84  C   UNL A   1      44.371  26.230  35.459  1.00  0.00     0.173 A 
ATOM     85  F   UNL A   1      46.148  29.085  34.075  1.00  0.00    -0.203 F 
ATOM     86  C   UNL A   1      46.818  27.517  35.697  1.00  0.00     0.198 A 
ATOM     87  C   UNL A   1      45.325  25.756  36.354  1.00  0.00     0.198 A 
ATOM     88  F   UNL A   1      43.199  25.582  35.360  1.00  0.00    -0.203 F 
ATOM     89  F   UNL A   1      48.011  28.122  35.789  1.00  0.00    -0.200 F 
ATOM     90  C   UNL A   1      46.550  26.396  36.470  1.00  0.00     0.200 A 
ATOM     91  F   UNL A   1      45.062  24.677  37.104  1.00  0.00    -0.200 F 
ATOM     92  F   UNL A   1      47.475  25.929  37.318  1.00  0.00    -0.200 F 
ENDBRANCH  59  82
ENDBRANCH  33  34
ENDBRANCH  26  28
ENDBRANCH  25  26
ENDBRANCH  24  25
ENDBRANCH   1  24
TORSDOF 14
ENDMDL
