MODEL 1
REMARK VINA RESULT:     -11.2      0.000      0.000
REMARK SMILES CCc1cccc(-c2ccc([C@@H](C)C(=O)OCCOC(=O)c3ccc(-c4c5nc(c(-c6c(F)c(F)c(F)c(F)c6F)c6ccc([nH]6)c(-c6c(F)c(F)c(F)c(F)c6F)c6nc(c(-c7c(F)c(F)c(F)c(F)c7F)c7ccc4[nH]7)C=C6)C=C5)cc3)cc2)c1
REMARK SMILES IDX 17 1 16 2 14 3 15 4 12 5 13 6 11 7 8 8 9 9 86 10 10 11 85 12
REMARK SMILES IDX 7 13 3 14 4 15 87 16 5 17 6 18 2 19 1 20 18 21 19 22 20 23
REMARK SMILES IDX 21 24 22 25 23 26 84 27 24 28 83 29 25 30 26 31 27 32 77 33
REMARK SMILES IDX 28 34 82 35 76 36 78 37 29 38 81 39 75 40 74 41 30 43 62 44
REMARK SMILES IDX 42 45 61 46 43 47 46 48 60 49 79 50 44 51 45 52 59 54 80 55
REMARK SMILES IDX 47 56 31 57 32 58 40 59 33 60 34 61 38 62 41 63 35 64 36 65
REMARK SMILES IDX 39 66 37 67 63 68 64 69 72 70 65 71 66 72 70 73 73 74 67 75
REMARK SMILES IDX 68 76 71 77 69 78 48 79 49 80 57 81 50 82 51 83 55 84 58 85
REMARK SMILES IDX 52 86 53 87 56 88 54 89
REMARK H PARENT 78 42 46 53
REMARK Flexibility Score: inf
ROOT
ATOM      1  C   UNL A   1      42.659  18.420  26.643  1.00  0.00     0.274 C 
ENDROOT
BRANCH   1   2
ATOM      2  O   UNL A   1      41.940  19.612  26.273  1.00  0.00    -0.462 OA
BRANCH   2   3
ATOM      3  C   UNL A   1      41.297  20.274  27.268  1.00  0.00     0.313 C 
ATOM      4  O   UNL A   1      40.801  19.733  28.253  1.00  0.00    -0.252 OA
BRANCH   3   5
ATOM      5  C   UNL A   1      41.192  21.776  27.038  1.00  0.00     0.126 C 
ATOM      6  C   UNL A   1      41.734  22.527  28.253  1.00  0.00     0.025 C 
BRANCH   5   7
ATOM      7  C   UNL A   1      39.832  22.292  26.595  1.00  0.00    -0.034 A 
ATOM      8  C   UNL A   1      37.334  23.260  25.629  1.00  0.00    -0.018 A 
ATOM      9  C   UNL A   1      38.158  24.051  26.446  1.00  0.00     0.009 A 
ATOM     10  C   UNL A   1      37.766  21.959  25.339  1.00  0.00     0.009 A 
ATOM     11  C   UNL A   1      39.388  23.579  26.916  1.00  0.00     0.005 A 
ATOM     12  C   UNL A   1      38.995  21.482  25.811  1.00  0.00     0.005 A 
BRANCH   8  13
ATOM     13  C   UNL A   1      36.092  23.806  25.050  1.00  0.00    -0.018 A 
ATOM     14  C   UNL A   1      34.094  25.230  25.195  1.00  0.00    -0.048 A 
ATOM     15  C   UNL A   1      33.695  24.766  23.932  1.00  0.00     0.004 A 
ATOM     16  C   UNL A   1      35.290  24.734  25.744  1.00  0.00     0.012 A 
ATOM     17  C   UNL A   1      34.473  23.851  23.229  1.00  0.00     0.001 A 
ATOM     18  C   UNL A   1      35.659  23.378  23.785  1.00  0.00     0.009 A 
BRANCH  14  19
ATOM     19  C   UNL A   1      33.176  26.188  25.921  1.00  0.00     0.032 C 
ATOM     20  C   UNL A   1      31.690  25.861  25.897  1.00  0.00     0.009 C 
ENDBRANCH  14  19
ENDBRANCH   8  13
ENDBRANCH   5   7
ENDBRANCH   3   5
ENDBRANCH   2   3
ENDBRANCH   1   2
BRANCH   1  21
ATOM     21  C   UNL A   1      43.813  18.148  25.676  1.00  0.00     0.275 C 
BRANCH  21  22
ATOM     22  O   UNL A   1      43.756  19.029  24.540  1.00  0.00    -0.458 OA
BRANCH  22  23
ATOM     23  C   UNL A   1      44.924  19.628  24.214  1.00  0.00     0.338 C 
ATOM     24  O   UNL A   1      45.827  19.184  23.532  1.00  0.00    -0.246 OA
BRANCH  23  25
ATOM     25  C   UNL A   1      44.926  21.002  24.735  1.00  0.00     0.060 A 
ATOM     26  C   UNL A   1      44.685  22.048  23.842  1.00  0.00     0.016 A 
ATOM     27  C   UNL A   1      45.247  21.262  26.068  1.00  0.00     0.016 A 
ATOM     28  C   UNL A   1      44.774  23.368  24.273  1.00  0.00     0.010 A 
ATOM     29  C   UNL A   1      45.331  22.588  26.503  1.00  0.00     0.010 A 
ATOM     30  C   UNL A   1      45.108  23.648  25.604  1.00  0.00    -0.014 A 
BRANCH  30  31
ATOM     31  C   UNL A   1      45.271  25.053  26.043  1.00  0.00     0.031 A 
ATOM     32  C   UNL A   1      46.615  25.711  25.951  1.00  0.00     0.074 A 
ATOM     33  C   UNL A   1      44.210  25.738  26.507  1.00  0.00     0.049 A 
ATOM     34  N   UNL A   1      46.988  26.897  26.362  1.00  0.00    -0.248 NA
ATOM     35  C   UNL A   1      47.687  24.932  25.311  1.00  0.00     0.031 C 
ATOM     36  C   UNL A   1      42.846  25.217  26.601  1.00  0.00     0.029 A 
ATOM     37  N   UNL A   1      44.116  27.017  26.993  1.00  0.00    -0.354 N 
ATOM     38  C   UNL A   1      48.337  26.997  26.052  1.00  0.00     0.074 A 
ATOM     39  C   UNL A   1      48.723  25.750  25.426  1.00  0.00     0.031 C 
ATOM     40  C   UNL A   1      42.051  26.168  27.118  1.00  0.00     0.029 A 
ATOM     41  C   UNL A   1      42.857  27.346  27.430  1.00  0.00     0.049 A 
ATOM     42  H   UNL A   1      44.878  27.640  27.025  1.00  0.00     0.167 HD
ATOM     43  C   UNL A   1      49.174  28.040  26.268  1.00  0.00     0.037 A 
ATOM     44  C   UNL A   1      42.412  28.461  28.039  1.00  0.00     0.037 A 
ATOM     45  C   UNL A   1      48.781  29.285  26.875  1.00  0.00     0.049 A 
ATOM     46  C   UNL A   1      43.376  29.585  28.311  1.00  0.00     0.074 A 
ATOM     47  C   UNL A   1      49.555  30.405  27.125  1.00  0.00     0.029 A 
ATOM     48  N   UNL A   1      47.501  29.575  27.322  1.00  0.00    -0.354 N 
ATOM     49  N   UNL A   1      44.650  29.670  28.020  1.00  0.00    -0.248 NA
ATOM     50  C   UNL A   1      42.838  30.766  29.000  1.00  0.00     0.031 C 
ATOM     51  C   UNL A   1      48.750  31.360  27.756  1.00  0.00     0.029 A 
ATOM     52  C   UNL A   1      47.466  30.850  27.862  1.00  0.00     0.049 A 
ATOM     53  H   UNL A   1      46.731  28.965  27.263  1.00  0.00     0.167 HD
ATOM     54  C   UNL A   1      45.063  30.916  28.471  1.00  0.00     0.074 A 
ATOM     55  C   UNL A   1      43.899  31.560  29.044  1.00  0.00     0.031 C 
ATOM     56  C   UNL A   1      46.296  31.475  28.420  1.00  0.00     0.037 A 
BRANCH  43  57
ATOM     57  C   UNL A   1      50.609  27.869  25.871  1.00  0.00     0.064 A 
ATOM     58  C   UNL A   1      51.594  27.517  26.805  1.00  0.00     0.173 A 
ATOM     59  C   UNL A   1      50.993  28.014  24.530  1.00  0.00     0.173 A 
ATOM     60  F   UNL A   1      51.277  27.381  28.102  1.00  0.00    -0.203 F 
ATOM     61  C   UNL A   1      52.917  27.332  26.411  1.00  0.00     0.198 A 
ATOM     62  C   UNL A   1      52.312  27.807  24.137  1.00  0.00     0.198 A 
ATOM     63  F   UNL A   1      50.087  28.347  23.599  1.00  0.00    -0.203 F 
ATOM     64  F   UNL A   1      53.849  27.028  27.325  1.00  0.00    -0.200 F 
ATOM     65  C   UNL A   1      53.273  27.470  25.078  1.00  0.00     0.200 A 
ATOM     66  F   UNL A   1      52.654  27.931  22.847  1.00  0.00    -0.200 F 
ATOM     67  F   UNL A   1      54.545  27.283  24.700  1.00  0.00    -0.200 F 
ENDBRANCH  43  57
BRANCH  44  68
ATOM     68  C   UNL A   1      40.991  28.560  28.456  1.00  0.00     0.064 A 
ATOM     69  C   UNL A   1      40.010  29.029  27.573  1.00  0.00     0.173 A 
ATOM     70  C   UNL A   1      40.589  28.201  29.751  1.00  0.00     0.173 A 
ATOM     71  F   UNL A   1      40.353  29.410  26.333  1.00  0.00    -0.203 F 
ATOM     72  C   UNL A   1      38.681  29.147  27.973  1.00  0.00     0.198 A 
ATOM     73  C   UNL A   1      39.254  28.294  30.141  1.00  0.00     0.198 A 
ATOM     74  F   UNL A   1      41.490  27.750  30.635  1.00  0.00    -0.203 F 
ATOM     75  F   UNL A   1      37.769  29.637  27.121  1.00  0.00    -0.200 F 
ATOM     76  C   UNL A   1      38.303  28.774  29.254  1.00  0.00     0.200 A 
ATOM     77  F   UNL A   1      38.893  27.924  31.377  1.00  0.00    -0.200 F 
ATOM     78  F   UNL A   1      37.024  28.886  29.638  1.00  0.00    -0.200 F 
ENDBRANCH  44  68
BRANCH  56  79
ATOM     79  C   UNL A   1      46.441  32.863  28.969  1.00  0.00     0.064 A 
ATOM     80  C   UNL A   1      46.226  33.993  28.169  1.00  0.00     0.173 A 
ATOM     81  C   UNL A   1      46.760  33.062  30.320  1.00  0.00     0.173 A 
ATOM     82  F   UNL A   1      45.934  33.852  26.867  1.00  0.00    -0.203 F 
ATOM     83  C   UNL A   1      46.346  35.276  28.697  1.00  0.00     0.198 A 
ATOM     84  C   UNL A   1      46.857  34.345  30.851  1.00  0.00     0.198 A 
ATOM     85  F   UNL A   1      46.970  32.011  31.127  1.00  0.00    -0.203 F 
ATOM     86  F   UNL A   1      46.175  36.343  27.905  1.00  0.00    -0.200 F 
ATOM     87  C   UNL A   1      46.655  35.450  30.038  1.00  0.00     0.200 A 
ATOM     88  F   UNL A   1      47.146  34.512  32.149  1.00  0.00    -0.200 F 
ATOM     89  F   UNL A   1      46.764  36.685  30.546  1.00  0.00    -0.200 F 
ENDBRANCH  56  79
ENDBRANCH  30  31
ENDBRANCH  23  25
ENDBRANCH  22  23
ENDBRANCH  21  22
ENDBRANCH   1  21
TORSDOF 14
ENDMDL
MODEL 2
REMARK VINA RESULT:     -11.2      5.304      7.535
REMARK SMILES CCc1cccc(-c2ccc([C@@H](C)C(=O)OCCOC(=O)c3ccc(-c4c5nc(c(-c6c(F)c(F)c(F)c(F)c6F)c6ccc([nH]6)c(-c6c(F)c(F)c(F)c(F)c6F)c6nc(c(-c7c(F)c(F)c(F)c(F)c7F)c7ccc4[nH]7)C=C6)C=C5)cc3)cc2)c1
REMARK SMILES IDX 17 1 16 2 14 3 15 4 12 5 13 6 11 7 8 8 9 9 86 10 10 11 85 12
REMARK SMILES IDX 7 13 3 14 4 15 87 16 5 17 6 18 2 19 1 20 18 21 19 22 20 23
REMARK SMILES IDX 21 24 22 25 23 26 84 27 24 28 83 29 25 30 26 31 27 32 77 33
REMARK SMILES IDX 28 34 82 35 76 36 78 37 29 38 81 39 75 40 74 41 30 43 62 44
REMARK SMILES IDX 42 45 61 46 43 47 46 48 60 49 79 50 44 51 45 52 59 54 80 55
REMARK SMILES IDX 47 56 31 57 32 58 40 59 33 60 34 61 38 62 41 63 35 64 36 65
REMARK SMILES IDX 39 66 37 67 63 68 64 69 72 70 65 71 66 72 70 73 73 74 67 75
REMARK SMILES IDX 68 76 71 77 69 78 48 79 49 80 57 81 50 82 51 83 55 84 58 85
REMARK SMILES IDX 52 86 53 87 56 88 54 89
REMARK H PARENT 78 42 46 53
REMARK Flexibility Score: inf
ROOT
ATOM      1  C   UNL A   1      44.587  20.172  25.324  1.00  0.00     0.274 C 
ENDROOT
BRANCH   1   2
ATOM      2  O   UNL A   1      43.229  20.015  24.871  1.00  0.00    -0.462 OA
BRANCH   2   3
ATOM      3  C   UNL A   1      42.366  19.404  25.721  1.00  0.00     0.313 C 
ATOM      4  O   UNL A   1      42.245  18.187  25.831  1.00  0.00    -0.252 OA
BRANCH   3   5
ATOM      5  C   UNL A   1      41.498  20.373  26.514  1.00  0.00     0.126 C 
ATOM      6  C   UNL A   1      41.518  19.995  27.995  1.00  0.00     0.025 C 
BRANCH   5   7
ATOM      7  C   UNL A   1      40.088  20.592  25.990  1.00  0.00    -0.034 A 
ATOM      8  C   UNL A   1      37.402  21.017  25.145  1.00  0.00    -0.018 A 
ATOM      9  C   UNL A   1      38.031  19.773  24.979  1.00  0.00     0.009 A 
ATOM     10  C   UNL A   1      38.157  22.057  25.704  1.00  0.00     0.009 A 
ATOM     11  C   UNL A   1      39.348  19.561  25.400  1.00  0.00     0.005 A 
ATOM     12  C   UNL A   1      39.476  21.849  26.122  1.00  0.00     0.005 A 
BRANCH   8  13
ATOM     13  C   UNL A   1      35.979  21.199  24.798  1.00  0.00    -0.018 A 
ATOM     14  C   UNL A   1      33.698  20.322  24.539  1.00  0.00    -0.048 A 
ATOM     15  C   UNL A   1      33.290  21.576  24.061  1.00  0.00     0.004 A 
ATOM     16  C   UNL A   1      35.047  20.146  24.895  1.00  0.00     0.012 A 
ATOM     17  C   UNL A   1      34.194  22.630  23.960  1.00  0.00     0.001 A 
ATOM     18  C   UNL A   1      35.524  22.440  24.325  1.00  0.00     0.009 A 
BRANCH  14  19
ATOM     19  C   UNL A   1      32.673  19.210  24.579  1.00  0.00     0.032 C 
ATOM     20  C   UNL A   1      32.917  18.023  23.657  1.00  0.00     0.009 C 
ENDBRANCH  14  19
ENDBRANCH   8  13
ENDBRANCH   5   7
ENDBRANCH   3   5
ENDBRANCH   2   3
ENDBRANCH   1   2
BRANCH   1  21
ATOM     21  C   UNL A   1      45.070  21.611  25.135  1.00  0.00     0.275 C 
BRANCH  21  22
ATOM     22  O   UNL A   1      44.365  22.513  26.007  1.00  0.00    -0.458 OA
BRANCH  22  23
ATOM     23  C   UNL A   1      43.489  23.342  25.394  1.00  0.00     0.338 C 
ATOM     24  O   UNL A   1      43.082  23.284  24.249  1.00  0.00    -0.246 OA
BRANCH  23  25
ATOM     25  C   UNL A   1      42.985  24.320  26.367  1.00  0.00     0.060 A 
ATOM     26  C   UNL A   1      43.557  25.593  26.381  1.00  0.00     0.016 A 
ATOM     27  C   UNL A   1      42.022  23.960  27.310  1.00  0.00     0.016 A 
ATOM     28  C   UNL A   1      43.178  26.518  27.349  1.00  0.00     0.010 A 
ATOM     29  C   UNL A   1      41.636  24.891  28.279  1.00  0.00     0.010 A 
ATOM     30  C   UNL A   1      42.222  26.170  28.312  1.00  0.00    -0.014 A 
BRANCH  30  31
ATOM     31  C   UNL A   1      41.872  27.132  29.383  1.00  0.00     0.031 A 
ATOM     32  C   UNL A   1      42.668  27.154  30.654  1.00  0.00     0.074 A 
ATOM     33  C   UNL A   1      40.851  27.991  29.205  1.00  0.00     0.049 A 
ATOM     34  N   UNL A   1      42.470  27.852  31.743  1.00  0.00    -0.248 NA
ATOM     35  C   UNL A   1      43.843  26.271  30.709  1.00  0.00     0.031 C 
ATOM     36  C   UNL A   1      40.035  28.091  27.995  1.00  0.00     0.029 A 
ATOM     37  N   UNL A   1      40.325  28.937  30.047  1.00  0.00    -0.354 N 
ATOM     38  C   UNL A   1      43.481  27.479  32.618  1.00  0.00     0.074 A 
ATOM     39  C   UNL A   1      44.286  26.485  31.940  1.00  0.00     0.031 C 
ATOM     40  C   UNL A   1      39.106  29.044  28.174  1.00  0.00     0.029 A 
ATOM     41  C   UNL A   1      39.236  29.589  29.524  1.00  0.00     0.049 A 
ATOM     42  H   UNL A   1      40.692  29.130  30.940  1.00  0.00     0.167 HD
ATOM     43  C   UNL A   1      43.714  27.930  33.874  1.00  0.00     0.037 A 
ATOM     44  C   UNL A   1      38.419  30.502  30.082  1.00  0.00     0.037 A 
ATOM     45  C   UNL A   1      42.922  28.931  34.538  1.00  0.00     0.049 A 
ATOM     46  C   UNL A   1      38.674  30.949  31.496  1.00  0.00     0.074 A 
ATOM     47  C   UNL A   1      43.087  29.462  35.806  1.00  0.00     0.029 A 
ATOM     48  N   UNL A   1      41.815  29.556  33.984  1.00  0.00    -0.354 N 
ATOM     49  N   UNL A   1      39.627  30.588  32.319  1.00  0.00    -0.248 NA
ATOM     50  C   UNL A   1      37.735  31.930  32.061  1.00  0.00     0.031 C 
ATOM     51  C   UNL A   1      42.058  30.384  36.032  1.00  0.00     0.029 A 
ATOM     52  C   UNL A   1      41.277  30.456  34.890  1.00  0.00     0.049 A 
ATOM     53  H   UNL A   1      41.465  29.386  33.080  1.00  0.00     0.167 HD
ATOM     54  C   UNL A   1      39.416  31.307  33.488  1.00  0.00     0.074 A 
ATOM     55  C   UNL A   1      38.251  32.137  33.264  1.00  0.00     0.031 C 
ATOM     56  C   UNL A   1      40.122  31.279  34.644  1.00  0.00     0.037 A 
BRANCH  43  57
ATOM     57  C   UNL A   1      44.860  27.323  34.626  1.00  0.00     0.064 A 
ATOM     58  C   UNL A   1      46.139  27.897  34.606  1.00  0.00     0.173 A 
ATOM     59  C   UNL A   1      44.662  26.180  35.414  1.00  0.00     0.173 A 
ATOM     60  F   UNL A   1      46.380  28.983  33.856  1.00  0.00    -0.203 F 
ATOM     61  C   UNL A   1      47.185  27.337  35.336  1.00  0.00     0.198 A 
ATOM     62  C   UNL A   1      45.704  25.636  36.160  1.00  0.00     0.198 A 
ATOM     63  F   UNL A   1      43.456  25.596  35.469  1.00  0.00    -0.203 F 
ATOM     64  F   UNL A   1      48.408  27.882  35.277  1.00  0.00    -0.200 F 
ATOM     65  C   UNL A   1      46.964  26.212  36.117  1.00  0.00     0.200 A 
ATOM     66  F   UNL A   1      45.488  24.554  36.922  1.00  0.00    -0.200 F 
ATOM     67  F   UNL A   1      47.970  25.680  36.826  1.00  0.00    -0.200 F 
ENDBRANCH  43  57
BRANCH  44  68
ATOM     68  C   UNL A   1      37.269  31.036  29.312  1.00  0.00     0.064 A 
ATOM     69  C   UNL A   1      37.274  32.349  28.821  1.00  0.00     0.173 A 
ATOM     70  C   UNL A   1      36.135  30.249  29.061  1.00  0.00     0.173 A 
ATOM     71  F   UNL A   1      38.325  33.147  29.060  1.00  0.00    -0.203 F 
ATOM     72  C   UNL A   1      36.184  32.858  28.120  1.00  0.00     0.198 A 
ATOM     73  C   UNL A   1      35.056  30.752  28.337  1.00  0.00     0.198 A 
ATOM     74  F   UNL A   1      36.079  28.988  29.512  1.00  0.00    -0.203 F 
ATOM     75  F   UNL A   1      36.198  34.130  27.698  1.00  0.00    -0.200 F 
ATOM     76  C   UNL A   1      35.078  32.058  27.873  1.00  0.00     0.200 A 
ATOM     77  F   UNL A   1      33.994  29.971  28.093  1.00  0.00    -0.200 F 
ATOM     78  F   UNL A   1      34.030  32.548  27.198  1.00  0.00    -0.200 F 
ENDBRANCH  44  68
BRANCH  56  79
ATOM     79  C   UNL A   1      39.671  32.194  35.743  1.00  0.00     0.064 A 
ATOM     80  C   UNL A   1      40.219  33.475  35.899  1.00  0.00     0.173 A 
ATOM     81  C   UNL A   1      38.653  31.799  36.623  1.00  0.00     0.173 A 
ATOM     82  F   UNL A   1      41.205  33.890  35.090  1.00  0.00    -0.203 F 
ATOM     83  C   UNL A   1      39.777  34.322  36.912  1.00  0.00     0.198 A 
ATOM     84  C   UNL A   1      38.198  32.657  37.621  1.00  0.00     0.198 A 
ATOM     85  F   UNL A   1      38.095  30.585  36.511  1.00  0.00    -0.203 F 
ATOM     86  F   UNL A   1      40.341  35.527  37.069  1.00  0.00    -0.200 F 
ATOM     87  C   UNL A   1      38.763  33.914  37.767  1.00  0.00     0.200 A 
ATOM     88  F   UNL A   1      37.213  32.266  38.441  1.00  0.00    -0.200 F 
ATOM     89  F   UNL A   1      38.336  34.733  38.739  1.00  0.00    -0.200 F 
ENDBRANCH  56  79
ENDBRANCH  30  31
ENDBRANCH  23  25
ENDBRANCH  22  23
ENDBRANCH  21  22
ENDBRANCH   1  21
TORSDOF 14
ENDMDL
MODEL 3
REMARK VINA RESULT:     -11.2      6.001      9.739
REMARK SMILES CCc1cccc(-c2ccc([C@@H](C)C(=O)OCCOC(=O)c3ccc(-c4c5nc(c(-c6c(F)c(F)c(F)c(F)c6F)c6ccc([nH]6)c(-c6c(F)c(F)c(F)c(F)c6F)c6nc(c(-c7c(F)c(F)c(F)c(F)c7F)c7ccc4[nH]7)C=C6)C=C5)cc3)cc2)c1
REMARK SMILES IDX 17 1 16 2 14 3 15 4 12 5 13 6 11 7 8 8 9 9 86 10 10 11 85 12
REMARK SMILES IDX 7 13 3 14 4 15 87 16 5 17 6 18 2 19 1 20 18 21 19 22 20 23
REMARK SMILES IDX 21 24 22 25 23 26 84 27 24 28 83 29 25 30 26 31 27 32 77 33
REMARK SMILES IDX 28 34 82 35 76 36 78 37 29 38 81 39 75 40 74 41 30 43 62 44
REMARK SMILES IDX 42 45 61 46 43 47 46 48 60 49 79 50 44 51 45 52 59 54 80 55
REMARK SMILES IDX 47 56 31 57 32 58 40 59 33 60 34 61 38 62 41 63 35 64 36 65
REMARK SMILES IDX 39 66 37 67 63 68 64 69 72 70 65 71 66 72 70 73 73 74 67 75
REMARK SMILES IDX 68 76 71 77 69 78 48 79 49 80 57 81 50 82 51 83 55 84 58 85
REMARK SMILES IDX 52 86 53 87 56 88 54 89
REMARK H PARENT 78 42 46 53
REMARK Flexibility Score: inf
ROOT
ATOM      1  C   UNL A   1      31.732  28.607  26.190  1.00  0.00     0.274 C 
ENDROOT
BRANCH   1   2
ATOM      2  O   UNL A   1      31.197  27.964  25.018  1.00  0.00    -0.462 OA
BRANCH   2   3
ATOM      3  C   UNL A   1      31.845  28.188  23.847  1.00  0.00     0.313 C 
ATOM      4  O   UNL A   1      31.299  28.563  22.813  1.00  0.00    -0.252 OA
BRANCH   3   5
ATOM      5  C   UNL A   1      33.336  27.879  23.902  1.00  0.00     0.126 C 
ATOM      6  C   UNL A   1      34.052  28.567  22.741  1.00  0.00     0.025 C 
BRANCH   5   7
ATOM      7  C   UNL A   1      33.711  26.411  24.029  1.00  0.00    -0.034 A 
ATOM      8  C   UNL A   1      34.274  23.628  24.251  1.00  0.00    -0.018 A 
ATOM      9  C   UNL A   1      34.452  24.499  25.338  1.00  0.00     0.009 A 
ATOM     10  C   UNL A   1      33.848  24.184  23.038  1.00  0.00     0.009 A 
ATOM     11  C   UNL A   1      34.170  25.865  25.232  1.00  0.00     0.005 A 
ATOM     12  C   UNL A   1      33.569  25.552  22.927  1.00  0.00     0.005 A 
BRANCH   8  13
ATOM     13  C   UNL A   1      34.469  22.174  24.404  1.00  0.00    -0.018 A 
ATOM     14  C   UNL A   1      33.624  19.868  24.319  1.00  0.00    -0.048 A 
ATOM     15  C   UNL A   1      34.870  19.414  24.778  1.00  0.00     0.004 A 
ATOM     16  C   UNL A   1      33.436  21.251  24.145  1.00  0.00     0.012 A 
ATOM     17  C   UNL A   1      35.904  20.309  25.038  1.00  0.00     0.001 A 
ATOM     18  C   UNL A   1      35.703  21.674  24.852  1.00  0.00     0.009 A 
BRANCH  14  19
ATOM     19  C   UNL A   1      32.532  18.844  24.101  1.00  0.00     0.032 C 
ATOM     20  C   UNL A   1      32.873  17.663  23.203  1.00  0.00     0.009 C 
ENDBRANCH  14  19
ENDBRANCH   8  13
ENDBRANCH   5   7
ENDBRANCH   3   5
ENDBRANCH   2   3
ENDBRANCH   1   2
BRANCH   1  21
ATOM     21  C   UNL A   1      31.761  30.127  26.023  1.00  0.00     0.275 C 
BRANCH  21  22
ATOM     22  O   UNL A   1      33.110  30.627  26.063  1.00  0.00    -0.458 OA
BRANCH  22  23
ATOM     23  C   UNL A   1      33.371  31.506  27.056  1.00  0.00     0.338 C 
ATOM     24  O   UNL A   1      32.659  32.402  27.468  1.00  0.00    -0.246 OA
BRANCH  23  25
ATOM     25  C   UNL A   1      34.656  31.164  27.681  1.00  0.00     0.060 A 
ATOM     26  C   UNL A   1      34.807  29.887  28.226  1.00  0.00     0.016 A 
ATOM     27  C   UNL A   1      35.667  32.116  27.806  1.00  0.00     0.016 A 
ATOM     28  C   UNL A   1      35.970  29.554  28.912  1.00  0.00     0.010 A 
ATOM     29  C   UNL A   1      36.839  31.780  28.491  1.00  0.00     0.010 A 
ATOM     30  C   UNL A   1      36.991  30.502  29.059  1.00  0.00    -0.014 A 
BRANCH  30  31
ATOM     31  C   UNL A   1      38.198  30.168  29.849  1.00  0.00     0.031 A 
ATOM     32  C   UNL A   1      39.235  29.250  29.273  1.00  0.00     0.074 A 
ATOM     33  C   UNL A   1      38.367  30.701  31.073  1.00  0.00     0.049 A 
ATOM     34  N   UNL A   1      40.314  28.763  29.833  1.00  0.00    -0.248 NA
ATOM     35  C   UNL A   1      39.031  28.819  27.881  1.00  0.00     0.031 C 
ATOM     36  C   UNL A   1      37.449  31.639  31.717  1.00  0.00     0.029 A 
ATOM     37  N   UNL A   1      39.368  30.522  31.994  1.00  0.00    -0.354 N 
ATOM     38  C   UNL A   1      40.905  27.955  28.872  1.00  0.00     0.074 A 
ATOM     39  C   UNL A   1      40.062  28.006  27.696  1.00  0.00     0.031 C 
ATOM     40  C   UNL A   1      37.927  31.952  32.933  1.00  0.00     0.029 A 
ATOM     41  C   UNL A   1      39.160  31.203  33.168  1.00  0.00     0.049 A 
ATOM     42  H   UNL A   1      40.160  29.960  31.829  1.00  0.00     0.167 HD
ATOM     43  C   UNL A   1      42.050  27.237  28.966  1.00  0.00     0.037 A 
ATOM     44  C   UNL A   1      39.869  31.199  34.312  1.00  0.00     0.037 A 
ATOM     45  C   UNL A   1      42.895  27.203  30.131  1.00  0.00     0.049 A 
ATOM     46  C   UNL A   1      41.112  30.355  34.404  1.00  0.00     0.074 A 
ATOM     47  C   UNL A   1      44.082  26.516  30.317  1.00  0.00     0.029 A 
ATOM     48  N   UNL A   1      42.642  27.892  31.308  1.00  0.00    -0.354 N 
ATOM     49  N   UNL A   1      41.661  29.589  33.494  1.00  0.00    -0.248 NA
ATOM     50  C   UNL A   1      41.831  30.373  35.686  1.00  0.00     0.031 C 
ATOM     51  C   UNL A   1      44.529  26.761  31.621  1.00  0.00     0.029 A 
ATOM     52  C   UNL A   1      43.642  27.633  32.231  1.00  0.00     0.049 A 
ATOM     53  H   UNL A   1      41.867  28.478  31.464  1.00  0.00     0.167 HD
ATOM     54  C   UNL A   1      42.796  29.050  34.083  1.00  0.00     0.074 A 
ATOM     55  C   UNL A   1      42.866  29.587  35.426  1.00  0.00     0.031 C 
ATOM     56  C   UNL A   1      43.697  28.184  33.560  1.00  0.00     0.037 A 
BRANCH  43  57
ATOM     57  C   UNL A   1      42.445  26.406  27.783  1.00  0.00     0.064 A 
ATOM     58  C   UNL A   1      43.382  26.860  26.844  1.00  0.00     0.173 A 
ATOM     59  C   UNL A   1      41.914  25.119  27.615  1.00  0.00     0.173 A 
ATOM     60  F   UNL A   1      43.908  28.090  26.956  1.00  0.00    -0.203 F 
ATOM     61  C   UNL A   1      43.761  26.061  25.768  1.00  0.00     0.198 A 
ATOM     62  C   UNL A   1      42.312  24.314  26.551  1.00  0.00     0.198 A 
ATOM     63  F   UNL A   1      41.017  24.637  28.488  1.00  0.00    -0.203 F 
ATOM     64  F   UNL A   1      44.633  26.527  24.864  1.00  0.00    -0.200 F 
ATOM     65  C   UNL A   1      43.231  24.787  25.627  1.00  0.00     0.200 A 
ATOM     66  F   UNL A   1      41.806  23.079  26.420  1.00  0.00    -0.200 F 
ATOM     67  F   UNL A   1      43.603  24.016  24.596  1.00  0.00    -0.200 F 
ENDBRANCH  43  57
BRANCH  44  68
ATOM     68  C   UNL A   1      39.408  32.003  35.471  1.00  0.00     0.064 A 
ATOM     69  C   UNL A   1      38.516  31.471  36.411  1.00  0.00     0.173 A 
ATOM     70  C   UNL A   1      39.843  33.324  35.656  1.00  0.00     0.173 A 
ATOM     71  F   UNL A   1      38.052  30.221  36.260  1.00  0.00    -0.203 F 
ATOM     72  C   UNL A   1      38.064  32.235  37.485  1.00  0.00     0.198 A 
ATOM     73  C   UNL A   1      39.410  34.077  36.745  1.00  0.00     0.198 A 
ATOM     74  F   UNL A   1      40.694  33.880  34.782  1.00  0.00    -0.203 F 
ATOM     75  F   UNL A   1      37.178  31.715  38.346  1.00  0.00    -0.200 F 
ATOM     76  C   UNL A   1      38.516  33.534  37.655  1.00  0.00     0.200 A 
ATOM     77  F   UNL A   1      39.857  35.330  36.910  1.00  0.00    -0.200 F 
ATOM     78  F   UNL A   1      38.082  34.268  38.689  1.00  0.00    -0.200 F 
ENDBRANCH  44  68
BRANCH  56  79
ATOM     79  C   UNL A   1      44.852  27.789  34.431  1.00  0.00     0.064 A 
ATOM     80  C   UNL A   1      44.796  26.654  35.251  1.00  0.00     0.173 A 
ATOM     81  C   UNL A   1      46.041  28.533  34.413  1.00  0.00     0.173 A 
ATOM     82  F   UNL A   1      43.674  25.921  35.313  1.00  0.00    -0.203 F 
ATOM     83  C   UNL A   1      45.883  26.289  36.041  1.00  0.00     0.198 A 
ATOM     84  C   UNL A   1      47.135  28.152  35.186  1.00  0.00     0.198 A 
ATOM     85  F   UNL A   1      46.145  29.624  33.640  1.00  0.00    -0.203 F 
ATOM     86  F   UNL A   1      45.795  25.223  36.848  1.00  0.00    -0.200 F 
ATOM     87  C   UNL A   1      47.053  27.034  36.002  1.00  0.00     0.200 A 
ATOM     88  F   UNL A   1      48.267  28.867  35.141  1.00  0.00    -0.200 F 
ATOM     89  F   UNL A   1      48.100  26.678  36.759  1.00  0.00    -0.200 F 
ENDBRANCH  56  79
ENDBRANCH  30  31
ENDBRANCH  23  25
ENDBRANCH  22  23
ENDBRANCH  21  22
ENDBRANCH   1  21
TORSDOF 14
ENDMDL
