MODEL 1
REMARK VINA RESULT:     -13.8      0.000      0.000
REMARK SMILES COC(=O)c1ccc(NC(=O)[C@@H]2CC=CC[C@@H]2C(=O)OCCOC(=O)c2ccc(-c3c4nc(c(-c5c(F)c(F)c(F)c(F)c5F)c5ccc([nH]5)c(-c5c(F)c(F)c(F)c(F)c5F)c5nc(c(-c6c(F)c(F)c(F)c(F)c6F)c6ccc3[nH]6)C=C5)C=C4)cc2)c(C)c1
REMARK SMILES IDX 21 1 20 2 18 3 19 4 17 5 12 6 13 7 14 8 16 9 15 10 10 11
REMARK SMILES IDX 9 12 11 14 8 15 5 16 6 17 91 18 7 19 89 20 90 21 3 22 4 23
REMARK SMILES IDX 2 24 1 25 22 26 23 27 24 28 25 29 26 30 27 31 88 32 28 33
REMARK SMILES IDX 87 34 29 35 30 36 31 37 81 38 32 39 86 40 80 41 82 42 33 43
REMARK SMILES IDX 85 44 79 45 78 46 34 48 66 49 46 50 65 51 47 52 50 53 64 54
REMARK SMILES IDX 83 55 48 56 49 57 63 59 84 60 51 61 35 62 36 63 44 64 37 65
REMARK SMILES IDX 38 66 42 67 45 68 39 69 40 70 43 71 41 72 67 73 68 74 76 75
REMARK SMILES IDX 69 76 70 77 74 78 77 79 71 80 72 81 75 82 73 83 52 84 53 85
REMARK SMILES IDX 61 86 54 87 55 88 59 89 62 90 56 91 57 92 60 93 58 94
REMARK H PARENT 9 13 82 47 50 58
REMARK Flexibility Score: inf
ROOT
ATOM      1  C   UNL A   1      33.430  29.203  26.458  1.00  0.00     0.274 C 
ENDROOT
BRANCH   1   2
ATOM      2  O   UNL A   1      32.840  27.912  26.196  1.00  0.00    -0.462 OA
BRANCH   2   3
ATOM      3  C   UNL A   1      33.086  27.442  24.928  1.00  0.00     0.310 C 
ATOM      4  O   UNL A   1      33.752  28.057  24.102  1.00  0.00    -0.252 OA
BRANCH   3   5
ATOM      5  C   UNL A   1      32.238  26.214  24.591  1.00  0.00     0.116 C 
ATOM      6  C   UNL A   1      31.989  25.802  23.122  1.00  0.00     0.097 C 
ATOM      7  C   UNL A   1      31.175  26.830  22.316  1.00  0.00     0.041 C 
ATOM      8  C   UNL A   1      30.070  27.453  23.113  1.00  0.00    -0.030 C 
ATOM      9  C   UNL A   1      30.855  26.425  25.261  1.00  0.00     0.043 C 
ATOM     10  C   UNL A   1      29.908  27.250  24.429  1.00  0.00    -0.030 C 
BRANCH   6  11
ATOM     11  C   UNL A   1      33.217  25.349  22.352  1.00  0.00     0.228 C 
ATOM     12  N   UNL A   1      33.851  24.160  22.542  1.00  0.00    -0.326 N 
ATOM     13  H   UNL A   1      34.798  24.143  22.273  1.00  0.00     0.169 HD
ATOM     14  O   UNL A   1      33.653  26.020  21.416  1.00  0.00    -0.274 OA
BRANCH  12  15
ATOM     15  C   UNL A   1      33.354  22.955  23.062  1.00  0.00     0.044 A 
ATOM     16  C   UNL A   1      32.772  20.358  23.905  1.00  0.00     0.060 A 
ATOM     17  C   UNL A   1      32.153  20.867  22.770  1.00  0.00     0.018 A 
ATOM     18  C   UNL A   1      33.621  21.164  24.671  1.00  0.00     0.021 A 
ATOM     19  C   UNL A   1      32.426  22.170  22.375  1.00  0.00     0.027 A 
ATOM     20  C   UNL A   1      33.890  22.487  24.281  1.00  0.00    -0.027 A 
ATOM     21  C   UNL A   1      34.843  23.298  25.121  1.00  0.00     0.046 C 
BRANCH  16  22
ATOM     22  C   UNL A   1      32.543  18.941  24.247  1.00  0.00     0.337 C 
ATOM     23  O   UNL A   1      32.153  18.616  25.360  1.00  0.00    -0.246 OA
BRANCH  22  24
ATOM     24  O   UNL A   1      32.746  18.064  23.237  1.00  0.00    -0.465 OA
ATOM     25  C   UNL A   1      33.365  16.812  23.562  1.00  0.00     0.282 C 
ENDBRANCH  22  24
ENDBRANCH  16  22
ENDBRANCH  12  15
ENDBRANCH   6  11
ENDBRANCH   3   5
ENDBRANCH   2   3
ENDBRANCH   1   2
BRANCH   1  26
ATOM     26  C   UNL A   1      34.740  29.186  27.262  1.00  0.00     0.275 C 
BRANCH  26  27
ATOM     27  O   UNL A   1      35.072  30.378  28.001  1.00  0.00    -0.458 OA
BRANCH  27  28
ATOM     28  C   UNL A   1      36.006  30.472  28.978  1.00  0.00     0.338 C 
ATOM     29  O   UNL A   1      35.774  30.974  30.067  1.00  0.00    -0.246 OA
BRANCH  28  30
ATOM     30  C   UNL A   1      37.293  29.814  28.717  1.00  0.00     0.060 A 
ATOM     31  C   UNL A   1      37.671  28.798  29.588  1.00  0.00     0.016 A 
ATOM     32  C   UNL A   1      38.073  30.118  27.606  1.00  0.00     0.016 A 
ATOM     33  C   UNL A   1      38.740  27.972  29.287  1.00  0.00     0.010 A 
ATOM     34  C   UNL A   1      39.151  29.296  27.300  1.00  0.00     0.010 A 
ATOM     35  C   UNL A   1      39.462  28.199  28.118  1.00  0.00    -0.014 A 
BRANCH  35  36
ATOM     36  C   UNL A   1      40.734  27.511  27.928  1.00  0.00     0.031 A 
ATOM     37  C   UNL A   1      40.855  26.045  27.728  1.00  0.00     0.074 A 
ATOM     38  C   UNL A   1      41.822  28.244  28.252  1.00  0.00     0.049 A 
ATOM     39  N   UNL A   1      41.778  25.325  28.284  1.00  0.00    -0.248 NA
ATOM     40  C   UNL A   1      39.934  25.259  26.910  1.00  0.00     0.031 C 
ATOM     41  C   UNL A   1      43.219  27.854  28.205  1.00  0.00     0.029 A 
ATOM     42  N   UNL A   1      41.816  29.434  28.990  1.00  0.00    -0.354 N 
ATOM     43  C   UNL A   1      41.751  24.083  27.693  1.00  0.00     0.074 A 
ATOM     44  C   UNL A   1      40.535  24.058  26.911  1.00  0.00     0.031 C 
ATOM     45  C   UNL A   1      43.879  28.576  29.127  1.00  0.00     0.029 A 
ATOM     46  C   UNL A   1      42.904  29.373  29.861  1.00  0.00     0.049 A 
ATOM     47  H   UNL A   1      41.169  30.171  28.911  1.00  0.00     0.167 HD
ATOM     48  C   UNL A   1      42.835  23.261  27.794  1.00  0.00     0.037 A 
ATOM     49  C   UNL A   1      42.780  29.485  31.213  1.00  0.00     0.037 A 
ATOM     50  C   UNL A   1      43.883  23.836  28.626  1.00  0.00     0.049 A 
ATOM     51  C   UNL A   1      43.307  28.277  31.953  1.00  0.00     0.074 A 
ATOM     52  C   UNL A   1      44.997  24.607  28.334  1.00  0.00     0.029 A 
ATOM     53  N   UNL A   1      43.694  23.935  29.992  1.00  0.00    -0.354 N 
ATOM     54  N   UNL A   1      43.692  27.177  31.368  1.00  0.00    -0.248 NA
ATOM     55  C   UNL A   1      43.328  28.166  33.411  1.00  0.00     0.031 C 
ATOM     56  C   UNL A   1      45.473  25.179  29.542  1.00  0.00     0.029 A 
ATOM     57  C   UNL A   1      44.654  24.751  30.567  1.00  0.00     0.049 A 
ATOM     58  H   UNL A   1      42.972  23.487  30.490  1.00  0.00     0.167 HD
ATOM     59  C   UNL A   1      44.054  26.261  32.315  1.00  0.00     0.074 A 
ATOM     60  C   UNL A   1      43.754  26.903  33.579  1.00  0.00     0.031 C 
ATOM     61  C   UNL A   1      44.586  25.049  31.986  1.00  0.00     0.037 A 
BRANCH  48  62
ATOM     62  C   UNL A   1      43.053  22.082  26.881  1.00  0.00     0.064 A 
ATOM     63  C   UNL A   1      42.306  20.896  27.046  1.00  0.00     0.173 A 
ATOM     64  C   UNL A   1      44.018  22.050  25.861  1.00  0.00     0.173 A 
ATOM     65  F   UNL A   1      41.319  20.808  27.946  1.00  0.00    -0.203 F 
ATOM     66  C   UNL A   1      42.564  19.738  26.311  1.00  0.00     0.198 A 
ATOM     67  C   UNL A   1      44.297  20.878  25.143  1.00  0.00     0.198 A 
ATOM     68  F   UNL A   1      44.710  23.153  25.537  1.00  0.00    -0.203 F 
ATOM     69  F   UNL A   1      41.839  18.632  26.534  1.00  0.00    -0.200 F 
ATOM     70  C   UNL A   1      43.580  19.720  25.379  1.00  0.00     0.200 A 
ATOM     71  F   UNL A   1      45.280  20.873  24.229  1.00  0.00    -0.200 F 
ATOM     72  F   UNL A   1      43.863  18.593  24.710  1.00  0.00    -0.200 F 
ENDBRANCH  48  62
BRANCH  49  73
ATOM     73  C   UNL A   1      41.656  30.337  31.685  1.00  0.00     0.064 A 
ATOM     74  C   UNL A   1      41.751  31.735  31.532  1.00  0.00     0.173 A 
ATOM     75  C   UNL A   1      40.404  29.815  32.027  1.00  0.00     0.173 A 
ATOM     76  F   UNL A   1      42.933  32.299  31.237  1.00  0.00    -0.203 F 
ATOM     77  C   UNL A   1      40.625  32.553  31.594  1.00  0.00     0.198 A 
ATOM     78  C   UNL A   1      39.285  30.643  32.132  1.00  0.00     0.198 A 
ATOM     79  F   UNL A   1      40.240  28.493  32.178  1.00  0.00    -0.203 F 
ATOM     80  F   UNL A   1      40.734  33.864  31.338  1.00  0.00    -0.200 F 
ATOM     81  C   UNL A   1      39.387  32.002  31.873  1.00  0.00     0.200 A 
ATOM     82  F   UNL A   1      38.095  30.113  32.436  1.00  0.00    -0.200 F 
ATOM     83  F   UNL A   1      38.293  32.776  31.878  1.00  0.00    -0.200 F 
ENDBRANCH  49  73
BRANCH  61  84
ATOM     84  C   UNL A   1      45.155  24.079  32.979  1.00  0.00     0.064 A 
ATOM     85  C   UNL A   1      44.447  22.953  33.429  1.00  0.00     0.173 A 
ATOM     86  C   UNL A   1      46.385  24.334  33.625  1.00  0.00     0.173 A 
ATOM     87  F   UNL A   1      43.218  22.678  32.968  1.00  0.00    -0.203 F 
ATOM     88  C   UNL A   1      44.966  22.095  34.399  1.00  0.00     0.198 A 
ATOM     89  C   UNL A   1      46.874  23.508  34.635  1.00  0.00     0.198 A 
ATOM     90  F   UNL A   1      47.147  25.384  33.291  1.00  0.00    -0.203 F 
ATOM     91  F   UNL A   1      44.280  20.999  34.751  1.00  0.00    -0.200 F 
ATOM     92  C   UNL A   1      46.175  22.377  35.008  1.00  0.00     0.200 A 
ATOM     93  F   UNL A   1      48.028  23.816  35.245  1.00  0.00    -0.200 F 
ATOM     94  F   UNL A   1      46.659  21.567  35.958  1.00  0.00    -0.200 F 
ENDBRANCH  61  84
ENDBRANCH  35  36
ENDBRANCH  28  30
ENDBRANCH  27  28
ENDBRANCH  26  27
ENDBRANCH   1  26
TORSDOF 15
ENDMDL
MODEL 2
REMARK VINA RESULT:     -13.8      3.786     10.405
REMARK SMILES COC(=O)c1ccc(NC(=O)[C@@H]2CC=CC[C@@H]2C(=O)OCCOC(=O)c2ccc(-c3c4nc(c(-c5c(F)c(F)c(F)c(F)c5F)c5ccc([nH]5)c(-c5c(F)c(F)c(F)c(F)c5F)c5nc(c(-c6c(F)c(F)c(F)c(F)c6F)c6ccc3[nH]6)C=C5)C=C4)cc2)c(C)c1
REMARK SMILES IDX 21 1 20 2 18 3 19 4 17 5 12 6 13 7 14 8 16 9 15 10 10 11
REMARK SMILES IDX 9 12 11 14 8 15 5 16 6 17 91 18 7 19 89 20 90 21 3 22 4 23
REMARK SMILES IDX 2 24 1 25 22 26 23 27 24 28 25 29 26 30 27 31 88 32 28 33
REMARK SMILES IDX 87 34 29 35 30 36 31 37 81 38 32 39 86 40 80 41 82 42 33 43
REMARK SMILES IDX 85 44 79 45 78 46 34 48 66 49 46 50 65 51 47 52 50 53 64 54
REMARK SMILES IDX 83 55 48 56 49 57 63 59 84 60 51 61 35 62 36 63 44 64 37 65
REMARK SMILES IDX 38 66 42 67 45 68 39 69 40 70 43 71 41 72 67 73 68 74 76 75
REMARK SMILES IDX 69 76 70 77 74 78 77 79 71 80 72 81 75 82 73 83 52 84 53 85
REMARK SMILES IDX 61 86 54 87 55 88 59 89 62 90 56 91 57 92 60 93 58 94
REMARK H PARENT 9 13 82 47 50 58
REMARK Flexibility Score: inf
ROOT
ATOM      1  C   UNL A   1      36.420  23.293  26.070  1.00  0.00     0.274 C 
ENDROOT
BRANCH   1   2
ATOM      2  O   UNL A   1      35.348  24.200  25.737  1.00  0.00    -0.462 OA
BRANCH   2   3
ATOM      3  C   UNL A   1      34.113  23.774  26.167  1.00  0.00     0.310 C 
ATOM      4  O   UNL A   1      33.943  23.153  27.211  1.00  0.00    -0.252 OA
BRANCH   3   5
ATOM      5  C   UNL A   1      33.038  23.936  25.091  1.00  0.00     0.116 C 
ATOM      6  C   UNL A   1      31.604  23.404  25.317  1.00  0.00     0.097 C 
ATOM      7  C   UNL A   1      31.520  21.873  25.450  1.00  0.00     0.041 C 
ATOM      8  C   UNL A   1      32.442  21.156  24.511  1.00  0.00    -0.030 C 
ATOM      9  C   UNL A   1      33.588  23.270  23.803  1.00  0.00     0.043 C 
ATOM     10  C   UNL A   1      33.351  21.783  23.751  1.00  0.00    -0.030 C 
BRANCH   6  11
ATOM     11  C   UNL A   1      30.817  24.094  26.417  1.00  0.00     0.228 C 
ATOM     12  N   UNL A   1      30.544  25.427  26.451  1.00  0.00    -0.326 N 
ATOM     13  H   UNL A   1      30.370  25.796  27.347  1.00  0.00     0.169 HD
ATOM     14  O   UNL A   1      30.283  23.438  27.313  1.00  0.00    -0.274 OA
BRANCH  12  15
ATOM     15  C   UNL A   1      30.474  26.352  25.398  1.00  0.00     0.044 A 
ATOM     16  C   UNL A   1      30.071  28.464  23.617  1.00  0.00     0.060 A 
ATOM     17  C   UNL A   1      29.286  27.322  23.517  1.00  0.00     0.018 A 
ATOM     18  C   UNL A   1      31.112  28.529  24.550  1.00  0.00     0.021 A 
ATOM     19  C   UNL A   1      29.514  26.264  24.388  1.00  0.00     0.027 A 
ATOM     20  C   UNL A   1      31.353  27.457  25.424  1.00  0.00    -0.027 A 
ATOM     21  C   UNL A   1      32.462  27.596  26.435  1.00  0.00     0.046 C 
BRANCH  16  22
ATOM     22  C   UNL A   1      29.745  29.611  22.748  1.00  0.00     0.337 C 
ATOM     23  O   UNL A   1      29.902  29.550  21.536  1.00  0.00    -0.246 OA
BRANCH  22  24
ATOM     24  O   UNL A   1      29.225  30.686  23.384  1.00  0.00    -0.465 OA
ATOM     25  C   UNL A   1      28.460  31.612  22.602  1.00  0.00     0.282 C 
ENDBRANCH  22  24
ENDBRANCH  16  22
ENDBRANCH  12  15
ENDBRANCH   6  11
ENDBRANCH   3   5
ENDBRANCH   2   3
ENDBRANCH   1   2
BRANCH   1  26
ATOM     26  C   UNL A   1      37.828  23.743  25.650  1.00  0.00     0.275 C 
BRANCH  26  27
ATOM     27  O   UNL A   1      38.886  23.577  26.616  1.00  0.00    -0.458 OA
BRANCH  27  28
ATOM     28  C   UNL A   1      39.971  24.377  26.748  1.00  0.00     0.338 C 
ATOM     29  O   UNL A   1      41.033  24.145  26.191  1.00  0.00    -0.246 OA
BRANCH  28  30
ATOM     30  C   UNL A   1      39.775  25.626  27.497  1.00  0.00     0.060 A 
ATOM     31  C   UNL A   1      39.210  25.521  28.763  1.00  0.00     0.016 A 
ATOM     32  C   UNL A   1      40.207  26.857  27.016  1.00  0.00     0.016 A 
ATOM     33  C   UNL A   1      39.206  26.604  29.625  1.00  0.00     0.010 A 
ATOM     34  C   UNL A   1      40.202  27.951  27.875  1.00  0.00     0.010 A 
ATOM     35  C   UNL A   1      39.738  27.816  29.192  1.00  0.00    -0.014 A 
BRANCH  35  36
ATOM     36  C   UNL A   1      39.502  29.016  29.987  1.00  0.00     0.031 A 
ATOM     37  C   UNL A   1      38.482  30.040  29.649  1.00  0.00     0.074 A 
ATOM     38  C   UNL A   1      40.475  29.296  30.882  1.00  0.00     0.049 A 
ATOM     39  N   UNL A   1      38.692  31.314  29.754  1.00  0.00    -0.248 NA
ATOM     40  C   UNL A   1      37.152  29.722  29.135  1.00  0.00     0.031 C 
ATOM     41  C   UNL A   1      40.561  30.416  31.799  1.00  0.00     0.029 A 
ATOM     42  N   UNL A   1      41.756  28.729  30.901  1.00  0.00    -0.354 N 
ATOM     43  C   UNL A   1      37.481  31.950  29.608  1.00  0.00     0.074 A 
ATOM     44  C   UNL A   1      36.569  30.932  29.137  1.00  0.00     0.031 C 
ATOM     45  C   UNL A   1      41.863  30.655  32.036  1.00  0.00     0.029 A 
ATOM     46  C   UNL A   1      42.647  29.759  31.196  1.00  0.00     0.049 A 
ATOM     47  H   UNL A   1      41.982  27.785  30.738  1.00  0.00     0.167 HD
ATOM     48  C   UNL A   1      37.330  33.232  30.051  1.00  0.00     0.037 A 
ATOM     49  C   UNL A   1      43.691  30.093  30.386  1.00  0.00     0.037 A 
ATOM     50  C   UNL A   1      38.575  33.781  30.572  1.00  0.00     0.049 A 
ATOM     51  C   UNL A   1      43.635  31.527  29.916  1.00  0.00     0.074 A 
ATOM     52  C   UNL A   1      39.119  33.829  31.846  1.00  0.00     0.029 A 
ATOM     53  N   UNL A   1      39.605  34.086  29.702  1.00  0.00    -0.354 N 
ATOM     54  N   UNL A   1      42.623  32.322  30.124  1.00  0.00    -0.248 NA
ATOM     55  C   UNL A   1      44.660  32.143  29.072  1.00  0.00     0.031 C 
ATOM     56  C   UNL A   1      40.493  34.161  31.732  1.00  0.00     0.029 A 
ATOM     57  C   UNL A   1      40.783  34.321  30.391  1.00  0.00     0.049 A 
ATOM     58  H   UNL A   1      39.513  34.131  28.723  1.00  0.00     0.167 HD
ATOM     59  C   UNL A   1      42.858  33.527  29.523  1.00  0.00     0.074 A 
ATOM     60  C   UNL A   1      44.118  33.348  28.828  1.00  0.00     0.031 C 
ATOM     61  C   UNL A   1      42.005  34.582  29.655  1.00  0.00     0.037 A 
BRANCH  48  62
ATOM     62  C   UNL A   1      35.981  33.859  30.290  1.00  0.00     0.064 A 
ATOM     63  C   UNL A   1      35.192  34.304  29.208  1.00  0.00     0.173 A 
ATOM     64  C   UNL A   1      35.441  34.091  31.566  1.00  0.00     0.173 A 
ATOM     65  F   UNL A   1      35.564  34.099  27.938  1.00  0.00    -0.203 F 
ATOM     66  C   UNL A   1      34.000  35.007  29.388  1.00  0.00     0.198 A 
ATOM     67  C   UNL A   1      34.259  34.823  31.747  1.00  0.00     0.198 A 
ATOM     68  F   UNL A   1      36.047  33.614  32.664  1.00  0.00    -0.203 F 
ATOM     69  F   UNL A   1      33.309  35.429  28.319  1.00  0.00    -0.200 F 
ATOM     70  C   UNL A   1      33.547  35.292  30.658  1.00  0.00     0.200 A 
ATOM     71  F   UNL A   1      33.819  35.086  32.987  1.00  0.00    -0.200 F 
ATOM     72  F   UNL A   1      32.430  36.012  30.831  1.00  0.00    -0.200 F 
ENDBRANCH  48  62
BRANCH  49  73
ATOM     73  C   UNL A   1      44.277  28.971  29.603  1.00  0.00     0.064 A 
ATOM     74  C   UNL A   1      45.130  28.058  30.255  1.00  0.00     0.173 A 
ATOM     75  C   UNL A   1      43.820  28.622  28.328  1.00  0.00     0.173 A 
ATOM     76  F   UNL A   1      45.627  28.352  31.466  1.00  0.00    -0.203 F 
ATOM     77  C   UNL A   1      45.408  26.806  29.711  1.00  0.00     0.198 A 
ATOM     78  C   UNL A   1      44.137  27.383  27.766  1.00  0.00     0.198 A 
ATOM     79  F   UNL A   1      42.998  29.440  27.655  1.00  0.00    -0.203 F 
ATOM     80  F   UNL A   1      46.135  25.920  30.406  1.00  0.00    -0.200 F 
ATOM     81  C   UNL A   1      44.892  26.461  28.475  1.00  0.00     0.200 A 
ATOM     82  F   UNL A   1      43.666  27.066  26.555  1.00  0.00    -0.200 F 
ATOM     83  F   UNL A   1      45.111  25.237  27.974  1.00  0.00    -0.200 F 
ENDBRANCH  49  73
BRANCH  61  84
ATOM     84  C   UNL A   1      42.296  35.969  29.161  1.00  0.00     0.064 A 
ATOM     85  C   UNL A   1      41.811  36.453  27.935  1.00  0.00     0.173 A 
ATOM     86  C   UNL A   1      43.200  36.812  29.844  1.00  0.00     0.173 A 
ATOM     87  F   UNL A   1      41.037  35.692  27.147  1.00  0.00    -0.203 F 
ATOM     88  C   UNL A   1      42.141  37.724  27.462  1.00  0.00     0.198 A 
ATOM     89  C   UNL A   1      43.574  38.056  29.341  1.00  0.00     0.198 A 
ATOM     90  F   UNL A   1      43.738  36.456  31.018  1.00  0.00    -0.203 F 
ATOM     91  F   UNL A   1      41.605  38.165  26.317  1.00  0.00    -0.200 F 
ATOM     92  C   UNL A   1      43.029  38.521  28.160  1.00  0.00     0.200 A 
ATOM     93  F   UNL A   1      44.466  38.801  30.008  1.00  0.00    -0.200 F 
ATOM     94  F   UNL A   1      43.366  39.730  27.691  1.00  0.00    -0.200 F 
ENDBRANCH  61  84
ENDBRANCH  35  36
ENDBRANCH  28  30
ENDBRANCH  27  28
ENDBRANCH  26  27
ENDBRANCH   1  26
TORSDOF 15
ENDMDL
MODEL 3
REMARK VINA RESULT:     -12.9      3.716     10.429
REMARK SMILES COC(=O)c1ccc(NC(=O)[C@@H]2CC=CC[C@@H]2C(=O)OCCOC(=O)c2ccc(-c3c4nc(c(-c5c(F)c(F)c(F)c(F)c5F)c5ccc([nH]5)c(-c5c(F)c(F)c(F)c(F)c5F)c5nc(c(-c6c(F)c(F)c(F)c(F)c6F)c6ccc3[nH]6)C=C5)C=C4)cc2)c(C)c1
REMARK SMILES IDX 21 1 20 2 18 3 19 4 17 5 12 6 13 7 14 8 16 9 15 10 10 11
REMARK SMILES IDX 9 12 11 14 8 15 5 16 6 17 91 18 7 19 89 20 90 21 3 22 4 23
REMARK SMILES IDX 2 24 1 25 22 26 23 27 24 28 25 29 26 30 27 31 88 32 28 33
REMARK SMILES IDX 87 34 29 35 30 36 31 37 81 38 32 39 86 40 80 41 82 42 33 43
REMARK SMILES IDX 85 44 79 45 78 46 34 48 66 49 46 50 65 51 47 52 50 53 64 54
REMARK SMILES IDX 83 55 48 56 49 57 63 59 84 60 51 61 35 62 36 63 44 64 37 65
REMARK SMILES IDX 38 66 42 67 45 68 39 69 40 70 43 71 41 72 67 73 68 74 76 75
REMARK SMILES IDX 69 76 70 77 74 78 77 79 71 80 72 81 75 82 73 83 52 84 53 85
REMARK SMILES IDX 61 86 54 87 55 88 59 89 62 90 56 91 57 92 60 93 58 94
REMARK H PARENT 9 13 82 47 50 58
REMARK Flexibility Score: inf
ROOT
ATOM      1  C   UNL A   1      36.975  23.196  25.600  1.00  0.00     0.274 C 
ENDROOT
BRANCH   1   2
ATOM      2  O   UNL A   1      35.655  23.722  25.348  1.00  0.00    -0.462 OA
BRANCH   2   3
ATOM      3  C   UNL A   1      34.663  22.772  25.414  1.00  0.00     0.310 C 
ATOM      4  O   UNL A   1      34.839  21.647  25.870  1.00  0.00    -0.252 OA
BRANCH   3   5
ATOM      5  C   UNL A   1      33.413  23.186  24.634  1.00  0.00     0.116 C 
ATOM      6  C   UNL A   1      32.007  23.052  25.262  1.00  0.00     0.097 C 
ATOM      7  C   UNL A   1      31.588  21.598  25.548  1.00  0.00     0.041 C 
ATOM      8  C   UNL A   1      32.020  20.645  24.475  1.00  0.00    -0.030 C 
ATOM      9  C   UNL A   1      33.418  22.372  23.314  1.00  0.00     0.043 C 
ATOM     10  C   UNL A   1      32.818  20.997  23.457  1.00  0.00    -0.030 C 
BRANCH   6  11
ATOM     11  C   UNL A   1      31.737  23.946  26.459  1.00  0.00     0.228 C 
ATOM     12  N   UNL A   1      31.502  25.285  26.383  1.00  0.00    -0.326 N 
ATOM     13  H   UNL A   1      31.708  25.793  27.201  1.00  0.00     0.169 HD
ATOM     14  O   UNL A   1      31.615  23.466  27.586  1.00  0.00    -0.274 OA
BRANCH  12  15
ATOM     15  C   UNL A   1      31.008  26.047  25.313  1.00  0.00     0.044 A 
ATOM     16  C   UNL A   1      29.903  27.890  23.531  1.00  0.00     0.060 A 
ATOM     17  C   UNL A   1      29.160  26.784  23.924  1.00  0.00     0.018 A 
ATOM     18  C   UNL A   1      31.227  28.043  23.960  1.00  0.00     0.021 A 
ATOM     19  C   UNL A   1      29.729  25.856  24.787  1.00  0.00     0.027 A 
ATOM     20  C   UNL A   1      31.809  27.101  24.823  1.00  0.00    -0.027 A 
ATOM     21  C   UNL A   1      33.225  27.335  25.285  1.00  0.00     0.046 C 
BRANCH  16  22
ATOM     22  C   UNL A   1      29.244  28.911  22.694  1.00  0.00     0.337 C 
ATOM     23  O   UNL A   1      29.811  29.391  21.721  1.00  0.00    -0.246 OA
BRANCH  22  24
ATOM     24  O   UNL A   1      27.978  29.222  23.055  1.00  0.00    -0.465 OA
ATOM     25  C   UNL A   1      27.576  30.594  22.943  1.00  0.00     0.282 C 
ENDBRANCH  22  24
ENDBRANCH  16  22
ENDBRANCH  12  15
ENDBRANCH   6  11
ENDBRANCH   3   5
ENDBRANCH   2   3
ENDBRANCH   1   2
BRANCH   1  26
ATOM     26  C   UNL A   1      37.948  24.149  26.313  1.00  0.00     0.275 C 
BRANCH  26  27
ATOM     27  O   UNL A   1      39.312  23.707  26.459  1.00  0.00    -0.458 OA
BRANCH  27  28
ATOM     28  C   UNL A   1      40.391  24.507  26.634  1.00  0.00     0.338 C 
ATOM     29  O   UNL A   1      41.432  24.357  26.012  1.00  0.00    -0.246 OA
BRANCH  28  30
ATOM     30  C   UNL A   1      40.210  25.664  27.521  1.00  0.00     0.060 A 
ATOM     31  C   UNL A   1      40.247  26.923  26.932  1.00  0.00     0.016 A 
ATOM     32  C   UNL A   1      39.926  25.526  28.876  1.00  0.00     0.016 A 
ATOM     33  C   UNL A   1      39.855  28.046  27.641  1.00  0.00     0.010 A 
ATOM     34  C   UNL A   1      39.536  26.650  29.596  1.00  0.00     0.010 A 
ATOM     35  C   UNL A   1      39.462  27.904  28.970  1.00  0.00    -0.014 A 
BRANCH  35  36
ATOM     36  C   UNL A   1      39.303  29.099  29.791  1.00  0.00     0.031 A 
ATOM     37  C   UNL A   1      38.338  30.184  29.488  1.00  0.00     0.074 A 
ATOM     38  C   UNL A   1      40.303  29.307  30.677  1.00  0.00     0.049 A 
ATOM     39  N   UNL A   1      38.619  31.442  29.614  1.00  0.00    -0.248 NA
ATOM     40  C   UNL A   1      36.985  29.950  28.988  1.00  0.00     0.031 C 
ATOM     41  C   UNL A   1      40.463  30.402  31.614  1.00  0.00     0.029 A 
ATOM     42  N   UNL A   1      41.550  28.670  30.666  1.00  0.00    -0.354 N 
ATOM     43  C   UNL A   1      37.443  32.147  29.499  1.00  0.00     0.074 A 
ATOM     44  C   UNL A   1      36.469  31.190  29.021  1.00  0.00     0.031 C 
ATOM     45  C   UNL A   1      41.779  30.564  31.836  1.00  0.00     0.029 A 
ATOM     46  C   UNL A   1      42.502  29.644  30.968  1.00  0.00     0.049 A 
ATOM     47  H   UNL A   1      41.722  27.719  30.482  1.00  0.00     0.167 HD
ATOM     48  C   UNL A   1      37.369  33.426  29.969  1.00  0.00     0.037 A 
ATOM     49  C   UNL A   1      43.551  29.935  30.149  1.00  0.00     0.037 A 
ATOM     50  C   UNL A   1      38.649  33.894  30.482  1.00  0.00     0.049 A 
ATOM     51  C   UNL A   1      43.568  31.380  29.707  1.00  0.00     0.074 A 
ATOM     52  C   UNL A   1      39.213  33.887  31.748  1.00  0.00     0.029 A 
ATOM     53  N   UNL A   1      39.682  34.161  29.602  1.00  0.00    -0.354 N 
ATOM     54  N   UNL A   1      42.604  32.225  29.946  1.00  0.00    -0.248 NA
ATOM     55  C   UNL A   1      44.613  31.955  28.860  1.00  0.00     0.031 C 
ATOM     56  C   UNL A   1      40.602  34.145  31.620  1.00  0.00     0.029 A 
ATOM     57  C   UNL A   1      40.881  34.316  30.279  1.00  0.00     0.049 A 
ATOM     58  H   UNL A   1      39.580  34.229  28.626  1.00  0.00     0.167 HD
ATOM     59  C   UNL A   1      42.897  33.426  29.365  1.00  0.00     0.074 A 
ATOM     60  C   UNL A   1      44.136  33.193  28.648  1.00  0.00     0.031 C 
ATOM     61  C   UNL A   1      42.106  34.524  29.530  1.00  0.00     0.037 A 
BRANCH  48  62
ATOM     62  C   UNL A   1      36.060  34.121  30.240  1.00  0.00     0.064 A 
ATOM     63  C   UNL A   1      35.631  34.357  31.563  1.00  0.00     0.173 A 
ATOM     64  C   UNL A   1      35.169  34.531  29.234  1.00  0.00     0.173 A 
ATOM     65  F   UNL A   1      36.405  34.062  32.615  1.00  0.00    -0.203 F 
ATOM     66  C   UNL A   1      34.370  34.877  31.862  1.00  0.00     0.198 A 
ATOM     67  C   UNL A   1      33.892  35.027  29.534  1.00  0.00     0.198 A 
ATOM     68  F   UNL A   1      35.517  34.461  27.940  1.00  0.00    -0.203 F 
ATOM     69  F   UNL A   1      34.009  35.051  33.141  1.00  0.00    -0.200 F 
ATOM     70  C   UNL A   1      33.489  35.186  30.848  1.00  0.00     0.200 A 
ATOM     71  F   UNL A   1      33.045  35.335  28.541  1.00  0.00    -0.200 F 
ATOM     72  F   UNL A   1      32.260  35.636  31.135  1.00  0.00    -0.200 F 
ENDBRANCH  48  62
BRANCH  49  73
ATOM     73  C   UNL A   1      44.063  28.799  29.336  1.00  0.00     0.064 A 
ATOM     74  C   UNL A   1      44.883  27.834  29.955  1.00  0.00     0.173 A 
ATOM     75  C   UNL A   1      43.563  28.495  28.066  1.00  0.00     0.173 A 
ATOM     76  F   UNL A   1      45.420  28.083  31.159  1.00  0.00    -0.203 F 
ATOM     77  C   UNL A   1      45.086  26.579  29.385  1.00  0.00     0.198 A 
ATOM     78  C   UNL A   1      43.805  27.251  27.478  1.00  0.00     0.198 A 
ATOM     79  F   UNL A   1      42.769  29.363  27.424  1.00  0.00    -0.203 F 
ATOM     80  F   UNL A   1      45.782  25.646  30.051  1.00  0.00    -0.200 F 
ATOM     81  C   UNL A   1      44.528  26.280  28.155  1.00  0.00     0.200 A 
ATOM     82  F   UNL A   1      43.293  26.978  26.273  1.00  0.00    -0.200 F 
ATOM     83  F   UNL A   1      44.674  25.056  27.631  1.00  0.00    -0.200 F 
ENDBRANCH  49  73
BRANCH  61  84
ATOM     84  C   UNL A   1      42.466  35.903  29.058  1.00  0.00     0.064 A 
ATOM     85  C   UNL A   1      43.288  36.767  29.800  1.00  0.00     0.173 A 
ATOM     86  C   UNL A   1      41.873  36.456  27.903  1.00  0.00     0.173 A 
ATOM     87  F   UNL A   1      43.811  36.386  30.975  1.00  0.00    -0.203 F 
ATOM     88  C   UNL A   1      43.562  38.068  29.377  1.00  0.00     0.198 A 
ATOM     89  C   UNL A   1      42.102  37.774  27.513  1.00  0.00     0.198 A 
ATOM     90  F   UNL A   1      41.062  35.733  27.117  1.00  0.00    -0.203 F 
ATOM     91  F   UNL A   1      44.400  38.834  30.087  1.00  0.00    -0.200 F 
ATOM     92  C   UNL A   1      42.962  38.574  28.238  1.00  0.00     0.200 A 
ATOM     93  F   UNL A   1      41.483  38.263  26.429  1.00  0.00    -0.200 F 
ATOM     94  F   UNL A   1      43.207  39.831  27.847  1.00  0.00    -0.200 F 
ENDBRANCH  61  84
ENDBRANCH  35  36
ENDBRANCH  28  30
ENDBRANCH  27  28
ENDBRANCH  26  27
ENDBRANCH   1  26
TORSDOF 15
ENDMDL
