MODEL 1
REMARK VINA RESULT:     -11.8      0.000      0.000
REMARK SMILES O=C(OCCOC(=O)c1ccc(Br)c(NC(=S)NC(=O)c2cccs2)c1)c1ccc(-c2c3nc(c(-c4c(F)c(F)c(F)c(F)c4F)c4ccc([nH]4)c(-c4c(F)c(F)c(F)c(F)c4F)c4nc(c(-c5c(F)c(F)c(F)c(F)c5F)c5ccc2[nH]5)C=C4)C=C3)cc1
REMARK SMILES IDX 5 1 4 2 3 3 2 4 1 5 27 6 28 7 89 8 29 9 88 10 30 11 31 12
REMARK SMILES IDX 32 13 82 14 33 15 87 16 81 17 83 18 34 19 86 20 80 21 79 22
REMARK SMILES IDX 35 24 67 25 47 26 66 27 48 28 51 29 65 30 84 31 49 32 50 33
REMARK SMILES IDX 64 35 85 36 52 37 36 38 37 39 45 40 38 41 39 42 43 43 46 44
REMARK SMILES IDX 40 45 41 46 44 47 42 48 68 49 69 50 77 51 70 52 71 53 75 54
REMARK SMILES IDX 78 55 72 56 73 57 76 58 74 59 53 60 54 61 62 62 55 63 56 64
REMARK SMILES IDX 60 65 63 66 57 67 58 68 61 69 59 70 6 71 7 72 8 73 9 74
REMARK SMILES IDX 10 75 26 76 11 77 14 78 12 79 13 80 15 81 16 83 17 84 18 85
REMARK SMILES IDX 19 86 20 88 21 89 22 90 25 91 23 92 24 93
REMARK H PARENT 83 23 51 34 15 82 18 87
REMARK Flexibility Score: inf
ROOT
ATOM      1  C   UNL A   1      41.651  19.357  26.049  1.00  0.00     0.275 C 
ENDROOT
BRANCH   1   2
ATOM      2  C   UNL A   1      42.996  18.617  25.935  1.00  0.00     0.275 C 
BRANCH   2   3
ATOM      3  O   UNL A   1      43.620  18.720  24.653  1.00  0.00    -0.458 OA
BRANCH   3   4
ATOM      4  C   UNL A   1      44.759  19.376  24.351  1.00  0.00     0.338 C 
ATOM      5  O   UNL A   1      45.713  18.718  23.937  1.00  0.00    -0.246 OA
BRANCH   4   6
ATOM      6  C   UNL A   1      44.953  20.860  24.523  1.00  0.00     0.060 A 
ATOM      7  C   UNL A   1      44.525  21.896  23.682  1.00  0.00     0.016 A 
ATOM      8  C   UNL A   1      45.505  21.230  25.752  1.00  0.00     0.016 A 
ATOM      9  C   UNL A   1      44.495  23.231  24.109  1.00  0.00     0.010 A 
ATOM     10  C   UNL A   1      45.358  22.533  26.227  1.00  0.00     0.010 A 
ATOM     11  C   UNL A   1      44.861  23.557  25.406  1.00  0.00    -0.014 A 
BRANCH  11  12
ATOM     12  C   UNL A   1      44.941  24.961  25.881  1.00  0.00     0.031 A 
ATOM     13  C   UNL A   1      46.313  25.568  25.924  1.00  0.00     0.074 A 
ATOM     14  C   UNL A   1      43.878  25.679  26.295  1.00  0.00     0.049 A 
ATOM     15  N   UNL A   1      46.726  26.659  26.504  1.00  0.00    -0.248 NA
ATOM     16  C   UNL A   1      47.385  24.790  25.270  1.00  0.00     0.031 C 
ATOM     17  C   UNL A   1      42.477  25.267  26.230  1.00  0.00     0.029 A 
ATOM     18  N   UNL A   1      43.818  26.920  26.888  1.00  0.00    -0.354 N 
ATOM     19  C   UNL A   1      48.093  26.670  26.284  1.00  0.00     0.074 A 
ATOM     20  C   UNL A   1      48.461  25.381  25.751  1.00  0.00     0.031 C 
ATOM     21  C   UNL A   1      41.706  26.206  26.808  1.00  0.00     0.029 A 
ATOM     22  C   UNL A   1      42.557  27.279  27.305  1.00  0.00     0.049 A 
ATOM     23  H   UNL A   1      44.608  27.497  27.005  1.00  0.00     0.167 HD
ATOM     24  C   UNL A   1      48.952  27.707  26.363  1.00  0.00     0.037 A 
ATOM     25  C   UNL A   1      42.143  28.349  28.013  1.00  0.00     0.037 A 
ATOM     26  C   UNL A   1      48.559  29.011  26.799  1.00  0.00     0.049 A 
ATOM     27  C   UNL A   1      43.139  29.446  28.285  1.00  0.00     0.074 A 
ATOM     28  C   UNL A   1      49.315  30.161  26.872  1.00  0.00     0.029 A 
ATOM     29  N   UNL A   1      47.280  29.328  27.235  1.00  0.00    -0.354 N 
ATOM     30  N   UNL A   1      44.418  29.484  27.998  1.00  0.00    -0.248 NA
ATOM     31  C   UNL A   1      42.627  30.676  28.904  1.00  0.00     0.031 C 
ATOM     32  C   UNL A   1      48.509  31.162  27.421  1.00  0.00     0.029 A 
ATOM     33  C   UNL A   1      47.232  30.653  27.615  1.00  0.00     0.049 A 
ATOM     34  H   UNL A   1      46.521  28.701  27.268  1.00  0.00     0.167 HD
ATOM     35  C   UNL A   1      44.843  30.769  28.308  1.00  0.00     0.074 A 
ATOM     36  C   UNL A   1      43.693  31.464  28.851  1.00  0.00     0.031 C 
ATOM     37  C   UNL A   1      46.061  31.332  28.115  1.00  0.00     0.037 A 
BRANCH  24  38
ATOM     38  C   UNL A   1      50.359  27.435  25.921  1.00  0.00     0.064 A 
ATOM     39  C   UNL A   1      50.722  27.458  24.560  1.00  0.00     0.173 A 
ATOM     40  C   UNL A   1      51.319  27.020  26.849  1.00  0.00     0.173 A 
ATOM     41  F   UNL A   1      49.828  27.823  23.626  1.00  0.00    -0.203 F 
ATOM     42  C   UNL A   1      51.961  26.985  24.142  1.00  0.00     0.198 A 
ATOM     43  C   UNL A   1      52.577  26.595  26.431  1.00  0.00     0.198 A 
ATOM     44  F   UNL A   1      51.024  26.982  28.157  1.00  0.00    -0.203 F 
ATOM     45  F   UNL A   1      52.233  26.888  22.833  1.00  0.00    -0.200 F 
ATOM     46  C   UNL A   1      52.887  26.552  25.079  1.00  0.00     0.200 A 
ATOM     47  F   UNL A   1      53.476  26.185  27.335  1.00  0.00    -0.200 F 
ATOM     48  F   UNL A   1      54.070  26.068  24.675  1.00  0.00    -0.200 F 
ENDBRANCH  24  38
BRANCH  25  49
ATOM     49  C   UNL A   1      40.727  28.473  28.460  1.00  0.00     0.064 A 
ATOM     50  C   UNL A   1      39.727  28.969  27.614  1.00  0.00     0.173 A 
ATOM     51  C   UNL A   1      40.350  28.128  29.766  1.00  0.00     0.173 A 
ATOM     52  F   UNL A   1      40.034  29.336  26.362  1.00  0.00    -0.203 F 
ATOM     53  C   UNL A   1      38.415  29.134  28.063  1.00  0.00     0.198 A 
ATOM     54  C   UNL A   1      39.036  28.275  30.211  1.00  0.00     0.198 A 
ATOM     55  F   UNL A   1      41.264  27.650  30.618  1.00  0.00    -0.203 F 
ATOM     56  F   UNL A   1      37.489  29.649  27.241  1.00  0.00    -0.200 F 
ATOM     57  C   UNL A   1      38.069  28.785  29.360  1.00  0.00     0.200 A 
ATOM     58  F   UNL A   1      38.711  27.930  31.464  1.00  0.00    -0.200 F 
ATOM     59  F   UNL A   1      36.811  28.948  29.790  1.00  0.00    -0.200 F 
ENDBRANCH  25  49
BRANCH  37  60
ATOM     60  C   UNL A   1      46.209  32.797  28.389  1.00  0.00     0.064 A 
ATOM     61  C   UNL A   1      46.689  33.281  29.611  1.00  0.00     0.173 A 
ATOM     62  C   UNL A   1      45.984  33.718  27.352  1.00  0.00     0.173 A 
ATOM     63  F   UNL A   1      46.905  32.441  30.633  1.00  0.00    -0.203 F 
ATOM     64  C   UNL A   1      46.940  34.638  29.786  1.00  0.00     0.198 A 
ATOM     65  C   UNL A   1      46.272  35.067  27.519  1.00  0.00     0.198 A 
ATOM     66  F   UNL A   1      45.529  33.298  26.161  1.00  0.00    -0.203 F 
ATOM     67  F   UNL A   1      47.376  35.088  30.971  1.00  0.00    -0.200 F 
ATOM     68  C   UNL A   1      46.748  35.527  28.736  1.00  0.00     0.200 A 
ATOM     69  F   UNL A   1      46.109  35.916  26.496  1.00  0.00    -0.200 F 
ATOM     70  F   UNL A   1      47.028  36.827  28.898  1.00  0.00    -0.200 F 
ENDBRANCH  37  60
ENDBRANCH  11  12
ENDBRANCH   4   6
ENDBRANCH   3   4
ENDBRANCH   2   3
ENDBRANCH   1   2
BRANCH   1  71
ATOM     71  O   UNL A   1      41.739  20.792  26.253  1.00  0.00    -0.458 OA
BRANCH  71  72
ATOM     72  C   UNL A   1      40.846  21.293  27.167  1.00  0.00     0.338 C 
ATOM     73  O   UNL A   1      40.974  21.159  28.375  1.00  0.00    -0.246 OA
BRANCH  72  74
ATOM     74  C   UNL A   1      39.529  21.812  26.487  1.00  0.00     0.062 A 
ATOM     75  C   UNL A   1      39.281  23.509  27.088  1.00  0.00     0.017 A 
ATOM     76  C   UNL A   1      38.116  21.204  25.117  1.00  0.00     0.043 A 
ATOM     77  C   UNL A   1      37.863  24.388  26.451  1.00  0.00     0.019 A 
ATOM     78  C   UNL A   1      36.763  22.061  24.709  1.00  0.00     0.055 A 
ATOM     79  C   UNL A   1      36.662  23.668  25.337  1.00  0.00     0.041 A 
ATOM     80  Br  UNL A   1      35.026  24.595  25.084  1.00  0.00    -0.049 Br
BRANCH  78  81
ATOM     81  N   UNL A   1      35.747  21.129  24.390  1.00  0.00    -0.331 N 
ATOM     82  H   UNL A   1      35.766  20.794  23.464  1.00  0.00     0.169 HD
BRANCH  81  83
ATOM     83  C   UNL A   1      34.723  20.611  25.182  1.00  0.00     0.177 C 
ATOM     84  S   UNL A   1      34.254  19.032  24.837  1.00  0.00    -0.040 S 
BRANCH  83  85
ATOM     85  N   UNL A   1      34.011  21.244  26.276  1.00  0.00    -0.298 N 
ATOM     86  C   UNL A   1      32.896  22.127  26.863  1.00  0.00     0.267 C 
ATOM     87  H   UNL A   1      34.510  20.949  27.072  1.00  0.00     0.172 HD
ATOM     88  O   UNL A   1      33.053  22.580  27.994  1.00  0.00    -0.268 OA
BRANCH  86  89
ATOM     89  C   UNL A   1      31.640  22.366  26.012  1.00  0.00     0.092 A 
ATOM     90  C   UNL A   1      31.918  21.835  24.431  1.00  0.00     0.025 A 
ATOM     91  S   UNL A   1      30.896  24.543  26.186  1.00  0.00    -0.139 S 
ATOM     92  C   UNL A   1      31.937  23.225  23.129  1.00  0.00     0.012 A 
ATOM     93  C   UNL A   1      31.400  24.956  23.936  1.00  0.00     0.065 A 
ENDBRANCH  86  89
ENDBRANCH  83  85
ENDBRANCH  81  83
ENDBRANCH  78  81
ENDBRANCH  72  74
ENDBRANCH  71  72
ENDBRANCH   1  71
TORSDOF 15
ENDMDL
MODEL 2
REMARK VINA RESULT:     -11.7      5.690     11.315
REMARK SMILES O=C(OCCOC(=O)c1ccc(Br)c(NC(=S)NC(=O)c2cccs2)c1)c1ccc(-c2c3nc(c(-c4c(F)c(F)c(F)c(F)c4F)c4ccc([nH]4)c(-c4c(F)c(F)c(F)c(F)c4F)c4nc(c(-c5c(F)c(F)c(F)c(F)c5F)c5ccc2[nH]5)C=C4)C=C3)cc1
REMARK SMILES IDX 5 1 4 2 3 3 2 4 1 5 27 6 28 7 89 8 29 9 88 10 30 11 31 12
REMARK SMILES IDX 32 13 82 14 33 15 87 16 81 17 83 18 34 19 86 20 80 21 79 22
REMARK SMILES IDX 35 24 67 25 47 26 66 27 48 28 51 29 65 30 84 31 49 32 50 33
REMARK SMILES IDX 64 35 85 36 52 37 36 38 37 39 45 40 38 41 39 42 43 43 46 44
REMARK SMILES IDX 40 45 41 46 44 47 42 48 68 49 69 50 77 51 70 52 71 53 75 54
REMARK SMILES IDX 78 55 72 56 73 57 76 58 74 59 53 60 54 61 62 62 55 63 56 64
REMARK SMILES IDX 60 65 63 66 57 67 58 68 61 69 59 70 6 71 7 72 8 73 9 74
REMARK SMILES IDX 10 75 26 76 11 77 14 78 12 79 13 80 15 81 16 83 17 84 18 85
REMARK SMILES IDX 19 86 20 88 21 89 22 90 25 91 23 92 24 93
REMARK H PARENT 83 23 51 34 15 82 18 87
REMARK Flexibility Score: inf
ROOT
ATOM      1  C   UNL A   1      31.822  30.924  26.456  1.00  0.00     0.275 C 
ENDROOT
BRANCH   1   2
ATOM      2  C   UNL A   1      31.585  32.246  27.207  1.00  0.00     0.275 C 
BRANCH   2   3
ATOM      3  O   UNL A   1      32.601  33.231  27.009  1.00  0.00    -0.458 OA
BRANCH   3   4
ATOM      4  C   UNL A   1      33.481  33.691  27.922  1.00  0.00     0.338 C 
ATOM      5  O   UNL A   1      33.233  34.763  28.474  1.00  0.00    -0.246 OA
BRANCH   4   6
ATOM      6  C   UNL A   1      34.770  32.999  28.281  1.00  0.00     0.060 A 
ATOM      7  C   UNL A   1      36.074  33.505  28.223  1.00  0.00     0.016 A 
ATOM      8  C   UNL A   1      34.604  31.747  28.880  1.00  0.00     0.016 A 
ATOM      9  C   UNL A   1      37.143  32.875  28.874  1.00  0.00     0.010 A 
ATOM     10  C   UNL A   1      35.632  31.185  29.636  1.00  0.00     0.010 A 
ATOM     11  C   UNL A   1      36.923  31.735  29.634  1.00  0.00    -0.014 A 
BRANCH  11  12
ATOM     12  C   UNL A   1      38.030  30.973  30.264  1.00  0.00     0.031 A 
ATOM     13  C   UNL A   1      38.387  31.363  31.668  1.00  0.00     0.074 A 
ATOM     14  C   UNL A   1      38.729  30.004  29.640  1.00  0.00     0.049 A 
ATOM     15  N   UNL A   1      39.436  31.059  32.379  1.00  0.00    -0.248 NA
ATOM     16  C   UNL A   1      37.450  32.286  32.341  1.00  0.00     0.031 C 
ATOM     17  C   UNL A   1      38.448  29.450  28.317  1.00  0.00     0.029 A 
ATOM     18  N   UNL A   1      39.856  29.322  30.039  1.00  0.00    -0.354 N 
ATOM     19  C   UNL A   1      39.269  31.766  33.558  1.00  0.00     0.074 A 
ATOM     20  C   UNL A   1      38.176  32.686  33.367  1.00  0.00     0.031 C 
ATOM     21  C   UNL A   1      39.403  28.560  27.992  1.00  0.00     0.029 A 
ATOM     22  C   UNL A   1      40.377  28.492  29.073  1.00  0.00     0.049 A 
ATOM     23  H   UNL A   1      40.254  29.421  30.935  1.00  0.00     0.167 HD
ATOM     24  C   UNL A   1      39.863  31.565  34.753  1.00  0.00     0.037 A 
ATOM     25  C   UNL A   1      41.515  27.769  29.065  1.00  0.00     0.037 A 
ATOM     26  C   UNL A   1      40.879  30.582  34.961  1.00  0.00     0.049 A 
ATOM     27  C   UNL A   1      42.308  27.682  30.343  1.00  0.00     0.074 A 
ATOM     28  C   UNL A   1      41.522  30.238  36.131  1.00  0.00     0.029 A 
ATOM     29  N   UNL A   1      41.396  29.778  33.953  1.00  0.00    -0.354 N 
ATOM     30  N   UNL A   1      42.095  28.291  31.485  1.00  0.00    -0.248 NA
ATOM     31  C   UNL A   1      43.446  26.753  30.362  1.00  0.00     0.031 C 
ATOM     32  C   UNL A   1      42.482  29.271  35.817  1.00  0.00     0.029 A 
ATOM     33  C   UNL A   1      42.381  28.960  34.468  1.00  0.00     0.049 A 
ATOM     34  H   UNL A   1      41.105  29.792  33.013  1.00  0.00     0.167 HD
ATOM     35  C   UNL A   1      43.005  27.751  32.383  1.00  0.00     0.074 A 
ATOM     36  C   UNL A   1      43.804  26.798  31.639  1.00  0.00     0.031 C 
ATOM     37  C   UNL A   1      43.133  27.989  33.711  1.00  0.00     0.037 A 
BRANCH  24  38
ATOM     38  C   UNL A   1      39.365  32.409  35.889  1.00  0.00     0.064 A 
ATOM     39  C   UNL A   1      39.959  33.646  36.204  1.00  0.00     0.173 A 
ATOM     40  C   UNL A   1      38.376  31.918  36.748  1.00  0.00     0.173 A 
ATOM     41  F   UNL A   1      40.932  34.148  35.426  1.00  0.00    -0.203 F 
ATOM     42  C   UNL A   1      39.647  34.309  37.385  1.00  0.00     0.198 A 
ATOM     43  C   UNL A   1      38.029  32.611  37.904  1.00  0.00     0.198 A 
ATOM     44  F   UNL A   1      37.778  30.745  36.492  1.00  0.00    -0.203 F 
ATOM     45  F   UNL A   1      40.323  35.414  37.730  1.00  0.00    -0.200 F 
ATOM     46  C   UNL A   1      38.683  33.790  38.235  1.00  0.00     0.200 A 
ATOM     47  F   UNL A   1      37.092  32.116  38.722  1.00  0.00    -0.200 F 
ATOM     48  F   UNL A   1      38.403  34.413  39.388  1.00  0.00    -0.200 F 
ENDBRANCH  24  38
BRANCH  25  49
ATOM     49  C   UNL A   1      41.944  27.027  27.846  1.00  0.00     0.064 A 
ATOM     50  C   UNL A   1      41.535  25.710  27.602  1.00  0.00     0.173 A 
ATOM     51  C   UNL A   1      42.809  27.615  26.911  1.00  0.00     0.173 A 
ATOM     52  F   UNL A   1      40.727  25.091  28.473  1.00  0.00    -0.203 F 
ATOM     53  C   UNL A   1      41.990  25.006  26.485  1.00  0.00     0.198 A 
ATOM     54  C   UNL A   1      43.250  26.919  25.785  1.00  0.00     0.198 A 
ATOM     55  F   UNL A   1      43.233  28.870  27.094  1.00  0.00    -0.203 F 
ATOM     56  F   UNL A   1      41.612  23.733  26.299  1.00  0.00    -0.200 F 
ATOM     57  C   UNL A   1      42.845  25.611  25.576  1.00  0.00     0.200 A 
ATOM     58  F   UNL A   1      44.072  27.514  24.910  1.00  0.00    -0.200 F 
ATOM     59  F   UNL A   1      43.284  24.933  24.507  1.00  0.00    -0.200 F 
ENDBRANCH  25  49
BRANCH  37  60
ATOM     60  C   UNL A   1      44.096  27.145  34.488  1.00  0.00     0.064 A 
ATOM     61  C   UNL A   1      43.749  25.883  34.984  1.00  0.00     0.173 A 
ATOM     62  C   UNL A   1      45.430  27.566  34.620  1.00  0.00     0.173 A 
ATOM     63  F   UNL A   1      42.484  25.446  34.893  1.00  0.00    -0.203 F 
ATOM     64  C   UNL A   1      44.705  25.070  35.585  1.00  0.00     0.198 A 
ATOM     65  C   UNL A   1      46.389  26.736  35.186  1.00  0.00     0.198 A 
ATOM     66  F   UNL A   1      45.810  28.766  34.154  1.00  0.00    -0.203 F 
ATOM     67  F   UNL A   1      44.349  23.875  36.077  1.00  0.00    -0.200 F 
ATOM     68  C   UNL A   1      46.026  25.489  35.670  1.00  0.00     0.200 A 
ATOM     69  F   UNL A   1      47.667  27.134  35.243  1.00  0.00    -0.200 F 
ATOM     70  F   UNL A   1      46.950  24.686  36.214  1.00  0.00    -0.200 F 
ENDBRANCH  37  60
ENDBRANCH  11  12
ENDBRANCH   4   6
ENDBRANCH   3   4
ENDBRANCH   2   3
ENDBRANCH   1   2
BRANCH   1  71
ATOM     71  O   UNL A   1      32.409  29.853  27.241  1.00  0.00    -0.458 OA
BRANCH  71  72
ATOM     72  C   UNL A   1      31.768  28.645  27.123  1.00  0.00     0.338 C 
ATOM     73  O   UNL A   1      31.067  28.168  28.003  1.00  0.00    -0.246 OA
BRANCH  72  74
ATOM     74  C   UNL A   1      32.247  27.838  25.863  1.00  0.00     0.062 A 
ATOM     75  C   UNL A   1      31.288  28.475  24.457  1.00  0.00     0.017 A 
ATOM     76  C   UNL A   1      33.632  26.405  25.342  1.00  0.00     0.043 A 
ATOM     77  C   UNL A   1      31.643  27.767  22.857  1.00  0.00     0.019 A 
ATOM     78  C   UNL A   1      33.771  25.727  23.841  1.00  0.00     0.055 A 
ATOM     79  C   UNL A   1      32.814  26.440  22.591  1.00  0.00     0.041 A 
ATOM     80  Br  UNL A   1      32.772  25.548  20.917  1.00  0.00    -0.049 Br
BRANCH  78  81
ATOM     81  N   UNL A   1      34.222  24.396  24.013  1.00  0.00    -0.331 N 
ATOM     82  H   UNL A   1      34.093  23.809  23.233  1.00  0.00     0.169 HD
BRANCH  81  83
ATOM     83  C   UNL A   1      34.818  23.786  25.116  1.00  0.00     0.177 C 
ATOM     84  S   UNL A   1      36.501  23.733  25.105  1.00  0.00    -0.040 S 
BRANCH  83  85
ATOM     85  N   UNL A   1      34.187  23.200  26.283  1.00  0.00    -0.298 N 
ATOM     86  C   UNL A   1      32.977  22.677  27.075  1.00  0.00     0.267 C 
ATOM     87  H   UNL A   1      34.941  23.062  26.903  1.00  0.00     0.172 HD
ATOM     88  O   UNL A   1      33.079  22.589  28.296  1.00  0.00    -0.268 OA
BRANCH  86  89
ATOM     89  C   UNL A   1      31.721  22.268  26.289  1.00  0.00     0.092 A 
ATOM     90  C   UNL A   1      32.174  21.400  24.911  1.00  0.00     0.025 A 
ATOM     91  S   UNL A   1      30.343  24.075  25.888  1.00  0.00    -0.139 S 
ATOM     92  C   UNL A   1      31.787  22.281  23.268  1.00  0.00     0.012 A 
ATOM     93  C   UNL A   1      30.732  23.931  23.583  1.00  0.00     0.065 A 
ENDBRANCH  86  89
ENDBRANCH  83  85
ENDBRANCH  81  83
ENDBRANCH  78  81
ENDBRANCH  72  74
ENDBRANCH  71  72
ENDBRANCH   1  71
TORSDOF 15
ENDMDL
MODEL 3
REMARK VINA RESULT:     -11.5      2.797      4.549
REMARK SMILES O=C(OCCOC(=O)c1ccc(Br)c(NC(=S)NC(=O)c2cccs2)c1)c1ccc(-c2c3nc(c(-c4c(F)c(F)c(F)c(F)c4F)c4ccc([nH]4)c(-c4c(F)c(F)c(F)c(F)c4F)c4nc(c(-c5c(F)c(F)c(F)c(F)c5F)c5ccc2[nH]5)C=C4)C=C3)cc1
REMARK SMILES IDX 5 1 4 2 3 3 2 4 1 5 27 6 28 7 89 8 29 9 88 10 30 11 31 12
REMARK SMILES IDX 32 13 82 14 33 15 87 16 81 17 83 18 34 19 86 20 80 21 79 22
REMARK SMILES IDX 35 24 67 25 47 26 66 27 48 28 51 29 65 30 84 31 49 32 50 33
REMARK SMILES IDX 64 35 85 36 52 37 36 38 37 39 45 40 38 41 39 42 43 43 46 44
REMARK SMILES IDX 40 45 41 46 44 47 42 48 68 49 69 50 77 51 70 52 71 53 75 54
REMARK SMILES IDX 78 55 72 56 73 57 76 58 74 59 53 60 54 61 62 62 55 63 56 64
REMARK SMILES IDX 60 65 63 66 57 67 58 68 61 69 59 70 6 71 7 72 8 73 9 74
REMARK SMILES IDX 10 75 26 76 11 77 14 78 12 79 13 80 15 81 16 83 17 84 18 85
REMARK SMILES IDX 19 86 20 88 21 89 22 90 25 91 23 92 24 93
REMARK H PARENT 83 23 51 34 15 82 18 87
REMARK Flexibility Score: inf
ROOT
ATOM      1  C   UNL A   1      37.702  20.889  24.924  1.00  0.00     0.275 C 
ENDROOT
BRANCH   1   2
ATOM      2  C   UNL A   1      38.693  19.803  25.381  1.00  0.00     0.275 C 
BRANCH   2   3
ATOM      3  O   UNL A   1      40.008  20.284  25.667  1.00  0.00    -0.458 OA
BRANCH   3   4
ATOM      4  C   UNL A   1      40.534  20.551  26.880  1.00  0.00     0.338 C 
ATOM      5  O   UNL A   1      40.753  19.604  27.636  1.00  0.00    -0.246 OA
BRANCH   4   6
ATOM      6  C   UNL A   1      40.834  21.937  27.387  1.00  0.00     0.060 A 
ATOM      7  C   UNL A   1      41.704  22.315  28.417  1.00  0.00     0.016 A 
ATOM      8  C   UNL A   1      40.273  22.964  26.624  1.00  0.00     0.016 A 
ATOM      9  C   UNL A   1      42.126  23.642  28.580  1.00  0.00     0.010 A 
ATOM     10  C   UNL A   1      40.786  24.259  26.699  1.00  0.00     0.010 A 
ATOM     11  C   UNL A   1      41.714  24.620  27.688  1.00  0.00    -0.014 A 
BRANCH  11  12
ATOM     12  C   UNL A   1      42.050  26.054  27.868  1.00  0.00     0.031 A 
ATOM     13  C   UNL A   1      43.410  26.479  27.397  1.00  0.00     0.074 A 
ATOM     14  C   UNL A   1      41.231  26.954  28.448  1.00  0.00     0.049 A 
ATOM     15  N   UNL A   1      44.070  27.579  27.631  1.00  0.00    -0.248 NA
ATOM     16  C   UNL A   1      44.158  25.486  26.599  1.00  0.00     0.031 C 
ATOM     17  C   UNL A   1      39.852  26.721  28.873  1.00  0.00     0.029 A 
ATOM     18  N   UNL A   1      41.459  28.263  28.809  1.00  0.00    -0.354 N 
ATOM     19  C   UNL A   1      45.295  27.382  27.017  1.00  0.00     0.074 A 
ATOM     20  C   UNL A   1      45.374  25.995  26.631  1.00  0.00     0.031 C 
ATOM     21  C   UNL A   1      39.379  27.823  29.482  1.00  0.00     0.029 A 
ATOM     22  C   UNL A   1      40.424  28.836  29.512  1.00  0.00     0.049 A 
ATOM     23  H   UNL A   1      42.289  28.744  28.585  1.00  0.00     0.167 HD
ATOM     24  C   UNL A   1      46.216  28.301  26.658  1.00  0.00     0.037 A 
ATOM     25  C   UNL A   1      40.340  30.039  30.115  1.00  0.00     0.037 A 
ATOM     26  C   UNL A   1      46.084  29.692  26.959  1.00  0.00     0.049 A 
ATOM     27  C   UNL A   1      41.456  31.025  29.887  1.00  0.00     0.074 A 
ATOM     28  C   UNL A   1      46.914  30.734  26.606  1.00  0.00     0.029 A 
ATOM     29  N   UNL A   1      45.035  30.229  27.693  1.00  0.00    -0.354 N 
ATOM     30  N   UNL A   1      42.579  30.858  29.231  1.00  0.00    -0.248 NA
ATOM     31  C   UNL A   1      41.263  32.385  30.408  1.00  0.00     0.031 C 
ATOM     32  C   UNL A   1      46.403  31.897  27.187  1.00  0.00     0.029 A 
ATOM     33  C   UNL A   1      45.215  31.590  27.836  1.00  0.00     0.049 A 
ATOM     34  H   UNL A   1      44.278  29.716  28.058  1.00  0.00     0.167 HD
ATOM     35  C   UNL A   1      43.180  32.108  29.175  1.00  0.00     0.074 A 
ATOM     36  C   UNL A   1      42.318  33.014  29.906  1.00  0.00     0.031 C 
ATOM     37  C   UNL A   1      44.317  32.476  28.535  1.00  0.00     0.037 A 
BRANCH  24  38
ATOM     38  C   UNL A   1      47.387  27.790  25.873  1.00  0.00     0.064 A 
ATOM     39  C   UNL A   1      48.626  27.524  26.486  1.00  0.00     0.173 A 
ATOM     40  C   UNL A   1      47.310  27.693  24.479  1.00  0.00     0.173 A 
ATOM     41  F   UNL A   1      48.759  27.631  27.819  1.00  0.00    -0.203 F 
ATOM     42  C   UNL A   1      49.762  27.274  25.725  1.00  0.00     0.198 A 
ATOM     43  C   UNL A   1      48.440  27.391  23.724  1.00  0.00     0.198 A 
ATOM     44  F   UNL A   1      46.153  27.935  23.847  1.00  0.00    -0.203 F 
ATOM     45  F   UNL A   1      50.956  27.159  26.324  1.00  0.00    -0.200 F 
ATOM     46  C   UNL A   1      49.668  27.208  24.344  1.00  0.00     0.200 A 
ATOM     47  F   UNL A   1      48.349  27.319  22.390  1.00  0.00    -0.200 F 
ATOM     48  F   UNL A   1      50.768  26.997  23.608  1.00  0.00    -0.200 F 
ENDBRANCH  24  38
BRANCH  25  49
ATOM     49  C   UNL A   1      39.150  30.406  30.933  1.00  0.00     0.064 A 
ATOM     50  C   UNL A   1      38.003  30.966  30.357  1.00  0.00     0.173 A 
ATOM     51  C   UNL A   1      39.150  30.233  32.325  1.00  0.00     0.173 A 
ATOM     52  F   UNL A   1      37.955  31.175  29.034  1.00  0.00    -0.203 F 
ATOM     53  C   UNL A   1      36.916  31.358  31.142  1.00  0.00     0.198 A 
ATOM     54  C   UNL A   1      38.059  30.608  33.109  1.00  0.00     0.198 A 
ATOM     55  F   UNL A   1      40.220  29.704  32.930  1.00  0.00    -0.203 F 
ATOM     56  F   UNL A   1      35.849  31.929  30.566  1.00  0.00    -0.200 F 
ATOM     57  C   UNL A   1      36.944  31.177  32.517  1.00  0.00     0.200 A 
ATOM     58  F   UNL A   1      38.092  30.424  34.436  1.00  0.00    -0.200 F 
ATOM     59  F   UNL A   1      35.902  31.558  33.269  1.00  0.00    -0.200 F 
ENDBRANCH  25  49
BRANCH  37  60
ATOM     60  C   UNL A   1      44.660  33.934  28.496  1.00  0.00     0.064 A 
ATOM     61  C   UNL A   1      44.149  34.794  27.516  1.00  0.00     0.173 A 
ATOM     62  C   UNL A   1      45.415  34.493  29.540  1.00  0.00     0.173 A 
ATOM     63  F   UNL A   1      43.436  34.303  26.492  1.00  0.00    -0.203 F 
ATOM     64  C   UNL A   1      44.381  36.163  27.585  1.00  0.00     0.198 A 
ATOM     65  C   UNL A   1      45.612  35.866  29.626  1.00  0.00     0.198 A 
ATOM     66  F   UNL A   1      45.920  33.708  30.505  1.00  0.00    -0.203 F 
ATOM     67  F   UNL A   1      43.905  36.969  26.625  1.00  0.00    -0.200 F 
ATOM     68  C   UNL A   1      45.096  36.700  28.648  1.00  0.00     0.200 A 
ATOM     69  F   UNL A   1      46.281  36.380  30.666  1.00  0.00    -0.200 F 
ATOM     70  F   UNL A   1      45.283  38.024  28.730  1.00  0.00    -0.200 F 
ENDBRANCH  37  60
ENDBRANCH  11  12
ENDBRANCH   4   6
ENDBRANCH   3   4
ENDBRANCH   2   3
ENDBRANCH   1   2
BRANCH   1  71
ATOM     71  O   UNL A   1      36.537  21.070  25.771  1.00  0.00    -0.458 OA
BRANCH  71  72
ATOM     72  C   UNL A   1      35.354  20.663  25.205  1.00  0.00     0.338 C 
ATOM     73  O   UNL A   1      35.202  19.572  24.677  1.00  0.00    -0.246 OA
BRANCH  72  74
ATOM     74  C   UNL A   1      34.320  21.840  25.078  1.00  0.00     0.062 A 
ATOM     75  C   UNL A   1      33.507  21.980  26.697  1.00  0.00     0.017 A 
ATOM     76  C   UNL A   1      33.706  23.258  23.716  1.00  0.00     0.043 A 
ATOM     77  C   UNL A   1      32.291  23.275  26.875  1.00  0.00     0.019 A 
ATOM     78  C   UNL A   1      32.464  24.322  23.954  1.00  0.00     0.055 A 
ATOM     79  C   UNL A   1      31.791  24.363  25.545  1.00  0.00     0.041 A 
ATOM     80  Br  UNL A   1      30.221  25.399  25.795  1.00  0.00    -0.049 Br
BRANCH  78  81
ATOM     81  N   UNL A   1      31.870  24.575  22.694  1.00  0.00    -0.331 N 
ATOM     82  H   UNL A   1      31.467  23.790  22.259  1.00  0.00     0.169 HD
BRANCH  81  83
ATOM     83  C   UNL A   1      31.768  25.764  21.973  1.00  0.00     0.177 C 
ATOM     84  S   UNL A   1      32.511  25.774  20.463  1.00  0.00    -0.040 S 
BRANCH  83  85
ATOM     85  N   UNL A   1      31.095  26.996  22.341  1.00  0.00    -0.298 N 
ATOM     86  C   UNL A   1      30.962  28.304  23.138  1.00  0.00     0.267 C 
ATOM     87  H   UNL A   1      30.290  26.993  21.773  1.00  0.00     0.172 HD
ATOM     88  O   UNL A   1      29.849  28.818  23.224  1.00  0.00    -0.268 OA
BRANCH  86  89
ATOM     89  C   UNL A   1      32.233  28.907  23.756  1.00  0.00     0.092 A 
ATOM     90  C   UNL A   1      33.405  27.700  23.930  1.00  0.00     0.025 A 
ATOM     91  S   UNL A   1      31.765  30.090  25.681  1.00  0.00    -0.139 S 
ATOM     92  C   UNL A   1      33.838  27.285  25.737  1.00  0.00     0.012 A 
ATOM     93  C   UNL A   1      32.951  28.547  26.985  1.00  0.00     0.065 A 
ENDBRANCH  86  89
ENDBRANCH  83  85
ENDBRANCH  81  83
ENDBRANCH  78  81
ENDBRANCH  72  74
ENDBRANCH  71  72
ENDBRANCH   1  71
TORSDOF 15
ENDMDL
