MODEL 1
REMARK VINA RESULT:     -12.0      0.000      0.000
REMARK SMILES Cc1ncccc1Oc1ccc(C(=O)OCCOC(=O)c2ccc(-c3c4nc(c(-c5c(F)c(F)c(F)c(F)c5F)c5ccc([nH]5)c(-c5c(F)c(F)c(F)c(F)c5F)c5nc(c(-c6c(F)c(F)c(F)c(F)c6F)c6ccc3[nH]6)C=C5)C=C4)cc2)cc1Cl
REMARK SMILES IDX 16 1 15 2 13 3 14 4 12 5 9 6 10 7 85 8 11 9 84 10 86 11 8 12
REMARK SMILES IDX 7 13 1 14 2 15 3 16 4 17 6 18 5 19 17 20 18 21 19 22 20 23
REMARK SMILES IDX 21 24 22 25 83 26 23 27 82 28 24 29 25 30 26 31 76 32 27 33
REMARK SMILES IDX 81 34 75 35 77 36 28 37 80 38 74 39 73 40 29 42 61 43 41 44
REMARK SMILES IDX 60 45 42 46 45 47 59 48 78 49 43 50 44 51 58 53 79 54 46 55
REMARK SMILES IDX 30 56 31 57 39 58 32 59 33 60 37 61 40 62 34 63 35 64 38 65
REMARK SMILES IDX 36 66 62 67 63 68 71 69 64 70 65 71 69 72 72 73 66 74 67 75
REMARK SMILES IDX 70 76 68 77 47 78 48 79 56 80 49 81 50 82 54 83 57 84 51 85
REMARK SMILES IDX 52 86 55 87 53 88
REMARK H PARENT 77 41 45 52
REMARK Flexibility Score: inf
ROOT
ATOM      1  C   UNL A   1      35.141  20.712  25.398  1.00  0.00     0.275 C 
ENDROOT
BRANCH   1   2
ATOM      2  O   UNL A   1      34.309  19.867  24.579  1.00  0.00    -0.458 OA
BRANCH   2   3
ATOM      3  C   UNL A   1      33.002  19.829  24.922  1.00  0.00     0.338 C 
ATOM      4  O   UNL A   1      32.437  18.934  25.533  1.00  0.00    -0.246 OA
BRANCH   3   5
ATOM      5  C   UNL A   1      32.296  21.065  24.505  1.00  0.00     0.061 A 
ATOM      6  C   UNL A   1      31.333  23.543  23.695  1.00  0.00     0.146 A 
ATOM      7  C   UNL A   1      31.905  22.695  22.749  1.00  0.00     0.049 A 
ATOM      8  C   UNL A   1      31.105  23.100  25.005  1.00  0.00     0.084 A 
ATOM      9  C   UNL A   1      32.428  21.478  23.169  1.00  0.00     0.019 A 
ATOM     10  C   UNL A   1      31.588  21.857  25.415  1.00  0.00     0.040 A 
ATOM     11  Cl  UNL A   1      30.321  24.109  26.164  1.00  0.00    -0.080 Cl
BRANCH   6  12
ATOM     12  O   UNL A   1      31.012  24.810  23.303  1.00  0.00    -0.454 OA
BRANCH  12  13
ATOM     13  C   UNL A   1      32.017  25.740  23.113  1.00  0.00     0.148 A 
ATOM     14  C   UNL A   1      32.521  25.578  20.577  1.00  0.00     0.071 C 
ATOM     15  C   UNL A   1      32.731  26.110  21.962  1.00  0.00     0.080 A 
ATOM     16  N   UNL A   1      33.725  27.044  22.001  1.00  0.00    -0.258 NA
ATOM     17  C   UNL A   1      34.023  27.625  23.178  1.00  0.00     0.111 A 
ATOM     18  C   UNL A   1      32.350  26.388  24.312  1.00  0.00     0.050 A 
ATOM     19  C   UNL A   1      33.363  27.340  24.352  1.00  0.00     0.024 A 
ENDBRANCH  12  13
ENDBRANCH   6  12
ENDBRANCH   3   5
ENDBRANCH   2   3
ENDBRANCH   1   2
BRANCH   1  20
ATOM     20  C   UNL A   1      36.611  20.583  25.001  1.00  0.00     0.275 C 
BRANCH  20  21
ATOM     21  O   UNL A   1      37.391  21.660  25.553  1.00  0.00    -0.458 OA
BRANCH  21  22
ATOM     22  C   UNL A   1      38.654  21.338  25.909  1.00  0.00     0.338 C 
ATOM     23  O   UNL A   1      39.229  20.275  25.751  1.00  0.00    -0.246 OA
BRANCH  22  24
ATOM     24  C   UNL A   1      39.311  22.510  26.502  1.00  0.00     0.060 A 
ATOM     25  C   UNL A   1      38.882  23.780  26.124  1.00  0.00     0.016 A 
ATOM     26  C   UNL A   1      40.427  22.360  27.319  1.00  0.00     0.016 A 
ATOM     27  C   UNL A   1      39.605  24.909  26.494  1.00  0.00     0.010 A 
ATOM     28  C   UNL A   1      41.104  23.501  27.765  1.00  0.00     0.010 A 
ATOM     29  C   UNL A   1      40.716  24.785  27.335  1.00  0.00    -0.014 A 
BRANCH  29  30
ATOM     30  C   UNL A   1      41.493  25.982  27.754  1.00  0.00     0.031 A 
ATOM     31  C   UNL A   1      40.828  27.054  28.570  1.00  0.00     0.074 A 
ATOM     32  C   UNL A   1      42.778  26.131  27.379  1.00  0.00     0.049 A 
ATOM     33  N   UNL A   1      41.220  28.279  28.810  1.00  0.00    -0.248 NA
ATOM     34  C   UNL A   1      39.537  26.703  29.181  1.00  0.00     0.031 C 
ATOM     35  C   UNL A   1      43.564  25.147  26.636  1.00  0.00     0.029 A 
ATOM     36  N   UNL A   1      43.642  27.185  27.554  1.00  0.00    -0.354 N 
ATOM     37  C   UNL A   1      40.192  28.868  29.536  1.00  0.00     0.074 A 
ATOM     38  C   UNL A   1      39.167  27.862  29.710  1.00  0.00     0.031 C 
ATOM     39  C   UNL A   1      44.792  25.639  26.418  1.00  0.00     0.029 A 
ATOM     40  C   UNL A   1      44.849  27.006  26.922  1.00  0.00     0.049 A 
ATOM     41  H   UNL A   1      43.419  27.986  28.080  1.00  0.00     0.167 HD
ATOM     42  C   UNL A   1      40.115  30.138  30.002  1.00  0.00     0.037 A 
ATOM     43  C   UNL A   1      45.864  27.865  26.711  1.00  0.00     0.037 A 
ATOM     44  C   UNL A   1      41.168  31.111  29.875  1.00  0.00     0.049 A 
ATOM     45  C   UNL A   1      45.753  29.274  27.220  1.00  0.00     0.074 A 
ATOM     46  C   UNL A   1      41.207  32.410  30.350  1.00  0.00     0.029 A 
ATOM     47  N   UNL A   1      42.377  30.885  29.231  1.00  0.00    -0.354 N 
ATOM     48  N   UNL A   1      44.763  29.842  27.864  1.00  0.00    -0.248 NA
ATOM     49  C   UNL A   1      46.890  30.167  26.956  1.00  0.00     0.031 C 
ATOM     50  C   UNL A   1      42.422  32.983  29.961  1.00  0.00     0.029 A 
ATOM     51  C   UNL A   1      43.160  32.026  29.281  1.00  0.00     0.049 A 
ATOM     52  H   UNL A   1      42.638  30.037  28.802  1.00  0.00     0.167 HD
ATOM     53  C   UNL A   1      45.158  31.151  28.094  1.00  0.00     0.074 A 
ATOM     54  C   UNL A   1      46.485  31.292  27.530  1.00  0.00     0.031 C 
ATOM     55  C   UNL A   1      44.480  32.147  28.716  1.00  0.00     0.037 A 
BRANCH  42  56
ATOM     56  C   UNL A   1      38.826  30.562  30.645  1.00  0.00     0.064 A 
ATOM     57  C   UNL A   1      37.724  30.999  29.898  1.00  0.00     0.173 A 
ATOM     58  C   UNL A   1      38.694  30.515  32.042  1.00  0.00     0.173 A 
ATOM     59  F   UNL A   1      37.801  31.076  28.561  1.00  0.00    -0.203 F 
ATOM     60  C   UNL A   1      36.548  31.406  30.527  1.00  0.00     0.198 A 
ATOM     61  C   UNL A   1      37.508  30.894  32.666  1.00  0.00     0.198 A 
ATOM     62  F   UNL A   1      39.717  30.099  32.805  1.00  0.00    -0.203 F 
ATOM     63  F   UNL A   1      35.526  31.872  29.796  1.00  0.00    -0.200 F 
ATOM     64  C   UNL A   1      36.440  31.348  31.909  1.00  0.00     0.200 A 
ATOM     65  F   UNL A   1      37.403  30.826  34.000  1.00  0.00    -0.200 F 
ATOM     66  F   UNL A   1      35.309  31.741  32.512  1.00  0.00    -0.200 F 
ENDBRANCH  42  56
BRANCH  43  67
ATOM     67  C   UNL A   1      47.042  27.414  25.928  1.00  0.00     0.064 A 
ATOM     68  C   UNL A   1      47.109  27.612  24.543  1.00  0.00     0.173 A 
ATOM     69  C   UNL A   1      48.150  26.827  26.560  1.00  0.00     0.173 A 
ATOM     70  F   UNL A   1      46.066  28.147  23.892  1.00  0.00    -0.203 F 
ATOM     71  C   UNL A   1      48.242  27.245  23.820  1.00  0.00     0.198 A 
ATOM     72  C   UNL A   1      49.293  26.489  25.841  1.00  0.00     0.198 A 
ATOM     73  F   UNL A   1      48.135  26.620  27.884  1.00  0.00    -0.203 F 
ATOM     74  F   UNL A   1      48.275  27.427  22.493  1.00  0.00    -0.200 F 
ATOM     75  C   UNL A   1      49.337  26.696  24.470  1.00  0.00     0.200 A 
ATOM     76  F   UNL A   1      50.354  25.974  26.477  1.00  0.00    -0.200 F 
ATOM     77  F   UNL A   1      50.436  26.366  23.778  1.00  0.00    -0.200 F 
ENDBRANCH  43  67
BRANCH  55  78
ATOM     78  C   UNL A   1      45.172  33.470  28.848  1.00  0.00     0.064 A 
ATOM     79  C   UNL A   1      45.003  34.483  27.894  1.00  0.00     0.173 A 
ATOM     80  C   UNL A   1      45.963  33.747  29.972  1.00  0.00     0.173 A 
ATOM     81  F   UNL A   1      44.269  34.260  26.794  1.00  0.00    -0.203 F 
ATOM     82  C   UNL A   1      45.613  35.724  28.057  1.00  0.00     0.198 A 
ATOM     83  C   UNL A   1      46.551  34.995  30.144  1.00  0.00     0.198 A 
ATOM     84  F   UNL A   1      46.150  32.809  30.914  1.00  0.00    -0.203 F 
ATOM     85  F   UNL A   1      45.465  36.670  27.118  1.00  0.00    -0.200 F 
ATOM     86  C   UNL A   1      46.379  35.982  29.184  1.00  0.00     0.200 A 
ATOM     87  F   UNL A   1      47.282  35.246  31.239  1.00  0.00    -0.200 F 
ATOM     88  F   UNL A   1      46.955  37.181  29.345  1.00  0.00    -0.200 F 
ENDBRANCH  55  78
ENDBRANCH  29  30
ENDBRANCH  22  24
ENDBRANCH  21  22
ENDBRANCH  20  21
ENDBRANCH   1  20
TORSDOF 13
ENDMDL
MODEL 2
REMARK VINA RESULT:     -12.0      4.442      9.775
REMARK SMILES Cc1ncccc1Oc1ccc(C(=O)OCCOC(=O)c2ccc(-c3c4nc(c(-c5c(F)c(F)c(F)c(F)c5F)c5ccc([nH]5)c(-c5c(F)c(F)c(F)c(F)c5F)c5nc(c(-c6c(F)c(F)c(F)c(F)c6F)c6ccc3[nH]6)C=C5)C=C4)cc2)cc1Cl
REMARK SMILES IDX 16 1 15 2 13 3 14 4 12 5 9 6 10 7 85 8 11 9 84 10 86 11 8 12
REMARK SMILES IDX 7 13 1 14 2 15 3 16 4 17 6 18 5 19 17 20 18 21 19 22 20 23
REMARK SMILES IDX 21 24 22 25 83 26 23 27 82 28 24 29 25 30 26 31 76 32 27 33
REMARK SMILES IDX 81 34 75 35 77 36 28 37 80 38 74 39 73 40 29 42 61 43 41 44
REMARK SMILES IDX 60 45 42 46 45 47 59 48 78 49 43 50 44 51 58 53 79 54 46 55
REMARK SMILES IDX 30 56 31 57 39 58 32 59 33 60 37 61 40 62 34 63 35 64 38 65
REMARK SMILES IDX 36 66 62 67 63 68 71 69 64 70 65 71 69 72 72 73 66 74 67 75
REMARK SMILES IDX 70 76 68 77 47 78 48 79 56 80 49 81 50 82 54 83 57 84 51 85
REMARK SMILES IDX 52 86 55 87 53 88
REMARK H PARENT 77 41 45 52
REMARK Flexibility Score: inf
ROOT
ATOM      1  C   UNL A   1      32.100  29.331  24.967  1.00  0.00     0.275 C 
ENDROOT
BRANCH   1   2
ATOM      2  O   UNL A   1      31.099  28.306  25.126  1.00  0.00    -0.458 OA
BRANCH   2   3
ATOM      3  C   UNL A   1      31.411  27.319  25.995  1.00  0.00     0.338 C 
ATOM      4  O   UNL A   1      31.037  27.227  27.155  1.00  0.00    -0.246 OA
BRANCH   3   5
ATOM      5  C   UNL A   1      32.255  26.281  25.356  1.00  0.00     0.061 A 
ATOM      6  C   UNL A   1      34.114  24.617  24.132  1.00  0.00     0.146 A 
ATOM      7  C   UNL A   1      34.270  24.931  25.480  1.00  0.00     0.049 A 
ATOM      8  C   UNL A   1      32.960  25.003  23.437  1.00  0.00     0.084 A 
ATOM      9  C   UNL A   1      33.364  25.802  26.073  1.00  0.00     0.019 A 
ATOM     10  C   UNL A   1      32.026  25.840  24.048  1.00  0.00     0.040 A 
ATOM     11  Cl  UNL A   1      32.715  24.548  21.791  1.00  0.00    -0.080 Cl
BRANCH   6  12
ATOM     12  O   UNL A   1      35.120  23.929  23.518  1.00  0.00    -0.454 OA
BRANCH  12  13
ATOM     13  C   UNL A   1      35.518  22.706  24.026  1.00  0.00     0.148 A 
ATOM     14  C   UNL A   1      33.291  21.405  24.285  1.00  0.00     0.071 C 
ATOM     15  C   UNL A   1      34.776  21.573  24.401  1.00  0.00     0.080 A 
ATOM     16  N   UNL A   1      35.373  20.462  24.921  1.00  0.00    -0.258 NA
ATOM     17  C   UNL A   1      36.711  20.457  25.075  1.00  0.00     0.111 A 
ATOM     18  C   UNL A   1      36.910  22.644  24.185  1.00  0.00     0.050 A 
ATOM     19  C   UNL A   1      37.519  21.512  24.716  1.00  0.00     0.024 A 
ENDBRANCH  12  13
ENDBRANCH   6  12
ENDBRANCH   3   5
ENDBRANCH   2   3
ENDBRANCH   1   2
BRANCH   1  20
ATOM     20  C   UNL A   1      31.805  30.528  25.870  1.00  0.00     0.275 C 
BRANCH  20  21
ATOM     21  O   UNL A   1      32.619  30.493  27.057  1.00  0.00    -0.458 OA
BRANCH  21  22
ATOM     22  C   UNL A   1      33.265  31.643  27.351  1.00  0.00     0.338 C 
ATOM     23  O   UNL A   1      32.844  32.783  27.264  1.00  0.00    -0.246 OA
BRANCH  22  24
ATOM     24  C   UNL A   1      34.605  31.334  27.869  1.00  0.00     0.060 A 
ATOM     25  C   UNL A   1      34.876  30.035  28.291  1.00  0.00     0.016 A 
ATOM     26  C   UNL A   1      35.540  32.345  28.063  1.00  0.00     0.016 A 
ATOM     27  C   UNL A   1      36.049  29.745  28.978  1.00  0.00     0.010 A 
ATOM     28  C   UNL A   1      36.760  32.037  28.676  1.00  0.00     0.010 A 
ATOM     29  C   UNL A   1      37.017  30.740  29.164  1.00  0.00    -0.014 A 
BRANCH  29  30
ATOM     30  C   UNL A   1      38.285  30.446  29.882  1.00  0.00     0.031 A 
ATOM     31  C   UNL A   1      39.285  29.504  29.274  1.00  0.00     0.074 A 
ATOM     32  C   UNL A   1      38.530  30.989  31.090  1.00  0.00     0.049 A 
ATOM     33  N   UNL A   1      40.307  28.905  29.829  1.00  0.00    -0.248 NA
ATOM     34  C   UNL A   1      39.095  29.180  27.852  1.00  0.00     0.031 C 
ATOM     35  C   UNL A   1      37.675  31.961  31.772  1.00  0.00     0.029 A 
ATOM     36  N   UNL A   1      39.564  30.779  31.969  1.00  0.00    -0.354 N 
ATOM     37  C   UNL A   1      40.837  28.078  28.848  1.00  0.00     0.074 A 
ATOM     38  C   UNL A   1      40.033  28.262  27.659  1.00  0.00     0.031 C 
ATOM     39  C   UNL A   1      38.217  32.263  32.961  1.00  0.00     0.029 A 
ATOM     40  C   UNL A   1      39.403  31.440  33.164  1.00  0.00     0.049 A 
ATOM     41  H   UNL A   1      40.343  30.214  31.764  1.00  0.00     0.167 HD
ATOM     42  C   UNL A   1      41.893  27.233  28.943  1.00  0.00     0.037 A 
ATOM     43  C   UNL A   1      40.090  31.346  34.317  1.00  0.00     0.037 A 
ATOM     44  C   UNL A   1      42.721  27.103  30.113  1.00  0.00     0.049 A 
ATOM     45  C   UNL A   1      41.246  30.392  34.409  1.00  0.00     0.074 A 
ATOM     46  C   UNL A   1      43.840  26.310  30.296  1.00  0.00     0.029 A 
ATOM     47  N   UNL A   1      42.524  27.796  31.299  1.00  0.00    -0.354 N 
ATOM     48  N   UNL A   1      41.716  29.577  33.498  1.00  0.00    -0.248 NA
ATOM     49  C   UNL A   1      41.955  30.330  35.694  1.00  0.00     0.031 C 
ATOM     50  C   UNL A   1      44.296  26.493  31.606  1.00  0.00     0.029 A 
ATOM     51  C   UNL A   1      43.489  27.434  32.224  1.00  0.00     0.049 A 
ATOM     52  H   UNL A   1      41.803  28.449  31.459  1.00  0.00     0.167 HD
ATOM     53  C   UNL A   1      42.781  28.913  34.089  1.00  0.00     0.074 A 
ATOM     54  C   UNL A   1      42.895  29.429  35.438  1.00  0.00     0.031 C 
ATOM     55  C   UNL A   1      43.589  27.961  33.562  1.00  0.00     0.037 A 
BRANCH  42  56
ATOM     56  C   UNL A   1      42.177  26.345  27.766  1.00  0.00     0.064 A 
ATOM     57  C   UNL A   1      41.474  25.154  27.538  1.00  0.00     0.173 A 
ATOM     58  C   UNL A   1      43.170  26.708  26.841  1.00  0.00     0.173 A 
ATOM     59  F   UNL A   1      40.525  24.755  28.397  1.00  0.00    -0.203 F 
ATOM     60  C   UNL A   1      41.777  24.342  26.446  1.00  0.00     0.198 A 
ATOM     61  C   UNL A   1      43.450  25.909  25.736  1.00  0.00     0.198 A 
ATOM     62  F   UNL A   1      43.869  27.841  27.009  1.00  0.00    -0.203 F 
ATOM     63  F   UNL A   1      41.129  23.181  26.278  1.00  0.00    -0.200 F 
ATOM     64  C   UNL A   1      42.761  24.722  25.545  1.00  0.00     0.200 A 
ATOM     65  F   UNL A   1      44.392  26.285  24.860  1.00  0.00    -0.200 F 
ATOM     66  F   UNL A   1      43.051  23.939  24.496  1.00  0.00    -0.200 F 
ENDBRANCH  42  56
BRANCH  43  67
ATOM     67  C   UNL A   1      39.648  32.144  35.489  1.00  0.00     0.064 A 
ATOM     68  C   UNL A   1      40.105  33.453  35.686  1.00  0.00     0.173 A 
ATOM     69  C   UNL A   1      38.715  31.632  36.403  1.00  0.00     0.173 A 
ATOM     70  F   UNL A   1      41.015  33.978  34.852  1.00  0.00    -0.203 F 
ATOM     71  C   UNL A   1      39.640  34.222  36.751  1.00  0.00     0.198 A 
ATOM     72  C   UNL A   1      38.229  32.411  37.450  1.00  0.00     0.198 A 
ATOM     73  F   UNL A   1      38.246  30.384  36.255  1.00  0.00    -0.203 F 
ATOM     74  F   UNL A   1      40.107  35.466  36.930  1.00  0.00    -0.200 F 
ATOM     75  C   UNL A   1      38.694  33.706  37.624  1.00  0.00     0.200 A 
ATOM     76  F   UNL A   1      37.302  31.913  38.280  1.00  0.00    -0.200 F 
ATOM     77  F   UNL A   1      38.230  34.455  38.633  1.00  0.00    -0.200 F 
ENDBRANCH  43  67
BRANCH  55  78
ATOM     78  C   UNL A   1      44.689  27.435  34.433  1.00  0.00     0.064 A 
ATOM     79  C   UNL A   1      44.517  26.287  35.219  1.00  0.00     0.173 A 
ATOM     80  C   UNL A   1      45.948  28.053  34.434  1.00  0.00     0.173 A 
ATOM     81  F   UNL A   1      43.326  25.671  35.262  1.00  0.00    -0.203 F 
ATOM     82  C   UNL A   1      45.565  25.783  35.985  1.00  0.00     0.198 A 
ATOM     83  C   UNL A   1      47.000  27.533  35.182  1.00  0.00     0.198 A 
ATOM     84  F   UNL A   1      46.162  29.153  33.695  1.00  0.00    -0.203 F 
ATOM     85  F   UNL A   1      45.371  24.701  36.753  1.00  0.00    -0.200 F 
ATOM     86  C   UNL A   1      46.806  26.400  35.959  1.00  0.00     0.200 A 
ATOM     87  F   UNL A   1      48.202  28.125  35.148  1.00  0.00    -0.200 F 
ATOM     88  F   UNL A   1      47.817  25.906  36.687  1.00  0.00    -0.200 F 
ENDBRANCH  55  78
ENDBRANCH  29  30
ENDBRANCH  22  24
ENDBRANCH  21  22
ENDBRANCH  20  21
ENDBRANCH   1  20
TORSDOF 13
ENDMDL
MODEL 3
REMARK VINA RESULT:     -12.0      4.301      9.756
REMARK SMILES Cc1ncccc1Oc1ccc(C(=O)OCCOC(=O)c2ccc(-c3c4nc(c(-c5c(F)c(F)c(F)c(F)c5F)c5ccc([nH]5)c(-c5c(F)c(F)c(F)c(F)c5F)c5nc(c(-c6c(F)c(F)c(F)c(F)c6F)c6ccc3[nH]6)C=C5)C=C4)cc2)cc1Cl
REMARK SMILES IDX 16 1 15 2 13 3 14 4 12 5 9 6 10 7 85 8 11 9 84 10 86 11 8 12
REMARK SMILES IDX 7 13 1 14 2 15 3 16 4 17 6 18 5 19 17 20 18 21 19 22 20 23
REMARK SMILES IDX 21 24 22 25 83 26 23 27 82 28 24 29 25 30 26 31 76 32 27 33
REMARK SMILES IDX 81 34 75 35 77 36 28 37 80 38 74 39 73 40 29 42 61 43 41 44
REMARK SMILES IDX 60 45 42 46 45 47 59 48 78 49 43 50 44 51 58 53 79 54 46 55
REMARK SMILES IDX 30 56 31 57 39 58 32 59 33 60 37 61 40 62 34 63 35 64 38 65
REMARK SMILES IDX 36 66 62 67 63 68 71 69 64 70 65 71 69 72 72 73 66 74 67 75
REMARK SMILES IDX 70 76 68 77 47 78 48 79 56 80 49 81 50 82 54 83 57 84 51 85
REMARK SMILES IDX 52 86 55 87 53 88
REMARK H PARENT 77 41 45 52
REMARK Flexibility Score: inf
ROOT
ATOM      1  C   UNL A   1      31.101  29.371  24.394  1.00  0.00     0.275 C 
ENDROOT
BRANCH   1   2
ATOM      2  O   UNL A   1      32.107  28.626  23.679  1.00  0.00    -0.458 OA
BRANCH   2   3
ATOM      3  C   UNL A   1      31.771  27.357  23.357  1.00  0.00     0.338 C 
ATOM      4  O   UNL A   1      31.174  26.996  22.354  1.00  0.00    -0.246 OA
BRANCH   3   5
ATOM      5  C   UNL A   1      32.265  26.392  24.369  1.00  0.00     0.061 A 
ATOM      6  C   UNL A   1      33.443  24.463  25.985  1.00  0.00     0.146 A 
ATOM      7  C   UNL A   1      34.124  25.654  25.745  1.00  0.00     0.049 A 
ATOM      8  C   UNL A   1      32.122  24.295  25.550  1.00  0.00     0.084 A 
ATOM      9  C   UNL A   1      33.551  26.594  24.897  1.00  0.00     0.019 A 
ATOM     10  C   UNL A   1      31.528  25.261  24.737  1.00  0.00     0.040 A 
ATOM     11  Cl  UNL A   1      31.238  22.860  25.915  1.00  0.00    -0.080 Cl
BRANCH   6  12
ATOM     12  O   UNL A   1      34.107  23.474  26.651  1.00  0.00    -0.454 OA
BRANCH  12  13
ATOM     13  C   UNL A   1      35.119  22.782  26.011  1.00  0.00     0.148 A 
ATOM     14  C   UNL A   1      33.910  20.710  25.030  1.00  0.00     0.071 C 
ATOM     15  C   UNL A   1      35.107  21.567  25.306  1.00  0.00     0.080 A 
ATOM     16  N   UNL A   1      36.245  21.035  24.772  1.00  0.00    -0.258 NA
ATOM     17  C   UNL A   1      37.406  21.699  24.926  1.00  0.00     0.111 A 
ATOM     18  C   UNL A   1      36.349  23.447  26.126  1.00  0.00     0.050 A 
ATOM     19  C   UNL A   1      37.508  22.905  25.583  1.00  0.00     0.024 A 
ENDBRANCH  12  13
ENDBRANCH   6  12
ENDBRANCH   3   5
ENDBRANCH   2   3
ENDBRANCH   1   2
BRANCH   1  20
ATOM     20  C   UNL A   1      31.531  29.625  25.838  1.00  0.00     0.275 C 
BRANCH  20  21
ATOM     21  O   UNL A   1      32.888  30.106  25.895  1.00  0.00    -0.458 OA
BRANCH  21  22
ATOM     22  C   UNL A   1      33.128  31.054  26.827  1.00  0.00     0.338 C 
ATOM     23  O   UNL A   1      32.385  31.946  27.199  1.00  0.00    -0.246 OA
BRANCH  22  24
ATOM     24  C   UNL A   1      34.458  30.840  27.413  1.00  0.00     0.060 A 
ATOM     25  C   UNL A   1      34.829  29.548  27.776  1.00  0.00     0.016 A 
ATOM     26  C   UNL A   1      35.277  31.920  27.726  1.00  0.00     0.016 A 
ATOM     27  C   UNL A   1      35.982  29.326  28.521  1.00  0.00     0.010 A 
ATOM     28  C   UNL A   1      36.483  31.689  28.398  1.00  0.00     0.010 A 
ATOM     29  C   UNL A   1      36.835  30.393  28.826  1.00  0.00    -0.014 A 
BRANCH  29  30
ATOM     30  C   UNL A   1      38.080  30.174  29.608  1.00  0.00     0.031 A 
ATOM     31  C   UNL A   1      39.157  29.282  29.061  1.00  0.00     0.074 A 
ATOM     32  C   UNL A   1      38.238  30.741  30.819  1.00  0.00     0.049 A 
ATOM     33  N   UNL A   1      40.181  28.743  29.671  1.00  0.00    -0.248 NA
ATOM     34  C   UNL A   1      39.054  28.934  27.635  1.00  0.00     0.031 C 
ATOM     35  C   UNL A   1      37.301  31.673  31.448  1.00  0.00     0.029 A 
ATOM     36  N   UNL A   1      39.238  30.596  31.750  1.00  0.00    -0.354 N 
ATOM     37  C   UNL A   1      40.801  27.936  28.726  1.00  0.00     0.074 A 
ATOM     38  C   UNL A   1      40.047  28.066  27.498  1.00  0.00     0.031 C 
ATOM     39  C   UNL A   1      37.767  32.015  32.658  1.00  0.00     0.029 A 
ATOM     40  C   UNL A   1      38.984  31.258  32.927  1.00  0.00     0.049 A 
ATOM     41  H   UNL A   1      40.054  30.070  31.589  1.00  0.00     0.167 HD
ATOM     42  C   UNL A   1      41.894  27.149  28.882  1.00  0.00     0.037 A 
ATOM     43  C   UNL A   1      39.618  31.212  34.114  1.00  0.00     0.037 A 
ATOM     44  C   UNL A   1      42.670  27.075  30.092  1.00  0.00     0.049 A 
ATOM     45  C   UNL A   1      40.817  30.321  34.272  1.00  0.00     0.074 A 
ATOM     46  C   UNL A   1      43.819  26.345  30.338  1.00  0.00     0.029 A 
ATOM     47  N   UNL A   1      42.380  27.768  31.259  1.00  0.00    -0.354 N 
ATOM     48  N   UNL A   1      41.374  29.524  33.394  1.00  0.00    -0.248 NA
ATOM     49  C   UNL A   1      41.466  30.310  35.591  1.00  0.00     0.031 C 
ATOM     50  C   UNL A   1      44.201  26.564  31.666  1.00  0.00     0.029 A 
ATOM     51  C   UNL A   1      43.317  27.467  32.234  1.00  0.00     0.049 A 
ATOM     52  H   UNL A   1      41.619  28.383  31.376  1.00  0.00     0.167 HD
ATOM     53  C   UNL A   1      42.441  28.924  34.044  1.00  0.00     0.074 A 
ATOM     54  C   UNL A   1      42.463  29.458  35.391  1.00  0.00     0.031 C 
ATOM     55  C   UNL A   1      43.323  28.011  33.568  1.00  0.00     0.037 A 
BRANCH  42  56
ATOM     56  C   UNL A   1      42.281  26.267  27.731  1.00  0.00     0.064 A 
ATOM     57  C   UNL A   1      43.296  26.614  26.828  1.00  0.00     0.173 A 
ATOM     58  C   UNL A   1      41.625  25.040  27.540  1.00  0.00     0.173 A 
ATOM     59  F   UNL A   1      43.944  27.781  26.957  1.00  0.00    -0.203 F 
ATOM     60  C   UNL A   1      43.617  25.781  25.758  1.00  0.00     0.198 A 
ATOM     61  C   UNL A   1      41.969  24.197  26.487  1.00  0.00     0.198 A 
ATOM     62  F   UNL A   1      40.651  24.656  28.379  1.00  0.00    -0.203 F 
ATOM     63  F   UNL A   1      44.553  26.158  24.875  1.00  0.00    -0.200 F 
ATOM     64  C   UNL A   1      42.957  24.572  25.591  1.00  0.00     0.200 A 
ATOM     65  F   UNL A   1      41.338  23.024  26.335  1.00  0.00    -0.200 F 
ATOM     66  F   UNL A   1      43.267  23.774  24.560  1.00  0.00    -0.200 F 
ENDBRANCH  42  56
BRANCH  43  67
ATOM     67  C   UNL A   1      39.079  31.996  35.253  1.00  0.00     0.064 A 
ATOM     68  C   UNL A   1      38.305  31.388  36.249  1.00  0.00     0.173 A 
ATOM     69  C   UNL A   1      39.376  33.361  35.397  1.00  0.00     0.173 A 
ATOM     70  F   UNL A   1      37.975  30.092  36.142  1.00  0.00    -0.203 F 
ATOM     71  C   UNL A   1      37.853  32.113  37.349  1.00  0.00     0.198 A 
ATOM     72  C   UNL A   1      38.949  34.077  36.512  1.00  0.00     0.198 A 
ATOM     73  F   UNL A   1      40.117  33.988  34.471  1.00  0.00    -0.203 F 
ATOM     74  F   UNL A   1      37.097  31.514  38.280  1.00  0.00    -0.200 F 
ATOM     75  C   UNL A   1      38.186  33.453  37.487  1.00  0.00     0.200 A 
ATOM     76  F   UNL A   1      39.288  35.367  36.648  1.00  0.00    -0.200 F 
ATOM     77  F   UNL A   1      37.771  34.143  38.558  1.00  0.00    -0.200 F 
ENDBRANCH  43  67
BRANCH  55  78
ATOM     78  C   UNL A   1      44.407  27.553  34.498  1.00  0.00     0.064 A 
ATOM     79  C   UNL A   1      44.267  26.391  35.269  1.00  0.00     0.173 A 
ATOM     80  C   UNL A   1      45.620  28.252  34.569  1.00  0.00     0.173 A 
ATOM     81  F   UNL A   1      43.118  25.699  35.245  1.00  0.00    -0.203 F 
ATOM     82  C   UNL A   1      45.302  25.952  36.090  1.00  0.00     0.198 A 
ATOM     83  C   UNL A   1      46.661  27.797  35.372  1.00  0.00     0.198 A 
ATOM     84  F   UNL A   1      45.802  29.368  33.846  1.00  0.00    -0.203 F 
ATOM     85  F   UNL A   1      45.138  24.856  36.844  1.00  0.00    -0.200 F 
ATOM     86  C   UNL A   1      46.500  26.650  36.135  1.00  0.00     0.200 A 
ATOM     87  F   UNL A   1      47.822  28.467  35.407  1.00  0.00    -0.200 F 
ATOM     88  F   UNL A   1      47.500  26.218  36.917  1.00  0.00    -0.200 F 
ENDBRANCH  55  78
ENDBRANCH  29  30
ENDBRANCH  22  24
ENDBRANCH  21  22
ENDBRANCH  20  21
ENDBRANCH   1  20
TORSDOF 13
ENDMDL
