MODEL 1
REMARK VINA RESULT:     -11.8      0.000      0.000
REMARK SMILES Cc1nonc1C[C@@]1(C(=O)OCCOC(=O)c2ccc(-c3c4nc(c(-c5c(F)c(F)c(F)c(F)c5F)c5ccc([nH]5)c(-c5c(F)c(F)c(F)c(F)c5F)c5nc(c(-c6c(F)c(F)c(F)c(F)c6F)c6ccc3[nH]6)C=C5)C=C4)cc2)CCC[NH2+]C1
REMARK SMILES IDX 12 1 11 2 9 3 10 4 8 5 80 6 84 7 81 8 83 9 82 10 7 13 6 14
REMARK SMILES IDX 1 15 2 16 3 17 4 18 5 19 13 20 14 21 15 22 16 23 17 24 18 25
REMARK SMILES IDX 79 26 19 27 78 28 20 29 21 30 22 31 72 32 23 33 77 34 71 35
REMARK SMILES IDX 73 36 24 37 76 38 70 39 69 40 25 42 57 43 37 44 56 45 38 46
REMARK SMILES IDX 41 47 55 48 74 49 39 50 40 51 54 53 75 54 42 55 26 56 27 57
REMARK SMILES IDX 35 58 28 59 29 60 33 61 36 62 30 63 31 64 34 65 32 66 58 67
REMARK SMILES IDX 59 68 67 69 60 70 61 71 65 72 68 73 62 74 63 75 66 76 64 77
REMARK SMILES IDX 43 78 44 79 52 80 45 81 46 82 50 83 53 84 47 85 48 86 51 87
REMARK SMILES IDX 49 88
REMARK H PARENT 83 11 83 12 73 41 41 52
REMARK Flexibility Score: inf
ROOT
ATOM      1  C   UNL A   1      31.454  29.191  24.656  1.00  0.00     0.274 C 
ENDROOT
BRANCH   1   2
ATOM      2  O   UNL A   1      31.654  27.869  25.211  1.00  0.00    -0.461 OA
BRANCH   2   3
ATOM      3  C   UNL A   1      31.206  26.830  24.444  1.00  0.00     0.318 C 
ATOM      4  O   UNL A   1      30.055  26.752  24.030  1.00  0.00    -0.251 OA
BRANCH   3   5
ATOM      5  C   UNL A   1      32.281  25.743  24.227  1.00  0.00     0.122 C 
ATOM      6  C   UNL A   1      33.624  26.306  23.689  1.00  0.00     0.031 C 
ATOM      7  C   UNL A   1      31.720  24.780  23.148  1.00  0.00     0.279 C 
ATOM      8  C   UNL A   1      33.527  26.880  22.275  1.00  0.00     0.063 C 
ATOM      9  N   UNL A   1      31.609  25.373  21.814  1.00  0.00    -0.345 N 
ATOM     10  C   UNL A   1      32.879  25.892  21.313  1.00  0.00     0.260 C 
ATOM     11  H   UNL A   1      31.271  24.659  21.167  1.00  0.00     0.346 HD
ATOM     12  H   UNL A   1      30.962  26.160  21.883  1.00  0.00     0.346 HD
BRANCH   5  13
ATOM     13  C   UNL A   1      32.531  24.914  25.521  1.00  0.00     0.086 C 
BRANCH  13  14
ATOM     14  C   UNL A   1      31.391  24.152  26.126  1.00  0.00     0.109 A 
ATOM     15  C   UNL A   1      31.857  21.697  25.341  1.00  0.00     0.073 C 
ATOM     16  C   UNL A   1      31.123  22.768  26.043  1.00  0.00     0.105 A 
ATOM     17  N   UNL A   1      30.019  22.484  26.737  1.00  0.00    -0.055 NA
ATOM     18  O   UNL A   1      29.592  23.700  27.250  1.00  0.00    -0.244 OA
ATOM     19  N   UNL A   1      30.446  24.727  26.871  1.00  0.00    -0.055 NA
ENDBRANCH  13  14
ENDBRANCH   5  13
ENDBRANCH   3   5
ENDBRANCH   2   3
ENDBRANCH   1   2
BRANCH   1  20
ATOM     20  C   UNL A   1      31.553  30.285  25.727  1.00  0.00     0.275 C 
BRANCH  20  21
ATOM     21  O   UNL A   1      32.928  30.464  26.085  1.00  0.00    -0.458 OA
BRANCH  21  22
ATOM     22  C   UNL A   1      33.208  31.449  26.968  1.00  0.00     0.338 C 
ATOM     23  O   UNL A   1      32.519  32.421  27.220  1.00  0.00    -0.246 OA
BRANCH  22  24
ATOM     24  C   UNL A   1      34.509  31.145  27.621  1.00  0.00     0.060 A 
ATOM     25  C   UNL A   1      34.807  29.835  27.996  1.00  0.00     0.016 A 
ATOM     26  C   UNL A   1      35.412  32.159  27.935  1.00  0.00     0.016 A 
ATOM     27  C   UNL A   1      35.958  29.528  28.714  1.00  0.00     0.010 A 
ATOM     28  C   UNL A   1      36.609  31.846  28.599  1.00  0.00     0.010 A 
ATOM     29  C   UNL A   1      36.883  30.529  29.015  1.00  0.00    -0.014 A 
BRANCH  29  30
ATOM     30  C   UNL A   1      38.075  30.193  29.837  1.00  0.00     0.031 A 
ATOM     31  C   UNL A   1      39.165  29.338  29.253  1.00  0.00     0.074 A 
ATOM     32  C   UNL A   1      38.232  30.707  31.074  1.00  0.00     0.049 A 
ATOM     33  N   UNL A   1      40.217  28.818  29.835  1.00  0.00    -0.248 NA
ATOM     34  C   UNL A   1      39.055  29.026  27.820  1.00  0.00     0.031 C 
ATOM     35  C   UNL A   1      37.305  31.626  31.736  1.00  0.00     0.029 A 
ATOM     36  N   UNL A   1      39.243  30.540  31.991  1.00  0.00    -0.354 N 
ATOM     37  C   UNL A   1      40.863  28.077  28.854  1.00  0.00     0.074 A 
ATOM     38  C   UNL A   1      40.088  28.215  27.640  1.00  0.00     0.031 C 
ATOM     39  C   UNL A   1      37.802  31.962  32.937  1.00  0.00     0.029 A 
ATOM     40  C   UNL A   1      39.043  31.227  33.162  1.00  0.00     0.049 A 
ATOM     41  H   UNL A   1      40.034  29.980  31.822  1.00  0.00     0.167 HD
ATOM     42  C   UNL A   1      41.998  27.347  28.959  1.00  0.00     0.037 A 
ATOM     43  C   UNL A   1      39.760  31.237  34.302  1.00  0.00     0.037 A 
ATOM     44  C   UNL A   1      42.798  27.246  30.152  1.00  0.00     0.049 A 
ATOM     45  C   UNL A   1      40.992  30.381  34.408  1.00  0.00     0.074 A 
ATOM     46  C   UNL A   1      43.950  26.507  30.361  1.00  0.00     0.029 A 
ATOM     47  N   UNL A   1      42.537  27.922  31.333  1.00  0.00    -0.354 N 
ATOM     48  N   UNL A   1      41.549  29.613  33.504  1.00  0.00    -0.248 NA
ATOM     49  C   UNL A   1      41.687  30.379  35.704  1.00  0.00     0.031 C 
ATOM     50  C   UNL A   1      44.372  26.717  31.679  1.00  0.00     0.029 A 
ATOM     51  C   UNL A   1      43.505  27.617  32.277  1.00  0.00     0.049 A 
ATOM     52  H   UNL A   1      41.777  28.530  31.480  1.00  0.00     0.167 HD
ATOM     53  C   UNL A   1      42.661  29.048  34.114  1.00  0.00     0.074 A 
ATOM     54  C   UNL A   1      42.716  29.581  35.459  1.00  0.00     0.031 C 
ATOM     55  C   UNL A   1      43.551  28.160  33.610  1.00  0.00     0.037 A 
BRANCH  42  56
ATOM     56  C   UNL A   1      42.417  26.557  27.755  1.00  0.00     0.064 A 
ATOM     57  C   UNL A   1      43.347  27.052  26.831  1.00  0.00     0.173 A 
ATOM     58  C   UNL A   1      41.885  25.278  27.535  1.00  0.00     0.173 A 
ATOM     59  F   UNL A   1      43.869  28.277  26.987  1.00  0.00    -0.203 F 
ATOM     60  C   UNL A   1      43.712  26.302  25.714  1.00  0.00     0.198 A 
ATOM     61  C   UNL A   1      42.270  24.521  26.432  1.00  0.00     0.198 A 
ATOM     62  F   UNL A   1      40.993  24.759  28.393  1.00  0.00    -0.203 F 
ATOM     63  F   UNL A   1      44.569  26.811  24.818  1.00  0.00    -0.200 F 
ATOM     64  C   UNL A   1      43.178  25.036  25.519  1.00  0.00     0.200 A 
ATOM     65  F   UNL A   1      41.761  23.294  26.251  1.00  0.00    -0.200 F 
ATOM     66  F   UNL A   1      43.533  24.316  24.447  1.00  0.00    -0.200 F 
ENDBRANCH  42  56
BRANCH  43  67
ATOM     67  C   UNL A   1      39.312  32.055  35.460  1.00  0.00     0.064 A 
ATOM     68  C   UNL A   1      38.496  31.507  36.460  1.00  0.00     0.173 A 
ATOM     69  C   UNL A   1      39.664  33.408  35.574  1.00  0.00     0.173 A 
ATOM     70  F   UNL A   1      38.106  30.226  36.377  1.00  0.00    -0.203 F 
ATOM     71  C   UNL A   1      38.036  32.286  37.520  1.00  0.00     0.198 A 
ATOM     72  C   UNL A   1      39.228  34.178  36.650  1.00  0.00     0.198 A 
ATOM     73  F   UNL A   1      40.436  33.983  34.640  1.00  0.00    -0.203 F 
ATOM     74  F   UNL A   1      37.216  31.750  38.434  1.00  0.00    -0.200 F 
ATOM     75  C   UNL A   1      38.408  33.618  37.618  1.00  0.00     0.200 A 
ATOM     76  F   UNL A   1      39.597  35.462  36.746  1.00  0.00    -0.200 F 
ATOM     77  F   UNL A   1      37.965  34.366  38.638  1.00  0.00    -0.200 F 
ENDBRANCH  43  67
BRANCH  55  78
ATOM     78  C   UNL A   1      44.677  27.736  34.507  1.00  0.00     0.064 A 
ATOM     79  C   UNL A   1      45.898  28.426  34.529  1.00  0.00     0.173 A 
ATOM     80  C   UNL A   1      44.529  26.634  35.361  1.00  0.00     0.173 A 
ATOM     81  F   UNL A   1      46.094  29.477  33.717  1.00  0.00    -0.203 F 
ATOM     82  C   UNL A   1      46.941  28.008  35.350  1.00  0.00     0.198 A 
ATOM     83  C   UNL A   1      45.565  26.234  36.201  1.00  0.00     0.198 A 
ATOM     84  F   UNL A   1      43.380  25.942  35.382  1.00  0.00    -0.203 F 
ATOM     85  F   UNL A   1      48.117  28.650  35.316  1.00  0.00    -0.200 F 
ATOM     86  C   UNL A   1      46.773  26.916  36.189  1.00  0.00     0.200 A 
ATOM     87  F   UNL A   1      45.399  25.185  37.017  1.00  0.00    -0.200 F 
ATOM     88  F   UNL A   1      47.779  26.514  36.976  1.00  0.00    -0.200 F 
ENDBRANCH  55  78
ENDBRANCH  29  30
ENDBRANCH  22  24
ENDBRANCH  21  22
ENDBRANCH  20  21
ENDBRANCH   1  20
TORSDOF 13
ENDMDL
MODEL 2
REMARK VINA RESULT:     -11.6      4.500      9.770
REMARK SMILES Cc1nonc1C[C@@]1(C(=O)OCCOC(=O)c2ccc(-c3c4nc(c(-c5c(F)c(F)c(F)c(F)c5F)c5ccc([nH]5)c(-c5c(F)c(F)c(F)c(F)c5F)c5nc(c(-c6c(F)c(F)c(F)c(F)c6F)c6ccc3[nH]6)C=C5)C=C4)cc2)CCC[NH2+]C1
REMARK SMILES IDX 12 1 11 2 9 3 10 4 8 5 80 6 84 7 81 8 83 9 82 10 7 13 6 14
REMARK SMILES IDX 1 15 2 16 3 17 4 18 5 19 13 20 14 21 15 22 16 23 17 24 18 25
REMARK SMILES IDX 79 26 19 27 78 28 20 29 21 30 22 31 72 32 23 33 77 34 71 35
REMARK SMILES IDX 73 36 24 37 76 38 70 39 69 40 25 42 57 43 37 44 56 45 38 46
REMARK SMILES IDX 41 47 55 48 74 49 39 50 40 51 54 53 75 54 42 55 26 56 27 57
REMARK SMILES IDX 35 58 28 59 29 60 33 61 36 62 30 63 31 64 34 65 32 66 58 67
REMARK SMILES IDX 59 68 67 69 60 70 61 71 65 72 68 73 62 74 63 75 66 76 64 77
REMARK SMILES IDX 43 78 44 79 52 80 45 81 46 82 50 83 53 84 47 85 48 86 51 87
REMARK SMILES IDX 49 88
REMARK H PARENT 83 11 83 12 73 41 41 52
REMARK Flexibility Score: inf
ROOT
ATOM      1  C   UNL A   1      35.249  20.794  25.180  1.00  0.00     0.274 C 
ENDROOT
BRANCH   1   2
ATOM      2  O   UNL A   1      34.801  21.945  24.426  1.00  0.00    -0.461 OA
BRANCH   2   3
ATOM      3  C   UNL A   1      33.466  22.227  24.511  1.00  0.00     0.318 C 
ATOM      4  O   UNL A   1      32.593  21.438  24.166  1.00  0.00    -0.251 OA
BRANCH   3   5
ATOM      5  C   UNL A   1      33.189  23.660  25.013  1.00  0.00     0.122 C 
ATOM      6  C   UNL A   1      33.185  23.779  26.560  1.00  0.00     0.031 C 
ATOM      7  C   UNL A   1      31.767  24.032  24.518  1.00  0.00     0.279 C 
ATOM      8  C   UNL A   1      32.034  23.030  27.231  1.00  0.00     0.063 C 
ATOM      9  N   UNL A   1      30.692  23.271  25.157  1.00  0.00    -0.345 N 
ATOM     10  C   UNL A   1      30.691  23.396  26.612  1.00  0.00     0.260 C 
ATOM     11  H   UNL A   1      29.797  23.610  24.801  1.00  0.00     0.346 HD
ATOM     12  H   UNL A   1      30.841  22.286  24.934  1.00  0.00     0.346 HD
BRANCH   5  13
ATOM     13  C   UNL A   1      34.189  24.686  24.402  1.00  0.00     0.086 C 
BRANCH  13  14
ATOM     14  C   UNL A   1      33.854  25.334  23.094  1.00  0.00     0.109 A 
ATOM     15  C   UNL A   1      33.546  27.850  23.756  1.00  0.00     0.073 C 
ATOM     16  C   UNL A   1      33.589  26.698  22.835  1.00  0.00     0.105 A 
ATOM     17  N   UNL A   1      33.352  26.868  21.533  1.00  0.00    -0.055 NA
ATOM     18  O   UNL A   1      33.465  25.602  20.977  1.00  0.00    -0.244 OA
ATOM     19  N   UNL A   1      33.777  24.660  21.946  1.00  0.00    -0.055 NA
ENDBRANCH  13  14
ENDBRANCH   5  13
ENDBRANCH   3   5
ENDBRANCH   2   3
ENDBRANCH   1   2
BRANCH   1  20
ATOM     20  C   UNL A   1      36.748  20.530  24.987  1.00  0.00     0.275 C 
BRANCH  20  21
ATOM     21  O   UNL A   1      37.491  21.490  25.746  1.00  0.00    -0.458 OA
BRANCH  21  22
ATOM     22  C   UNL A   1      38.784  21.194  26.010  1.00  0.00     0.338 C 
ATOM     23  O   UNL A   1      39.331  20.116  25.861  1.00  0.00    -0.246 OA
BRANCH  22  24
ATOM     24  C   UNL A   1      39.462  22.424  26.499  1.00  0.00     0.060 A 
ATOM     25  C   UNL A   1      39.005  23.677  26.090  1.00  0.00     0.016 A 
ATOM     26  C   UNL A   1      40.598  22.349  27.304  1.00  0.00     0.016 A 
ATOM     27  C   UNL A   1      39.682  24.843  26.430  1.00  0.00     0.010 A 
ATOM     28  C   UNL A   1      41.247  23.527  27.706  1.00  0.00     0.010 A 
ATOM     29  C   UNL A   1      40.807  24.787  27.253  1.00  0.00    -0.014 A 
BRANCH  29  30
ATOM     30  C   UNL A   1      41.553  26.037  27.552  1.00  0.00     0.031 A 
ATOM     31  C   UNL A   1      40.926  27.087  28.427  1.00  0.00     0.074 A 
ATOM     32  C   UNL A   1      42.816  26.213  27.113  1.00  0.00     0.049 A 
ATOM     33  N   UNL A   1      41.342  28.298  28.703  1.00  0.00    -0.248 NA
ATOM     34  C   UNL A   1      39.660  26.723  29.081  1.00  0.00     0.031 C 
ATOM     35  C   UNL A   1      43.587  25.243  26.334  1.00  0.00     0.029 A 
ATOM     36  N   UNL A   1      43.680  27.269  27.276  1.00  0.00    -0.354 N 
ATOM     37  C   UNL A   1      40.365  28.856  29.516  1.00  0.00     0.074 A 
ATOM     38  C   UNL A   1      39.337  27.853  29.693  1.00  0.00     0.031 C 
ATOM     39  C   UNL A   1      44.816  25.737  26.112  1.00  0.00     0.029 A 
ATOM     40  C   UNL A   1      44.897  27.084  26.667  1.00  0.00     0.049 A 
ATOM     41  H   UNL A   1      43.449  28.080  27.783  1.00  0.00     0.167 HD
ATOM     42  C   UNL A   1      40.329  30.094  30.063  1.00  0.00     0.037 A 
ATOM     43  C   UNL A   1      45.945  27.919  26.538  1.00  0.00     0.037 A 
ATOM     44  C   UNL A   1      41.372  31.077  29.930  1.00  0.00     0.049 A 
ATOM     45  C   UNL A   1      45.862  29.306  27.116  1.00  0.00     0.074 A 
ATOM     46  C   UNL A   1      41.413  32.369  30.426  1.00  0.00     0.029 A 
ATOM     47  N   UNL A   1      42.570  30.868  29.264  1.00  0.00    -0.354 N 
ATOM     48  N   UNL A   1      44.897  29.858  27.810  1.00  0.00    -0.248 NA
ATOM     49  C   UNL A   1      47.009  30.193  26.875  1.00  0.00     0.031 C 
ATOM     50  C   UNL A   1      42.626  32.950  30.039  1.00  0.00     0.029 A 
ATOM     51  C   UNL A   1      43.357  32.007  29.336  1.00  0.00     0.049 A 
ATOM     52  H   UNL A   1      42.826  30.033  28.810  1.00  0.00     0.167 HD
ATOM     53  C   UNL A   1      45.323  31.148  28.099  1.00  0.00     0.074 A 
ATOM     54  C   UNL A   1      46.646  31.288  27.527  1.00  0.00     0.031 C 
ATOM     55  C   UNL A   1      44.674  32.131  28.767  1.00  0.00     0.037 A 
BRANCH  42  56
ATOM     56  C   UNL A   1      39.092  30.470  30.823  1.00  0.00     0.064 A 
ATOM     57  C   UNL A   1      38.989  30.290  32.208  1.00  0.00     0.173 A 
ATOM     58  C   UNL A   1      38.000  31.035  30.147  1.00  0.00     0.173 A 
ATOM     59  F   UNL A   1      39.999  29.738  32.895  1.00  0.00    -0.203 F 
ATOM     60  C   UNL A   1      37.824  30.639  32.889  1.00  0.00     0.198 A 
ATOM     61  C   UNL A   1      36.847  31.405  30.833  1.00  0.00     0.198 A 
ATOM     62  F   UNL A   1      38.051  31.230  28.821  1.00  0.00    -0.203 F 
ATOM     63  F   UNL A   1      37.727  30.417  34.207  1.00  0.00    -0.200 F 
ATOM     64  C   UNL A   1      36.757  31.201  32.202  1.00  0.00     0.200 A 
ATOM     65  F   UNL A   1      35.821  31.958  30.170  1.00  0.00    -0.200 F 
ATOM     66  F   UNL A   1      35.639  31.539  32.859  1.00  0.00    -0.200 F 
ENDBRANCH  42  56
BRANCH  43  67
ATOM     67  C   UNL A   1      47.158  27.488  25.793  1.00  0.00     0.064 A 
ATOM     68  C   UNL A   1      48.245  26.904  26.458  1.00  0.00     0.173 A 
ATOM     69  C   UNL A   1      47.266  27.678  24.408  1.00  0.00     0.173 A 
ATOM     70  F   UNL A   1      48.201  26.730  27.788  1.00  0.00    -0.203 F 
ATOM     71  C   UNL A   1      49.401  26.543  25.769  1.00  0.00     0.198 A 
ATOM     72  C   UNL A   1      48.410  27.290  23.714  1.00  0.00     0.198 A 
ATOM     73  F   UNL A   1      46.258  28.240  23.725  1.00  0.00    -0.203 F 
ATOM     74  F   UNL A   1      50.445  26.034  26.437  1.00  0.00    -0.200 F 
ATOM     75  C   UNL A   1      49.479  26.729  24.397  1.00  0.00     0.200 A 
ATOM     76  F   UNL A   1      48.479  27.464  22.388  1.00  0.00    -0.200 F 
ATOM     77  F   UNL A   1      50.591  26.382  23.735  1.00  0.00    -0.200 F 
ENDBRANCH  43  67
BRANCH  55  78
ATOM     78  C   UNL A   1      45.400  33.432  28.945  1.00  0.00     0.064 A 
ATOM     79  C   UNL A   1      45.274  34.476  28.017  1.00  0.00     0.173 A 
ATOM     80  C   UNL A   1      46.224  33.640  30.060  1.00  0.00     0.173 A 
ATOM     81  F   UNL A   1      44.510  34.319  26.923  1.00  0.00    -0.203 F 
ATOM     82  C   UNL A   1      45.970  35.670  28.183  1.00  0.00     0.198 A 
ATOM     83  C   UNL A   1      46.899  34.845  30.238  1.00  0.00     0.198 A 
ATOM     84  F   UNL A   1      46.376  32.675  30.979  1.00  0.00    -0.203 F 
ATOM     85  F   UNL A   1      45.876  36.634  27.256  1.00  0.00    -0.200 F 
ATOM     86  C   UNL A   1      46.779  35.855  29.295  1.00  0.00     0.200 A 
ATOM     87  F   UNL A   1      47.673  35.026  31.316  1.00  0.00    -0.200 F 
ATOM     88  F   UNL A   1      47.452  37.003  29.451  1.00  0.00    -0.200 F 
ENDBRANCH  55  78
ENDBRANCH  29  30
ENDBRANCH  22  24
ENDBRANCH  21  22
ENDBRANCH  20  21
ENDBRANCH   1  20
TORSDOF 13
ENDMDL
MODEL 3
REMARK VINA RESULT:     -11.5      4.654      9.784
REMARK SMILES Cc1nonc1C[C@@]1(C(=O)OCCOC(=O)c2ccc(-c3c4nc(c(-c5c(F)c(F)c(F)c(F)c5F)c5ccc([nH]5)c(-c5c(F)c(F)c(F)c(F)c5F)c5nc(c(-c6c(F)c(F)c(F)c(F)c6F)c6ccc3[nH]6)C=C5)C=C4)cc2)CCC[NH2+]C1
REMARK SMILES IDX 12 1 11 2 9 3 10 4 8 5 80 6 84 7 81 8 83 9 82 10 7 13 6 14
REMARK SMILES IDX 1 15 2 16 3 17 4 18 5 19 13 20 14 21 15 22 16 23 17 24 18 25
REMARK SMILES IDX 79 26 19 27 78 28 20 29 21 30 22 31 72 32 23 33 77 34 71 35
REMARK SMILES IDX 73 36 24 37 76 38 70 39 69 40 25 42 57 43 37 44 56 45 38 46
REMARK SMILES IDX 41 47 55 48 74 49 39 50 40 51 54 53 75 54 42 55 26 56 27 57
REMARK SMILES IDX 35 58 28 59 29 60 33 61 36 62 30 63 31 64 34 65 32 66 58 67
REMARK SMILES IDX 59 68 67 69 60 70 61 71 65 72 68 73 62 74 63 75 66 76 64 77
REMARK SMILES IDX 43 78 44 79 52 80 45 81 46 82 50 83 53 84 47 85 48 86 51 87
REMARK SMILES IDX 49 88
REMARK H PARENT 83 11 83 12 73 41 41 52
REMARK Flexibility Score: inf
ROOT
ATOM      1  C   UNL A   1      36.759  22.387  23.744  1.00  0.00     0.274 C 
ENDROOT
BRANCH   1   2
ATOM      2  O   UNL A   1      35.353  22.684  23.567  1.00  0.00    -0.461 OA
BRANCH   2   3
ATOM      3  C   UNL A   1      34.798  23.508  24.507  1.00  0.00     0.318 C 
ATOM      4  O   UNL A   1      35.440  24.360  25.111  1.00  0.00    -0.251 OA
BRANCH   3   5
ATOM      5  C   UNL A   1      33.311  23.194  24.772  1.00  0.00     0.122 C 
ATOM      6  C   UNL A   1      32.987  22.974  26.274  1.00  0.00     0.031 C 
ATOM      7  C   UNL A   1      33.004  21.864  24.034  1.00  0.00     0.279 C 
ATOM      8  C   UNL A   1      33.639  21.724  26.865  1.00  0.00     0.063 C 
ATOM      9  N   UNL A   1      33.671  20.694  24.607  1.00  0.00    -0.345 N 
ATOM     10  C   UNL A   1      33.354  20.490  26.018  1.00  0.00     0.260 C 
ATOM     11  H   UNL A   1      33.380  19.866  24.085  1.00  0.00     0.346 HD
ATOM     12  H   UNL A   1      34.677  20.852  24.538  1.00  0.00     0.346 HD
BRANCH   5  13
ATOM     13  C   UNL A   1      32.377  24.293  24.182  1.00  0.00     0.086 C 
BRANCH  13  14
ATOM     14  C   UNL A   1      32.823  25.046  22.966  1.00  0.00     0.109 A 
ATOM     15  C   UNL A   1      33.637  27.327  23.964  1.00  0.00     0.073 C 
ATOM     16  C   UNL A   1      33.370  26.346  22.894  1.00  0.00     0.105 A 
ATOM     17  N   UNL A   1      33.655  26.643  21.625  1.00  0.00    -0.055 NA
ATOM     18  O   UNL A   1      33.278  25.522  20.899  1.00  0.00    -0.244 OA
ATOM     19  N   UNL A   1      32.767  24.538  21.734  1.00  0.00    -0.055 NA
ENDBRANCH  13  14
ENDBRANCH   5  13
ENDBRANCH   3   5
ENDBRANCH   2   3
ENDBRANCH   1   2
BRANCH   1  20
ATOM     20  C   UNL A   1      36.981  21.220  24.714  1.00  0.00     0.275 C 
BRANCH  20  21
ATOM     21  O   UNL A   1      37.566  21.722  25.922  1.00  0.00    -0.458 OA
BRANCH  21  22
ATOM     22  C   UNL A   1      38.875  21.453  26.126  1.00  0.00     0.338 C 
ATOM     23  O   UNL A   1      39.440  20.390  25.940  1.00  0.00    -0.246 OA
BRANCH  22  24
ATOM     24  C   UNL A   1      39.545  22.692  26.602  1.00  0.00     0.060 A 
ATOM     25  C   UNL A   1      39.120  23.935  26.132  1.00  0.00     0.016 A 
ATOM     26  C   UNL A   1      40.645  22.634  27.457  1.00  0.00     0.016 A 
ATOM     27  C   UNL A   1      39.794  25.106  26.461  1.00  0.00     0.010 A 
ATOM     28  C   UNL A   1      41.289  23.820  27.847  1.00  0.00     0.010 A 
ATOM     29  C   UNL A   1      40.882  25.067  27.333  1.00  0.00    -0.014 A 
BRANCH  29  30
ATOM     30  C   UNL A   1      41.629  26.320  27.622  1.00  0.00     0.031 A 
ATOM     31  C   UNL A   1      40.989  27.391  28.460  1.00  0.00     0.074 A 
ATOM     32  C   UNL A   1      42.902  26.479  27.207  1.00  0.00     0.049 A 
ATOM     33  N   UNL A   1      41.406  28.606  28.718  1.00  0.00    -0.248 NA
ATOM     34  C   UNL A   1      39.706  27.048  29.093  1.00  0.00     0.031 C 
ATOM     35  C   UNL A   1      43.685  25.489  26.466  1.00  0.00     0.029 A 
ATOM     36  N   UNL A   1      43.769  27.534  27.366  1.00  0.00    -0.354 N 
ATOM     37  C   UNL A   1      40.414  29.187  29.497  1.00  0.00     0.074 A 
ATOM     38  C   UNL A   1      39.377  28.194  29.672  1.00  0.00     0.031 C 
ATOM     39  C   UNL A   1      44.921  25.971  26.261  1.00  0.00     0.029 A 
ATOM     40  C   UNL A   1      44.997  27.330  26.788  1.00  0.00     0.049 A 
ATOM     41  H   UNL A   1      43.530  28.358  27.850  1.00  0.00     0.167 HD
ATOM     42  C   UNL A   1      40.373  30.437  30.016  1.00  0.00     0.037 A 
ATOM     43  C   UNL A   1      46.053  28.157  26.665  1.00  0.00     0.037 A 
ATOM     44  C   UNL A   1      41.424  31.411  29.885  1.00  0.00     0.049 A 
ATOM     45  C   UNL A   1      45.965  29.556  27.210  1.00  0.00     0.074 A 
ATOM     46  C   UNL A   1      41.461  32.713  30.354  1.00  0.00     0.029 A 
ATOM     47  N   UNL A   1      42.635  31.181  29.251  1.00  0.00    -0.354 N 
ATOM     48  N   UNL A   1      44.988  30.128  27.871  1.00  0.00    -0.248 NA
ATOM     49  C   UNL A   1      47.122  30.432  26.976  1.00  0.00     0.031 C 
ATOM     50  C   UNL A   1      42.686  33.280  29.982  1.00  0.00     0.029 A 
ATOM     51  C   UNL A   1      43.426  32.318  29.315  1.00  0.00     0.049 A 
ATOM     52  H   UNL A   1      42.896  30.335  28.821  1.00  0.00     0.167 HD
ATOM     53  C   UNL A   1      45.415  31.421  28.141  1.00  0.00     0.074 A 
ATOM     54  C   UNL A   1      46.751  31.543  27.596  1.00  0.00     0.031 C 
ATOM     55  C   UNL A   1      44.756  32.422  28.773  1.00  0.00     0.037 A 
BRANCH  42  56
ATOM     56  C   UNL A   1      39.122  30.836  30.740  1.00  0.00     0.064 A 
ATOM     57  C   UNL A   1      38.025  31.395  30.071  1.00  0.00     0.173 A 
ATOM     58  C   UNL A   1      39.019  30.638  32.125  1.00  0.00     0.173 A 
ATOM     59  F   UNL A   1      38.082  31.621  28.751  1.00  0.00    -0.203 F 
ATOM     60  C   UNL A   1      36.877  31.767  30.769  1.00  0.00     0.198 A 
ATOM     61  C   UNL A   1      37.862  30.987  32.815  1.00  0.00     0.198 A 
ATOM     62  F   UNL A   1      40.042  30.103  32.810  1.00  0.00    -0.203 F 
ATOM     63  F   UNL A   1      35.856  32.343  30.119  1.00  0.00    -0.200 F 
ATOM     64  C   UNL A   1      36.795  31.557  32.138  1.00  0.00     0.200 A 
ATOM     65  F   UNL A   1      37.780  30.774  34.137  1.00  0.00    -0.200 F 
ATOM     66  F   UNL A   1      35.689  31.912  32.806  1.00  0.00    -0.200 F 
ENDBRANCH  42  56
BRANCH  43  67
ATOM     67  C   UNL A   1      47.279  27.703  25.957  1.00  0.00     0.064 A 
ATOM     68  C   UNL A   1      47.366  27.751  24.558  1.00  0.00     0.173 A 
ATOM     69  C   UNL A   1      48.375  27.183  26.661  1.00  0.00     0.173 A 
ATOM     70  F   UNL A   1      46.331  28.211  23.839  1.00  0.00    -0.203 F 
ATOM     71  C   UNL A   1      48.496  27.282  23.891  1.00  0.00     0.198 A 
ATOM     72  C   UNL A   1      49.516  26.741  25.995  1.00  0.00     0.198 A 
ATOM     73  F   UNL A   1      48.339  27.107  27.999  1.00  0.00    -0.203 F 
ATOM     74  F   UNL A   1      48.532  27.292  22.551  1.00  0.00    -0.200 F 
ATOM     75  C   UNL A   1      49.572  26.784  24.610  1.00  0.00     0.200 A 
ATOM     76  F   UNL A   1      50.557  26.269  26.693  1.00  0.00    -0.200 F 
ATOM     77  F   UNL A   1      50.658  26.333  23.967  1.00  0.00    -0.200 F 
ENDBRANCH  43  67
BRANCH  55  78
ATOM     78  C   UNL A   1      45.486  33.723  28.939  1.00  0.00     0.064 A 
ATOM     79  C   UNL A   1      45.382  34.749  27.988  1.00  0.00     0.173 A 
ATOM     80  C   UNL A   1      46.290  33.949  30.065  1.00  0.00     0.173 A 
ATOM     81  F   UNL A   1      44.638  34.574  26.884  1.00  0.00    -0.203 F 
ATOM     82  C   UNL A   1      46.082  35.943  28.144  1.00  0.00     0.198 A 
ATOM     83  C   UNL A   1      46.968  35.154  30.231  1.00  0.00     0.198 A 
ATOM     84  F   UNL A   1      46.420  33.002  31.006  1.00  0.00    -0.203 F 
ATOM     85  F   UNL A   1      46.010  36.888  27.197  1.00  0.00    -0.200 F 
ATOM     86  C   UNL A   1      46.871  36.146  29.267  1.00  0.00     0.200 A 
ATOM     87  F   UNL A   1      47.723  35.352  31.320  1.00  0.00    -0.200 F 
ATOM     88  F   UNL A   1      47.546  37.294  29.413  1.00  0.00    -0.200 F 
ENDBRANCH  55  78
ENDBRANCH  29  30
ENDBRANCH  22  24
ENDBRANCH  21  22
ENDBRANCH  20  21
ENDBRANCH   1  20
TORSDOF 13
ENDMDL
