MODEL 1
REMARK VINA RESULT:     -13.0      0.000      0.000
REMARK SMILES O=C(OCCOC(=O)[C@H]1Cc2ccc(Cl)cc2C[N@@H+]1Cc1ccc(Cl)cc1)c1ccc(-c2c3nc(c(-c4c(F)c(F)c(F)c(F)c4F)c4ccc([nH]4)c(-c4c(F)c(F)c(F)c(F)c4F)c4nc(c(-c5c(F)c(F)c(F)c(F)c5F)c5ccc2[nH]5)C=C4)C=C3)cc1
REMARK SMILES IDX 4 1 3 2 2 3 1 4 28 5 29 6 90 7 30 8 89 9 31 10 32 11 33 12
REMARK SMILES IDX 83 13 34 14 88 15 82 16 84 17 35 18 87 19 81 20 80 21 36 23
REMARK SMILES IDX 68 24 48 25 67 26 49 27 52 28 66 29 85 30 50 31 51 32 65 34
REMARK SMILES IDX 86 35 53 36 37 37 38 38 46 39 39 40 40 41 44 42 47 43 41 44
REMARK SMILES IDX 42 45 45 46 43 47 69 48 70 49 78 50 71 51 72 52 76 53 79 54
REMARK SMILES IDX 73 55 74 56 77 57 75 58 54 59 55 60 63 61 56 62 57 63 61 64
REMARK SMILES IDX 64 65 58 66 59 67 62 68 60 69 5 70 6 71 7 72 8 73 9 74 10 75
REMARK SMILES IDX 19 76 11 77 18 78 12 80 17 81 13 82 16 83 14 84 15 85 20 86
REMARK SMILES IDX 21 87 22 88 27 89 23 90 26 91 24 92 25 93
REMARK H PARENT 84 22 52 33 19 79
REMARK Flexibility Score: inf
ROOT
ATOM      1  C   UNL A   1      31.779  29.838  26.124  1.00  0.00     0.275 C 
ENDROOT
BRANCH   1   2
ATOM      2  O   UNL A   1      32.919  30.704  26.109  1.00  0.00    -0.458 OA
BRANCH   2   3
ATOM      3  C   UNL A   1      33.440  31.367  27.170  1.00  0.00     0.338 C 
ATOM      4  O   UNL A   1      32.872  32.369  27.597  1.00  0.00    -0.246 OA
BRANCH   3   5
ATOM      5  C   UNL A   1      34.829  31.080  27.640  1.00  0.00     0.060 A 
ATOM      6  C   UNL A   1      35.116  29.729  27.829  1.00  0.00     0.016 A 
ATOM      7  C   UNL A   1      35.819  32.011  27.982  1.00  0.00     0.016 A 
ATOM      8  C   UNL A   1      36.250  29.357  28.550  1.00  0.00     0.010 A 
ATOM      9  C   UNL A   1      36.970  31.628  28.696  1.00  0.00     0.010 A 
ATOM     10  C   UNL A   1      37.168  30.299  29.060  1.00  0.00    -0.014 A 
BRANCH  10  11
ATOM     11  C   UNL A   1      38.321  29.836  29.893  1.00  0.00     0.031 A 
ATOM     12  C   UNL A   1      39.408  28.903  29.393  1.00  0.00     0.074 A 
ATOM     13  C   UNL A   1      38.440  30.368  31.126  1.00  0.00     0.049 A 
ATOM     14  N   UNL A   1      40.510  28.525  30.005  1.00  0.00    -0.248 NA
ATOM     15  C   UNL A   1      39.260  28.315  28.054  1.00  0.00     0.031 C 
ATOM     16  C   UNL A   1      37.460  31.269  31.735  1.00  0.00     0.029 A 
ATOM     17  N   UNL A   1      39.435  30.279  32.064  1.00  0.00    -0.354 N 
ATOM     18  C   UNL A   1      41.195  27.701  29.117  1.00  0.00     0.074 A 
ATOM     19  C   UNL A   1      40.366  27.582  27.940  1.00  0.00     0.031 C 
ATOM     20  C   UNL A   1      37.950  31.739  32.884  1.00  0.00     0.029 A 
ATOM     21  C   UNL A   1      39.197  31.045  33.178  1.00  0.00     0.049 A 
ATOM     22  H   UNL A   1      40.239  29.722  31.952  1.00  0.00     0.167 HD
ATOM     23  C   UNL A   1      42.412  27.118  29.269  1.00  0.00     0.037 A 
ATOM     24  C   UNL A   1      39.854  31.144  34.346  1.00  0.00     0.037 A 
ATOM     25  C   UNL A   1      43.219  27.204  30.465  1.00  0.00     0.049 A 
ATOM     26  C   UNL A   1      41.090  30.331  34.556  1.00  0.00     0.074 A 
ATOM     27  C   UNL A   1      44.456  26.627  30.711  1.00  0.00     0.029 A 
ATOM     28  N   UNL A   1      42.861  27.878  31.621  1.00  0.00    -0.354 N 
ATOM     29  N   UNL A   1      41.730  29.578  33.698  1.00  0.00    -0.248 NA
ATOM     30  C   UNL A   1      41.675  30.351  35.901  1.00  0.00     0.031 C 
ATOM     31  C   UNL A   1      44.800  26.872  32.041  1.00  0.00     0.029 A 
ATOM     32  C   UNL A   1      43.814  27.662  32.606  1.00  0.00     0.049 A 
ATOM     33  H   UNL A   1      42.052  28.429  31.728  1.00  0.00     0.167 HD
ATOM     34  C   UNL A   1      42.793  29.032  34.396  1.00  0.00     0.074 A 
ATOM     35  C   UNL A   1      42.725  29.556  35.745  1.00  0.00     0.031 C 
ATOM     36  C   UNL A   1      43.735  28.168  33.952  1.00  0.00     0.037 A 
BRANCH  23  37
ATOM     37  C   UNL A   1      42.995  26.304  28.145  1.00  0.00     0.064 A 
ATOM     38  C   UNL A   1      42.585  24.982  27.917  1.00  0.00     0.173 A 
ATOM     39  C   UNL A   1      43.779  26.924  27.157  1.00  0.00     0.173 A 
ATOM     40  F   UNL A   1      41.831  24.341  28.822  1.00  0.00    -0.203 F 
ATOM     41  C   UNL A   1      42.917  24.321  26.734  1.00  0.00     0.198 A 
ATOM     42  C   UNL A   1      44.092  26.267  25.967  1.00  0.00     0.198 A 
ATOM     43  F   UNL A   1      44.178  28.195  27.313  1.00  0.00    -0.203 F 
ATOM     44  F   UNL A   1      42.496  23.065  26.528  1.00  0.00    -0.200 F 
ATOM     45  C   UNL A   1      43.653  24.970  25.753  1.00  0.00     0.200 A 
ATOM     46  F   UNL A   1      44.783  26.906  25.012  1.00  0.00    -0.200 F 
ATOM     47  F   UNL A   1      43.928  24.350  24.597  1.00  0.00    -0.200 F 
ENDBRANCH  23  37
BRANCH  24  48
ATOM     48  C   UNL A   1      39.270  31.991  35.416  1.00  0.00     0.064 A 
ATOM     49  C   UNL A   1      38.442  31.447  36.404  1.00  0.00     0.173 A 
ATOM     50  C   UNL A   1      39.630  33.345  35.532  1.00  0.00     0.173 A 
ATOM     51  F   UNL A   1      38.052  30.167  36.323  1.00  0.00    -0.203 F 
ATOM     52  C   UNL A   1      38.020  32.220  37.484  1.00  0.00     0.198 A 
ATOM     53  C   UNL A   1      39.247  34.100  36.634  1.00  0.00     0.198 A 
ATOM     54  F   UNL A   1      40.425  33.911  34.610  1.00  0.00    -0.203 F 
ATOM     55  F   UNL A   1      37.220  31.684  38.415  1.00  0.00    -0.200 F 
ATOM     56  C   UNL A   1      38.441  33.537  37.610  1.00  0.00     0.200 A 
ATOM     57  F   UNL A   1      39.689  35.358  36.766  1.00  0.00    -0.200 F 
ATOM     58  F   UNL A   1      38.076  34.262  38.676  1.00  0.00    -0.200 F 
ENDBRANCH  24  48
BRANCH  36  59
ATOM     59  C   UNL A   1      44.776  27.718  34.931  1.00  0.00     0.064 A 
ATOM     60  C   UNL A   1      45.947  28.461  35.139  1.00  0.00     0.173 A 
ATOM     61  C   UNL A   1      44.576  26.570  35.712  1.00  0.00     0.173 A 
ATOM     62  F   UNL A   1      46.190  29.558  34.405  1.00  0.00    -0.203 F 
ATOM     63  C   UNL A   1      46.887  28.063  36.085  1.00  0.00     0.198 A 
ATOM     64  C   UNL A   1      45.504  26.191  36.675  1.00  0.00     0.198 A 
ATOM     65  F   UNL A   1      43.468  25.830  35.555  1.00  0.00    -0.203 F 
ATOM     66  F   UNL A   1      48.016  28.768  36.244  1.00  0.00    -0.200 F 
ATOM     67  C   UNL A   1      46.661  26.934  36.859  1.00  0.00     0.200 A 
ATOM     68  F   UNL A   1      45.277  25.109  37.433  1.00  0.00    -0.200 F 
ATOM     69  F   UNL A   1      47.559  26.561  37.780  1.00  0.00    -0.200 F 
ENDBRANCH  36  59
ENDBRANCH  10  11
ENDBRANCH   3   5
ENDBRANCH   2   3
ENDBRANCH   1   2
BRANCH   1  70
ATOM     70  C   UNL A   1      31.804  28.739  27.195  1.00  0.00     0.274 C 
BRANCH  70  71
ATOM     71  O   UNL A   1      32.502  27.520  26.868  1.00  0.00    -0.458 OA
BRANCH  71  72
ATOM     72  C   UNL A   1      31.705  26.480  26.473  1.00  0.00     0.365 C 
ATOM     73  O   UNL A   1      30.531  26.367  26.819  1.00  0.00    -0.245 OA
BRANCH  72  74
ATOM     74  C   UNL A   1      32.420  25.440  25.572  1.00  0.00     0.300 C 
ATOM     75  C   UNL A   1      32.285  24.070  26.240  1.00  0.00     0.113 C 
ATOM     76  N   UNL A   1      31.943  25.489  24.152  1.00  0.00    -0.315 N 
ATOM     77  C   UNL A   1      32.434  22.865  25.353  1.00  0.00    -0.033 A 
ATOM     78  C   UNL A   1      32.551  24.395  23.367  1.00  0.00     0.300 C 
ATOM     79  H   UNL A   1      30.930  25.370  24.175  1.00  0.00     0.349 HD
ATOM     80  C   UNL A   1      32.482  21.573  25.901  1.00  0.00     0.006 A 
ATOM     81  C   UNL A   1      32.408  23.021  23.965  1.00  0.00     0.011 A 
ATOM     82  C   UNL A   1      32.433  20.448  25.077  1.00  0.00     0.021 A 
ATOM     83  C   UNL A   1      32.392  21.885  23.139  1.00  0.00     0.030 A 
ATOM     84  C   UNL A   1      32.373  20.609  23.697  1.00  0.00     0.041 A 
ATOM     85  Cl  UNL A   1      32.294  19.228  22.675  1.00  0.00    -0.084 Cl
BRANCH  76  86
ATOM     86  C   UNL A   1      32.216  26.805  23.498  1.00  0.00     0.300 C 
BRANCH  86  87
ATOM     87  C   UNL A   1      30.976  27.522  22.987  1.00  0.00     0.006 A 
ATOM     88  C   UNL A   1      31.082  28.764  22.343  1.00  0.00     0.011 A 
ATOM     89  C   UNL A   1      29.705  27.077  23.386  1.00  0.00     0.011 A 
ATOM     90  C   UNL A   1      29.992  29.634  22.313  1.00  0.00     0.021 A 
ATOM     91  C   UNL A   1      28.612  27.942  23.346  1.00  0.00     0.021 A 
ATOM     92  C   UNL A   1      28.774  29.234  22.853  1.00  0.00     0.041 A 
ATOM     93  Cl  UNL A   1      27.478  30.358  22.959  1.00  0.00    -0.084 Cl
ENDBRANCH  86  87
ENDBRANCH  76  86
ENDBRANCH  72  74
ENDBRANCH  71  72
ENDBRANCH  70  71
ENDBRANCH   1  70
TORSDOF 13
ENDMDL
MODEL 2
REMARK VINA RESULT:     -12.9      0.670      7.186
REMARK SMILES O=C(OCCOC(=O)[C@H]1Cc2ccc(Cl)cc2C[N@@H+]1Cc1ccc(Cl)cc1)c1ccc(-c2c3nc(c(-c4c(F)c(F)c(F)c(F)c4F)c4ccc([nH]4)c(-c4c(F)c(F)c(F)c(F)c4F)c4nc(c(-c5c(F)c(F)c(F)c(F)c5F)c5ccc2[nH]5)C=C4)C=C3)cc1
REMARK SMILES IDX 4 1 3 2 2 3 1 4 28 5 29 6 90 7 30 8 89 9 31 10 32 11 33 12
REMARK SMILES IDX 83 13 34 14 88 15 82 16 84 17 35 18 87 19 81 20 80 21 36 23
REMARK SMILES IDX 68 24 48 25 67 26 49 27 52 28 66 29 85 30 50 31 51 32 65 34
REMARK SMILES IDX 86 35 53 36 37 37 38 38 46 39 39 40 40 41 44 42 47 43 41 44
REMARK SMILES IDX 42 45 45 46 43 47 69 48 70 49 78 50 71 51 72 52 76 53 79 54
REMARK SMILES IDX 73 55 74 56 77 57 75 58 54 59 55 60 63 61 56 62 57 63 61 64
REMARK SMILES IDX 64 65 58 66 59 67 62 68 60 69 5 70 6 71 7 72 8 73 9 74 10 75
REMARK SMILES IDX 19 76 11 77 18 78 12 80 17 81 13 82 16 83 14 84 15 85 20 86
REMARK SMILES IDX 21 87 22 88 27 89 23 90 26 91 24 92 25 93
REMARK H PARENT 84 22 52 33 19 79
REMARK Flexibility Score: inf
ROOT
ATOM      1  C   UNL A   1      31.577  29.148  25.975  1.00  0.00     0.275 C 
ENDROOT
BRANCH   1   2
ATOM      2  O   UNL A   1      32.575  30.170  25.885  1.00  0.00    -0.458 OA
BRANCH   2   3
ATOM      3  C   UNL A   1      32.989  30.981  26.888  1.00  0.00     0.338 C 
ATOM      4  O   UNL A   1      32.290  31.934  27.225  1.00  0.00    -0.246 OA
BRANCH   3   5
ATOM      5  C   UNL A   1      34.396  30.919  27.387  1.00  0.00     0.060 A 
ATOM      6  C   UNL A   1      34.864  29.635  27.661  1.00  0.00     0.016 A 
ATOM      7  C   UNL A   1      35.242  31.996  27.681  1.00  0.00     0.016 A 
ATOM      8  C   UNL A   1      36.026  29.467  28.414  1.00  0.00     0.010 A 
ATOM      9  C   UNL A   1      36.423  31.820  28.426  1.00  0.00     0.010 A 
ATOM     10  C   UNL A   1      36.795  30.555  28.873  1.00  0.00    -0.014 A 
BRANCH  10  11
ATOM     11  C   UNL A   1      37.987  30.307  29.743  1.00  0.00     0.031 A 
ATOM     12  C   UNL A   1      38.133  30.845  31.154  1.00  0.00     0.074 A 
ATOM     13  C   UNL A   1      38.931  29.472  29.267  1.00  0.00     0.049 A 
ATOM     14  N   UNL A   1      39.081  30.598  32.033  1.00  0.00    -0.248 NA
ATOM     15  C   UNL A   1      37.105  31.769  31.657  1.00  0.00     0.031 C 
ATOM     16  C   UNL A   1      38.920  28.892  27.923  1.00  0.00     0.029 A 
ATOM     17  N   UNL A   1      40.043  28.926  29.853  1.00  0.00    -0.354 N 
ATOM     18  C   UNL A   1      38.743  31.294  33.189  1.00  0.00     0.074 A 
ATOM     19  C   UNL A   1      37.531  32.023  32.894  1.00  0.00     0.031 C 
ATOM     20  C   UNL A   1      39.900  27.991  27.825  1.00  0.00     0.029 A 
ATOM     21  C   UNL A   1      40.711  28.051  29.033  1.00  0.00     0.049 A 
ATOM     22  H   UNL A   1      40.335  29.140  30.769  1.00  0.00     0.167 HD
ATOM     23  C   UNL A   1      39.379  31.304  34.388  1.00  0.00     0.037 A 
ATOM     24  C   UNL A   1      41.883  27.409  29.184  1.00  0.00     0.037 A 
ATOM     25  C   UNL A   1      40.616  30.609  34.666  1.00  0.00     0.049 A 
ATOM     26  C   UNL A   1      42.659  27.600  30.445  1.00  0.00     0.074 A 
ATOM     27  C   UNL A   1      41.339  30.581  35.850  1.00  0.00     0.029 A 
ATOM     28  N   UNL A   1      41.327  29.851  33.751  1.00  0.00    -0.354 N 
ATOM     29  N   UNL A   1      42.312  28.243  31.531  1.00  0.00    -0.248 NA
ATOM     30  C   UNL A   1      44.002  27.010  30.492  1.00  0.00     0.031 C 
ATOM     31  C   UNL A   1      42.530  29.889  35.622  1.00  0.00     0.029 A 
ATOM     32  C   UNL A   1      42.518  29.422  34.319  1.00  0.00     0.049 A 
ATOM     33  H   UNL A   1      41.032  29.646  32.834  1.00  0.00     0.167 HD
ATOM     34  C   UNL A   1      43.391  28.139  32.392  1.00  0.00     0.074 A 
ATOM     35  C   UNL A   1      44.398  27.352  31.711  1.00  0.00     0.031 C 
ATOM     36  C   UNL A   1      43.528  28.656  33.635  1.00  0.00     0.037 A 
BRANCH  23  37
ATOM     37  C   UNL A   1      38.801  32.091  35.534  1.00  0.00     0.064 A 
ATOM     38  C   UNL A   1      38.121  31.454  36.583  1.00  0.00     0.173 A 
ATOM     39  C   UNL A   1      39.137  33.445  35.700  1.00  0.00     0.173 A 
ATOM     40  F   UNL A   1      37.780  30.161  36.483  1.00  0.00    -0.203 F 
ATOM     41  C   UNL A   1      37.822  32.135  37.763  1.00  0.00     0.198 A 
ATOM     42  C   UNL A   1      38.853  34.118  36.888  1.00  0.00     0.198 A 
ATOM     43  F   UNL A   1      39.808  34.096  34.738  1.00  0.00    -0.203 F 
ATOM     44  F   UNL A   1      37.192  31.501  38.761  1.00  0.00    -0.200 F 
ATOM     45  C   UNL A   1      38.204  33.460  37.922  1.00  0.00     0.200 A 
ATOM     46  F   UNL A   1      39.245  35.390  37.048  1.00  0.00    -0.200 F 
ATOM     47  F   UNL A   1      37.960  34.097  39.076  1.00  0.00    -0.200 F 
ENDBRANCH  23  37
BRANCH  24  48
ATOM     48  C   UNL A   1      42.400  26.607  28.046  1.00  0.00     0.064 A 
ATOM     49  C   UNL A   1      41.941  25.309  27.801  1.00  0.00     0.173 A 
ATOM     50  C   UNL A   1      43.284  27.179  27.114  1.00  0.00     0.173 A 
ATOM     51  F   UNL A   1      41.118  24.713  28.675  1.00  0.00    -0.203 F 
ATOM     52  C   UNL A   1      42.323  24.624  26.650  1.00  0.00     0.198 A 
ATOM     53  C   UNL A   1      43.626  26.512  25.943  1.00  0.00     0.198 A 
ATOM     54  F   UNL A   1      43.749  28.424  27.304  1.00  0.00    -0.203 F 
ATOM     55  F   UNL A   1      41.880  23.378  26.438  1.00  0.00    -0.200 F 
ATOM     56  C   UNL A   1      43.146  25.234  25.712  1.00  0.00     0.200 A 
ATOM     57  F   UNL A   1      44.389  27.123  25.027  1.00  0.00    -0.200 F 
ATOM     58  F   UNL A   1      43.470  24.592  24.582  1.00  0.00    -0.200 F 
ENDBRANCH  24  48
BRANCH  36  59
ATOM     59  C   UNL A   1      44.819  28.402  34.350  1.00  0.00     0.064 A 
ATOM     60  C   UNL A   1      45.872  29.326  34.297  1.00  0.00     0.173 A 
ATOM     61  C   UNL A   1      44.985  27.256  35.141  1.00  0.00     0.173 A 
ATOM     62  F   UNL A   1      45.766  30.429  33.541  1.00  0.00    -0.203 F 
ATOM     63  C   UNL A   1      47.052  29.105  35.003  1.00  0.00     0.198 A 
ATOM     64  C   UNL A   1      46.155  27.053  35.867  1.00  0.00     0.198 A 
ATOM     65  F   UNL A   1      44.004  26.346  35.229  1.00  0.00    -0.203 F 
ATOM     66  F   UNL A   1      48.059  29.984  34.913  1.00  0.00    -0.200 F 
ATOM     67  C   UNL A   1      47.189  27.975  35.795  1.00  0.00     0.200 A 
ATOM     68  F   UNL A   1      46.279  25.967  36.644  1.00  0.00    -0.200 F 
ATOM     69  F   UNL A   1      48.318  27.772  36.486  1.00  0.00    -0.200 F 
ENDBRANCH  36  59
ENDBRANCH  10  11
ENDBRANCH   3   5
ENDBRANCH   2   3
ENDBRANCH   1   2
BRANCH   1  70
ATOM     70  C   UNL A   1      31.745  28.167  27.144  1.00  0.00     0.274 C 
BRANCH  70  71
ATOM     71  O   UNL A   1      32.426  26.926  26.864  1.00  0.00    -0.458 OA
BRANCH  71  72
ATOM     72  C   UNL A   1      31.625  25.911  26.415  1.00  0.00     0.365 C 
ATOM     73  O   UNL A   1      30.448  25.791  26.746  1.00  0.00    -0.245 OA
BRANCH  72  74
ATOM     74  C   UNL A   1      32.341  24.909  25.473  1.00  0.00     0.300 C 
ATOM     75  C   UNL A   1      32.245  23.520  26.106  1.00  0.00     0.113 C 
ATOM     76  N   UNL A   1      31.835  24.986  24.064  1.00  0.00    -0.315 N 
ATOM     77  C   UNL A   1      32.398  22.341  25.184  1.00  0.00    -0.033 A 
ATOM     78  C   UNL A   1      32.448  23.925  23.239  1.00  0.00     0.300 C 
ATOM     79  H   UNL A   1      30.825  24.848  24.103  1.00  0.00     0.349 HD
ATOM     80  C   UNL A   1      32.481  21.036  25.697  1.00  0.00     0.006 A 
ATOM     81  C   UNL A   1      32.341  22.534  23.802  1.00  0.00     0.011 A 
ATOM     82  C   UNL A   1      32.435  19.933  24.844  1.00  0.00     0.021 A 
ATOM     83  C   UNL A   1      32.330  21.420  22.947  1.00  0.00     0.030 A 
ATOM     84  C   UNL A   1      32.345  20.129  23.471  1.00  0.00     0.041 A 
ATOM     85  Cl  UNL A   1      32.272  18.774  22.413  1.00  0.00    -0.084 Cl
BRANCH  76  86
ATOM     86  C   UNL A   1      32.071  26.324  23.440  1.00  0.00     0.300 C 
BRANCH  86  87
ATOM     87  C   UNL A   1      30.805  27.048  23.007  1.00  0.00     0.006 A 
ATOM     88  C   UNL A   1      30.876  28.300  22.380  1.00  0.00     0.011 A 
ATOM     89  C   UNL A   1      29.557  26.593  23.465  1.00  0.00     0.011 A 
ATOM     90  C   UNL A   1      29.785  29.168  22.421  1.00  0.00     0.021 A 
ATOM     91  C   UNL A   1      28.463  27.457  23.496  1.00  0.00     0.021 A 
ATOM     92  C   UNL A   1      28.597  28.757  23.017  1.00  0.00     0.041 A 
ATOM     93  Cl  UNL A   1      27.307  29.876  23.210  1.00  0.00    -0.084 Cl
ENDBRANCH  86  87
ENDBRANCH  76  86
ENDBRANCH  72  74
ENDBRANCH  71  72
ENDBRANCH  70  71
ENDBRANCH   1  70
TORSDOF 13
ENDMDL
MODEL 3
REMARK VINA RESULT:     -12.8      4.402      9.905
REMARK SMILES O=C(OCCOC(=O)[C@H]1Cc2ccc(Cl)cc2C[N@@H+]1Cc1ccc(Cl)cc1)c1ccc(-c2c3nc(c(-c4c(F)c(F)c(F)c(F)c4F)c4ccc([nH]4)c(-c4c(F)c(F)c(F)c(F)c4F)c4nc(c(-c5c(F)c(F)c(F)c(F)c5F)c5ccc2[nH]5)C=C4)C=C3)cc1
REMARK SMILES IDX 4 1 3 2 2 3 1 4 28 5 29 6 90 7 30 8 89 9 31 10 32 11 33 12
REMARK SMILES IDX 83 13 34 14 88 15 82 16 84 17 35 18 87 19 81 20 80 21 36 23
REMARK SMILES IDX 68 24 48 25 67 26 49 27 52 28 66 29 85 30 50 31 51 32 65 34
REMARK SMILES IDX 86 35 53 36 37 37 38 38 46 39 39 40 40 41 44 42 47 43 41 44
REMARK SMILES IDX 42 45 45 46 43 47 69 48 70 49 78 50 71 51 72 52 76 53 79 54
REMARK SMILES IDX 73 55 74 56 77 57 75 58 54 59 55 60 63 61 56 62 57 63 61 64
REMARK SMILES IDX 64 65 58 66 59 67 62 68 60 69 5 70 6 71 7 72 8 73 9 74 10 75
REMARK SMILES IDX 19 76 11 77 18 78 12 80 17 81 13 82 16 83 14 84 15 85 20 86
REMARK SMILES IDX 21 87 22 88 27 89 23 90 26 91 24 92 25 93
REMARK H PARENT 84 22 52 33 19 79
REMARK Flexibility Score: inf
ROOT
ATOM      1  C   UNL A   1      37.127  21.359  24.398  1.00  0.00     0.275 C 
ENDROOT
BRANCH   1   2
ATOM      2  O   UNL A   1      37.652  21.451  25.726  1.00  0.00    -0.458 OA
BRANCH   2   3
ATOM      3  C   UNL A   1      38.961  21.520  26.072  1.00  0.00     0.338 C 
ATOM      4  O   UNL A   1      39.648  20.502  26.054  1.00  0.00    -0.246 OA
BRANCH   3   5
ATOM      5  C   UNL A   1      39.507  22.736  26.748  1.00  0.00     0.060 A 
ATOM      6  C   UNL A   1      38.931  23.939  26.343  1.00  0.00     0.016 A 
ATOM      7  C   UNL A   1      40.567  22.796  27.661  1.00  0.00     0.016 A 
ATOM      8  C   UNL A   1      39.554  25.146  26.660  1.00  0.00     0.010 A 
ATOM      9  C   UNL A   1      41.183  24.018  27.991  1.00  0.00     0.010 A 
ATOM     10  C   UNL A   1      40.732  25.211  27.433  1.00  0.00    -0.014 A 
BRANCH  10  11
ATOM     11  C   UNL A   1      41.393  26.532  27.669  1.00  0.00     0.031 A 
ATOM     12  C   UNL A   1      40.764  27.667  28.454  1.00  0.00     0.074 A 
ATOM     13  C   UNL A   1      42.662  26.669  27.236  1.00  0.00     0.049 A 
ATOM     14  N   UNL A   1      41.299  28.817  28.807  1.00  0.00    -0.248 NA
ATOM     15  C   UNL A   1      39.373  27.514  28.907  1.00  0.00     0.031 C 
ATOM     16  C   UNL A   1      43.384  25.661  26.458  1.00  0.00     0.029 A 
ATOM     17  N   UNL A   1      43.585  27.666  27.420  1.00  0.00    -0.354 N 
ATOM     18  C   UNL A   1      40.335  29.493  29.548  1.00  0.00     0.074 A 
ATOM     19  C   UNL A   1      39.156  28.657  29.555  1.00  0.00     0.031 C 
ATOM     20  C   UNL A   1      44.659  26.033  26.331  1.00  0.00     0.029 A 
ATOM     21  C   UNL A   1      44.807  27.380  26.866  1.00  0.00     0.049 A 
ATOM     22  H   UNL A   1      43.390  28.504  27.899  1.00  0.00     0.167 HD
ATOM     23  C   UNL A   1      40.438  30.691  30.179  1.00  0.00     0.037 A 
ATOM     24  C   UNL A   1      45.918  28.124  26.728  1.00  0.00     0.037 A 
ATOM     25  C   UNL A   1      41.603  31.544  30.134  1.00  0.00     0.049 A 
ATOM     26  C   UNL A   1      45.928  29.519  27.263  1.00  0.00     0.074 A 
ATOM     27  C   UNL A   1      41.785  32.784  30.728  1.00  0.00     0.029 A 
ATOM     28  N   UNL A   1      42.767  31.268  29.435  1.00  0.00    -0.354 N 
ATOM     29  N   UNL A   1      45.017  30.129  27.977  1.00  0.00    -0.248 NA
ATOM     30  C   UNL A   1      47.100  30.341  26.944  1.00  0.00     0.031 C 
ATOM     31  C   UNL A   1      43.015  33.297  30.312  1.00  0.00     0.029 A 
ATOM     32  C   UNL A   1      43.633  32.348  29.517  1.00  0.00     0.049 A 
ATOM     33  H   UNL A   1      42.951  30.430  28.952  1.00  0.00     0.167 HD
ATOM     34  C   UNL A   1      45.501  31.408  28.194  1.00  0.00     0.074 A 
ATOM     35  C   UNL A   1      46.798  31.481  27.553  1.00  0.00     0.031 C 
ATOM     36  C   UNL A   1      44.914  32.427  28.863  1.00  0.00     0.037 A 
BRANCH  23  37
ATOM     37  C   UNL A   1      39.276  31.214  30.982  1.00  0.00     0.064 A 
ATOM     38  C   UNL A   1      38.190  31.848  30.360  1.00  0.00     0.173 A 
ATOM     39  C   UNL A   1      39.141  30.866  32.337  1.00  0.00     0.173 A 
ATOM     40  F   UNL A   1      38.260  32.198  29.067  1.00  0.00    -0.203 F 
ATOM     41  C   UNL A   1      37.006  32.091  31.056  1.00  0.00     0.198 A 
ATOM     42  C   UNL A   1      37.949  31.093  33.024  1.00  0.00     0.198 A 
ATOM     43  F   UNL A   1      40.140  30.237  32.973  1.00  0.00    -0.203 F 
ATOM     44  F   UNL A   1      35.973  32.678  30.435  1.00  0.00    -0.200 F 
ATOM     45  C   UNL A   1      36.880  31.697  32.380  1.00  0.00     0.200 A 
ATOM     46  F   UNL A   1      37.822  30.690  34.296  1.00  0.00    -0.200 F 
ATOM     47  F   UNL A   1      35.724  31.887  33.032  1.00  0.00    -0.200 F 
ENDBRANCH  23  37
BRANCH  24  48
ATOM     48  C   UNL A   1      47.058  27.558  25.966  1.00  0.00     0.064 A 
ATOM     49  C   UNL A   1      47.131  27.668  24.574  1.00  0.00     0.173 A 
ATOM     50  C   UNL A   1      48.158  26.996  26.639  1.00  0.00     0.173 A 
ATOM     51  F   UNL A   1      46.097  28.174  23.886  1.00  0.00    -0.203 F 
ATOM     52  C   UNL A   1      48.273  27.265  23.885  1.00  0.00     0.198 A 
ATOM     53  C   UNL A   1      49.314  26.638  25.955  1.00  0.00     0.198 A 
ATOM     54  F   UNL A   1      48.137  26.872  27.975  1.00  0.00    -0.203 F 
ATOM     55  F   UNL A   1      48.319  27.370  22.551  1.00  0.00    -0.200 F 
ATOM     56  C   UNL A   1      49.370  26.772  24.578  1.00  0.00     0.200 A 
ATOM     57  F   UNL A   1      50.382  26.200  26.636  1.00  0.00    -0.200 F 
ATOM     58  F   UNL A   1      50.487  26.433  23.918  1.00  0.00    -0.200 F 
ENDBRANCH  24  48
BRANCH  36  59
ATOM     59  C   UNL A   1      45.659  33.724  28.936  1.00  0.00     0.064 A 
ATOM     60  C   UNL A   1      45.442  34.740  27.994  1.00  0.00     0.173 A 
ATOM     61  C   UNL A   1      46.553  33.979  29.986  1.00  0.00     0.173 A 
ATOM     62  F   UNL A   1      44.609  34.538  26.962  1.00  0.00    -0.203 F 
ATOM     63  C   UNL A   1      46.103  35.961  28.095  1.00  0.00     0.198 A 
ATOM     64  C   UNL A   1      47.190  35.210  30.100  1.00  0.00     0.198 A 
ATOM     65  F   UNL A   1      46.789  33.041  30.916  1.00  0.00    -0.203 F 
ATOM     66  F   UNL A   1      45.906  36.907  27.166  1.00  0.00    -0.200 F 
ATOM     67  C   UNL A   1      46.968  36.199  29.153  1.00  0.00     0.200 A 
ATOM     68  F   UNL A   1      48.014  35.443  31.131  1.00  0.00    -0.200 F 
ATOM     69  F   UNL A   1      47.591  37.380  29.258  1.00  0.00    -0.200 F 
ENDBRANCH  36  59
ENDBRANCH  10  11
ENDBRANCH   3   5
ENDBRANCH   2   3
ENDBRANCH   1   2
BRANCH   1  70
ATOM     70  C   UNL A   1      36.818  22.701  23.720  1.00  0.00     0.274 C 
BRANCH  70  71
ATOM     71  O   UNL A   1      35.764  23.498  24.298  1.00  0.00    -0.458 OA
BRANCH  71  72
ATOM     72  C   UNL A   1      34.701  23.745  23.472  1.00  0.00     0.365 C 
ATOM     73  O   UNL A   1      34.646  23.344  22.312  1.00  0.00    -0.245 OA
BRANCH  72  74
ATOM     74  C   UNL A   1      33.580  24.600  24.119  1.00  0.00     0.300 C 
ATOM     75  C   UNL A   1      33.306  25.790  23.197  1.00  0.00     0.113 C 
ATOM     76  N   UNL A   1      32.367  23.789  24.464  1.00  0.00    -0.315 N 
ATOM     77  C   UNL A   1      31.965  26.457  23.330  1.00  0.00    -0.033 A 
ATOM     78  C   UNL A   1      31.283  24.666  24.949  1.00  0.00     0.300 C 
ATOM     79  H   UNL A   1      32.070  23.321  23.608  1.00  0.00     0.349 HD
ATOM     80  C   UNL A   1      31.686  27.648  22.640  1.00  0.00     0.006 A 
ATOM     81  C   UNL A   1      30.949  25.829  24.053  1.00  0.00     0.011 A 
ATOM     82  C   UNL A   1      30.391  28.167  22.612  1.00  0.00     0.021 A 
ATOM     83  C   UNL A   1      29.655  26.375  24.050  1.00  0.00     0.030 A 
ATOM     84  C   UNL A   1      29.376  27.520  23.307  1.00  0.00     0.041 A 
ATOM     85  Cl  UNL A   1      27.774  28.143  23.265  1.00  0.00    -0.084 Cl
BRANCH  76  86
ATOM     86  C   UNL A   1      32.656  22.722  25.470  1.00  0.00     0.300 C 
BRANCH  86  87
ATOM     87  C   UNL A   1      32.429  21.304  24.966  1.00  0.00     0.006 A 
ATOM     88  C   UNL A   1      32.795  20.200  25.749  1.00  0.00     0.011 A 
ATOM     89  C   UNL A   1      32.098  21.095  23.617  1.00  0.00     0.011 A 
ATOM     90  C   UNL A   1      33.051  18.968  25.147  1.00  0.00     0.021 A 
ATOM     91  C   UNL A   1      32.342  19.860  23.017  1.00  0.00     0.021 A 
ATOM     92  C   UNL A   1      32.864  18.816  23.776  1.00  0.00     0.041 A 
ATOM     93  Cl  UNL A   1      33.328  17.350  23.009  1.00  0.00    -0.084 Cl
ENDBRANCH  86  87
ENDBRANCH  76  86
ENDBRANCH  72  74
ENDBRANCH  71  72
ENDBRANCH  70  71
ENDBRANCH   1  70
TORSDOF 13
ENDMDL
