MODEL 1
REMARK VINA RESULT:     -12.7      0.000      0.000
REMARK SMILES O=C(OCCOC(=O)c1c(S(=O)(=O)N2CCO[C@@H](CCO)C2)sc2c1CC[NH2+]C2)c1ccc(-c2c3nc(c(-c4c(F)c(F)c(F)c(F)c4F)c4ccc([nH]4)c(-c4c(F)c(F)c(F)c(F)c4F)c4nc(c(-c5c(F)c(F)c(F)c(F)c5F)c5ccc2[nH]5)C=C4)C=C3)cc1
REMARK SMILES IDX 6 1 5 2 4 3 3 4 2 5 1 6 30 7 31 8 92 9 32 10 91 11 33 12
REMARK SMILES IDX 34 13 35 14 85 15 36 16 90 17 84 18 86 19 37 20 89 21 83 22
REMARK SMILES IDX 82 23 38 25 70 26 50 27 69 28 51 29 54 30 68 31 87 32 52 33
REMARK SMILES IDX 53 34 67 36 88 37 55 38 39 39 40 40 48 41 41 42 42 43 46 44
REMARK SMILES IDX 49 45 43 46 44 47 47 48 45 49 71 50 72 51 80 52 73 53 74 54
REMARK SMILES IDX 78 55 81 56 75 57 76 58 79 59 77 60 56 61 57 62 65 63 58 64
REMARK SMILES IDX 59 65 63 66 66 67 60 68 61 69 64 70 62 71 7 72 8 73 9 74
REMARK SMILES IDX 10 75 25 76 23 77 24 78 26 79 29 80 27 81 28 82 11 85 12 86
REMARK SMILES IDX 13 87 14 88 15 89 22 90 16 91 18 92 17 93 19 94 20 95 21 96
REMARK H PARENT 86 24 54 35 28 83 28 84 21 97
REMARK Flexibility Score: inf
ROOT
ATOM      1  O   UNL A   1      36.678  20.977  24.992  1.00  0.00    -0.458 OA
ENDROOT
BRANCH   1   2
ATOM      2  C   UNL A   1      37.707  21.950  25.241  1.00  0.00     0.275 C 
BRANCH   2   3
ATOM      3  C   UNL A   1      38.963  21.240  25.760  1.00  0.00     0.275 C 
BRANCH   3   4
ATOM      4  O   UNL A   1      39.701  21.833  26.848  1.00  0.00    -0.458 OA
BRANCH   4   5
ATOM      5  C   UNL A   1      40.868  22.453  26.601  1.00  0.00     0.338 C 
ATOM      6  O   UNL A   1      41.816  22.003  25.985  1.00  0.00    -0.246 OA
BRANCH   5   7
ATOM      7  C   UNL A   1      40.814  23.824  27.144  1.00  0.00     0.060 A 
ATOM      8  C   UNL A   1      41.745  24.269  28.088  1.00  0.00     0.016 A 
ATOM      9  C   UNL A   1      39.865  24.702  26.624  1.00  0.00     0.016 A 
ATOM     10  C   UNL A   1      41.692  25.584  28.538  1.00  0.00     0.010 A 
ATOM     11  C   UNL A   1      39.857  26.031  27.029  1.00  0.00     0.010 A 
ATOM     12  C   UNL A   1      40.736  26.474  28.022  1.00  0.00    -0.014 A 
BRANCH  12  13
ATOM     13  C   UNL A   1      40.729  27.860  28.513  1.00  0.00     0.031 A 
ATOM     14  C   UNL A   1      41.843  28.744  28.047  1.00  0.00     0.074 A 
ATOM     15  C   UNL A   1      39.754  28.411  29.268  1.00  0.00     0.049 A 
ATOM     16  N   UNL A   1      42.833  29.222  28.730  1.00  0.00    -0.248 NA
ATOM     17  C   UNL A   1      41.901  29.081  26.623  1.00  0.00     0.031 C 
ATOM     18  C   UNL A   1      38.451  27.863  29.651  1.00  0.00     0.029 A 
ATOM     19  N   UNL A   1      39.723  29.665  29.811  1.00  0.00    -0.354 N 
ATOM     20  C   UNL A   1      43.556  30.042  27.859  1.00  0.00     0.074 A 
ATOM     21  C   UNL A   1      43.016  29.807  26.547  1.00  0.00     0.031 C 
ATOM     22  C   UNL A   1      37.681  28.844  30.173  1.00  0.00     0.029 A 
ATOM     23  C   UNL A   1      38.492  30.036  30.328  1.00  0.00     0.049 A 
ATOM     24  H   UNL A   1      40.512  30.256  29.832  1.00  0.00     0.167 HD
ATOM     25  C   UNL A   1      44.414  30.998  28.316  1.00  0.00     0.037 A 
ATOM     26  C   UNL A   1      38.155  31.237  30.858  1.00  0.00     0.037 A 
ATOM     27  C   UNL A   1      44.759  30.773  29.695  1.00  0.00     0.049 A 
ATOM     28  C   UNL A   1      39.407  31.905  31.281  1.00  0.00     0.074 A 
ATOM     29  C   UNL A   1      45.342  29.730  30.389  1.00  0.00     0.029 A 
ATOM     30  N   UNL A   1      44.170  31.561  30.651  1.00  0.00    -0.354 N 
ATOM     31  N   UNL A   1      40.138  31.511  32.285  1.00  0.00    -0.248 NA
ATOM     32  C   UNL A   1      40.071  32.784  30.331  1.00  0.00     0.031 C 
ATOM     33  C   UNL A   1      44.617  29.663  31.616  1.00  0.00     0.029 A 
ATOM     34  C   UNL A   1      43.697  30.713  31.617  1.00  0.00     0.049 A 
ATOM     35  H   UNL A   1      44.101  32.543  30.645  1.00  0.00     0.167 HD
ATOM     36  C   UNL A   1      41.442  31.710  31.865  1.00  0.00     0.074 A 
ATOM     37  C   UNL A   1      41.338  32.597  30.710  1.00  0.00     0.031 C 
ATOM     38  C   UNL A   1      42.457  30.923  32.324  1.00  0.00     0.037 A 
BRANCH  25  39
ATOM     39  C   UNL A   1      44.689  32.322  27.638  1.00  0.00     0.064 A 
ATOM     40  C   UNL A   1      45.880  32.484  26.898  1.00  0.00     0.173 A 
ATOM     41  C   UNL A   1      43.998  33.515  27.938  1.00  0.00     0.173 A 
ATOM     42  F   UNL A   1      46.626  31.421  26.560  1.00  0.00    -0.203 F 
ATOM     43  C   UNL A   1      46.387  33.746  26.574  1.00  0.00     0.198 A 
ATOM     44  C   UNL A   1      44.480  34.770  27.565  1.00  0.00     0.198 A 
ATOM     45  F   UNL A   1      42.896  33.526  28.697  1.00  0.00    -0.203 F 
ATOM     46  F   UNL A   1      47.590  33.851  25.991  1.00  0.00    -0.200 F 
ATOM     47  C   UNL A   1      45.691  34.889  26.917  1.00  0.00     0.200 A 
ATOM     48  F   UNL A   1      43.797  35.869  27.918  1.00  0.00    -0.200 F 
ATOM     49  F   UNL A   1      46.206  36.100  26.669  1.00  0.00    -0.200 F 
ENDBRANCH  25  39
BRANCH  26  50
ATOM     50  C   UNL A   1      36.851  31.932  30.849  1.00  0.00     0.064 A 
ATOM     51  C   UNL A   1      36.035  31.959  31.992  1.00  0.00     0.173 A 
ATOM     52  C   UNL A   1      36.516  32.825  29.814  1.00  0.00     0.173 A 
ATOM     53  F   UNL A   1      36.307  31.163  33.035  1.00  0.00    -0.203 F 
ATOM     54  C   UNL A   1      34.971  32.859  32.109  1.00  0.00     0.198 A 
ATOM     55  C   UNL A   1      35.451  33.719  29.930  1.00  0.00     0.198 A 
ATOM     56  F   UNL A   1      37.276  32.916  28.713  1.00  0.00    -0.203 F 
ATOM     57  F   UNL A   1      34.259  32.905  33.243  1.00  0.00    -0.200 F 
ATOM     58  C   UNL A   1      34.690  33.747  31.084  1.00  0.00     0.200 A 
ATOM     59  F   UNL A   1      35.207  34.596  28.946  1.00  0.00    -0.200 F 
ATOM     60  F   UNL A   1      33.716  34.657  31.226  1.00  0.00    -0.200 F 
ENDBRANCH  26  50
BRANCH  38  61
ATOM     61  C   UNL A   1      42.188  30.028  33.500  1.00  0.00     0.064 A 
ATOM     62  C   UNL A   1      41.703  28.712  33.403  1.00  0.00     0.173 A 
ATOM     63  C   UNL A   1      42.568  30.480  34.772  1.00  0.00     0.173 A 
ATOM     64  F   UNL A   1      41.419  28.162  32.216  1.00  0.00    -0.203 F 
ATOM     65  C   UNL A   1      41.557  27.910  34.535  1.00  0.00     0.198 A 
ATOM     66  C   UNL A   1      42.462  29.663  35.893  1.00  0.00     0.198 A 
ATOM     67  F   UNL A   1      43.092  31.707  34.921  1.00  0.00    -0.203 F 
ATOM     68  F   UNL A   1      41.073  26.665  34.419  1.00  0.00    -0.200 F 
ATOM     69  C   UNL A   1      41.944  28.385  35.778  1.00  0.00     0.200 A 
ATOM     70  F   UNL A   1      42.888  30.108  37.084  1.00  0.00    -0.200 F 
ATOM     71  F   UNL A   1      41.842  27.600  36.859  1.00  0.00    -0.200 F 
ENDBRANCH  38  61
ENDBRANCH  12  13
ENDBRANCH   5   7
ENDBRANCH   4   5
ENDBRANCH   3   4
ENDBRANCH   2   3
ENDBRANCH   1   2
BRANCH   1  72
ATOM     72  C   UNL A   1      35.465  21.152  25.592  1.00  0.00     0.340 C 
ATOM     73  O   UNL A   1      35.255  21.715  26.657  1.00  0.00    -0.246 OA
BRANCH  72  74
ATOM     74  C   UNL A   1      34.426  20.653  24.713  1.00  0.00     0.095 A 
ATOM     75  C   UNL A   1      33.600  21.524  24.014  1.00  0.00     0.150 A 
ATOM     76  C   UNL A   1      34.108  19.294  24.360  1.00  0.00    -0.007 A 
ATOM     77  S   UNL A   1      32.136  20.728  23.650  1.00  0.00    -0.120 S 
ATOM     78  C   UNL A   1      32.958  19.249  23.596  1.00  0.00     0.064 A 
ATOM     79  C   UNL A   1      34.812  18.018  24.715  1.00  0.00     0.099 C 
ATOM     80  C   UNL A   1      32.458  18.041  22.885  1.00  0.00     0.308 C 
ATOM     81  C   UNL A   1      34.230  16.791  23.958  1.00  0.00     0.265 C 
ATOM     82  N   UNL A   1      32.776  16.844  23.679  1.00  0.00    -0.342 N 
ATOM     83  H   UNL A   1      32.265  16.879  24.561  1.00  0.00     0.346 HD
ATOM     84  H   UNL A   1      32.505  16.012  23.154  1.00  0.00     0.346 HD
BRANCH  75  85
ATOM     85  S   UNL A   1      33.772  23.230  23.562  1.00  0.00     0.253 S 
ATOM     86  O   UNL A   1      35.122  23.353  23.058  1.00  0.00    -0.206 OA
ATOM     87  O   UNL A   1      32.629  23.462  22.702  1.00  0.00    -0.206 OA
BRANCH  85  88
ATOM     88  N   UNL A   1      33.588  24.242  24.905  1.00  0.00    -0.192 NA
ATOM     89  C   UNL A   1      32.349  24.237  25.713  1.00  0.00     0.131 C 
ATOM     90  C   UNL A   1      34.287  25.554  24.949  1.00  0.00     0.134 C 
ATOM     91  C   UNL A   1      31.488  25.496  25.511  1.00  0.00     0.177 C 
ATOM     92  C   UNL A   1      33.321  26.659  24.501  1.00  0.00     0.135 C 
ATOM     93  O   UNL A   1      32.221  26.727  25.432  1.00  0.00    -0.375 OA
BRANCH  92  94
ATOM     94  C   UNL A   1      33.934  28.058  24.380  1.00  0.00     0.061 C 
BRANCH  94  95
ATOM     95  C   UNL A   1      32.923  29.191  24.493  1.00  0.00     0.159 C 
BRANCH  95  96
ATOM     96  O   UNL A   1      33.310  30.071  25.538  1.00  0.00    -0.396 OA
ATOM     97  H   UNL A   1      33.801  30.820  25.165  1.00  0.00     0.210 HD
ENDBRANCH  95  96
ENDBRANCH  94  95
ENDBRANCH  92  94
ENDBRANCH  85  88
ENDBRANCH  75  85
ENDBRANCH  72  74
ENDBRANCH   1  72
TORSDOF 16
ENDMDL
MODEL 2
REMARK VINA RESULT:     -12.4      3.231      9.315
REMARK SMILES O=C(OCCOC(=O)c1c(S(=O)(=O)N2CCO[C@@H](CCO)C2)sc2c1CC[NH2+]C2)c1ccc(-c2c3nc(c(-c4c(F)c(F)c(F)c(F)c4F)c4ccc([nH]4)c(-c4c(F)c(F)c(F)c(F)c4F)c4nc(c(-c5c(F)c(F)c(F)c(F)c5F)c5ccc2[nH]5)C=C4)C=C3)cc1
REMARK SMILES IDX 6 1 5 2 4 3 3 4 2 5 1 6 30 7 31 8 92 9 32 10 91 11 33 12
REMARK SMILES IDX 34 13 35 14 85 15 36 16 90 17 84 18 86 19 37 20 89 21 83 22
REMARK SMILES IDX 82 23 38 25 70 26 50 27 69 28 51 29 54 30 68 31 87 32 52 33
REMARK SMILES IDX 53 34 67 36 88 37 55 38 39 39 40 40 48 41 41 42 42 43 46 44
REMARK SMILES IDX 49 45 43 46 44 47 47 48 45 49 71 50 72 51 80 52 73 53 74 54
REMARK SMILES IDX 78 55 81 56 75 57 76 58 79 59 77 60 56 61 57 62 65 63 58 64
REMARK SMILES IDX 59 65 63 66 66 67 60 68 61 69 64 70 62 71 7 72 8 73 9 74
REMARK SMILES IDX 10 75 25 76 23 77 24 78 26 79 29 80 27 81 28 82 11 85 12 86
REMARK SMILES IDX 13 87 14 88 15 89 22 90 16 91 18 92 17 93 19 94 20 95 21 96
REMARK H PARENT 86 24 54 35 28 83 28 84 21 97
REMARK Flexibility Score: inf
ROOT
ATOM      1  O   UNL A   1      31.767  30.132  26.184  1.00  0.00    -0.458 OA
ENDROOT
BRANCH   1   2
ATOM      2  C   UNL A   1      32.746  30.255  27.229  1.00  0.00     0.275 C 
BRANCH   2   3
ATOM      3  C   UNL A   1      33.173  31.723  27.356  1.00  0.00     0.275 C 
BRANCH   3   4
ATOM      4  O   UNL A   1      34.578  32.046  27.336  1.00  0.00    -0.458 OA
BRANCH   4   5
ATOM      5  C   UNL A   1      35.198  32.390  28.478  1.00  0.00     0.338 C 
ATOM      6  O   UNL A   1      34.823  33.214  29.292  1.00  0.00    -0.246 OA
BRANCH   5   7
ATOM      7  C   UNL A   1      36.405  31.558  28.646  1.00  0.00     0.060 A 
ATOM      8  C   UNL A   1      37.558  32.063  29.256  1.00  0.00     0.016 A 
ATOM      9  C   UNL A   1      36.340  30.219  28.263  1.00  0.00     0.016 A 
ATOM     10  C   UNL A   1      38.658  31.232  29.440  1.00  0.00     0.010 A 
ATOM     11  C   UNL A   1      37.418  29.377  28.509  1.00  0.00     0.010 A 
ATOM     12  C   UNL A   1      38.601  29.883  29.055  1.00  0.00    -0.014 A 
BRANCH  12  13
ATOM     13  C   UNL A   1      39.782  29.037  29.286  1.00  0.00     0.031 A 
ATOM     14  C   UNL A   1      40.166  28.796  30.712  1.00  0.00     0.074 A 
ATOM     15  C   UNL A   1      40.478  28.394  28.324  1.00  0.00     0.049 A 
ATOM     16  N   UNL A   1      41.198  29.240  31.356  1.00  0.00    -0.248 NA
ATOM     17  C   UNL A   1      39.248  28.020  31.549  1.00  0.00     0.031 C 
ATOM     18  C   UNL A   1      40.178  28.250  26.897  1.00  0.00     0.029 A 
ATOM     19  N   UNL A   1      41.618  27.654  28.468  1.00  0.00    -0.354 N 
ATOM     20  C   UNL A   1      41.140  28.678  32.634  1.00  0.00     0.074 A 
ATOM     21  C   UNL A   1      39.850  28.050  32.738  1.00  0.00     0.031 C 
ATOM     22  C   UNL A   1      40.982  27.307  26.358  1.00  0.00     0.029 A 
ATOM     23  C   UNL A   1      41.967  26.915  27.348  1.00  0.00     0.049 A 
ATOM     24  H   UNL A   1      42.147  27.647  29.298  1.00  0.00     0.167 HD
ATOM     25  C   UNL A   1      42.238  28.605  33.440  1.00  0.00     0.037 A 
ATOM     26  C   UNL A   1      42.998  26.044  27.231  1.00  0.00     0.037 A 
ATOM     27  C   UNL A   1      43.273  29.498  32.991  1.00  0.00     0.049 A 
ATOM     28  C   UNL A   1      43.991  26.386  28.275  1.00  0.00     0.074 A 
ATOM     29  C   UNL A   1      43.353  30.862  32.781  1.00  0.00     0.029 A 
ATOM     30  N   UNL A   1      44.350  28.966  32.327  1.00  0.00    -0.354 N 
ATOM     31  N   UNL A   1      44.719  27.466  28.259  1.00  0.00    -0.248 NA
ATOM     32  C   UNL A   1      43.892  25.718  29.562  1.00  0.00     0.031 C 
ATOM     33  C   UNL A   1      44.123  30.999  31.588  1.00  0.00     0.029 A 
ATOM     34  C   UNL A   1      44.522  29.721  31.197  1.00  0.00     0.049 A 
ATOM     35  H   UNL A   1      44.892  28.193  32.607  1.00  0.00     0.167 HD
ATOM     36  C   UNL A   1      44.791  27.857  29.585  1.00  0.00     0.074 A 
ATOM     37  C   UNL A   1      44.364  26.688  30.349  1.00  0.00     0.031 C 
ATOM     38  C   UNL A   1      44.926  29.171  29.925  1.00  0.00     0.037 A 
BRANCH  25  39
ATOM     39  C   UNL A   1      42.521  27.501  34.434  1.00  0.00     0.064 A 
ATOM     40  C   UNL A   1      43.099  26.296  33.980  1.00  0.00     0.173 A 
ATOM     41  C   UNL A   1      41.971  27.455  35.733  1.00  0.00     0.173 A 
ATOM     42  F   UNL A   1      43.647  26.218  32.757  1.00  0.00    -0.203 F 
ATOM     43  C   UNL A   1      43.041  25.117  34.728  1.00  0.00     0.198 A 
ATOM     44  C   UNL A   1      41.963  26.289  36.498  1.00  0.00     0.198 A 
ATOM     45  F   UNL A   1      41.322  28.495  36.267  1.00  0.00    -0.203 F 
ATOM     46  F   UNL A   1      43.482  23.968  34.196  1.00  0.00    -0.200 F 
ATOM     47  C   UNL A   1      42.463  25.112  35.983  1.00  0.00     0.200 A 
ATOM     48  F   UNL A   1      41.386  26.300  37.709  1.00  0.00    -0.200 F 
ATOM     49  F   UNL A   1      42.344  23.970  36.673  1.00  0.00    -0.200 F 
ENDBRANCH  25  39
BRANCH  26  50
ATOM     50  C   UNL A   1      43.101  24.819  26.411  1.00  0.00     0.064 A 
ATOM     51  C   UNL A   1      44.023  24.727  25.356  1.00  0.00     0.173 A 
ATOM     52  C   UNL A   1      42.503  23.616  26.833  1.00  0.00     0.173 A 
ATOM     53  F   UNL A   1      44.661  25.821  24.918  1.00  0.00    -0.203 F 
ATOM     54  C   UNL A   1      44.358  23.496  24.784  1.00  0.00     0.198 A 
ATOM     55  C   UNL A   1      42.834  22.389  26.257  1.00  0.00     0.198 A 
ATOM     56  F   UNL A   1      41.660  23.598  27.876  1.00  0.00    -0.203 F 
ATOM     57  F   UNL A   1      45.295  23.438  23.827  1.00  0.00    -0.200 F 
ATOM     58  C   UNL A   1      43.775  22.327  25.246  1.00  0.00     0.200 A 
ATOM     59  F   UNL A   1      42.288  21.261  26.733  1.00  0.00    -0.200 F 
ATOM     60  F   UNL A   1      44.149  21.141  24.746  1.00  0.00    -0.200 F 
ENDBRANCH  26  50
BRANCH  38  61
ATOM     61  C   UNL A   1      45.282  30.153  28.845  1.00  0.00     0.064 A 
ATOM     62  C   UNL A   1      44.351  30.766  27.989  1.00  0.00     0.173 A 
ATOM     63  C   UNL A   1      46.612  30.593  28.768  1.00  0.00     0.173 A 
ATOM     64  F   UNL A   1      43.044  30.485  28.069  1.00  0.00    -0.203 F 
ATOM     65  C   UNL A   1      44.746  31.732  27.064  1.00  0.00     0.198 A 
ATOM     66  C   UNL A   1      46.995  31.588  27.875  1.00  0.00     0.198 A 
ATOM     67  F   UNL A   1      47.537  30.087  29.600  1.00  0.00    -0.203 F 
ATOM     68  F   UNL A   1      43.841  32.287  26.244  1.00  0.00    -0.200 F 
ATOM     69  C   UNL A   1      46.066  32.147  27.014  1.00  0.00     0.200 A 
ATOM     70  F   UNL A   1      48.263  32.024  27.868  1.00  0.00    -0.200 F 
ATOM     71  F   UNL A   1      46.438  33.106  26.154  1.00  0.00    -0.200 F 
ENDBRANCH  38  61
ENDBRANCH  12  13
ENDBRANCH   5   7
ENDBRANCH   4   5
ENDBRANCH   3   4
ENDBRANCH   2   3
ENDBRANCH   1   2
BRANCH   1  72
ATOM     72  C   UNL A   1      32.123  29.478  25.041  1.00  0.00     0.340 C 
ATOM     73  O   UNL A   1      33.247  29.403  24.565  1.00  0.00    -0.246 OA
BRANCH  72  74
ATOM     74  C   UNL A   1      30.966  28.781  24.514  1.00  0.00     0.095 A 
ATOM     75  C   UNL A   1      30.819  27.410  24.680  1.00  0.00     0.150 A 
ATOM     76  C   UNL A   1      29.811  29.315  23.841  1.00  0.00    -0.007 A 
ATOM     77  S   UNL A   1      29.809  26.807  23.444  1.00  0.00    -0.120 S 
ATOM     78  C   UNL A   1      29.001  28.294  23.384  1.00  0.00     0.064 A 
ATOM     79  C   UNL A   1      29.424  30.740  23.578  1.00  0.00     0.099 C 
ATOM     80  C   UNL A   1      27.630  28.477  22.834  1.00  0.00     0.308 C 
ATOM     81  C   UNL A   1      27.993  30.865  22.984  1.00  0.00     0.265 C 
ATOM     82  N   UNL A   1      27.569  29.752  22.103  1.00  0.00    -0.342 N 
ATOM     83  H   UNL A   1      28.189  29.708  21.294  1.00  0.00     0.346 HD
ATOM     84  H   UNL A   1      26.610  29.916  21.795  1.00  0.00     0.346 HD
BRANCH  75  85
ATOM     85  S   UNL A   1      31.538  26.260  25.823  1.00  0.00     0.253 S 
ATOM     86  O   UNL A   1      31.575  26.960  27.088  1.00  0.00    -0.206 OA
ATOM     87  O   UNL A   1      30.728  25.071  25.650  1.00  0.00    -0.206 OA
BRANCH  85  88
ATOM     88  N   UNL A   1      33.115  25.850  25.370  1.00  0.00    -0.192 NA
ATOM     89  C   UNL A   1      33.617  26.105  24.003  1.00  0.00     0.131 C 
ATOM     90  C   UNL A   1      33.799  24.701  26.020  1.00  0.00     0.134 C 
ATOM     91  C   UNL A   1      33.780  24.824  23.166  1.00  0.00     0.177 C 
ATOM     92  C   UNL A   1      33.661  23.458  25.129  1.00  0.00     0.135 C 
ATOM     93  O   UNL A   1      34.328  23.703  23.874  1.00  0.00    -0.375 OA
BRANCH  92  94
ATOM     94  C   UNL A   1      34.216  22.160  25.724  1.00  0.00     0.061 C 
BRANCH  94  95
ATOM     95  C   UNL A   1      34.607  21.118  24.683  1.00  0.00     0.159 C 
BRANCH  95  96
ATOM     96  O   UNL A   1      34.936  19.899  25.331  1.00  0.00    -0.396 OA
ATOM     97  H   UNL A   1      35.575  19.407  24.791  1.00  0.00     0.210 HD
ENDBRANCH  95  96
ENDBRANCH  94  95
ENDBRANCH  92  94
ENDBRANCH  85  88
ENDBRANCH  75  85
ENDBRANCH  72  74
ENDBRANCH   1  72
TORSDOF 16
ENDMDL
MODEL 3
REMARK VINA RESULT:     -12.3      1.055      1.964
REMARK SMILES O=C(OCCOC(=O)c1c(S(=O)(=O)N2CCO[C@@H](CCO)C2)sc2c1CC[NH2+]C2)c1ccc(-c2c3nc(c(-c4c(F)c(F)c(F)c(F)c4F)c4ccc([nH]4)c(-c4c(F)c(F)c(F)c(F)c4F)c4nc(c(-c5c(F)c(F)c(F)c(F)c5F)c5ccc2[nH]5)C=C4)C=C3)cc1
REMARK SMILES IDX 6 1 5 2 4 3 3 4 2 5 1 6 30 7 31 8 92 9 32 10 91 11 33 12
REMARK SMILES IDX 34 13 35 14 85 15 36 16 90 17 84 18 86 19 37 20 89 21 83 22
REMARK SMILES IDX 82 23 38 25 70 26 50 27 69 28 51 29 54 30 68 31 87 32 52 33
REMARK SMILES IDX 53 34 67 36 88 37 55 38 39 39 40 40 48 41 41 42 42 43 46 44
REMARK SMILES IDX 49 45 43 46 44 47 47 48 45 49 71 50 72 51 80 52 73 53 74 54
REMARK SMILES IDX 78 55 81 56 75 57 76 58 79 59 77 60 56 61 57 62 65 63 58 64
REMARK SMILES IDX 59 65 63 66 66 67 60 68 61 69 64 70 62 71 7 72 8 73 9 74
REMARK SMILES IDX 10 75 25 76 23 77 24 78 26 79 29 80 27 81 28 82 11 85 12 86
REMARK SMILES IDX 13 87 14 88 15 89 22 90 16 91 18 92 17 93 19 94 20 95 21 96
REMARK H PARENT 86 24 54 35 28 83 28 84 21 97
REMARK Flexibility Score: inf
ROOT
ATOM      1  O   UNL A   1      36.014  22.310  24.858  1.00  0.00    -0.458 OA
ENDROOT
BRANCH   1   2
ATOM      2  C   UNL A   1      36.901  21.198  24.655  1.00  0.00     0.275 C 
BRANCH   2   3
ATOM      3  C   UNL A   1      37.971  21.193  25.754  1.00  0.00     0.275 C 
BRANCH   3   4
ATOM      4  O   UNL A   1      38.835  22.338  25.893  1.00  0.00    -0.458 OA
BRANCH   4   5
ATOM      5  C   UNL A   1      39.825  22.320  26.803  1.00  0.00     0.338 C 
ATOM      6  O   UNL A   1      40.500  21.359  27.125  1.00  0.00    -0.246 OA
BRANCH   5   7
ATOM      7  C   UNL A   1      40.028  23.683  27.328  1.00  0.00     0.060 A 
ATOM      8  C   UNL A   1      41.197  24.032  28.013  1.00  0.00     0.016 A 
ATOM      9  C   UNL A   1      39.064  24.649  27.045  1.00  0.00     0.016 A 
ATOM     10  C   UNL A   1      41.373  25.341  28.448  1.00  0.00     0.010 A 
ATOM     11  C   UNL A   1      39.274  25.969  27.426  1.00  0.00     0.010 A 
ATOM     12  C   UNL A   1      40.405  26.319  28.170  1.00  0.00    -0.014 A 
BRANCH  12  13
ATOM     13  C   UNL A   1      40.642  27.694  28.634  1.00  0.00     0.031 A 
ATOM     14  C   UNL A   1      41.866  28.378  28.111  1.00  0.00     0.074 A 
ATOM     15  C   UNL A   1      39.800  28.408  29.412  1.00  0.00     0.049 A 
ATOM     16  N   UNL A   1      42.946  28.697  28.748  1.00  0.00    -0.248 NA
ATOM     17  C   UNL A   1      41.924  28.681  26.680  1.00  0.00     0.031 C 
ATOM     18  C   UNL A   1      38.440  28.085  29.852  1.00  0.00     0.029 A 
ATOM     19  N   UNL A   1      39.994  29.657  29.930  1.00  0.00    -0.354 N 
ATOM     20  C   UNL A   1      43.759  29.376  27.836  1.00  0.00     0.074 A 
ATOM     21  C   UNL A   1      43.138  29.214  26.549  1.00  0.00     0.031 C 
ATOM     22  C   UNL A   1      37.862  29.186  30.381  1.00  0.00     0.029 A 
ATOM     23  C   UNL A   1      38.861  30.232  30.484  1.00  0.00     0.049 A 
ATOM     24  H   UNL A   1      40.869  30.111  29.912  1.00  0.00     0.167 HD
ATOM     25  C   UNL A   1      44.779  30.185  28.243  1.00  0.00     0.037 A 
ATOM     26  C   UNL A   1      38.745  31.478  31.001  1.00  0.00     0.037 A 
ATOM     27  C   UNL A   1      45.136  29.925  29.613  1.00  0.00     0.049 A 
ATOM     28  C   UNL A   1      40.104  31.938  31.366  1.00  0.00     0.074 A 
ATOM     29  C   UNL A   1      45.566  28.811  30.307  1.00  0.00     0.029 A 
ATOM     30  N   UNL A   1      44.719  30.812  30.574  1.00  0.00    -0.354 N 
ATOM     31  N   UNL A   1      40.799  31.444  32.351  1.00  0.00    -0.248 NA
ATOM     32  C   UNL A   1      40.865  32.684  30.376  1.00  0.00     0.031 C 
ATOM     33  C   UNL A   1      44.889  28.881  31.560  1.00  0.00     0.029 A 
ATOM     34  C   UNL A   1      44.153  30.066  31.573  1.00  0.00     0.049 A 
ATOM     35  H   UNL A   1      44.812  31.793  30.551  1.00  0.00     0.167 HD
ATOM     36  C   UNL A   1      42.101  31.422  31.881  1.00  0.00     0.074 A 
ATOM     37  C   UNL A   1      42.098  32.298  30.713  1.00  0.00     0.031 C 
ATOM     38  C   UNL A   1      42.991  30.486  32.319  1.00  0.00     0.037 A 
BRANCH  25  39
ATOM     39  C   UNL A   1      45.239  31.437  27.529  1.00  0.00     0.064 A 
ATOM     40  C   UNL A   1      46.555  31.497  27.021  1.00  0.00     0.173 A 
ATOM     41  C   UNL A   1      44.561  32.672  27.598  1.00  0.00     0.173 A 
ATOM     42  F   UNL A   1      47.299  30.385  26.916  1.00  0.00    -0.203 F 
ATOM     43  C   UNL A   1      47.173  32.710  26.703  1.00  0.00     0.198 A 
ATOM     44  C   UNL A   1      45.164  33.875  27.228  1.00  0.00     0.198 A 
ATOM     45  F   UNL A   1      43.338  32.784  28.128  1.00  0.00    -0.203 F 
ATOM     46  F   UNL A   1      48.467  32.726  26.355  1.00  0.00    -0.200 F 
ATOM     47  C   UNL A   1      46.480  33.900  26.816  1.00  0.00     0.200 A 
ATOM     48  F   UNL A   1      44.480  35.021  27.357  1.00  0.00    -0.200 F 
ATOM     49  F   UNL A   1      47.089  35.068  26.579  1.00  0.00    -0.200 F 
ENDBRANCH  25  39
BRANCH  26  50
ATOM     50  C   UNL A   1      37.572  32.377  31.026  1.00  0.00     0.064 A 
ATOM     51  C   UNL A   1      37.243  33.172  29.916  1.00  0.00     0.173 A 
ATOM     52  C   UNL A   1      36.588  32.253  32.026  1.00  0.00     0.173 A 
ATOM     53  F   UNL A   1      38.111  33.313  28.905  1.00  0.00    -0.203 F 
ATOM     54  C   UNL A   1      35.987  33.774  29.795  1.00  0.00     0.198 A 
ATOM     55  C   UNL A   1      35.337  32.859  31.907  1.00  0.00     0.198 A 
ATOM     56  F   UNL A   1      36.788  31.462  33.090  1.00  0.00    -0.203 F 
ATOM     57  F   UNL A   1      35.683  34.468  28.689  1.00  0.00    -0.200 F 
ATOM     58  C   UNL A   1      35.031  33.605  30.783  1.00  0.00     0.200 A 
ATOM     59  F   UNL A   1      34.409  32.662  32.853  1.00  0.00    -0.200 F 
ATOM     60  F   UNL A   1      33.804  34.123  30.633  1.00  0.00    -0.200 F 
ENDBRANCH  26  50
BRANCH  38  61
ATOM     61  C   UNL A   1      42.625  29.663  33.522  1.00  0.00     0.064 A 
ATOM     62  C   UNL A   1      41.921  28.447  33.469  1.00  0.00     0.173 A 
ATOM     63  C   UNL A   1      43.130  30.059  34.769  1.00  0.00     0.173 A 
ATOM     64  F   UNL A   1      41.498  27.940  32.304  1.00  0.00    -0.203 F 
ATOM     65  C   UNL A   1      41.690  27.695  34.620  1.00  0.00     0.198 A 
ATOM     66  C   UNL A   1      42.936  29.285  35.908  1.00  0.00     0.198 A 
ATOM     67  F   UNL A   1      43.860  31.181  34.873  1.00  0.00    -0.203 F 
ATOM     68  F   UNL A   1      40.998  26.548  34.547  1.00  0.00    -0.200 F 
ATOM     69  C   UNL A   1      42.205  28.111  35.837  1.00  0.00     0.200 A 
ATOM     70  F   UNL A   1      43.482  29.665  37.072  1.00  0.00    -0.200 F 
ATOM     71  F   UNL A   1      42.018  27.368  36.937  1.00  0.00    -0.200 F 
ENDBRANCH  38  61
ENDBRANCH  12  13
ENDBRANCH   5   7
ENDBRANCH   4   5
ENDBRANCH   3   4
ENDBRANCH   2   3
ENDBRANCH   1   2
BRANCH   1  72
ATOM     72  C   UNL A   1      34.792  22.069  25.414  1.00  0.00     0.340 C 
ATOM     73  O   UNL A   1      34.423  22.397  26.533  1.00  0.00    -0.246 OA
BRANCH  72  74
ATOM     74  C   UNL A   1      33.937  21.441  24.426  1.00  0.00     0.095 A 
ATOM     75  C   UNL A   1      33.396  22.175  23.378  1.00  0.00     0.150 A 
ATOM     76  C   UNL A   1      33.566  20.057  24.291  1.00  0.00    -0.007 A 
ATOM     77  S   UNL A   1      31.979  21.398  22.830  1.00  0.00    -0.120 S 
ATOM     78  C   UNL A   1      32.627  19.902  23.290  1.00  0.00     0.064 A 
ATOM     79  C   UNL A   1      34.026  18.858  25.066  1.00  0.00     0.099 C 
ATOM     80  C   UNL A   1      32.178  18.594  22.740  1.00  0.00     0.308 C 
ATOM     81  C   UNL A   1      33.508  17.525  24.457  1.00  0.00     0.265 C 
ATOM     82  N   UNL A   1      32.173  17.592  23.818  1.00  0.00    -0.342 N 
ATOM     83  H   UNL A   1      31.477  17.853  24.517  1.00  0.00     0.346 HD
ATOM     84  H   UNL A   1      31.943  16.679  23.425  1.00  0.00     0.346 HD
BRANCH  75  85
ATOM     85  S   UNL A   1      33.851  23.723  22.642  1.00  0.00     0.253 S 
ATOM     86  O   UNL A   1      35.289  23.795  22.775  1.00  0.00    -0.206 OA
ATOM     87  O   UNL A   1      33.222  23.667  21.338  1.00  0.00    -0.206 OA
BRANCH  85  88
ATOM     88  N   UNL A   1      33.152  25.024  23.469  1.00  0.00    -0.192 NA
ATOM     89  C   UNL A   1      33.978  26.000  24.213  1.00  0.00     0.131 C 
ATOM     90  C   UNL A   1      31.782  24.896  24.030  1.00  0.00     0.134 C 
ATOM     91  C   UNL A   1      33.858  25.857  25.740  1.00  0.00     0.177 C 
ATOM     92  C   UNL A   1      31.875  24.534  25.519  1.00  0.00     0.135 C 
ATOM     93  O   UNL A   1      32.531  25.608  26.224  1.00  0.00    -0.375 OA
BRANCH  92  94
ATOM     94  C   UNL A   1      30.537  24.252  26.211  1.00  0.00     0.061 C 
BRANCH  94  95
ATOM     95  C   UNL A   1      30.418  22.845  26.780  1.00  0.00     0.159 C 
BRANCH  95  96
ATOM     96  O   UNL A   1      31.529  22.576  27.622  1.00  0.00    -0.396 OA
ATOM     97  H   UNL A   1      31.753  23.373  28.128  1.00  0.00     0.210 HD
ENDBRANCH  95  96
ENDBRANCH  94  95
ENDBRANCH  92  94
ENDBRANCH  85  88
ENDBRANCH  75  85
ENDBRANCH  72  74
ENDBRANCH   1  72
TORSDOF 16
ENDMDL
