MODEL 1
REMARK VINA RESULT:     -12.8      0.000      0.000
REMARK SMILES Cc1ccc(C(=O)OCCOC(=O)c2ccc(-c3c4nc(c(-c5c(F)c(F)c(F)c(F)c5F)c5ccc([nH]5)c(-c5c(F)c(F)c(F)c(F)c5F)c5nc(c(-c6c(F)c(F)c(F)c(F)c6F)c6ccc3[nH]6)C=C5)C=C4)cc2)cc1N1CC(C)C1
REMARK SMILES IDX 10 1 9 2 8 3 6 4 7 5 5 6 1 7 2 8 3 9 78 10 4 11 77 12 79 13
REMARK SMILES IDX 80 14 83 15 81 16 82 17 11 18 12 19 13 20 14 21 15 22 76 23
REMARK SMILES IDX 16 24 75 25 17 26 18 27 19 28 69 29 20 30 74 31 68 32 70 33
REMARK SMILES IDX 21 34 73 35 67 36 66 37 22 39 54 40 34 41 53 42 35 43 38 44
REMARK SMILES IDX 52 45 71 46 36 47 37 48 51 50 72 51 39 52 23 53 24 54 32 55
REMARK SMILES IDX 25 56 26 57 30 58 33 59 27 60 28 61 31 62 29 63 55 64 56 65
REMARK SMILES IDX 64 66 57 67 58 68 62 69 65 70 59 71 60 72 63 73 61 74 40 75
REMARK SMILES IDX 41 76 49 77 42 78 43 79 47 80 50 81 44 82 45 83 48 84 46 85
REMARK H PARENT 70 38 38 49
REMARK Flexibility Score: inf
ROOT
ATOM      1  C   UNL A   1      38.722  22.033  25.852  1.00  0.00     0.275 C 
ENDROOT
BRANCH   1   2
ATOM      2  C   UNL A   1      37.435  21.749  25.064  1.00  0.00     0.275 C 
BRANCH   2   3
ATOM      3  O   UNL A   1      36.489  22.826  25.036  1.00  0.00    -0.458 OA
BRANCH   3   4
ATOM      4  C   UNL A   1      35.998  23.005  23.781  1.00  0.00     0.338 C 
ATOM      5  O   UNL A   1      36.666  22.938  22.755  1.00  0.00    -0.246 OA
BRANCH   4   6
ATOM      6  C   UNL A   1      34.568  23.373  23.721  1.00  0.00     0.062 A 
ATOM      7  C   UNL A   1      30.569  24.973  23.370  1.00  0.00     0.046 C 
ATOM      8  C   UNL A   1      31.961  24.428  23.547  1.00  0.00    -0.028 A 
ATOM      9  C   UNL A   1      32.246  23.122  23.101  1.00  0.00     0.006 A 
ATOM     10  C   UNL A   1      32.993  25.192  24.111  1.00  0.00     0.040 A 
ATOM     11  C   UNL A   1      33.533  22.579  23.231  1.00  0.00     0.016 A 
ATOM     12  C   UNL A   1      34.286  24.666  24.154  1.00  0.00     0.041 A 
BRANCH  10  13
ATOM     13  N   UNL A   1      32.736  26.437  24.735  1.00  0.00    -0.371 N 
ATOM     14  C   UNL A   1      33.623  27.577  24.729  1.00  0.00     0.121 C 
ATOM     15  C   UNL A   1      32.574  26.493  26.174  1.00  0.00     0.121 C 
ATOM     16  C   UNL A   1      33.796  27.411  26.242  1.00  0.00     0.025 C 
ATOM     17  C   UNL A   1      33.652  28.649  27.097  1.00  0.00     0.011 C 
ENDBRANCH  10  13
ENDBRANCH   4   6
ENDBRANCH   3   4
ENDBRANCH   2   3
ENDBRANCH   1   2
BRANCH   1  18
ATOM     18  O   UNL A   1      38.935  23.301  26.531  1.00  0.00    -0.458 OA
BRANCH  18  19
ATOM     19  C   UNL A   1      40.081  23.781  27.059  1.00  0.00     0.338 C 
ATOM     20  O   UNL A   1      41.087  23.091  27.193  1.00  0.00    -0.246 OA
BRANCH  19  21
ATOM     21  C   UNL A   1      40.071  25.177  27.505  1.00  0.00     0.060 A 
ATOM     22  C   UNL A   1      40.409  26.186  26.585  1.00  0.00     0.016 A 
ATOM     23  C   UNL A   1      39.619  25.479  28.785  1.00  0.00     0.016 A 
ATOM     24  C   UNL A   1      40.205  27.515  26.909  1.00  0.00     0.010 A 
ATOM     25  C   UNL A   1      39.277  26.772  29.060  1.00  0.00     0.010 A 
ATOM     26  C   UNL A   1      39.649  27.781  28.153  1.00  0.00    -0.014 A 
BRANCH  26  27
ATOM     27  C   UNL A   1      39.813  29.058  28.813  1.00  0.00     0.031 A 
ATOM     28  C   UNL A   1      38.757  30.069  28.752  1.00  0.00     0.074 A 
ATOM     29  C   UNL A   1      40.878  28.981  29.645  1.00  0.00     0.049 A 
ATOM     30  N   UNL A   1      38.929  31.313  29.021  1.00  0.00    -0.248 NA
ATOM     31  C   UNL A   1      37.392  29.779  28.312  1.00  0.00     0.031 C 
ATOM     32  C   UNL A   1      41.240  29.701  30.846  1.00  0.00     0.029 A 
ATOM     33  N   UNL A   1      41.971  28.109  29.445  1.00  0.00    -0.354 N 
ATOM     34  C   UNL A   1      37.671  31.845  29.230  1.00  0.00     0.074 A 
ATOM     35  C   UNL A   1      36.768  30.933  28.575  1.00  0.00     0.031 C 
ATOM     36  C   UNL A   1      42.557  29.506  31.076  1.00  0.00     0.029 A 
ATOM     37  C   UNL A   1      43.096  28.767  29.938  1.00  0.00     0.049 A 
ATOM     38  H   UNL A   1      41.944  27.213  29.038  1.00  0.00     0.167 HD
ATOM     39  C   UNL A   1      37.542  32.834  30.166  1.00  0.00     0.037 A 
ATOM     40  C   UNL A   1      43.981  29.246  29.013  1.00  0.00     0.037 A 
ATOM     41  C   UNL A   1      38.865  33.126  30.724  1.00  0.00     0.049 A 
ATOM     42  C   UNL A   1      43.937  30.753  29.019  1.00  0.00     0.074 A 
ATOM     43  C   UNL A   1      39.486  32.665  31.875  1.00  0.00     0.029 A 
ATOM     44  N   UNL A   1      39.873  33.611  29.897  1.00  0.00    -0.354 N 
ATOM     45  N   UNL A   1      42.851  31.457  29.206  1.00  0.00    -0.248 NA
ATOM     46  C   UNL A   1      45.143  31.564  28.941  1.00  0.00     0.031 C 
ATOM     47  C   UNL A   1      40.886  32.809  31.700  1.00  0.00     0.029 A 
ATOM     48  C   UNL A   1      41.115  33.335  30.439  1.00  0.00     0.049 A 
ATOM     49  H   UNL A   1      39.724  34.084  29.046  1.00  0.00     0.167 HD
ATOM     50  C   UNL A   1      43.205  32.766  29.388  1.00  0.00     0.074 A 
ATOM     51  C   UNL A   1      44.643  32.788  29.174  1.00  0.00     0.031 C 
ATOM     52  C   UNL A   1      42.329  33.747  29.761  1.00  0.00     0.037 A 
BRANCH  39  53
ATOM     53  C   UNL A   1      36.255  33.254  30.856  1.00  0.00     0.064 A 
ATOM     54  C   UNL A   1      35.339  34.108  30.192  1.00  0.00     0.173 A 
ATOM     55  C   UNL A   1      35.866  32.894  32.159  1.00  0.00     0.173 A 
ATOM     56  F   UNL A   1      35.509  34.461  28.910  1.00  0.00    -0.203 F 
ATOM     57  C   UNL A   1      34.201  34.632  30.809  1.00  0.00     0.198 A 
ATOM     58  C   UNL A   1      34.734  33.435  32.787  1.00  0.00     0.198 A 
ATOM     59  F   UNL A   1      36.530  31.967  32.858  1.00  0.00    -0.203 F 
ATOM     60  F   UNL A   1      33.394  35.455  30.124  1.00  0.00    -0.200 F 
ATOM     61  C   UNL A   1      33.909  34.314  32.116  1.00  0.00     0.200 A 
ATOM     62  F   UNL A   1      34.445  33.091  34.051  1.00  0.00    -0.200 F 
ATOM     63  F   UNL A   1      32.825  34.826  32.713  1.00  0.00    -0.200 F 
ENDBRANCH  39  53
BRANCH  40  64
ATOM     64  C   UNL A   1      44.117  28.372  27.796  1.00  0.00     0.064 A 
ATOM     65  C   UNL A   1      44.711  27.096  27.944  1.00  0.00     0.173 A 
ATOM     66  C   UNL A   1      43.441  28.608  26.593  1.00  0.00     0.173 A 
ATOM     67  F   UNL A   1      45.380  26.796  29.071  1.00  0.00    -0.203 F 
ATOM     68  C   UNL A   1      44.545  26.083  26.998  1.00  0.00     0.198 A 
ATOM     69  C   UNL A   1      43.294  27.596  25.633  1.00  0.00     0.198 A 
ATOM     70  F   UNL A   1      42.847  29.787  26.365  1.00  0.00    -0.203 F 
ATOM     71  F   UNL A   1      45.027  24.855  27.239  1.00  0.00    -0.200 F 
ATOM     72  C   UNL A   1      43.823  26.331  25.847  1.00  0.00     0.200 A 
ATOM     73  F   UNL A   1      42.561  27.819  24.531  1.00  0.00    -0.200 F 
ATOM     74  F   UNL A   1      43.590  25.344  24.969  1.00  0.00    -0.200 F 
ENDBRANCH  40  64
BRANCH  52  75
ATOM     75  C   UNL A   1      42.592  35.222  29.627  1.00  0.00     0.064 A 
ATOM     76  C   UNL A   1      43.426  35.929  30.505  1.00  0.00     0.173 A 
ATOM     77  C   UNL A   1      42.153  35.933  28.483  1.00  0.00     0.173 A 
ATOM     78  F   UNL A   1      44.013  35.330  31.549  1.00  0.00    -0.203 F 
ATOM     79  C   UNL A   1      43.732  37.273  30.299  1.00  0.00     0.198 A 
ATOM     80  C   UNL A   1      42.529  37.248  28.240  1.00  0.00     0.198 A 
ATOM     81  F   UNL A   1      41.380  35.364  27.548  1.00  0.00    -0.203 F 
ATOM     82  F   UNL A   1      44.481  37.923  31.199  1.00  0.00    -0.200 F 
ATOM     83  C   UNL A   1      43.299  37.927  29.161  1.00  0.00     0.200 A 
ATOM     84  F   UNL A   1      42.161  37.844  27.098  1.00  0.00    -0.200 F 
ATOM     85  F   UNL A   1      43.641  39.202  28.942  1.00  0.00    -0.200 F 
ENDBRANCH  52  75
ENDBRANCH  26  27
ENDBRANCH  19  21
ENDBRANCH  18  19
ENDBRANCH   1  18
TORSDOF 12
ENDMDL
MODEL 2
REMARK VINA RESULT:     -12.8      3.971     10.067
REMARK SMILES Cc1ccc(C(=O)OCCOC(=O)c2ccc(-c3c4nc(c(-c5c(F)c(F)c(F)c(F)c5F)c5ccc([nH]5)c(-c5c(F)c(F)c(F)c(F)c5F)c5nc(c(-c6c(F)c(F)c(F)c(F)c6F)c6ccc3[nH]6)C=C5)C=C4)cc2)cc1N1CC(C)C1
REMARK SMILES IDX 10 1 9 2 8 3 6 4 7 5 5 6 1 7 2 8 3 9 78 10 4 11 77 12 79 13
REMARK SMILES IDX 80 14 83 15 81 16 82 17 11 18 12 19 13 20 14 21 15 22 76 23
REMARK SMILES IDX 16 24 75 25 17 26 18 27 19 28 69 29 20 30 74 31 68 32 70 33
REMARK SMILES IDX 21 34 73 35 67 36 66 37 22 39 54 40 34 41 53 42 35 43 38 44
REMARK SMILES IDX 52 45 71 46 36 47 37 48 51 50 72 51 39 52 23 53 24 54 32 55
REMARK SMILES IDX 25 56 26 57 30 58 33 59 27 60 28 61 31 62 29 63 55 64 56 65
REMARK SMILES IDX 64 66 57 67 58 68 62 69 65 70 59 71 60 72 63 73 61 74 40 75
REMARK SMILES IDX 41 76 49 77 42 78 43 79 47 80 50 81 44 82 45 83 48 84 46 85
REMARK H PARENT 70 38 38 49
REMARK Flexibility Score: inf
ROOT
ATOM      1  C   UNL A   1      33.852  31.155  27.623  1.00  0.00     0.275 C 
ENDROOT
BRANCH   1   2
ATOM      2  C   UNL A   1      32.696  30.439  26.911  1.00  0.00     0.275 C 
BRANCH   2   3
ATOM      3  O   UNL A   1      32.615  29.027  27.150  1.00  0.00    -0.458 OA
BRANCH   3   4
ATOM      4  C   UNL A   1      32.966  28.328  26.038  1.00  0.00     0.338 C 
ATOM      5  O   UNL A   1      33.591  28.792  25.090  1.00  0.00    -0.246 OA
BRANCH   4   6
ATOM      6  C   UNL A   1      32.472  26.935  25.999  1.00  0.00     0.062 A 
ATOM      7  C   UNL A   1      31.493  22.732  26.207  1.00  0.00     0.046 C 
ATOM      8  C   UNL A   1      31.858  24.187  26.085  1.00  0.00    -0.028 A 
ATOM      9  C   UNL A   1      30.849  25.160  26.227  1.00  0.00     0.006 A 
ATOM     10  C   UNL A   1      33.179  24.607  25.867  1.00  0.00     0.040 A 
ATOM     11  C   UNL A   1      31.147  26.528  26.138  1.00  0.00     0.016 A 
ATOM     12  C   UNL A   1      33.469  25.973  25.866  1.00  0.00     0.041 A 
BRANCH  10  13
ATOM     13  N   UNL A   1      34.204  23.686  25.543  1.00  0.00    -0.371 N 
ATOM     14  C   UNL A   1      35.018  22.967  26.495  1.00  0.00     0.121 C 
ATOM     15  C   UNL A   1      35.364  24.142  24.803  1.00  0.00     0.121 C 
ATOM     16  C   UNL A   1      36.237  23.748  25.995  1.00  0.00     0.025 C 
ATOM     17  C   UNL A   1      37.485  22.957  25.675  1.00  0.00     0.011 C 
ENDBRANCH  10  13
ENDBRANCH   4   6
ENDBRANCH   3   4
ENDBRANCH   2   3
ENDBRANCH   1   2
BRANCH   1  18
ATOM     18  O   UNL A   1      35.106  30.477  27.912  1.00  0.00    -0.458 OA
BRANCH  18  19
ATOM     19  C   UNL A   1      36.284  31.025  28.278  1.00  0.00     0.338 C 
ATOM     20  O   UNL A   1      36.447  32.237  28.379  1.00  0.00    -0.246 OA
BRANCH  19  21
ATOM     21  C   UNL A   1      37.395  30.101  28.527  1.00  0.00     0.060 A 
ATOM     22  C   UNL A   1      37.292  29.188  29.593  1.00  0.00     0.016 A 
ATOM     23  C   UNL A   1      38.466  30.071  27.641  1.00  0.00     0.016 A 
ATOM     24  C   UNL A   1      38.219  28.170  29.723  1.00  0.00     0.010 A 
ATOM     25  C   UNL A   1      39.298  28.989  27.672  1.00  0.00     0.010 A 
ATOM     26  C   UNL A   1      39.215  28.099  28.757  1.00  0.00    -0.014 A 
BRANCH  26  27
ATOM     27  C   UNL A   1      40.477  27.435  29.001  1.00  0.00     0.031 A 
ATOM     28  C   UNL A   1      40.690  26.055  28.563  1.00  0.00     0.074 A 
ATOM     29  C   UNL A   1      41.387  28.362  29.384  1.00  0.00     0.049 A 
ATOM     30  N   UNL A   1      41.626  25.292  29.001  1.00  0.00    -0.248 NA
ATOM     31  C   UNL A   1      39.812  25.369  27.616  1.00  0.00     0.031 C 
ATOM     32  C   UNL A   1      42.830  28.411  29.310  1.00  0.00     0.029 A 
ATOM     33  N   UNL A   1      41.052  29.571  30.034  1.00  0.00    -0.354 N 
ATOM     34  C   UNL A   1      41.739  24.254  28.096  1.00  0.00     0.074 A 
ATOM     35  C   UNL A   1      40.478  24.228  27.401  1.00  0.00     0.031 C 
ATOM     36  C   UNL A   1      43.266  29.370  30.155  1.00  0.00     0.029 A 
ATOM     37  C   UNL A   1      42.107  29.860  30.897  1.00  0.00     0.049 A 
ATOM     38  H   UNL A   1      40.235  30.104  29.903  1.00  0.00     0.167 HD
ATOM     39  C   UNL A   1      42.983  23.736  27.868  1.00  0.00     0.037 A 
ATOM     40  C   UNL A   1      41.874  29.685  32.233  1.00  0.00     0.037 A 
ATOM     41  C   UNL A   1      43.946  24.436  28.723  1.00  0.00     0.049 A 
ATOM     42  C   UNL A   1      42.684  28.514  32.728  1.00  0.00     0.074 A 
ATOM     43  C   UNL A   1      44.779  25.513  28.459  1.00  0.00     0.029 A 
ATOM     44  N   UNL A   1      43.827  24.358  30.107  1.00  0.00    -0.354 N 
ATOM     45  N   UNL A   1      42.919  27.433  32.031  1.00  0.00    -0.248 NA
ATOM     46  C   UNL A   1      43.391  28.545  34.000  1.00  0.00     0.031 C 
ATOM     47  C   UNL A   1      45.100  26.127  29.696  1.00  0.00     0.029 A 
ATOM     48  C   UNL A   1      44.446  25.440  30.705  1.00  0.00     0.049 A 
ATOM     49  H   UNL A   1      43.367  23.634  30.592  1.00  0.00     0.167 HD
ATOM     50  C   UNL A   1      43.871  26.693  32.678  1.00  0.00     0.074 A 
ATOM     51  C   UNL A   1      44.105  27.409  33.922  1.00  0.00     0.031 C 
ATOM     52  C   UNL A   1      44.461  25.580  32.149  1.00  0.00     0.037 A 
BRANCH  39  53
ATOM     53  C   UNL A   1      43.409  22.925  26.656  1.00  0.00     0.064 A 
ATOM     54  C   UNL A   1      43.137  21.535  26.600  1.00  0.00     0.173 A 
ATOM     55  C   UNL A   1      44.105  23.421  25.538  1.00  0.00     0.173 A 
ATOM     56  F   UNL A   1      42.395  20.926  27.535  1.00  0.00    -0.203 F 
ATOM     57  C   UNL A   1      43.607  20.707  25.578  1.00  0.00     0.198 A 
ATOM     58  C   UNL A   1      44.594  22.587  24.521  1.00  0.00     0.198 A 
ATOM     59  F   UNL A   1      44.294  24.732  25.355  1.00  0.00    -0.203 F 
ATOM     60  F   UNL A   1      43.330  19.395  25.607  1.00  0.00    -0.200 F 
ATOM     61  C   UNL A   1      44.355  21.229  24.548  1.00  0.00     0.200 A 
ATOM     62  F   UNL A   1      45.296  23.115  23.506  1.00  0.00    -0.200 F 
ATOM     63  F   UNL A   1      44.817  20.433  23.574  1.00  0.00    -0.200 F 
ENDBRANCH  39  53
BRANCH  40  64
ATOM     64  C   UNL A   1      40.469  30.026  32.651  1.00  0.00     0.064 A 
ATOM     65  C   UNL A   1      40.049  31.375  32.567  1.00  0.00     0.173 A 
ATOM     66  C   UNL A   1      39.463  29.070  32.840  1.00  0.00     0.173 A 
ATOM     67  F   UNL A   1      40.957  32.349  32.389  1.00  0.00    -0.203 F 
ATOM     68  C   UNL A   1      38.700  31.735  32.561  1.00  0.00     0.198 A 
ATOM     69  C   UNL A   1      38.110  29.436  32.856  1.00  0.00     0.198 A 
ATOM     70  F   UNL A   1      39.768  27.769  32.930  1.00  0.00    -0.203 F 
ATOM     71  F   UNL A   1      38.348  33.013  32.359  1.00  0.00    -0.200 F 
ATOM     72  C   UNL A   1      37.729  30.761  32.692  1.00  0.00     0.200 A 
ATOM     73  F   UNL A   1      37.161  28.492  32.944  1.00  0.00    -0.200 F 
ATOM     74  F   UNL A   1      36.430  31.085  32.608  1.00  0.00    -0.200 F 
ENDBRANCH  40  64
BRANCH  52  75
ATOM     75  C   UNL A   1      45.227  24.560  32.945  1.00  0.00     0.064 A 
ATOM     76  C   UNL A   1      46.500  24.809  33.478  1.00  0.00     0.173 A 
ATOM     77  C   UNL A   1      44.610  23.354  33.358  1.00  0.00     0.173 A 
ATOM     78  F   UNL A   1      47.130  25.973  33.272  1.00  0.00    -0.203 F 
ATOM     79  C   UNL A   1      47.144  23.883  34.296  1.00  0.00     0.198 A 
ATOM     80  C   UNL A   1      45.223  22.473  34.240  1.00  0.00     0.198 A 
ATOM     81  F   UNL A   1      43.379  23.011  32.950  1.00  0.00    -0.203 F 
ATOM     82  F   UNL A   1      48.386  24.138  34.728  1.00  0.00    -0.200 F 
ATOM     83  C   UNL A   1      46.502  22.725  34.690  1.00  0.00     0.200 A 
ATOM     84  F   UNL A   1      44.557  21.391  34.668  1.00  0.00    -0.200 F 
ATOM     85  F   UNL A   1      47.104  21.865  35.519  1.00  0.00    -0.200 F 
ENDBRANCH  52  75
ENDBRANCH  26  27
ENDBRANCH  19  21
ENDBRANCH  18  19
ENDBRANCH   1  18
TORSDOF 12
ENDMDL
MODEL 3
REMARK VINA RESULT:     -12.7      1.313      2.327
REMARK SMILES Cc1ccc(C(=O)OCCOC(=O)c2ccc(-c3c4nc(c(-c5c(F)c(F)c(F)c(F)c5F)c5ccc([nH]5)c(-c5c(F)c(F)c(F)c(F)c5F)c5nc(c(-c6c(F)c(F)c(F)c(F)c6F)c6ccc3[nH]6)C=C5)C=C4)cc2)cc1N1CC(C)C1
REMARK SMILES IDX 10 1 9 2 8 3 6 4 7 5 5 6 1 7 2 8 3 9 78 10 4 11 77 12 79 13
REMARK SMILES IDX 80 14 83 15 81 16 82 17 11 18 12 19 13 20 14 21 15 22 76 23
REMARK SMILES IDX 16 24 75 25 17 26 18 27 19 28 69 29 20 30 74 31 68 32 70 33
REMARK SMILES IDX 21 34 73 35 67 36 66 37 22 39 54 40 34 41 53 42 35 43 38 44
REMARK SMILES IDX 52 45 71 46 36 47 37 48 51 50 72 51 39 52 23 53 24 54 32 55
REMARK SMILES IDX 25 56 26 57 30 58 33 59 27 60 28 61 31 62 29 63 55 64 56 65
REMARK SMILES IDX 64 66 57 67 58 68 62 69 65 70 59 71 60 72 63 73 61 74 40 75
REMARK SMILES IDX 41 76 49 77 42 78 43 79 47 80 50 81 44 82 45 83 48 84 46 85
REMARK H PARENT 70 38 38 49
REMARK Flexibility Score: inf
ROOT
ATOM      1  C   UNL A   1      38.967  22.075  26.125  1.00  0.00     0.275 C 
ENDROOT
BRANCH   1   2
ATOM      2  C   UNL A   1      37.683  22.017  25.285  1.00  0.00     0.275 C 
BRANCH   2   3
ATOM      3  O   UNL A   1      37.232  23.279  24.774  1.00  0.00    -0.458 OA
BRANCH   3   4
ATOM      4  C   UNL A   1      36.306  23.101  23.795  1.00  0.00     0.338 C 
ATOM      5  O   UNL A   1      36.562  23.021  22.598  1.00  0.00    -0.246 OA
BRANCH   4   6
ATOM      6  C   UNL A   1      34.904  23.079  24.263  1.00  0.00     0.062 A 
ATOM      7  C   UNL A   1      30.954  22.538  25.930  1.00  0.00     0.046 C 
ATOM      8  C   UNL A   1      32.313  22.700  25.303  1.00  0.00    -0.028 A 
ATOM      9  C   UNL A   1      32.882  23.986  25.225  1.00  0.00     0.006 A 
ATOM     10  C   UNL A   1      33.047  21.604  24.825  1.00  0.00     0.040 A 
ATOM     11  C   UNL A   1      34.153  24.182  24.664  1.00  0.00     0.016 A 
ATOM     12  C   UNL A   1      34.344  21.807  24.348  1.00  0.00     0.041 A 
BRANCH  10  13
ATOM     13  N   UNL A   1      32.467  20.318  24.713  1.00  0.00    -0.371 N 
ATOM     14  C   UNL A   1      32.865  19.150  25.465  1.00  0.00     0.121 C 
ATOM     15  C   UNL A   1      32.546  19.607  23.452  1.00  0.00     0.121 C 
ATOM     16  C   UNL A   1      33.344  18.510  24.160  1.00  0.00     0.025 C 
ATOM     17  C   UNL A   1      32.910  17.088  23.884  1.00  0.00     0.011 C 
ENDBRANCH  10  13
ENDBRANCH   4   6
ENDBRANCH   3   4
ENDBRANCH   2   3
ENDBRANCH   1   2
BRANCH   1  18
ATOM     18  O   UNL A   1      39.287  23.231  26.948  1.00  0.00    -0.458 OA
BRANCH  18  19
ATOM     19  C   UNL A   1      40.449  23.913  27.011  1.00  0.00     0.338 C 
ATOM     20  O   UNL A   1      41.530  23.405  26.727  1.00  0.00    -0.246 OA
BRANCH  19  21
ATOM     21  C   UNL A   1      40.378  25.304  27.468  1.00  0.00     0.060 A 
ATOM     22  C   UNL A   1      40.506  26.337  26.521  1.00  0.00     0.016 A 
ATOM     23  C   UNL A   1      40.072  25.567  28.799  1.00  0.00     0.016 A 
ATOM     24  C   UNL A   1      40.233  27.644  26.883  1.00  0.00     0.010 A 
ATOM     25  C   UNL A   1      39.660  26.827  29.128  1.00  0.00     0.010 A 
ATOM     26  C   UNL A   1      39.822  27.862  28.191  1.00  0.00    -0.014 A 
BRANCH  26  27
ATOM     27  C   UNL A   1      39.961  29.150  28.836  1.00  0.00     0.031 A 
ATOM     28  C   UNL A   1      38.878  30.133  28.778  1.00  0.00     0.074 A 
ATOM     29  C   UNL A   1      41.037  29.108  29.657  1.00  0.00     0.049 A 
ATOM     30  N   UNL A   1      39.021  31.383  29.033  1.00  0.00    -0.248 NA
ATOM     31  C   UNL A   1      37.517  29.803  28.357  1.00  0.00     0.031 C 
ATOM     32  C   UNL A   1      41.395  29.850  30.846  1.00  0.00     0.029 A 
ATOM     33  N   UNL A   1      42.150  28.263  29.453  1.00  0.00    -0.354 N 
ATOM     34  C   UNL A   1      37.753  31.885  29.252  1.00  0.00     0.074 A 
ATOM     35  C   UNL A   1      36.866  30.944  28.616  1.00  0.00     0.031 C 
ATOM     36  C   UNL A   1      42.718  29.691  31.063  1.00  0.00     0.029 A 
ATOM     37  C   UNL A   1      43.264  28.954  29.926  1.00  0.00     0.049 A 
ATOM     38  H   UNL A   1      42.141  27.363  29.055  1.00  0.00     0.167 HD
ATOM     39  C   UNL A   1      37.609  32.879  30.179  1.00  0.00     0.037 A 
ATOM     40  C   UNL A   1      44.125  29.447  28.986  1.00  0.00     0.037 A 
ATOM     41  C   UNL A   1      38.930  33.211  30.720  1.00  0.00     0.049 A 
ATOM     42  C   UNL A   1      44.042  30.952  28.978  1.00  0.00     0.074 A 
ATOM     43  C   UNL A   1      39.576  32.777  31.867  1.00  0.00     0.029 A 
ATOM     44  N   UNL A   1      39.916  33.713  29.876  1.00  0.00    -0.354 N 
ATOM     45  N   UNL A   1      42.940  31.630  29.171  1.00  0.00    -0.248 NA
ATOM     46  C   UNL A   1      45.226  31.793  28.878  1.00  0.00     0.031 C 
ATOM     47  C   UNL A   1      40.969  32.956  31.675  1.00  0.00     0.029 A 
ATOM     48  C   UNL A   1      41.171  33.475  30.406  1.00  0.00     0.049 A 
ATOM     49  H   UNL A   1      39.745  34.174  29.023  1.00  0.00     0.167 HD
ATOM     50  C   UNL A   1      43.262  32.950  29.336  1.00  0.00     0.074 A 
ATOM     51  C   UNL A   1      44.697  33.007  29.105  1.00  0.00     0.031 C 
ATOM     52  C   UNL A   1      42.366  33.911  29.710  1.00  0.00     0.037 A 
BRANCH  39  53
ATOM     53  C   UNL A   1      36.319  33.273  30.880  1.00  0.00     0.064 A 
ATOM     54  C   UNL A   1      35.380  34.105  30.223  1.00  0.00     0.173 A 
ATOM     55  C   UNL A   1      35.950  32.906  32.188  1.00  0.00     0.173 A 
ATOM     56  F   UNL A   1      35.530  34.460  28.940  1.00  0.00    -0.203 F 
ATOM     57  C   UNL A   1      34.236  34.607  30.850  1.00  0.00     0.198 A 
ATOM     58  C   UNL A   1      34.812  33.425  32.825  1.00  0.00     0.198 A 
ATOM     59  F   UNL A   1      36.640  31.995  32.882  1.00  0.00    -0.203 F 
ATOM     60  F   UNL A   1      33.406  35.410  30.171  1.00  0.00    -0.200 F 
ATOM     61  C   UNL A   1      33.962  34.284  32.160  1.00  0.00     0.200 A 
ATOM     62  F   UNL A   1      34.542  33.077  34.092  1.00  0.00    -0.200 F 
ATOM     63  F   UNL A   1      32.873  34.775  32.766  1.00  0.00    -0.200 F 
ENDBRANCH  39  53
BRANCH  40  64
ATOM     64  C   UNL A   1      44.270  28.565  27.776  1.00  0.00     0.064 A 
ATOM     65  C   UNL A   1      44.934  27.323  27.921  1.00  0.00     0.173 A 
ATOM     66  C   UNL A   1      43.546  28.750  26.591  1.00  0.00     0.173 A 
ATOM     67  F   UNL A   1      45.651  27.073  29.030  1.00  0.00    -0.203 F 
ATOM     68  C   UNL A   1      44.792  26.290  26.992  1.00  0.00     0.198 A 
ATOM     69  C   UNL A   1      43.423  27.718  25.649  1.00  0.00     0.198 A 
ATOM     70  F   UNL A   1      42.885  29.893  26.368  1.00  0.00    -0.203 F 
ATOM     71  F   UNL A   1      45.344  25.092  27.233  1.00  0.00    -0.200 F 
ATOM     72  C   UNL A   1      44.024  26.485  25.862  1.00  0.00     0.200 A 
ATOM     73  F   UNL A   1      42.647  27.888  24.567  1.00  0.00    -0.200 F 
ATOM     74  F   UNL A   1      43.816  25.476  25.003  1.00  0.00    -0.200 F 
ENDBRANCH  40  64
BRANCH  52  75
ATOM     75  C   UNL A   1      42.589  35.391  29.558  1.00  0.00     0.064 A 
ATOM     76  C   UNL A   1      43.440  36.123  30.400  1.00  0.00     0.173 A 
ATOM     77  C   UNL A   1      42.090  36.085  28.429  1.00  0.00     0.173 A 
ATOM     78  F   UNL A   1      44.081  35.543  31.423  1.00  0.00    -0.203 F 
ATOM     79  C   UNL A   1      43.706  37.472  30.176  1.00  0.00     0.198 A 
ATOM     80  C   UNL A   1      42.425  37.407  28.166  1.00  0.00     0.198 A 
ATOM     81  F   UNL A   1      41.294  35.493  27.527  1.00  0.00    -0.203 F 
ATOM     82  F   UNL A   1      44.474  38.144  31.043  1.00  0.00    -0.200 F 
ATOM     83  C   UNL A   1      43.214  38.109  29.053  1.00  0.00     0.200 A 
ATOM     84  F   UNL A   1      41.999  37.988  27.036  1.00  0.00    -0.200 F 
ATOM     85  F   UNL A   1      43.517  39.390  28.814  1.00  0.00    -0.200 F 
ENDBRANCH  52  75
ENDBRANCH  26  27
ENDBRANCH  19  21
ENDBRANCH  18  19
ENDBRANCH   1  18
TORSDOF 12
ENDMDL
