MODEL 1
REMARK VINA RESULT:     -11.2      0.000      0.000
REMARK SMILES CCCCCCNC(=O)Oc1cccc(-c2ccc([C@@H](C)C(=O)OCCOC(=O)c3ccc(-c4c5nc(c(-c6c(F)c(F)c(F)c(F)c6F)c6ccc([nH]6)c(-c6c(F)c(F)c(F)c(F)c6F)c6nc(c(-c7c(F)c(F)c(F)c(F)c7F)c7ccc4[nH]7)C=C6)C=C5)cc3)cc2Cl)c1
REMARK SMILES IDX 20 1 21 2 19 3 16 4 17 5 94 6 18 7 93 8 95 9 15 10 11 11
REMARK SMILES IDX 12 12 96 13 13 14 14 15 10 16 8 17 7 18 9 20 6 21 5 22 4 23
REMARK SMILES IDX 3 24 2 25 1 26 22 27 23 28 24 29 25 30 26 31 27 32 28 33
REMARK SMILES IDX 29 34 30 35 31 36 92 37 32 38 91 39 33 40 34 41 35 42 85 43
REMARK SMILES IDX 36 44 90 45 84 46 86 47 37 48 89 49 83 50 82 51 38 53 70 54
REMARK SMILES IDX 50 55 69 56 51 57 54 58 68 59 87 60 52 61 53 62 67 64 88 65
REMARK SMILES IDX 55 66 39 67 40 68 48 69 41 70 42 71 46 72 49 73 43 74 44 75
REMARK SMILES IDX 47 76 45 77 71 78 72 79 80 80 73 81 74 82 78 83 81 84 75 85
REMARK SMILES IDX 76 86 79 87 77 88 56 89 57 90 65 91 58 92 59 93 63 94 66 95
REMARK SMILES IDX 60 96 61 97 64 98 62 99
REMARK H PARENT 7 19 86 52 54 63
REMARK Flexibility Score: inf
ROOT
ATOM      1  C   UNL A   1      41.675  22.419  26.942  1.00  0.00     0.126 C 
ATOM      2  C   UNL A   1      41.920  22.127  28.420  1.00  0.00     0.025 C 
ENDROOT
BRANCH   1   3
ATOM      3  C   UNL A   1      40.204  22.657  26.634  1.00  0.00    -0.033 A 
ATOM      4  C   UNL A   1      37.461  23.066  25.944  1.00  0.00     0.000 A 
ATOM      5  C   UNL A   1      38.232  24.076  26.551  1.00  0.00     0.010 A 
ATOM      6  C   UNL A   1      38.091  21.831  25.710  1.00  0.00     0.049 A 
ATOM      7  C   UNL A   1      39.577  23.880  26.883  1.00  0.00     0.005 A 
ATOM      8  C   UNL A   1      39.438  21.635  26.049  1.00  0.00     0.025 A 
ATOM      9  Cl  UNL A   1      37.291  20.505  24.930  1.00  0.00    -0.084 Cl
BRANCH   4  10
ATOM     10  C   UNL A   1      36.077  23.374  25.528  1.00  0.00    -0.013 A 
ATOM     11  C   UNL A   1      34.438  24.071  23.882  1.00  0.00     0.133 A 
ATOM     12  C   UNL A   1      33.420  24.029  24.832  1.00  0.00     0.047 A 
ATOM     13  C   UNL A   1      35.754  23.745  24.212  1.00  0.00     0.056 A 
ATOM     14  C   UNL A   1      33.719  23.638  26.132  1.00  0.00     0.004 A 
ATOM     15  C   UNL A   1      35.035  23.320  26.476  1.00  0.00     0.009 A 
BRANCH  11  16
ATOM     16  O   UNL A   1      34.096  24.598  22.624  1.00  0.00    -0.410 OA
BRANCH  16  17
ATOM     17  C   UNL A   1      33.096  23.982  21.888  1.00  0.00     0.412 C 
ATOM     18  N   UNL A   1      32.246  24.874  21.292  1.00  0.00    -0.321 N 
ATOM     19  H   UNL A   1      31.517  24.494  20.752  1.00  0.00     0.167 HD
ATOM     20  O   UNL A   1      32.931  22.775  21.762  1.00  0.00    -0.224 OA
BRANCH  18  21
ATOM     21  C   UNL A   1      32.306  26.321  21.372  1.00  0.00     0.119 C 
BRANCH  21  22
ATOM     22  C   UNL A   1      31.372  26.877  22.447  1.00  0.00     0.021 C 
BRANCH  22  23
ATOM     23  C   UNL A   1      32.044  27.190  23.789  1.00  0.00     0.002 C 
BRANCH  23  24
ATOM     24  C   UNL A   1      33.097  28.304  23.761  1.00  0.00    -0.000 C 
BRANCH  24  25
ATOM     25  C   UNL A   1      33.895  28.489  25.054  1.00  0.00    -0.003 C 
ATOM     26  C   UNL A   1      33.729  27.339  26.036  1.00  0.00     0.004 C 
ENDBRANCH  24  25
ENDBRANCH  23  24
ENDBRANCH  22  23
ENDBRANCH  21  22
ENDBRANCH  18  21
ENDBRANCH  16  17
ENDBRANCH  11  16
ENDBRANCH   4  10
ENDBRANCH   1   3
BRANCH   1  27
ATOM     27  C   UNL A   1      42.386  21.384  26.078  1.00  0.00     0.313 C 
ATOM     28  O   UNL A   1      42.355  20.187  26.343  1.00  0.00    -0.252 OA
BRANCH  27  29
ATOM     29  O   UNL A   1      43.001  21.911  24.989  1.00  0.00    -0.462 OA
BRANCH  29  30
ATOM     30  C   UNL A   1      44.410  21.647  24.845  1.00  0.00     0.274 C 
BRANCH  30  31
ATOM     31  C   UNL A   1      45.202  22.933  24.594  1.00  0.00     0.275 C 
BRANCH  31  32
ATOM     32  O   UNL A   1      44.358  24.096  24.682  1.00  0.00    -0.458 OA
BRANCH  32  33
ATOM     33  C   UNL A   1      44.990  25.229  25.064  1.00  0.00     0.338 C 
ATOM     34  O   UNL A   1      46.011  25.702  24.596  1.00  0.00    -0.246 OA
BRANCH  33  35
ATOM     35  C   UNL A   1      44.190  25.934  26.075  1.00  0.00     0.060 A 
ATOM     36  C   UNL A   1      44.456  27.289  26.281  1.00  0.00     0.016 A 
ATOM     37  C   UNL A   1      43.274  25.262  26.884  1.00  0.00     0.016 A 
ATOM     38  C   UNL A   1      43.835  27.978  27.316  1.00  0.00     0.010 A 
ATOM     39  C   UNL A   1      42.638  25.957  27.919  1.00  0.00     0.010 A 
ATOM     40  C   UNL A   1      42.932  27.313  28.153  1.00  0.00    -0.014 A 
BRANCH  40  41
ATOM     41  C   UNL A   1      42.358  28.038  29.313  1.00  0.00     0.031 A 
ATOM     42  C   UNL A   1      43.081  28.037  30.628  1.00  0.00     0.074 A 
ATOM     43  C   UNL A   1      41.216  28.736  29.168  1.00  0.00     0.049 A 
ATOM     44  N   UNL A   1      42.736  28.588  31.764  1.00  0.00    -0.248 NA
ATOM     45  C   UNL A   1      44.364  27.317  30.674  1.00  0.00     0.031 C 
ATOM     46  C   UNL A   1      40.443  28.839  27.930  1.00  0.00     0.029 A 
ATOM     47  N   UNL A   1      40.511  29.493  30.069  1.00  0.00    -0.354 N 
ATOM     48  C   UNL A   1      43.742  28.262  32.663  1.00  0.00     0.074 A 
ATOM     49  C   UNL A   1      44.707  27.455  31.947  1.00  0.00     0.031 C 
ATOM     50  C   UNL A   1      39.370  29.616  28.150  1.00  0.00     0.029 A 
ATOM     51  C   UNL A   1      39.364  30.036  29.549  1.00  0.00     0.049 A 
ATOM     52  H   UNL A   1      40.802  29.634  31.000  1.00  0.00     0.167 HD
ATOM     53  C   UNL A   1      43.851  28.610  33.969  1.00  0.00     0.037 A 
ATOM     54  C   UNL A   1      38.404  30.772  30.143  1.00  0.00     0.037 A 
ATOM     55  C   UNL A   1      42.908  29.441  34.671  1.00  0.00     0.049 A 
ATOM     56  C   UNL A   1      38.543  31.128  31.597  1.00  0.00     0.074 A 
ATOM     57  C   UNL A   1      42.954  29.882  35.981  1.00  0.00     0.029 A 
ATOM     58  N   UNL A   1      41.748  29.960  34.115  1.00  0.00    -0.354 N 
ATOM     59  N   UNL A   1      39.505  30.829  32.435  1.00  0.00    -0.248 NA
ATOM     60  C   UNL A   1      37.459  31.924  32.191  1.00  0.00     0.031 C 
ATOM     61  C   UNL A   1      41.802  30.634  36.232  1.00  0.00     0.029 A 
ATOM     62  C   UNL A   1      41.058  30.697  35.064  1.00  0.00     0.049 A 
ATOM     63  H   UNL A   1      41.458  29.824  33.184  1.00  0.00     0.167 HD
ATOM     64  C   UNL A   1      39.155  31.412  33.645  1.00  0.00     0.074 A 
ATOM     65  C   UNL A   1      37.899  32.100  33.428  1.00  0.00     0.031 C 
ATOM     66  C   UNL A   1      39.810  31.375  34.830  1.00  0.00     0.037 A 
BRANCH  53  67
ATOM     67  C   UNL A   1      45.019  28.069  34.736  1.00  0.00     0.064 A 
ATOM     68  C   UNL A   1      44.963  26.834  35.397  1.00  0.00     0.173 A 
ATOM     69  C   UNL A   1      46.229  28.780  34.771  1.00  0.00     0.173 A 
ATOM     70  F   UNL A   1      43.826  26.122  35.403  1.00  0.00    -0.203 F 
ATOM     71  C   UNL A   1      46.071  26.338  36.081  1.00  0.00     0.198 A 
ATOM     72  C   UNL A   1      47.341  28.270  35.435  1.00  0.00     0.198 A 
ATOM     73  F   UNL A   1      46.335  29.965  34.149  1.00  0.00    -0.203 F 
ATOM     74  F   UNL A   1      45.985  25.171  36.736  1.00  0.00    -0.200 F 
ATOM     75  C   UNL A   1      47.260  27.053  36.094  1.00  0.00     0.200 A 
ATOM     76  F   UNL A   1      48.491  28.957  35.437  1.00  0.00    -0.200 F 
ATOM     77  F   UNL A   1      48.326  26.570  36.745  1.00  0.00    -0.200 F 
ENDBRANCH  53  67
BRANCH  54  78
ATOM     78  C   UNL A   1      37.216  31.204  29.364  1.00  0.00     0.064 A 
ATOM     79  C   UNL A   1      37.083  32.526  28.918  1.00  0.00     0.173 A 
ATOM     80  C   UNL A   1      36.182  30.306  29.064  1.00  0.00     0.173 A 
ATOM     81  F   UNL A   1      38.034  33.428  29.203  1.00  0.00    -0.203 F 
ATOM     82  C   UNL A   1      35.951  32.938  28.216  1.00  0.00     0.198 A 
ATOM     83  C   UNL A   1      35.063  30.712  28.339  1.00  0.00     0.198 A 
ATOM     84  F   UNL A   1      36.260  29.030  29.471  1.00  0.00    -0.203 F 
ATOM     85  F   UNL A   1      35.827  34.218  27.842  1.00  0.00    -0.200 F 
ATOM     86  C   UNL A   1      34.945  32.029  27.924  1.00  0.00     0.200 A 
ATOM     87  F   UNL A   1      34.098  29.828  28.050  1.00  0.00    -0.200 F 
ATOM     88  F   UNL A   1      33.858  32.425  27.248  1.00  0.00    -0.200 F 
ENDBRANCH  54  78
BRANCH  66  89
ATOM     89  C   UNL A   1      39.189  32.117  35.977  1.00  0.00     0.064 A 
ATOM     90  C   UNL A   1      38.292  31.489  36.854  1.00  0.00     0.173 A 
ATOM     91  C   UNL A   1      39.516  33.459  36.218  1.00  0.00     0.173 A 
ATOM     92  F   UNL A   1      37.937  30.211  36.654  1.00  0.00    -0.203 F 
ATOM     93  C   UNL A   1      37.724  32.188  37.916  1.00  0.00     0.198 A 
ATOM     94  C   UNL A   1      38.967  34.147  37.297  1.00  0.00     0.198 A 
ATOM     95  F   UNL A   1      40.372  34.102  35.411  1.00  0.00    -0.203 F 
ATOM     96  F   UNL A   1      36.835  31.582  38.715  1.00  0.00    -0.200 F 
ATOM     97  C   UNL A   1      38.066  33.513  38.140  1.00  0.00     0.200 A 
ATOM     98  F   UNL A   1      39.305  35.424  37.518  1.00  0.00    -0.200 F 
ATOM     99  F   UNL A   1      37.521  34.182  39.165  1.00  0.00    -0.200 F 
ENDBRANCH  66  89
ENDBRANCH  40  41
ENDBRANCH  33  35
ENDBRANCH  32  33
ENDBRANCH  31  32
ENDBRANCH  30  31
ENDBRANCH  29  30
ENDBRANCH  27  29
ENDBRANCH   1  27
TORSDOF 20
ENDMDL
MODEL 2
REMARK VINA RESULT:     -11.1      4.029      9.325
REMARK SMILES CCCCCCNC(=O)Oc1cccc(-c2ccc([C@@H](C)C(=O)OCCOC(=O)c3ccc(-c4c5nc(c(-c6c(F)c(F)c(F)c(F)c6F)c6ccc([nH]6)c(-c6c(F)c(F)c(F)c(F)c6F)c6nc(c(-c7c(F)c(F)c(F)c(F)c7F)c7ccc4[nH]7)C=C6)C=C5)cc3)cc2Cl)c1
REMARK SMILES IDX 20 1 21 2 19 3 16 4 17 5 94 6 18 7 93 8 95 9 15 10 11 11
REMARK SMILES IDX 12 12 96 13 13 14 14 15 10 16 8 17 7 18 9 20 6 21 5 22 4 23
REMARK SMILES IDX 3 24 2 25 1 26 22 27 23 28 24 29 25 30 26 31 27 32 28 33
REMARK SMILES IDX 29 34 30 35 31 36 92 37 32 38 91 39 33 40 34 41 35 42 85 43
REMARK SMILES IDX 36 44 90 45 84 46 86 47 37 48 89 49 83 50 82 51 38 53 70 54
REMARK SMILES IDX 50 55 69 56 51 57 54 58 68 59 87 60 52 61 53 62 67 64 88 65
REMARK SMILES IDX 55 66 39 67 40 68 48 69 41 70 42 71 46 72 49 73 43 74 44 75
REMARK SMILES IDX 47 76 45 77 71 78 72 79 80 80 73 81 74 82 78 83 81 84 75 85
REMARK SMILES IDX 76 86 79 87 77 88 56 89 57 90 65 91 58 92 59 93 63 94 66 95
REMARK SMILES IDX 60 96 61 97 64 98 62 99
REMARK H PARENT 7 19 86 52 54 63
REMARK Flexibility Score: inf
ROOT
ATOM      1  C   UNL A   1      34.391  32.506  28.870  1.00  0.00     0.126 C 
ATOM      2  C   UNL A   1      34.778  32.134  30.299  1.00  0.00     0.025 C 
ENDROOT
BRANCH   1   3
ATOM      3  C   UNL A   1      34.248  31.287  27.971  1.00  0.00    -0.033 A 
ATOM      4  C   UNL A   1      33.871  28.981  26.325  1.00  0.00     0.000 A 
ATOM      5  C   UNL A   1      35.006  29.130  27.146  1.00  0.00     0.010 A 
ATOM      6  C   UNL A   1      32.935  30.031  26.329  1.00  0.00     0.049 A 
ATOM      7  C   UNL A   1      35.189  30.254  27.958  1.00  0.00     0.005 A 
ATOM      8  C   UNL A   1      33.124  31.161  27.139  1.00  0.00     0.025 A 
ATOM      9  Cl  UNL A   1      31.466  29.977  25.409  1.00  0.00    -0.084 Cl
BRANCH   4  10
ATOM     10  C   UNL A   1      33.692  27.723  25.572  1.00  0.00    -0.013 A 
ATOM     11  C   UNL A   1      33.419  25.316  25.451  1.00  0.00     0.133 A 
ATOM     12  C   UNL A   1      33.438  25.353  24.059  1.00  0.00     0.047 A 
ATOM     13  C   UNL A   1      33.539  26.481  26.210  1.00  0.00     0.056 A 
ATOM     14  C   UNL A   1      33.562  26.577  23.411  1.00  0.00     0.004 A 
ATOM     15  C   UNL A   1      33.693  27.748  24.163  1.00  0.00     0.009 A 
BRANCH  11  16
ATOM     16  O   UNL A   1      33.424  24.041  26.042  1.00  0.00    -0.410 OA
BRANCH  16  17
ATOM     17  C   UNL A   1      32.265  23.576  26.643  1.00  0.00     0.412 C 
ATOM     18  N   UNL A   1      32.100  22.223  26.509  1.00  0.00    -0.321 N 
ATOM     19  H   UNL A   1      31.295  21.835  26.920  1.00  0.00     0.167 HD
ATOM     20  O   UNL A   1      31.432  24.256  27.229  1.00  0.00    -0.224 OA
BRANCH  18  21
ATOM     21  C   UNL A   1      32.987  21.302  25.825  1.00  0.00     0.119 C 
BRANCH  21  22
ATOM     22  C   UNL A   1      32.221  20.298  24.963  1.00  0.00     0.021 C 
BRANCH  22  23
ATOM     23  C   UNL A   1      33.070  19.563  23.920  1.00  0.00     0.002 C 
BRANCH  23  24
ATOM     24  C   UNL A   1      34.103  18.578  24.478  1.00  0.00    -0.000 C 
BRANCH  24  25
ATOM     25  C   UNL A   1      34.166  17.219  23.776  1.00  0.00    -0.003 C 
ATOM     26  C   UNL A   1      33.426  16.119  24.522  1.00  0.00     0.004 C 
ENDBRANCH  24  25
ENDBRANCH  23  24
ENDBRANCH  22  23
ENDBRANCH  21  22
ENDBRANCH  18  21
ENDBRANCH  16  17
ENDBRANCH  11  16
ENDBRANCH   4  10
ENDBRANCH   1   3
BRANCH   1  27
ATOM     27  C   UNL A   1      35.294  33.621  28.356  1.00  0.00     0.313 C 
ATOM     28  O   UNL A   1      36.505  33.468  28.229  1.00  0.00    -0.252 OA
BRANCH  27  29
ATOM     29  O   UNL A   1      34.627  34.754  28.018  1.00  0.00    -0.462 OA
BRANCH  29  30
ATOM     30  C   UNL A   1      33.254  34.853  28.445  1.00  0.00     0.274 C 
BRANCH  30  31
ATOM     31  C   UNL A   1      33.101  35.802  29.635  1.00  0.00     0.275 C 
BRANCH  31  32
ATOM     32  O   UNL A   1      32.594  35.116  30.795  1.00  0.00    -0.458 OA
BRANCH  32  33
ATOM     33  C   UNL A   1      32.923  35.680  31.979  1.00  0.00     0.338 C 
ATOM     34  O   UNL A   1      32.307  36.537  32.590  1.00  0.00    -0.246 OA
BRANCH  33  35
ATOM     35  C   UNL A   1      34.106  35.013  32.541  1.00  0.00     0.060 A 
ATOM     36  C   UNL A   1      35.359  35.530  32.206  1.00  0.00     0.016 A 
ATOM     37  C   UNL A   1      34.000  33.842  33.290  1.00  0.00     0.016 A 
ATOM     38  C   UNL A   1      36.518  34.865  32.590  1.00  0.00     0.010 A 
ATOM     39  C   UNL A   1      35.166  33.177  33.687  1.00  0.00     0.010 A 
ATOM     40  C   UNL A   1      36.430  33.674  33.320  1.00  0.00    -0.014 A 
BRANCH  40  41
ATOM     41  C   UNL A   1      37.673  32.928  33.630  1.00  0.00     0.031 A 
ATOM     42  C   UNL A   1      38.386  33.169  34.929  1.00  0.00     0.074 A 
ATOM     43  C   UNL A   1      38.130  32.000  32.769  1.00  0.00     0.049 A 
ATOM     44  N   UNL A   1      39.496  32.638  35.377  1.00  0.00    -0.248 NA
ATOM     45  C   UNL A   1      37.770  34.140  35.847  1.00  0.00     0.031 C 
ATOM     46  C   UNL A   1      37.504  31.655  31.492  1.00  0.00     0.029 A 
ATOM     47  N   UNL A   1      39.226  31.178  32.840  1.00  0.00    -0.354 N 
ATOM     48  C   UNL A   1      39.724  33.226  36.613  1.00  0.00     0.074 A 
ATOM     49  C   UNL A   1      38.645  34.164  36.843  1.00  0.00     0.031 C 
ATOM     50  C   UNL A   1      38.227  30.689  30.900  1.00  0.00     0.029 A 
ATOM     51  C   UNL A   1      39.381  30.374  31.739  1.00  0.00     0.049 A 
ATOM     52  H   UNL A   1      39.842  31.164  33.609  1.00  0.00     0.167 HD
ATOM     53  C   UNL A   1      40.741  32.999  37.479  1.00  0.00     0.037 A 
ATOM     54  C   UNL A   1      40.357  29.498  31.432  1.00  0.00     0.037 A 
ATOM     55  C   UNL A   1      41.794  32.041  37.265  1.00  0.00     0.049 A 
ATOM     56  C   UNL A   1      41.483  29.280  32.405  1.00  0.00     0.074 A 
ATOM     57  C   UNL A   1      42.844  31.710  38.103  1.00  0.00     0.029 A 
ATOM     58  N   UNL A   1      41.926  31.256  36.129  1.00  0.00    -0.354 N 
ATOM     59  N   UNL A   1      41.681  29.828  33.578  1.00  0.00    -0.248 NA
ATOM     60  C   UNL A   1      42.522  28.319  32.010  1.00  0.00     0.031 C 
ATOM     61  C   UNL A   1      43.636  30.755  37.458  1.00  0.00     0.029 A 
ATOM     62  C   UNL A   1      43.055  30.459  36.235  1.00  0.00     0.049 A 
ATOM     63  H   UNL A   1      41.309  31.264  35.362  1.00  0.00     0.167 HD
ATOM     64  C   UNL A   1      42.854  29.270  34.068  1.00  0.00     0.074 A 
ATOM     65  C   UNL A   1      43.313  28.323  33.073  1.00  0.00     0.031 C 
ATOM     66  C   UNL A   1      43.496  29.523  35.234  1.00  0.00     0.037 A 
BRANCH  53  67
ATOM     67  C   UNL A   1      40.782  33.821  38.732  1.00  0.00     0.064 A 
ATOM     68  C   UNL A   1      40.059  33.462  39.878  1.00  0.00     0.173 A 
ATOM     69  C   UNL A   1      41.595  34.964  38.798  1.00  0.00     0.173 A 
ATOM     70  F   UNL A   1      39.259  32.385  39.861  1.00  0.00    -0.203 F 
ATOM     71  C   UNL A   1      40.135  34.227  41.040  1.00  0.00     0.198 A 
ATOM     72  C   UNL A   1      41.687  35.712  39.968  1.00  0.00     0.198 A 
ATOM     73  F   UNL A   1      42.311  35.347  37.729  1.00  0.00    -0.203 F 
ATOM     74  F   UNL A   1      39.408  33.885  42.114  1.00  0.00    -0.200 F 
ATOM     75  C   UNL A   1      40.953  35.346  41.086  1.00  0.00     0.200 A 
ATOM     76  F   UNL A   1      42.485  36.787  40.014  1.00  0.00    -0.200 F 
ATOM     77  F   UNL A   1      41.030  36.076  42.207  1.00  0.00    -0.200 F 
ENDBRANCH  53  67
BRANCH  54  78
ATOM     78  C   UNL A   1      40.322  28.777  30.134  1.00  0.00     0.064 A 
ATOM     79  C   UNL A   1      39.658  27.550  30.004  1.00  0.00     0.173 A 
ATOM     80  C   UNL A   1      40.967  29.294  29.001  1.00  0.00     0.173 A 
ATOM     81  F   UNL A   1      39.049  27.002  31.067  1.00  0.00    -0.203 F 
ATOM     82  C   UNL A   1      39.655  26.858  28.794  1.00  0.00     0.198 A 
ATOM     83  C   UNL A   1      40.941  28.615  27.785  1.00  0.00     0.198 A 
ATOM     84  F   UNL A   1      41.619  30.464  29.074  1.00  0.00    -0.203 F 
ATOM     85  F   UNL A   1      39.054  25.665  28.709  1.00  0.00    -0.200 F 
ATOM     86  C   UNL A   1      40.292  27.394  27.685  1.00  0.00     0.200 A 
ATOM     87  F   UNL A   1      41.549  29.142  26.713  1.00  0.00    -0.200 F 
ATOM     88  F   UNL A   1      40.289  26.729  26.522  1.00  0.00    -0.200 F 
ENDBRANCH  54  78
BRANCH  66  89
ATOM     89  C   UNL A   1      44.753  28.749  35.503  1.00  0.00     0.064 A 
ATOM     90  C   UNL A   1      44.721  27.502  36.145  1.00  0.00     0.173 A 
ATOM     91  C   UNL A   1      45.997  29.246  35.089  1.00  0.00     0.173 A 
ATOM     92  F   UNL A   1      43.556  26.994  36.575  1.00  0.00    -0.203 F 
ATOM     93  C   UNL A   1      45.895  26.793  36.387  1.00  0.00     0.198 A 
ATOM     94  C   UNL A   1      47.166  28.520  35.308  1.00  0.00     0.198 A 
ATOM     95  F   UNL A   1      46.080  30.430  34.466  1.00  0.00    -0.203 F 
ATOM     96  F   UNL A   1      45.846  25.625  37.042  1.00  0.00    -0.200 F 
ATOM     97  C   UNL A   1      47.114  27.299  35.963  1.00  0.00     0.200 A 
ATOM     98  F   UNL A   1      48.342  29.006  34.890  1.00  0.00    -0.200 F 
ATOM     99  F   UNL A   1      48.242  26.613  36.193  1.00  0.00    -0.200 F 
ENDBRANCH  66  89
ENDBRANCH  40  41
ENDBRANCH  33  35
ENDBRANCH  32  33
ENDBRANCH  31  32
ENDBRANCH  30  31
ENDBRANCH  29  30
ENDBRANCH  27  29
ENDBRANCH   1  27
TORSDOF 20
ENDMDL
MODEL 3
REMARK VINA RESULT:     -11.0      0.990      2.244
REMARK SMILES CCCCCCNC(=O)Oc1cccc(-c2ccc([C@@H](C)C(=O)OCCOC(=O)c3ccc(-c4c5nc(c(-c6c(F)c(F)c(F)c(F)c6F)c6ccc([nH]6)c(-c6c(F)c(F)c(F)c(F)c6F)c6nc(c(-c7c(F)c(F)c(F)c(F)c7F)c7ccc4[nH]7)C=C6)C=C5)cc3)cc2Cl)c1
REMARK SMILES IDX 20 1 21 2 19 3 16 4 17 5 94 6 18 7 93 8 95 9 15 10 11 11
REMARK SMILES IDX 12 12 96 13 13 14 14 15 10 16 8 17 7 18 9 20 6 21 5 22 4 23
REMARK SMILES IDX 3 24 2 25 1 26 22 27 23 28 24 29 25 30 26 31 27 32 28 33
REMARK SMILES IDX 29 34 30 35 31 36 92 37 32 38 91 39 33 40 34 41 35 42 85 43
REMARK SMILES IDX 36 44 90 45 84 46 86 47 37 48 89 49 83 50 82 51 38 53 70 54
REMARK SMILES IDX 50 55 69 56 51 57 54 58 68 59 87 60 52 61 53 62 67 64 88 65
REMARK SMILES IDX 55 66 39 67 40 68 48 69 41 70 42 71 46 72 49 73 43 74 44 75
REMARK SMILES IDX 47 76 45 77 71 78 72 79 80 80 73 81 74 82 78 83 81 84 75 85
REMARK SMILES IDX 76 86 79 87 77 88 56 89 57 90 65 91 58 92 59 93 63 94 66 95
REMARK SMILES IDX 60 96 61 97 64 98 62 99
REMARK H PARENT 7 19 86 52 54 63
REMARK Flexibility Score: inf
ROOT
ATOM      1  C   UNL A   1      41.474  22.352  27.009  1.00  0.00     0.126 C 
ATOM      2  C   UNL A   1      41.696  21.901  28.450  1.00  0.00     0.025 C 
ENDROOT
BRANCH   1   3
ATOM      3  C   UNL A   1      40.008  22.627  26.706  1.00  0.00    -0.033 A 
ATOM      4  C   UNL A   1      37.274  23.108  26.025  1.00  0.00     0.000 A 
ATOM      5  C   UNL A   1      38.062  24.084  26.665  1.00  0.00     0.010 A 
ATOM      6  C   UNL A   1      37.882  21.869  25.754  1.00  0.00     0.049 A 
ATOM      7  C   UNL A   1      39.403  23.853  26.992  1.00  0.00     0.005 A 
ATOM      8  C   UNL A   1      39.225  21.637  26.089  1.00  0.00     0.025 A 
ATOM      9  Cl  UNL A   1      37.059  20.583  24.931  1.00  0.00    -0.084 Cl
BRANCH   4  10
ATOM     10  C   UNL A   1      35.897  23.454  25.617  1.00  0.00    -0.013 A 
ATOM     11  C   UNL A   1      34.309  24.590  24.179  1.00  0.00     0.133 A 
ATOM     12  C   UNL A   1      33.240  24.140  24.951  1.00  0.00     0.047 A 
ATOM     13  C   UNL A   1      35.626  24.254  24.495  1.00  0.00     0.056 A 
ATOM     14  C   UNL A   1      33.490  23.325  26.050  1.00  0.00     0.004 A 
ATOM     15  C   UNL A   1      34.806  22.992  26.381  1.00  0.00     0.009 A 
BRANCH  11  16
ATOM     16  O   UNL A   1      34.000  25.514  23.165  1.00  0.00    -0.410 OA
BRANCH  16  17
ATOM     17  C   UNL A   1      33.200  25.107  22.109  1.00  0.00     0.412 C 
ATOM     18  N   UNL A   1      32.259  26.040  21.763  1.00  0.00    -0.321 N 
ATOM     19  H   UNL A   1      31.663  25.808  21.015  1.00  0.00     0.167 HD
ATOM     20  O   UNL A   1      33.268  24.035  21.521  1.00  0.00    -0.224 OA
BRANCH  18  21
ATOM     21  C   UNL A   1      32.048  27.335  22.381  1.00  0.00     0.119 C 
BRANCH  21  22
ATOM     22  C   UNL A   1      30.580  27.572  22.734  1.00  0.00     0.021 C 
BRANCH  22  23
ATOM     23  C   UNL A   1      30.007  28.909  22.249  1.00  0.00     0.002 C 
BRANCH  23  24
ATOM     24  C   UNL A   1      29.357  29.784  23.327  1.00  0.00    -0.000 C 
BRANCH  24  25
ATOM     25  C   UNL A   1      27.921  30.226  23.039  1.00  0.00    -0.003 C 
ATOM     26  C   UNL A   1      27.573  31.578  23.645  1.00  0.00     0.004 C 
ENDBRANCH  24  25
ENDBRANCH  23  24
ENDBRANCH  22  23
ENDBRANCH  21  22
ENDBRANCH  18  21
ENDBRANCH  16  17
ENDBRANCH  11  16
ENDBRANCH   4  10
ENDBRANCH   1   3
BRANCH   1  27
ATOM     27  C   UNL A   1      42.197  21.416  26.049  1.00  0.00     0.313 C 
ATOM     28  O   UNL A   1      42.217  20.201  26.219  1.00  0.00    -0.252 OA
BRANCH  27  29
ATOM     29  O   UNL A   1      42.760  22.049  24.988  1.00  0.00    -0.462 OA
BRANCH  29  30
ATOM     30  C   UNL A   1      44.136  21.734  24.698  1.00  0.00     0.274 C 
BRANCH  30  31
ATOM     31  C   UNL A   1      44.989  22.999  24.573  1.00  0.00     0.275 C 
BRANCH  31  32
ATOM     32  O   UNL A   1      44.180  24.189  24.640  1.00  0.00    -0.458 OA
BRANCH  32  33
ATOM     33  C   UNL A   1      44.831  25.295  25.068  1.00  0.00     0.338 C 
ATOM     34  O   UNL A   1      45.865  25.764  24.626  1.00  0.00    -0.246 OA
BRANCH  33  35
ATOM     35  C   UNL A   1      44.035  25.978  26.097  1.00  0.00     0.060 A 
ATOM     36  C   UNL A   1      44.281  27.336  26.308  1.00  0.00     0.016 A 
ATOM     37  C   UNL A   1      43.144  25.285  26.916  1.00  0.00     0.016 A 
ATOM     38  C   UNL A   1      43.664  28.007  27.358  1.00  0.00     0.010 A 
ATOM     39  C   UNL A   1      42.513  25.962  27.966  1.00  0.00     0.010 A 
ATOM     40  C   UNL A   1      42.787  27.321  28.205  1.00  0.00    -0.014 A 
BRANCH  40  41
ATOM     41  C   UNL A   1      42.220  28.028  29.378  1.00  0.00     0.031 A 
ATOM     42  C   UNL A   1      42.937  27.984  30.697  1.00  0.00     0.074 A 
ATOM     43  C   UNL A   1      41.090  28.747  29.245  1.00  0.00     0.049 A 
ATOM     44  N   UNL A   1      42.595  28.513  31.844  1.00  0.00    -0.248 NA
ATOM     45  C   UNL A   1      44.207  27.243  30.731  1.00  0.00     0.031 C 
ATOM     46  C   UNL A   1      40.324  28.891  28.007  1.00  0.00     0.029 A 
ATOM     47  N   UNL A   1      40.393  29.494  30.161  1.00  0.00    -0.354 N 
ATOM     48  C   UNL A   1      43.591  28.151  32.739  1.00  0.00     0.074 A 
ATOM     49  C   UNL A   1      44.547  27.345  32.008  1.00  0.00     0.031 C 
ATOM     50  C   UNL A   1      39.262  29.680  28.241  1.00  0.00     0.029 A 
ATOM     51  C   UNL A   1      39.257  30.067  29.649  1.00  0.00     0.049 A 
ATOM     52  H   UNL A   1      40.682  29.608  31.096  1.00  0.00     0.167 HD
ATOM     53  C   UNL A   1      43.699  28.465  34.053  1.00  0.00     0.037 A 
ATOM     54  C   UNL A   1      38.306  30.805  30.256  1.00  0.00     0.037 A 
ATOM     55  C   UNL A   1      42.767  29.295  34.770  1.00  0.00     0.049 A 
ATOM     56  C   UNL A   1      38.444  31.124  31.719  1.00  0.00     0.074 A 
ATOM     57  C   UNL A   1      42.815  29.705  36.091  1.00  0.00     0.029 A 
ATOM     58  N   UNL A   1      41.618  29.845  34.222  1.00  0.00    -0.354 N 
ATOM     59  N   UNL A   1      39.398  30.790  32.553  1.00  0.00    -0.248 NA
ATOM     60  C   UNL A   1      37.370  31.923  32.326  1.00  0.00     0.031 C 
ATOM     61  C   UNL A   1      41.673  30.469  36.354  1.00  0.00     0.029 A 
ATOM     62  C   UNL A   1      40.936  30.571  35.186  1.00  0.00     0.049 A 
ATOM     63  H   UNL A   1      41.330  29.737  33.287  1.00  0.00     0.167 HD
ATOM     64  C   UNL A   1      39.051  31.350  33.775  1.00  0.00     0.074 A 
ATOM     65  C   UNL A   1      37.807  32.063  33.570  1.00  0.00     0.031 C 
ATOM     66  C   UNL A   1      39.700  31.275  34.963  1.00  0.00     0.037 A 
BRANCH  53  67
ATOM     67  C   UNL A   1      44.856  27.888  34.812  1.00  0.00     0.064 A 
ATOM     68  C   UNL A   1      46.087  28.552  34.904  1.00  0.00     0.173 A 
ATOM     69  C   UNL A   1      44.712  26.670  35.496  1.00  0.00     0.173 A 
ATOM     70  F   UNL A   1      46.278  29.713  34.258  1.00  0.00    -0.203 F 
ATOM     71  C   UNL A   1      47.139  28.009  35.638  1.00  0.00     0.198 A 
ATOM     72  C   UNL A   1      45.758  26.143  36.247  1.00  0.00     0.198 A 
ATOM     73  F   UNL A   1      43.552  25.998  35.443  1.00  0.00    -0.203 F 
ATOM     74  F   UNL A   1      48.320  28.643  35.684  1.00  0.00    -0.200 F 
ATOM     75  C   UNL A   1      46.971  26.809  36.314  1.00  0.00     0.200 A 
ATOM     76  F   UNL A   1      45.591  24.989  36.908  1.00  0.00    -0.200 F 
ATOM     77  F   UNL A   1      47.982  26.293  37.026  1.00  0.00    -0.200 F 
ENDBRANCH  53  67
BRANCH  54  78
ATOM     78  C   UNL A   1      37.129  31.274  29.482  1.00  0.00     0.064 A 
ATOM     79  C   UNL A   1      36.103  30.392  29.117  1.00  0.00     0.173 A 
ATOM     80  C   UNL A   1      37.014  32.612  29.080  1.00  0.00     0.173 A 
ATOM     81  F   UNL A   1      36.181  29.097  29.457  1.00  0.00    -0.203 F 
ATOM     82  C   UNL A   1      35.015  30.827  28.363  1.00  0.00     0.198 A 
ATOM     83  C   UNL A   1      35.913  33.052  28.348  1.00  0.00     0.198 A 
ATOM     84  F   UNL A   1      37.971  33.495  29.401  1.00  0.00    -0.203 F 
ATOM     85  F   UNL A   1      34.072  29.954  27.986  1.00  0.00    -0.200 F 
ATOM     86  C   UNL A   1      34.919  32.157  27.983  1.00  0.00     0.200 A 
ATOM     87  F   UNL A   1      35.819  34.341  27.993  1.00  0.00    -0.200 F 
ATOM     88  F   UNL A   1      33.873  32.575  27.259  1.00  0.00    -0.200 F 
ENDBRANCH  54  78
BRANCH  66  89
ATOM     89  C   UNL A   1      39.085  31.999  36.124  1.00  0.00     0.064 A 
ATOM     90  C   UNL A   1      39.396  33.340  36.396  1.00  0.00     0.173 A 
ATOM     91  C   UNL A   1      38.156  31.356  36.953  1.00  0.00     0.173 A 
ATOM     92  F   UNL A   1      40.292  33.992  35.640  1.00  0.00    -0.203 F 
ATOM     93  C   UNL A   1      38.817  34.002  37.476  1.00  0.00     0.198 A 
ATOM     94  C   UNL A   1      37.559  32.030  38.015  1.00  0.00     0.198 A 
ATOM     95  F   UNL A   1      37.822  30.077  36.730  1.00  0.00    -0.203 F 
ATOM     96  F   UNL A   1      39.162  35.268  37.745  1.00  0.00    -0.200 F 
ATOM     97  C   UNL A   1      37.895  33.349  38.280  1.00  0.00     0.200 A 
ATOM     98  F   UNL A   1      36.661  31.401  38.786  1.00  0.00    -0.200 F 
ATOM     99  F   UNL A   1      37.336  33.989  39.316  1.00  0.00    -0.200 F 
ENDBRANCH  66  89
ENDBRANCH  40  41
ENDBRANCH  33  35
ENDBRANCH  32  33
ENDBRANCH  31  32
ENDBRANCH  30  31
ENDBRANCH  29  30
ENDBRANCH  27  29
ENDBRANCH   1  27
TORSDOF 20
ENDMDL
