MODEL 1
REMARK VINA RESULT:     -12.6      0.000      0.000
REMARK SMILES O=C(OCCOC(=O)[C@H](c1ccccc1)C(c1ccccc1)c1ccccc1)c1ccc(-c2c3nc(c(-c4c(F)c(F)c(F)c(F)c4F)c4ccc([nH]4)c(-c4c(F)c(F)c(F)c(F)c4F)c4nc(c(-c5c(F)c(F)c(F)c(F)c5F)c5ccc2[nH]5)C=C4)C=C3)cc1
REMARK SMILES IDX 4 1 3 2 2 3 1 4 29 5 30 6 91 7 31 8 90 9 32 10 33 11 34 12
REMARK SMILES IDX 84 13 35 14 89 15 83 16 85 17 36 18 88 19 82 20 81 21 37 23
REMARK SMILES IDX 69 24 49 25 68 26 50 27 53 28 67 29 86 30 51 31 52 32 66 34
REMARK SMILES IDX 87 35 54 36 38 37 39 38 47 39 40 40 41 41 45 42 48 43 42 44
REMARK SMILES IDX 43 45 46 46 44 47 70 48 71 49 79 50 72 51 73 52 77 53 80 54
REMARK SMILES IDX 74 55 75 56 78 57 76 58 55 59 56 60 64 61 57 62 58 63 62 64
REMARK SMILES IDX 65 65 59 66 60 67 63 68 61 69 5 70 6 71 7 72 8 73 9 74 16 75
REMARK SMILES IDX 17 76 18 77 22 78 19 79 21 80 20 81 23 82 24 83 28 84 25 85
REMARK SMILES IDX 27 86 26 87 10 88 11 89 15 90 12 91 14 92 13 93
REMARK H PARENT 85 22 53 33
REMARK Flexibility Score: inf
ROOT
ATOM      1  C   UNL A   1      38.736  19.660  25.040  1.00  0.00     0.275 C 
ENDROOT
BRANCH   1   2
ATOM      2  O   UNL A   1      39.774  19.209  25.947  1.00  0.00    -0.458 OA
BRANCH   2   3
ATOM      3  C   UNL A   1      41.070  19.564  26.124  1.00  0.00     0.338 C 
ATOM      4  O   UNL A   1      41.930  18.685  26.090  1.00  0.00    -0.246 OA
BRANCH   3   5
ATOM      5  C   UNL A   1      41.525  20.933  26.534  1.00  0.00     0.060 A 
ATOM      6  C   UNL A   1      41.654  21.382  27.844  1.00  0.00     0.016 A 
ATOM      7  C   UNL A   1      41.797  21.862  25.505  1.00  0.00     0.016 A 
ATOM      8  C   UNL A   1      42.173  22.658  28.120  1.00  0.00     0.010 A 
ATOM      9  C   UNL A   1      42.295  23.152  25.778  1.00  0.00     0.010 A 
ATOM     10  C   UNL A   1      42.526  23.549  27.100  1.00  0.00    -0.014 A 
BRANCH  10  11
ATOM     11  C   UNL A   1      42.918  24.940  27.479  1.00  0.00     0.031 A 
ATOM     12  C   UNL A   1      44.271  25.401  27.080  1.00  0.00     0.074 A 
ATOM     13  C   UNL A   1      42.052  25.904  27.852  1.00  0.00     0.049 A 
ATOM     14  N   UNL A   1      44.730  26.620  27.069  1.00  0.00    -0.248 NA
ATOM     15  C   UNL A   1      45.150  24.396  26.468  1.00  0.00     0.031 C 
ATOM     16  C   UNL A   1      40.628  25.717  27.824  1.00  0.00     0.029 A 
ATOM     17  N   UNL A   1      42.178  27.216  28.252  1.00  0.00    -0.354 N 
ATOM     18  C   UNL A   1      45.906  26.554  26.359  1.00  0.00     0.074 A 
ATOM     19  C   UNL A   1      46.114  25.166  25.992  1.00  0.00     0.031 C 
ATOM     20  C   UNL A   1      39.993  26.822  28.239  1.00  0.00     0.029 A 
ATOM     21  C   UNL A   1      40.980  27.790  28.635  1.00  0.00     0.049 A 
ATOM     22  H   UNL A   1      43.038  27.698  28.263  1.00  0.00     0.167 HD
ATOM     23  C   UNL A   1      46.722  27.579  26.034  1.00  0.00     0.037 A 
ATOM     24  C   UNL A   1      40.683  28.950  29.249  1.00  0.00     0.037 A 
ATOM     25  C   UNL A   1      46.538  28.930  26.492  1.00  0.00     0.049 A 
ATOM     26  C   UNL A   1      41.764  29.964  29.266  1.00  0.00     0.074 A 
ATOM     27  C   UNL A   1      47.406  29.998  26.373  1.00  0.00     0.029 A 
ATOM     28  N   UNL A   1      45.427  29.395  27.195  1.00  0.00    -0.354 N 
ATOM     29  N   UNL A   1      42.944  29.869  28.712  1.00  0.00    -0.248 NA
ATOM     30  C   UNL A   1      41.466  31.260  29.876  1.00  0.00     0.031 C 
ATOM     31  C   UNL A   1      46.863  31.082  27.073  1.00  0.00     0.029 A 
ATOM     32  C   UNL A   1      45.621  30.718  27.567  1.00  0.00     0.049 A 
ATOM     33  H   UNL A   1      44.624  28.862  27.397  1.00  0.00     0.167 HD
ATOM     34  C   UNL A   1      43.505  31.120  28.816  1.00  0.00     0.074 A 
ATOM     35  C   UNL A   1      42.547  31.947  29.530  1.00  0.00     0.031 C 
ATOM     36  C   UNL A   1      44.686  31.536  28.307  1.00  0.00     0.037 A 
BRANCH  23  37
ATOM     37  C   UNL A   1      47.954  27.182  25.292  1.00  0.00     0.064 A 
ATOM     38  C   UNL A   1      49.121  26.763  25.950  1.00  0.00     0.173 A 
ATOM     39  C   UNL A   1      48.011  27.395  23.908  1.00  0.00     0.173 A 
ATOM     40  F   UNL A   1      49.130  26.609  27.283  1.00  0.00    -0.203 F 
ATOM     41  C   UNL A   1      50.315  26.613  25.248  1.00  0.00     0.198 A 
ATOM     42  C   UNL A   1      49.197  27.221  23.208  1.00  0.00     0.198 A 
ATOM     43  F   UNL A   1      46.927  27.832  23.249  1.00  0.00    -0.203 F 
ATOM     44  F   UNL A   1      51.442  26.306  25.903  1.00  0.00    -0.200 F 
ATOM     45  C   UNL A   1      50.351  26.845  23.880  1.00  0.00     0.200 A 
ATOM     46  F   UNL A   1      49.233  27.461  21.891  1.00  0.00    -0.200 F 
ATOM     47  F   UNL A   1      51.508  26.739  23.212  1.00  0.00    -0.200 F 
ENDBRANCH  23  37
BRANCH  24  48
ATOM     48  C   UNL A   1      39.339  29.226  29.834  1.00  0.00     0.064 A 
ATOM     49  C   UNL A   1      38.997  28.864  31.142  1.00  0.00     0.173 A 
ATOM     50  C   UNL A   1      38.333  29.820  29.052  1.00  0.00     0.173 A 
ATOM     51  F   UNL A   1      39.889  28.231  31.915  1.00  0.00    -0.203 F 
ATOM     52  C   UNL A   1      37.715  29.104  31.648  1.00  0.00     0.198 A 
ATOM     53  C   UNL A   1      37.070  30.105  29.572  1.00  0.00     0.198 A 
ATOM     54  F   UNL A   1      38.556  30.071  27.756  1.00  0.00    -0.203 F 
ATOM     55  F   UNL A   1      37.399  28.695  32.885  1.00  0.00    -0.200 F 
ATOM     56  C   UNL A   1      36.759  29.741  30.871  1.00  0.00     0.200 A 
ATOM     57  F   UNL A   1      36.150  30.707  28.805  1.00  0.00    -0.200 F 
ATOM     58  F   UNL A   1      35.533  29.974  31.360  1.00  0.00    -0.200 F 
ENDBRANCH  24  48
BRANCH  36  59
ATOM     59  C   UNL A   1      44.996  32.985  28.487  1.00  0.00     0.064 A 
ATOM     60  C   UNL A   1      45.705  33.455  29.602  1.00  0.00     0.173 A 
ATOM     61  C   UNL A   1      44.563  33.916  27.534  1.00  0.00     0.173 A 
ATOM     62  F   UNL A   1      46.106  32.603  30.557  1.00  0.00    -0.203 F 
ATOM     63  C   UNL A   1      45.942  34.814  29.770  1.00  0.00     0.198 A 
ATOM     64  C   UNL A   1      44.837  35.270  27.686  1.00  0.00     0.198 A 
ATOM     65  F   UNL A   1      43.870  33.513  26.457  1.00  0.00    -0.203 F 
ATOM     66  F   UNL A   1      46.561  35.251  30.875  1.00  0.00    -0.200 F 
ATOM     67  C   UNL A   1      45.517  35.719  28.808  1.00  0.00     0.200 A 
ATOM     68  F   UNL A   1      44.432  36.141  26.752  1.00  0.00    -0.200 F 
ATOM     69  F   UNL A   1      45.752  37.028  28.968  1.00  0.00    -0.200 F 
ENDBRANCH  36  59
ENDBRANCH  10  11
ENDBRANCH   3   5
ENDBRANCH   2   3
ENDBRANCH   1   2
BRANCH   1  70
ATOM     70  C   UNL A   1      38.233  21.060  25.384  1.00  0.00     0.274 C 
BRANCH  70  71
ATOM     71  O   UNL A   1      36.850  21.142  25.016  1.00  0.00    -0.462 OA
BRANCH  71  72
ATOM     72  C   UNL A   1      36.489  22.149  24.179  1.00  0.00     0.314 C 
ATOM     73  O   UNL A   1      37.299  22.756  23.513  1.00  0.00    -0.252 OA
BRANCH  72  74
ATOM     74  C   UNL A   1      34.938  22.243  24.005  1.00  0.00     0.141 C 
BRANCH  74  75
ATOM     75  C   UNL A   1      33.899  21.365  24.898  1.00  0.00     0.068 C 
BRANCH  75  76
ATOM     76  C   UNL A   1      32.570  22.186  25.270  1.00  0.00    -0.039 A 
ATOM     77  C   UNL A   1      31.676  22.672  24.319  1.00  0.00     0.004 A 
ATOM     78  C   UNL A   1      32.123  22.445  26.576  1.00  0.00     0.004 A 
ATOM     79  C   UNL A   1      30.653  23.597  24.641  1.00  0.00     0.000 A 
ATOM     80  C   UNL A   1      31.083  23.323  26.928  1.00  0.00     0.000 A 
ATOM     81  C   UNL A   1      30.386  23.970  25.943  1.00  0.00     0.000 A 
ENDBRANCH  75  76
BRANCH  75  82
ATOM     82  C   UNL A   1      33.594  19.919  24.352  1.00  0.00    -0.039 A 
ATOM     83  C   UNL A   1      32.530  19.660  23.464  1.00  0.00     0.004 A 
ATOM     84  C   UNL A   1      34.406  18.810  24.626  1.00  0.00     0.004 A 
ATOM     85  C   UNL A   1      32.359  18.398  22.850  1.00  0.00     0.000 A 
ATOM     86  C   UNL A   1      34.198  17.527  24.090  1.00  0.00     0.000 A 
ATOM     87  C   UNL A   1      33.193  17.328  23.165  1.00  0.00     0.000 A 
ENDBRANCH  75  82
ENDBRANCH  74  75
BRANCH  74  88
ATOM     88  C   UNL A   1      34.643  23.751  24.097  1.00  0.00    -0.033 A 
ATOM     89  C   UNL A   1      34.818  24.423  25.315  1.00  0.00     0.004 A 
ATOM     90  C   UNL A   1      34.141  24.458  22.985  1.00  0.00     0.004 A 
ATOM     91  C   UNL A   1      34.372  25.730  25.463  1.00  0.00     0.000 A 
ATOM     92  C   UNL A   1      33.644  25.751  23.157  1.00  0.00     0.000 A 
ATOM     93  C   UNL A   1      33.748  26.378  24.399  1.00  0.00     0.000 A 
ENDBRANCH  74  88
ENDBRANCH  72  74
ENDBRANCH  71  72
ENDBRANCH  70  71
ENDBRANCH   1  70
TORSDOF 15
ENDMDL
MODEL 2
REMARK VINA RESULT:     -12.6      0.476      1.315
REMARK SMILES O=C(OCCOC(=O)[C@H](c1ccccc1)C(c1ccccc1)c1ccccc1)c1ccc(-c2c3nc(c(-c4c(F)c(F)c(F)c(F)c4F)c4ccc([nH]4)c(-c4c(F)c(F)c(F)c(F)c4F)c4nc(c(-c5c(F)c(F)c(F)c(F)c5F)c5ccc2[nH]5)C=C4)C=C3)cc1
REMARK SMILES IDX 4 1 3 2 2 3 1 4 29 5 30 6 91 7 31 8 90 9 32 10 33 11 34 12
REMARK SMILES IDX 84 13 35 14 89 15 83 16 85 17 36 18 88 19 82 20 81 21 37 23
REMARK SMILES IDX 69 24 49 25 68 26 50 27 53 28 67 29 86 30 51 31 52 32 66 34
REMARK SMILES IDX 87 35 54 36 38 37 39 38 47 39 40 40 41 41 45 42 48 43 42 44
REMARK SMILES IDX 43 45 46 46 44 47 70 48 71 49 79 50 72 51 73 52 77 53 80 54
REMARK SMILES IDX 74 55 75 56 78 57 76 58 55 59 56 60 64 61 57 62 58 63 62 64
REMARK SMILES IDX 65 65 59 66 60 67 63 68 61 69 5 70 6 71 7 72 8 73 9 74 16 75
REMARK SMILES IDX 17 76 18 77 22 78 19 79 21 80 20 81 23 82 24 83 28 84 25 85
REMARK SMILES IDX 27 86 26 87 10 88 11 89 15 90 12 91 14 92 13 93
REMARK H PARENT 85 22 53 33
REMARK Flexibility Score: inf
ROOT
ATOM      1  C   UNL A   1      39.045  19.502  25.740  1.00  0.00     0.275 C 
ENDROOT
BRANCH   1   2
ATOM      2  O   UNL A   1      40.474  19.305  25.594  1.00  0.00    -0.458 OA
BRANCH   2   3
ATOM      3  C   UNL A   1      41.544  19.689  26.334  1.00  0.00     0.338 C 
ATOM      4  O   UNL A   1      42.204  18.823  26.906  1.00  0.00    -0.246 OA
BRANCH   3   5
ATOM      5  C   UNL A   1      41.886  21.113  26.653  1.00  0.00     0.060 A 
ATOM      6  C   UNL A   1      42.016  22.140  25.724  1.00  0.00     0.016 A 
ATOM      7  C   UNL A   1      42.151  21.430  28.005  1.00  0.00     0.016 A 
ATOM      8  C   UNL A   1      42.254  23.461  26.138  1.00  0.00     0.010 A 
ATOM      9  C   UNL A   1      42.415  22.751  28.422  1.00  0.00     0.010 A 
ATOM     10  C   UNL A   1      42.430  23.792  27.487  1.00  0.00    -0.014 A 
BRANCH  10  11
ATOM     11  C   UNL A   1      42.837  25.189  27.827  1.00  0.00     0.031 A 
ATOM     12  C   UNL A   1      44.178  25.638  27.378  1.00  0.00     0.074 A 
ATOM     13  C   UNL A   1      41.983  26.162  28.206  1.00  0.00     0.049 A 
ATOM     14  N   UNL A   1      44.639  26.855  27.329  1.00  0.00    -0.248 NA
ATOM     15  C   UNL A   1      45.036  24.619  26.761  1.00  0.00     0.031 C 
ATOM     16  C   UNL A   1      40.559  25.979  28.224  1.00  0.00     0.029 A 
ATOM     17  N   UNL A   1      42.125  27.482  28.575  1.00  0.00    -0.354 N 
ATOM     18  C   UNL A   1      45.793  26.772  26.586  1.00  0.00     0.074 A 
ATOM     19  C   UNL A   1      45.987  25.377  26.241  1.00  0.00     0.031 C 
ATOM     20  C   UNL A   1      39.939  27.094  28.635  1.00  0.00     0.029 A 
ATOM     21  C   UNL A   1      40.940  28.067  28.981  1.00  0.00     0.049 A 
ATOM     22  H   UNL A   1      42.985  27.962  28.551  1.00  0.00     0.167 HD
ATOM     23  C   UNL A   1      46.601  27.787  26.216  1.00  0.00     0.037 A 
ATOM     24  C   UNL A   1      40.663  29.240  29.581  1.00  0.00     0.037 A 
ATOM     25  C   UNL A   1      46.434  29.149  26.652  1.00  0.00     0.049 A 
ATOM     26  C   UNL A   1      41.747  30.251  29.545  1.00  0.00     0.074 A 
ATOM     27  C   UNL A   1      47.299  30.211  26.485  1.00  0.00     0.029 A 
ATOM     28  N   UNL A   1      45.345  29.630  27.378  1.00  0.00    -0.354 N 
ATOM     29  N   UNL A   1      42.909  30.142  28.958  1.00  0.00    -0.248 NA
ATOM     30  C   UNL A   1      41.469  31.560  30.137  1.00  0.00     0.031 C 
ATOM     31  C   UNL A   1      46.781  31.311  27.180  1.00  0.00     0.029 A 
ATOM     32  C   UNL A   1      45.553  30.960  27.717  1.00  0.00     0.049 A 
ATOM     33  H   UNL A   1      44.548  29.104  27.614  1.00  0.00     0.167 HD
ATOM     34  C   UNL A   1      43.476  31.393  29.020  1.00  0.00     0.074 A 
ATOM     35  C   UNL A   1      42.541  32.237  29.746  1.00  0.00     0.031 C 
ATOM     36  C   UNL A   1      44.642  31.795  28.468  1.00  0.00     0.037 A 
BRANCH  23  37
ATOM     37  C   UNL A   1      47.809  27.372  25.446  1.00  0.00     0.064 A 
ATOM     38  C   UNL A   1      49.007  27.000  26.077  1.00  0.00     0.173 A 
ATOM     39  C   UNL A   1      47.810  27.521  24.053  1.00  0.00     0.173 A 
ATOM     40  F   UNL A   1      49.069  26.909  27.414  1.00  0.00    -0.203 F 
ATOM     41  C   UNL A   1      50.175  26.833  25.337  1.00  0.00     0.198 A 
ATOM     42  C   UNL A   1      48.971  27.330  23.316  1.00  0.00     0.198 A 
ATOM     43  F   UNL A   1      46.695  27.912  23.417  1.00  0.00    -0.203 F 
ATOM     44  F   UNL A   1      51.331  26.572  25.962  1.00  0.00    -0.200 F 
ATOM     45  C   UNL A   1      50.155  27.001  23.959  1.00  0.00     0.200 A 
ATOM     46  F   UNL A   1      48.954  27.508  21.989  1.00  0.00    -0.200 F 
ATOM     47  F   UNL A   1      51.288  26.879  23.253  1.00  0.00    -0.200 F 
ENDBRANCH  23  37
BRANCH  24  48
ATOM     48  C   UNL A   1      39.338  29.531  30.200  1.00  0.00     0.064 A 
ATOM     49  C   UNL A   1      38.992  29.094  31.484  1.00  0.00     0.173 A 
ATOM     50  C   UNL A   1      38.352  30.220  29.473  1.00  0.00     0.173 A 
ATOM     51  F   UNL A   1      39.864  28.371  32.200  1.00  0.00    -0.203 F 
ATOM     52  C   UNL A   1      37.726  29.353  32.021  1.00  0.00     0.198 A 
ATOM     53  C   UNL A   1      37.107  30.522  30.027  1.00  0.00     0.198 A 
ATOM     54  F   UNL A   1      38.573  30.551  28.195  1.00  0.00    -0.203 F 
ATOM     55  F   UNL A   1      37.404  28.873  33.230  1.00  0.00    -0.200 F 
ATOM     56  C   UNL A   1      36.792  30.082  31.301  1.00  0.00     0.200 A 
ATOM     57  F   UNL A   1      36.206  31.215  29.315  1.00  0.00    -0.200 F 
ATOM     58  F   UNL A   1      35.582  30.332  31.820  1.00  0.00    -0.200 F 
ENDBRANCH  24  48
BRANCH  36  59
ATOM     59  C   UNL A   1      44.961  33.247  28.610  1.00  0.00     0.064 A 
ATOM     60  C   UNL A   1      44.529  34.193  27.669  1.00  0.00     0.173 A 
ATOM     61  C   UNL A   1      45.723  33.692  29.699  1.00  0.00     0.173 A 
ATOM     62  F   UNL A   1      43.828  33.805  26.594  1.00  0.00    -0.203 F 
ATOM     63  C   UNL A   1      44.876  35.532  27.800  1.00  0.00     0.198 A 
ATOM     64  C   UNL A   1      46.035  35.037  29.846  1.00  0.00     0.198 A 
ATOM     65  F   UNL A   1      46.169  32.820  30.616  1.00  0.00    -0.203 F 
ATOM     66  F   UNL A   1      44.512  36.410  26.856  1.00  0.00    -0.200 F 
ATOM     67  C   UNL A   1      45.620  35.955  28.892  1.00  0.00     0.200 A 
ATOM     68  F   UNL A   1      46.747  35.445  30.906  1.00  0.00    -0.200 F 
ATOM     69  F   UNL A   1      45.949  37.247  29.019  1.00  0.00    -0.200 F 
ENDBRANCH  36  59
ENDBRANCH  10  11
ENDBRANCH   3   5
ENDBRANCH   2   3
ENDBRANCH   1   2
BRANCH   1  70
ATOM     70  C   UNL A   1      38.618  20.927  25.399  1.00  0.00     0.274 C 
BRANCH  70  71
ATOM     71  O   UNL A   1      37.319  20.874  24.797  1.00  0.00    -0.462 OA
BRANCH  71  72
ATOM     72  C   UNL A   1      36.756  22.054  24.427  1.00  0.00     0.314 C 
ATOM     73  O   UNL A   1      37.423  23.018  24.121  1.00  0.00    -0.252 OA
BRANCH  72  74
ATOM     74  C   UNL A   1      35.213  21.929  24.212  1.00  0.00     0.141 C 
BRANCH  74  75
ATOM     75  C   UNL A   1      34.271  20.978  25.137  1.00  0.00     0.068 C 
BRANCH  75  76
ATOM     76  C   UNL A   1      33.005  21.767  25.732  1.00  0.00    -0.039 A 
ATOM     77  C   UNL A   1      31.825  21.972  25.022  1.00  0.00     0.004 A 
ATOM     78  C   UNL A   1      32.913  22.271  27.040  1.00  0.00     0.004 A 
ATOM     79  C   UNL A   1      30.822  22.872  25.459  1.00  0.00     0.000 A 
ATOM     80  C   UNL A   1      31.909  23.131  27.518  1.00  0.00     0.000 A 
ATOM     81  C   UNL A   1      30.886  23.499  26.686  1.00  0.00     0.000 A 
ENDBRANCH  75  76
BRANCH  75  82
ATOM     82  C   UNL A   1      33.885  19.588  24.502  1.00  0.00    -0.039 A 
ATOM     83  C   UNL A   1      32.713  19.409  23.741  1.00  0.00     0.004 A 
ATOM     84  C   UNL A   1      34.717  18.461  24.563  1.00  0.00     0.004 A 
ATOM     85  C   UNL A   1      32.453  18.210  23.039  1.00  0.00     0.000 A 
ATOM     86  C   UNL A   1      34.430  17.234  23.940  1.00  0.00     0.000 A 
ATOM     87  C   UNL A   1      33.311  17.119  23.140  1.00  0.00     0.000 A 
ENDBRANCH  75  82
ENDBRANCH  74  75
BRANCH  74  88
ATOM     88  C   UNL A   1      34.719  23.387  24.198  1.00  0.00    -0.033 A 
ATOM     89  C   UNL A   1      34.907  24.198  25.327  1.00  0.00     0.004 A 
ATOM     90  C   UNL A   1      34.025  23.904  23.085  1.00  0.00     0.004 A 
ATOM     91  C   UNL A   1      34.297  25.444  25.402  1.00  0.00     0.000 A 
ATOM     92  C   UNL A   1      33.369  25.132  23.190  1.00  0.00     0.000 A 
ATOM     93  C   UNL A   1      33.496  25.891  24.354  1.00  0.00     0.000 A 
ENDBRANCH  74  88
ENDBRANCH  72  74
ENDBRANCH  71  72
ENDBRANCH  70  71
ENDBRANCH   1  70
TORSDOF 15
ENDMDL
MODEL 3
REMARK VINA RESULT:     -12.3      5.430     10.914
REMARK SMILES O=C(OCCOC(=O)[C@H](c1ccccc1)C(c1ccccc1)c1ccccc1)c1ccc(-c2c3nc(c(-c4c(F)c(F)c(F)c(F)c4F)c4ccc([nH]4)c(-c4c(F)c(F)c(F)c(F)c4F)c4nc(c(-c5c(F)c(F)c(F)c(F)c5F)c5ccc2[nH]5)C=C4)C=C3)cc1
REMARK SMILES IDX 4 1 3 2 2 3 1 4 29 5 30 6 91 7 31 8 90 9 32 10 33 11 34 12
REMARK SMILES IDX 84 13 35 14 89 15 83 16 85 17 36 18 88 19 82 20 81 21 37 23
REMARK SMILES IDX 69 24 49 25 68 26 50 27 53 28 67 29 86 30 51 31 52 32 66 34
REMARK SMILES IDX 87 35 54 36 38 37 39 38 47 39 40 40 41 41 45 42 48 43 42 44
REMARK SMILES IDX 43 45 46 46 44 47 70 48 71 49 79 50 72 51 73 52 77 53 80 54
REMARK SMILES IDX 74 55 75 56 78 57 76 58 55 59 56 60 64 61 57 62 58 63 62 64
REMARK SMILES IDX 65 65 59 66 60 67 63 68 61 69 5 70 6 71 7 72 8 73 9 74 16 75
REMARK SMILES IDX 17 76 18 77 22 78 19 79 21 80 20 81 23 82 24 83 28 84 25 85
REMARK SMILES IDX 27 86 26 87 10 88 11 89 15 90 12 91 14 92 13 93
REMARK H PARENT 85 22 53 33
REMARK Flexibility Score: inf
ROOT
ATOM      1  C   UNL A   1      31.787  32.617  26.993  1.00  0.00     0.275 C 
ENDROOT
BRANCH   1   2
ATOM      2  O   UNL A   1      32.525  33.823  27.315  1.00  0.00    -0.458 OA
BRANCH   2   3
ATOM      3  C   UNL A   1      33.179  34.241  28.427  1.00  0.00     0.338 C 
ATOM      4  O   UNL A   1      32.857  35.317  28.927  1.00  0.00    -0.246 OA
BRANCH   3   5
ATOM      5  C   UNL A   1      34.392  33.571  28.998  1.00  0.00     0.060 A 
ATOM      6  C   UNL A   1      34.399  32.708  30.088  1.00  0.00     0.016 A 
ATOM      7  C   UNL A   1      35.641  33.881  28.414  1.00  0.00     0.016 A 
ATOM      8  C   UNL A   1      35.582  32.063  30.490  1.00  0.00     0.010 A 
ATOM      9  C   UNL A   1      36.834  33.255  28.830  1.00  0.00     0.010 A 
ATOM     10  C   UNL A   1      36.806  32.304  29.855  1.00  0.00    -0.014 A 
BRANCH  10  11
ATOM     11  C   UNL A   1      38.040  31.701  30.444  1.00  0.00     0.031 A 
ATOM     12  C   UNL A   1      38.374  32.062  31.844  1.00  0.00     0.074 A 
ATOM     13  C   UNL A   1      38.679  30.625  29.942  1.00  0.00     0.049 A 
ATOM     14  N   UNL A   1      39.229  31.481  32.638  1.00  0.00    -0.248 NA
ATOM     15  C   UNL A   1      37.534  33.088  32.474  1.00  0.00     0.031 C 
ATOM     16  C   UNL A   1      38.173  29.874  28.827  1.00  0.00     0.029 A 
ATOM     17  N   UNL A   1      39.812  29.922  30.293  1.00  0.00    -0.354 N 
ATOM     18  C   UNL A   1      38.964  31.993  33.886  1.00  0.00     0.074 A 
ATOM     19  C   UNL A   1      37.898  32.966  33.739  1.00  0.00     0.031 C 
ATOM     20  C   UNL A   1      38.991  28.856  28.526  1.00  0.00     0.029 A 
ATOM     21  C   UNL A   1      40.135  28.921  29.396  1.00  0.00     0.049 A 
ATOM     22  H   UNL A   1      40.338  30.113  31.103  1.00  0.00     0.167 HD
ATOM     23  C   UNL A   1      39.557  31.655  35.049  1.00  0.00     0.037 A 
ATOM     24  C   UNL A   1      41.223  28.143  29.255  1.00  0.00     0.037 A 
ATOM     25  C   UNL A   1      40.676  30.755  35.151  1.00  0.00     0.049 A 
ATOM     26  C   UNL A   1      42.136  28.098  30.422  1.00  0.00     0.074 A 
ATOM     27  C   UNL A   1      41.462  30.492  36.254  1.00  0.00     0.029 A 
ATOM     28  N   UNL A   1      41.194  29.999  34.100  1.00  0.00    -0.354 N 
ATOM     29  N   UNL A   1      41.971  28.688  31.577  1.00  0.00    -0.248 NA
ATOM     30  C   UNL A   1      43.304  27.221  30.333  1.00  0.00     0.031 C 
ATOM     31  C   UNL A   1      42.506  29.648  35.855  1.00  0.00     0.029 A 
ATOM     32  C   UNL A   1      42.330  29.319  34.521  1.00  0.00     0.049 A 
ATOM     33  H   UNL A   1      40.812  29.955  33.195  1.00  0.00     0.167 HD
ATOM     34  C   UNL A   1      42.957  28.189  32.394  1.00  0.00     0.074 A 
ATOM     35  C   UNL A   1      43.746  27.276  31.583  1.00  0.00     0.031 C 
ATOM     36  C   UNL A   1      43.138  28.437  33.710  1.00  0.00     0.037 A 
BRANCH  23  37
ATOM     37  C   UNL A   1      39.081  32.423  36.237  1.00  0.00     0.064 A 
ATOM     38  C   UNL A   1      39.631  33.664  36.594  1.00  0.00     0.173 A 
ATOM     39  C   UNL A   1      38.181  31.815  37.122  1.00  0.00     0.173 A 
ATOM     40  F   UNL A   1      40.546  34.252  35.808  1.00  0.00    -0.203 F 
ATOM     41  C   UNL A   1      39.325  34.248  37.821  1.00  0.00     0.198 A 
ATOM     42  C   UNL A   1      37.860  32.411  38.333  1.00  0.00     0.198 A 
ATOM     43  F   UNL A   1      37.664  30.611  36.834  1.00  0.00    -0.203 F 
ATOM     44  F   UNL A   1      39.929  35.385  38.191  1.00  0.00    -0.200 F 
ATOM     45  C   UNL A   1      38.442  33.619  38.689  1.00  0.00     0.200 A 
ATOM     46  F   UNL A   1      37.021  31.795  39.177  1.00  0.00    -0.200 F 
ATOM     47  F   UNL A   1      38.179  34.162  39.886  1.00  0.00    -0.200 F 
ENDBRANCH  23  37
BRANCH  24  48
ATOM     48  C   UNL A   1      41.479  27.336  28.028  1.00  0.00     0.064 A 
ATOM     49  C   UNL A   1      41.148  25.979  27.934  1.00  0.00     0.173 A 
ATOM     50  C   UNL A   1      42.128  27.912  26.922  1.00  0.00     0.173 A 
ATOM     51  F   UNL A   1      40.591  25.354  28.980  1.00  0.00    -0.203 F 
ATOM     52  C   UNL A   1      41.436  25.241  26.781  1.00  0.00     0.198 A 
ATOM     53  C   UNL A   1      42.370  27.189  25.753  1.00  0.00     0.198 A 
ATOM     54  F   UNL A   1      42.586  29.168  26.996  1.00  0.00    -0.203 F 
ATOM     55  F   UNL A   1      41.159  23.930  26.741  1.00  0.00    -0.200 F 
ATOM     56  C   UNL A   1      42.028  25.850  25.684  1.00  0.00     0.200 A 
ATOM     57  F   UNL A   1      42.957  27.786  24.705  1.00  0.00    -0.200 F 
ATOM     58  F   UNL A   1      42.298  25.141  24.580  1.00  0.00    -0.200 F 
ENDBRANCH  24  48
BRANCH  36  59
ATOM     59  C   UNL A   1      44.237  27.671  34.370  1.00  0.00     0.064 A 
ATOM     60  C   UNL A   1      44.031  26.386  34.892  1.00  0.00     0.173 A 
ATOM     61  C   UNL A   1      45.511  28.242  34.492  1.00  0.00     0.173 A 
ATOM     62  F   UNL A   1      42.818  25.817  34.829  1.00  0.00    -0.203 F 
ATOM     63  C   UNL A   1      45.058  25.712  35.542  1.00  0.00     0.198 A 
ATOM     64  C   UNL A   1      46.545  27.549  35.108  1.00  0.00     0.198 A 
ATOM     65  F   UNL A   1      45.750  29.475  34.019  1.00  0.00    -0.203 F 
ATOM     66  F   UNL A   1      44.824  24.514  36.095  1.00  0.00    -0.200 F 
ATOM     67  C   UNL A   1      46.316  26.289  35.641  1.00  0.00     0.200 A 
ATOM     68  F   UNL A   1      47.761  28.105  35.196  1.00  0.00    -0.200 F 
ATOM     69  F   UNL A   1      47.306  25.636  36.262  1.00  0.00    -0.200 F 
ENDBRANCH  36  59
ENDBRANCH  10  11
ENDBRANCH   3   5
ENDBRANCH   2   3
ENDBRANCH   1   2
BRANCH   1  70
ATOM     70  C   UNL A   1      32.624  31.355  27.186  1.00  0.00     0.274 C 
BRANCH  70  71
ATOM     71  O   UNL A   1      32.128  30.347  26.297  1.00  0.00    -0.462 OA
BRANCH  71  72
ATOM     72  C   UNL A   1      32.026  29.083  26.784  1.00  0.00     0.314 C 
ATOM     73  O   UNL A   1      32.168  28.833  27.962  1.00  0.00    -0.252 OA
BRANCH  72  74
ATOM     74  C   UNL A   1      31.477  28.082  25.717  1.00  0.00     0.141 C 
BRANCH  74  75
ATOM     75  C   UNL A   1      31.339  28.466  24.142  1.00  0.00     0.068 C 
BRANCH  75  76
ATOM     76  C   UNL A   1      31.732  27.242  23.179  1.00  0.00    -0.039 A 
ATOM     77  C   UNL A   1      30.987  26.070  23.083  1.00  0.00     0.004 A 
ATOM     78  C   UNL A   1      32.814  27.239  22.283  1.00  0.00     0.004 A 
ATOM     79  C   UNL A   1      31.473  24.912  22.427  1.00  0.00     0.000 A 
ATOM     80  C   UNL A   1      33.295  26.119  21.583  1.00  0.00     0.000 A 
ATOM     81  C   UNL A   1      32.657  24.915  21.719  1.00  0.00     0.000 A 
ENDBRANCH  75  76
BRANCH  75  82
ATOM     82  C   UNL A   1      29.983  29.157  23.732  1.00  0.00    -0.039 A 
ATOM     83  C   UNL A   1      29.770  30.542  23.882  1.00  0.00     0.004 A 
ATOM     84  C   UNL A   1      28.932  28.472  23.106  1.00  0.00     0.004 A 
ATOM     85  C   UNL A   1      28.620  31.183  23.366  1.00  0.00     0.000 A 
ATOM     86  C   UNL A   1      27.745  29.080  22.663  1.00  0.00     0.000 A 
ATOM     87  C   UNL A   1      27.604  30.451  22.757  1.00  0.00     0.000 A 
ENDBRANCH  75  82
ENDBRANCH  74  75
BRANCH  74  88
ATOM     88  C   UNL A   1      32.322  26.813  25.927  1.00  0.00    -0.033 A 
ATOM     89  C   UNL A   1      33.694  26.832  25.643  1.00  0.00     0.004 A 
ATOM     90  C   UNL A   1      31.721  25.607  26.346  1.00  0.00     0.004 A 
ATOM     91  C   UNL A   1      34.425  25.651  25.639  1.00  0.00     0.000 A 
ATOM     92  C   UNL A   1      32.448  24.417  26.285  1.00  0.00     0.000 A 
ATOM     93  C   UNL A   1      33.794  24.441  25.918  1.00  0.00     0.000 A 
ENDBRANCH  74  88
ENDBRANCH  72  74
ENDBRANCH  71  72
ENDBRANCH  70  71
ENDBRANCH   1  70
TORSDOF 15
ENDMDL
