MODEL 1
REMARK VINA RESULT:     -11.0      0.000      0.000
REMARK SMILES COc1cnc(SCC(=O)OCCOC(=O)c2ccc(-c3c4nc(c(-c5c(F)c(F)c(F)c(F)c5F)c5ccc([nH]5)c(-c5c(F)c(F)c(F)c(F)c5F)c5nc(c(-c6c(F)c(F)c(F)c(F)c6F)c6ccc3[nH]6)C=C5)C=C4)cc2)[nH]c1=O
REMARK SMILES IDX 12 1 11 2 9 3 10 4 8 5 7 6 6 7 3 8 4 9 81 10 5 11 80 12
REMARK SMILES IDX 82 13 2 15 1 16 13 17 14 18 15 19 16 20 17 21 18 22 79 23
REMARK SMILES IDX 19 24 78 25 20 26 21 27 22 28 72 29 23 30 77 31 71 32 73 33
REMARK SMILES IDX 24 34 76 35 70 36 69 37 25 39 57 40 37 41 56 42 38 43 41 44
REMARK SMILES IDX 55 45 74 46 39 47 40 48 54 50 75 51 42 52 26 53 27 54 35 55
REMARK SMILES IDX 28 56 29 57 33 58 36 59 30 60 31 61 34 62 32 63 58 64 59 65
REMARK SMILES IDX 67 66 60 67 61 68 65 69 68 70 62 71 63 72 66 73 64 74 43 75
REMARK SMILES IDX 44 76 52 77 45 78 46 79 50 80 53 81 47 82 48 83 51 84 49 85
REMARK H PARENT 80 14 73 38 41 49
REMARK Flexibility Score: inf
ROOT
ATOM      1  C   UNL A   1      31.828  27.934  26.707  1.00  0.00     0.274 C 
ENDROOT
BRANCH   1   2
ATOM      2  O   UNL A   1      31.872  26.762  25.867  1.00  0.00    -0.461 OA
BRANCH   2   3
ATOM      3  C   UNL A   1      30.729  26.029  25.810  1.00  0.00     0.316 C 
ATOM      4  O   UNL A   1      30.363  25.257  26.694  1.00  0.00    -0.251 OA
BRANCH   3   5
ATOM      5  C   UNL A   1      29.927  26.188  24.538  1.00  0.00     0.200 C 
BRANCH   5   6
ATOM      6  S   UNL A   1      30.837  26.750  23.081  1.00  0.00    -0.076 SA
BRANCH   6   7
ATOM      7  C   UNL A   1      29.945  28.167  22.631  1.00  0.00     0.168 A 
ATOM      8  C   UNL A   1      28.300  30.282  22.061  1.00  0.00     0.202 A 
ATOM      9  C   UNL A   1      29.585  30.188  21.692  1.00  0.00     0.166 A 
ATOM     10  C   UNL A   1      27.783  29.150  22.889  1.00  0.00     0.293 A 
ATOM     11  N   UNL A   1      30.448  29.151  21.968  1.00  0.00    -0.229 NA
ATOM     12  N   UNL A   1      28.670  28.131  23.094  1.00  0.00    -0.298 N 
ATOM     13  O   UNL A   1      26.660  29.109  23.378  1.00  0.00    -0.265 OA
ATOM     14  H   UNL A   1      28.373  27.340  23.599  1.00  0.00     0.172 HD
BRANCH   8  15
ATOM     15  O   UNL A   1      27.536  31.345  21.608  1.00  0.00    -0.490 OA
ATOM     16  C   UNL A   1      28.089  32.120  20.552  1.00  0.00     0.278 C 
ENDBRANCH   8  15
ENDBRANCH   6   7
ENDBRANCH   5   6
ENDBRANCH   3   5
ENDBRANCH   2   3
ENDBRANCH   1   2
BRANCH   1  17
ATOM     17  C   UNL A   1      31.811  29.207  25.867  1.00  0.00     0.275 C 
BRANCH  17  18
ATOM     18  O   UNL A   1      33.091  29.853  25.944  1.00  0.00    -0.458 OA
BRANCH  18  19
ATOM     19  C   UNL A   1      33.171  30.886  26.813  1.00  0.00     0.338 C 
ATOM     20  O   UNL A   1      32.405  31.828  26.916  1.00  0.00    -0.246 OA
BRANCH  19  21
ATOM     21  C   UNL A   1      34.386  30.745  27.635  1.00  0.00     0.060 A 
ATOM     22  C   UNL A   1      35.169  31.857  27.955  1.00  0.00     0.016 A 
ATOM     23  C   UNL A   1      34.806  29.463  27.990  1.00  0.00     0.016 A 
ATOM     24  C   UNL A   1      36.399  31.684  28.590  1.00  0.00     0.010 A 
ATOM     25  C   UNL A   1      36.002  29.298  28.688  1.00  0.00     0.010 A 
ATOM     26  C   UNL A   1      36.818  30.404  28.978  1.00  0.00    -0.014 A 
BRANCH  26  27
ATOM     27  C   UNL A   1      38.094  30.212  29.711  1.00  0.00     0.031 A 
ATOM     28  C   UNL A   1      39.175  29.335  29.149  1.00  0.00     0.074 A 
ATOM     29  C   UNL A   1      38.253  30.783  30.919  1.00  0.00     0.049 A 
ATOM     30  N   UNL A   1      40.279  28.916  29.714  1.00  0.00    -0.248 NA
ATOM     31  C   UNL A   1      38.983  28.856  27.772  1.00  0.00     0.031 C 
ATOM     32  C   UNL A   1      37.282  31.661  31.571  1.00  0.00     0.029 A 
ATOM     33  N   UNL A   1      39.280  30.688  31.825  1.00  0.00    -0.354 N 
ATOM     34  C   UNL A   1      40.896  28.097  28.779  1.00  0.00     0.074 A 
ATOM     35  C   UNL A   1      40.041  28.072  27.610  1.00  0.00     0.031 C 
ATOM     36  C   UNL A   1      37.751  32.016  32.776  1.00  0.00     0.029 A 
ATOM     37  C   UNL A   1      39.027  31.345  33.003  1.00  0.00     0.049 A 
ATOM     38  H   UNL A   1      40.115  30.198  31.647  1.00  0.00     0.167 HD
ATOM     39  C   UNL A   1      42.069  27.427  28.889  1.00  0.00     0.037 A 
ATOM     40  C   UNL A   1      39.719  31.368  34.157  1.00  0.00     0.037 A 
ATOM     41  C   UNL A   1      42.932  27.479  30.042  1.00  0.00     0.049 A 
ATOM     42  C   UNL A   1      41.002  30.597  34.266  1.00  0.00     0.074 A 
ATOM     43  C   UNL A   1      44.174  26.894  30.218  1.00  0.00     0.029 A 
ATOM     44  N   UNL A   1      42.637  28.152  31.219  1.00  0.00    -0.354 N 
ATOM     45  N   UNL A   1      41.588  29.842  33.371  1.00  0.00    -0.248 NA
ATOM     46  C   UNL A   1      41.714  30.677  35.548  1.00  0.00     0.031 C 
ATOM     47  C   UNL A   1      44.610  27.175  31.519  1.00  0.00     0.029 A 
ATOM     48  C   UNL A   1      43.660  27.970  32.137  1.00  0.00     0.049 A 
ATOM     49  H   UNL A   1      41.822  28.681  31.379  1.00  0.00     0.167 HD
ATOM     50  C   UNL A   1      42.739  29.358  33.975  1.00  0.00     0.074 A 
ATOM     51  C   UNL A   1      42.778  29.921  35.309  1.00  0.00     0.031 C 
ATOM     52  C   UNL A   1      43.675  28.520  33.469  1.00  0.00     0.037 A 
BRANCH  39  53
ATOM     53  C   UNL A   1      42.479  26.553  27.741  1.00  0.00     0.064 A 
ATOM     54  C   UNL A   1      43.402  26.978  26.777  1.00  0.00     0.173 A 
ATOM     55  C   UNL A   1      41.961  25.253  27.628  1.00  0.00     0.173 A 
ATOM     56  F   UNL A   1      43.917  28.216  26.835  1.00  0.00    -0.203 F 
ATOM     57  C   UNL A   1      43.776  26.143  25.726  1.00  0.00     0.198 A 
ATOM     58  C   UNL A   1      42.355  24.412  26.590  1.00  0.00     0.198 A 
ATOM     59  F   UNL A   1      41.078  24.796  28.528  1.00  0.00    -0.203 F 
ATOM     60  F   UNL A   1      44.630  26.586  24.792  1.00  0.00    -0.200 F 
ATOM     61  C   UNL A   1      43.256  24.861  25.637  1.00  0.00     0.200 A 
ATOM     62  F   UNL A   1      41.860  23.170  26.511  1.00  0.00    -0.200 F 
ATOM     63  F   UNL A   1      43.619  24.058  24.627  1.00  0.00    -0.200 F 
ENDBRANCH  39  53
BRANCH  40  64
ATOM     64  C   UNL A   1      39.174  32.129  35.308  1.00  0.00     0.064 A 
ATOM     65  C   UNL A   1      38.412  31.495  36.297  1.00  0.00     0.173 A 
ATOM     66  C   UNL A   1      39.451  33.496  35.465  1.00  0.00     0.173 A 
ATOM     67  F   UNL A   1      38.107  30.196  36.175  1.00  0.00    -0.203 F 
ATOM     68  C   UNL A   1      37.946  32.201  37.404  1.00  0.00     0.198 A 
ATOM     69  C   UNL A   1      39.005  34.194  36.584  1.00  0.00     0.198 A 
ATOM     70  F   UNL A   1      40.179  34.144  34.545  1.00  0.00    -0.203 F 
ATOM     71  F   UNL A   1      37.203  31.578  38.327  1.00  0.00    -0.200 F 
ATOM     72  C   UNL A   1      38.252  33.546  37.553  1.00  0.00     0.200 A 
ATOM     73  F   UNL A   1      39.314  35.490  36.730  1.00  0.00    -0.200 F 
ATOM     74  F   UNL A   1      37.820  34.219  38.627  1.00  0.00    -0.200 F 
ENDBRANCH  40  64
BRANCH  52  75
ATOM     75  C   UNL A   1      44.824  28.163  34.365  1.00  0.00     0.064 A 
ATOM     76  C   UNL A   1      44.785  27.023  35.182  1.00  0.00     0.173 A 
ATOM     77  C   UNL A   1      45.984  28.951  34.387  1.00  0.00     0.173 A 
ATOM     78  F   UNL A   1      43.689  26.250  35.209  1.00  0.00    -0.203 F 
ATOM     79  C   UNL A   1      45.858  26.698  36.006  1.00  0.00     0.198 A 
ATOM     80  C   UNL A   1      47.064  28.609  35.195  1.00  0.00     0.198 A 
ATOM     81  F   UNL A   1      46.070  30.049  33.622  1.00  0.00    -0.203 F 
ATOM     82  F   UNL A   1      45.784  25.629  36.810  1.00  0.00    -0.200 F 
ATOM     83  C   UNL A   1      46.999  27.487  36.007  1.00  0.00     0.200 A 
ATOM     84  F   UNL A   1      48.170  29.368  35.190  1.00  0.00    -0.200 F 
ATOM     85  F   UNL A   1      48.033  27.171  36.799  1.00  0.00    -0.200 F 
ENDBRANCH  52  75
ENDBRANCH  26  27
ENDBRANCH  19  21
ENDBRANCH  18  19
ENDBRANCH  17  18
ENDBRANCH   1  17
TORSDOF 14
ENDMDL
MODEL 2
REMARK VINA RESULT:     -10.9      5.532     10.422
REMARK SMILES COc1cnc(SCC(=O)OCCOC(=O)c2ccc(-c3c4nc(c(-c5c(F)c(F)c(F)c(F)c5F)c5ccc([nH]5)c(-c5c(F)c(F)c(F)c(F)c5F)c5nc(c(-c6c(F)c(F)c(F)c(F)c6F)c6ccc3[nH]6)C=C5)C=C4)cc2)[nH]c1=O
REMARK SMILES IDX 12 1 11 2 9 3 10 4 8 5 7 6 6 7 3 8 4 9 81 10 5 11 80 12
REMARK SMILES IDX 82 13 2 15 1 16 13 17 14 18 15 19 16 20 17 21 18 22 79 23
REMARK SMILES IDX 19 24 78 25 20 26 21 27 22 28 72 29 23 30 77 31 71 32 73 33
REMARK SMILES IDX 24 34 76 35 70 36 69 37 25 39 57 40 37 41 56 42 38 43 41 44
REMARK SMILES IDX 55 45 74 46 39 47 40 48 54 50 75 51 42 52 26 53 27 54 35 55
REMARK SMILES IDX 28 56 29 57 33 58 36 59 30 60 31 61 34 62 32 63 58 64 59 65
REMARK SMILES IDX 67 66 60 67 61 68 65 69 68 70 62 71 63 72 66 73 64 74 43 75
REMARK SMILES IDX 44 76 52 77 45 78 46 79 50 80 53 81 47 82 48 83 51 84 49 85
REMARK H PARENT 80 14 73 38 41 49
REMARK Flexibility Score: inf
ROOT
ATOM      1  C   UNL A   1      36.756  22.330  23.728  1.00  0.00     0.274 C 
ENDROOT
BRANCH   1   2
ATOM      2  O   UNL A   1      35.693  23.109  24.315  1.00  0.00    -0.461 OA
BRANCH   2   3
ATOM      3  C   UNL A   1      34.429  22.704  24.024  1.00  0.00     0.316 C 
ATOM      4  O   UNL A   1      33.912  22.810  22.913  1.00  0.00    -0.251 OA
BRANCH   3   5
ATOM      5  C   UNL A   1      33.651  22.135  25.190  1.00  0.00     0.200 C 
BRANCH   5   6
ATOM      6  S   UNL A   1      32.041  21.411  24.802  1.00  0.00    -0.076 SA
BRANCH   6   7
ATOM      7  C   UNL A   1      32.414  19.719  24.763  1.00  0.00     0.168 A 
ATOM      8  C   UNL A   1      32.973  17.060  24.404  1.00  0.00     0.202 A 
ATOM      9  C   UNL A   1      32.938  17.685  25.590  1.00  0.00     0.166 A 
ATOM     10  C   UNL A   1      32.734  17.930  23.212  1.00  0.00     0.293 A 
ATOM     11  N   UNL A   1      32.675  19.018  25.813  1.00  0.00    -0.229 NA
ATOM     12  N   UNL A   1      32.436  19.233  23.497  1.00  0.00    -0.298 N 
ATOM     13  O   UNL A   1      32.806  17.545  22.051  1.00  0.00    -0.265 OA
ATOM     14  H   UNL A   1      32.229  19.844  22.753  1.00  0.00     0.172 HD
BRANCH   8  15
ATOM     15  O   UNL A   1      33.146  15.687  24.361  1.00  0.00    -0.490 OA
ATOM     16  C   UNL A   1      32.668  14.951  25.479  1.00  0.00     0.278 C 
ENDBRANCH   8  15
ENDBRANCH   6   7
ENDBRANCH   5   6
ENDBRANCH   3   5
ENDBRANCH   2   3
ENDBRANCH   1   2
BRANCH   1  17
ATOM     17  C   UNL A   1      37.142  21.164  24.632  1.00  0.00     0.275 C 
BRANCH  17  18
ATOM     18  O   UNL A   1      37.627  21.667  25.887  1.00  0.00    -0.458 OA
BRANCH  18  19
ATOM     19  C   UNL A   1      38.943  21.465  26.125  1.00  0.00     0.338 C 
ATOM     20  O   UNL A   1      39.570  20.429  25.990  1.00  0.00    -0.246 OA
BRANCH  19  21
ATOM     21  C   UNL A   1      39.547  22.708  26.635  1.00  0.00     0.060 A 
ATOM     22  C   UNL A   1      39.140  23.955  26.154  1.00  0.00     0.016 A 
ATOM     23  C   UNL A   1      40.620  22.614  27.523  1.00  0.00     0.016 A 
ATOM     24  C   UNL A   1      39.834  25.107  26.524  1.00  0.00     0.010 A 
ATOM     25  C   UNL A   1      41.268  23.774  27.948  1.00  0.00     0.010 A 
ATOM     26  C   UNL A   1      40.894  25.028  27.438  1.00  0.00    -0.014 A 
BRANCH  26  27
ATOM     27  C   UNL A   1      41.601  26.252  27.889  1.00  0.00     0.031 A 
ATOM     28  C   UNL A   1      40.867  27.330  28.632  1.00  0.00     0.074 A 
ATOM     29  C   UNL A   1      42.898  26.418  27.573  1.00  0.00     0.049 A 
ATOM     30  N   UNL A   1      41.269  28.532  28.959  1.00  0.00    -0.248 NA
ATOM     31  C   UNL A   1      39.493  27.019  29.055  1.00  0.00     0.031 C 
ATOM     32  C   UNL A   1      43.724  25.444  26.861  1.00  0.00     0.029 A 
ATOM     33  N   UNL A   1      43.743  27.479  27.788  1.00  0.00    -0.354 N 
ATOM     34  C   UNL A   1      40.191  29.134  29.592  1.00  0.00     0.074 A 
ATOM     35  C   UNL A   1      39.112  28.168  29.599  1.00  0.00     0.031 C 
ATOM     36  C   UNL A   1      44.952  25.953  26.686  1.00  0.00     0.029 A 
ATOM     37  C   UNL A   1      44.981  27.310  27.222  1.00  0.00     0.049 A 
ATOM     38  H   UNL A   1      43.485  28.282  28.297  1.00  0.00     0.167 HD
ATOM     39  C   UNL A   1      40.112  30.381  30.117  1.00  0.00     0.037 A 
ATOM     40  C   UNL A   1      46.012  28.167  27.103  1.00  0.00     0.037 A 
ATOM     41  C   UNL A   1      41.196  31.329  30.135  1.00  0.00     0.049 A 
ATOM     42  C   UNL A   1      45.892  29.552  27.667  1.00  0.00     0.074 A 
ATOM     43  C   UNL A   1      41.234  32.588  30.708  1.00  0.00     0.029 A 
ATOM     44  N   UNL A   1      42.435  31.122  29.545  1.00  0.00    -0.354 N 
ATOM     45  N   UNL A   1      44.877  30.106  28.282  1.00  0.00    -0.248 NA
ATOM     46  C   UNL A   1      47.058  30.432  27.516  1.00  0.00     0.031 C 
ATOM     47  C   UNL A   1      42.480  33.161  30.427  1.00  0.00     0.029 A 
ATOM     48  C   UNL A   1      43.233  32.243  29.714  1.00  0.00     0.049 A 
ATOM     49  H   UNL A   1      42.708  30.300  29.077  1.00  0.00     0.167 HD
ATOM     50  C   UNL A   1      45.278  31.397  28.594  1.00  0.00     0.074 A 
ATOM     51  C   UNL A   1      46.639  31.537  28.118  1.00  0.00     0.031 C 
ATOM     52  C   UNL A   1      44.579  32.376  29.217  1.00  0.00     0.037 A 
BRANCH  39  53
ATOM     53  C   UNL A   1      38.793  30.808  30.692  1.00  0.00     0.064 A 
ATOM     54  C   UNL A   1      38.539  30.774  32.070  1.00  0.00     0.173 A 
ATOM     55  C   UNL A   1      37.781  31.293  29.849  1.00  0.00     0.173 A 
ATOM     56  F   UNL A   1      39.470  30.308  32.916  1.00  0.00    -0.203 F 
ATOM     57  C   UNL A   1      37.311  31.186  32.582  1.00  0.00     0.198 A 
ATOM     58  C   UNL A   1      36.563  31.727  30.365  1.00  0.00     0.198 A 
ATOM     59  F   UNL A   1      37.977  31.351  28.523  1.00  0.00    -0.203 F 
ATOM     60  F   UNL A   1      37.075  31.106  33.899  1.00  0.00    -0.200 F 
ATOM     61  C   UNL A   1      36.327  31.666  31.730  1.00  0.00     0.200 A 
ATOM     62  F   UNL A   1      35.618  32.200  29.543  1.00  0.00    -0.200 F 
ATOM     63  F   UNL A   1      35.147  32.065  32.225  1.00  0.00    -0.200 F 
ENDBRANCH  39  53
BRANCH  40  64
ATOM     64  C   UNL A   1      47.232  27.730  26.381  1.00  0.00     0.064 A 
ATOM     65  C   UNL A   1      48.322  27.186  27.069  1.00  0.00     0.173 A 
ATOM     66  C   UNL A   1      47.307  27.803  24.981  1.00  0.00     0.173 A 
ATOM     67  F   UNL A   1      48.301  27.117  28.408  1.00  0.00    -0.203 F 
ATOM     68  C   UNL A   1      49.445  26.727  26.385  1.00  0.00     0.198 A 
ATOM     69  C   UNL A   1      48.419  27.322  24.296  1.00  0.00     0.198 A 
ATOM     70  F   UNL A   1      46.285  28.314  24.280  1.00  0.00    -0.203 F 
ATOM     71  F   UNL A   1      50.485  26.228  27.066  1.00  0.00    -0.200 F 
ATOM     72  C   UNL A   1      49.489  26.785  24.998  1.00  0.00     0.200 A 
ATOM     73  F   UNL A   1      48.451  27.368  22.957  1.00  0.00    -0.200 F 
ATOM     74  F   UNL A   1      50.561  26.327  24.340  1.00  0.00    -0.200 F 
ENDBRANCH  40  64
BRANCH  52  75
ATOM     75  C   UNL A   1      45.278  33.688  29.420  1.00  0.00     0.064 A 
ATOM     76  C   UNL A   1      45.164  34.727  28.484  1.00  0.00     0.173 A 
ATOM     77  C   UNL A   1      46.047  33.917  30.570  1.00  0.00     0.173 A 
ATOM     78  F   UNL A   1      44.455  34.548  27.360  1.00  0.00    -0.203 F 
ATOM     79  C   UNL A   1      45.812  35.942  28.684  1.00  0.00     0.198 A 
ATOM     80  C   UNL A   1      46.675  35.141  30.777  1.00  0.00     0.198 A 
ATOM     81  F   UNL A   1      46.185  32.955  31.494  1.00  0.00    -0.203 F 
ATOM     82  F   UNL A   1      45.724  36.907  27.759  1.00  0.00    -0.200 F 
ATOM     83  C   UNL A   1      46.562  36.150  29.832  1.00  0.00     0.200 A 
ATOM     84  F   UNL A   1      47.393  35.345  31.891  1.00  0.00    -0.200 F 
ATOM     85  F   UNL A   1      47.184  37.322  30.025  1.00  0.00    -0.200 F 
ENDBRANCH  52  75
ENDBRANCH  26  27
ENDBRANCH  19  21
ENDBRANCH  18  19
ENDBRANCH  17  18
ENDBRANCH   1  17
TORSDOF 14
ENDMDL
MODEL 3
REMARK VINA RESULT:     -10.8      4.661      9.758
REMARK SMILES COc1cnc(SCC(=O)OCCOC(=O)c2ccc(-c3c4nc(c(-c5c(F)c(F)c(F)c(F)c5F)c5ccc([nH]5)c(-c5c(F)c(F)c(F)c(F)c5F)c5nc(c(-c6c(F)c(F)c(F)c(F)c6F)c6ccc3[nH]6)C=C5)C=C4)cc2)[nH]c1=O
REMARK SMILES IDX 12 1 11 2 9 3 10 4 8 5 7 6 6 7 3 8 4 9 81 10 5 11 80 12
REMARK SMILES IDX 82 13 2 15 1 16 13 17 14 18 15 19 16 20 17 21 18 22 79 23
REMARK SMILES IDX 19 24 78 25 20 26 21 27 22 28 72 29 23 30 77 31 71 32 73 33
REMARK SMILES IDX 24 34 76 35 70 36 69 37 25 39 57 40 37 41 56 42 38 43 41 44
REMARK SMILES IDX 55 45 74 46 39 47 40 48 54 50 75 51 42 52 26 53 27 54 35 55
REMARK SMILES IDX 28 56 29 57 33 58 36 59 30 60 31 61 34 62 32 63 58 64 59 65
REMARK SMILES IDX 67 66 60 67 61 68 65 69 68 70 62 71 63 72 66 73 64 74 43 75
REMARK SMILES IDX 44 76 52 77 45 78 46 79 50 80 53 81 47 82 48 83 51 84 49 85
REMARK H PARENT 80 14 73 38 41 49
REMARK Flexibility Score: inf
ROOT
ATOM      1  C   UNL A   1      34.298  34.214  28.330  1.00  0.00     0.274 C 
ENDROOT
BRANCH   1   2
ATOM      2  O   UNL A   1      34.293  35.071  29.490  1.00  0.00    -0.461 OA
BRANCH   2   3
ATOM      3  C   UNL A   1      33.251  35.938  29.584  1.00  0.00     0.316 C 
ATOM      4  O   UNL A   1      32.351  36.024  28.751  1.00  0.00    -0.251 OA
BRANCH   3   5
ATOM      5  C   UNL A   1      33.281  36.851  30.790  1.00  0.00     0.200 C 
BRANCH   5   6
ATOM      6  S   UNL A   1      32.928  36.081  32.387  1.00  0.00    -0.076 SA
BRANCH   6   7
ATOM      7  C   UNL A   1      34.104  34.809  32.434  1.00  0.00     0.168 A 
ATOM      8  C   UNL A   1      36.172  33.013  32.502  1.00  0.00     0.202 A 
ATOM      9  C   UNL A   1      34.871  32.687  32.506  1.00  0.00     0.166 A 
ATOM     10  C   UNL A   1      36.469  34.478  32.514  1.00  0.00     0.293 A 
ATOM     11  N   UNL A   1      33.804  33.556  32.486  1.00  0.00    -0.229 NA
ATOM     12  N   UNL A   1      35.372  35.291  32.450  1.00  0.00    -0.298 N 
ATOM     13  O   UNL A   1      37.596  34.954  32.591  1.00  0.00    -0.265 OA
ATOM     14  H   UNL A   1      35.507  36.265  32.414  1.00  0.00     0.172 HD
BRANCH   8  15
ATOM     15  O   UNL A   1      37.126  32.013  32.414  1.00  0.00    -0.490 OA
ATOM     16  C   UNL A   1      37.402  31.292  33.608  1.00  0.00     0.278 C 
ENDBRANCH   8  15
ENDBRANCH   6   7
ENDBRANCH   5   6
ENDBRANCH   3   5
ENDBRANCH   2   3
ENDBRANCH   1   2
BRANCH   1  17
ATOM     17  C   UNL A   1      34.403  32.748  28.734  1.00  0.00     0.275 C 
BRANCH  17  18
ATOM     18  O   UNL A   1      34.834  31.966  27.609  1.00  0.00    -0.458 OA
BRANCH  18  19
ATOM     19  C   UNL A   1      34.740  30.626  27.761  1.00  0.00     0.338 C 
ATOM     20  O   UNL A   1      33.747  29.933  27.630  1.00  0.00    -0.246 OA
BRANCH  19  21
ATOM     21  C   UNL A   1      36.049  30.083  28.167  1.00  0.00     0.060 A 
ATOM     22  C   UNL A   1      36.272  29.647  29.475  1.00  0.00     0.016 A 
ATOM     23  C   UNL A   1      37.102  30.125  27.251  1.00  0.00     0.016 A 
ATOM     24  C   UNL A   1      37.558  29.294  29.884  1.00  0.00     0.010 A 
ATOM     25  C   UNL A   1      38.373  29.703  27.642  1.00  0.00     0.010 A 
ATOM     26  C   UNL A   1      38.616  29.302  28.966  1.00  0.00    -0.014 A 
BRANCH  26  27
ATOM     27  C   UNL A   1      39.977  28.868  29.370  1.00  0.00     0.031 A 
ATOM     28  C   UNL A   1      40.873  29.787  30.148  1.00  0.00     0.074 A 
ATOM     29  C   UNL A   1      40.428  27.662  28.978  1.00  0.00     0.049 A 
ATOM     30  N   UNL A   1      42.141  29.651  30.445  1.00  0.00    -0.248 NA
ATOM     31  C   UNL A   1      40.266  31.028  30.651  1.00  0.00     0.031 C 
ATOM     32  C   UNL A   1      39.653  26.677  28.224  1.00  0.00     0.029 A 
ATOM     33  N   UNL A   1      41.657  27.072  29.138  1.00  0.00    -0.354 N 
ATOM     34  C   UNL A   1      42.493  30.802  31.136  1.00  0.00     0.074 A 
ATOM     35  C   UNL A   1      41.307  31.630  31.210  1.00  0.00     0.031 C 
ATOM     36  C   UNL A   1      40.426  25.609  27.976  1.00  0.00     0.029 A 
ATOM     37  C   UNL A   1      41.763  25.860  28.503  1.00  0.00     0.049 A 
ATOM     38  H   UNL A   1      42.388  27.477  29.658  1.00  0.00     0.167 HD
ATOM     39  C   UNL A   1      43.699  31.134  31.659  1.00  0.00     0.037 A 
ATOM     40  C   UNL A   1      42.830  25.060  28.320  1.00  0.00     0.037 A 
ATOM     41  C   UNL A   1      44.868  30.295  31.610  1.00  0.00     0.049 A 
ATOM     42  C   UNL A   1      44.161  25.461  28.884  1.00  0.00     0.074 A 
ATOM     43  C   UNL A   1      46.114  30.513  32.174  1.00  0.00     0.029 A 
ATOM     44  N   UNL A   1      44.938  29.076  30.950  1.00  0.00    -0.354 N 
ATOM     45  N   UNL A   1      44.481  26.540  29.553  1.00  0.00    -0.248 NA
ATOM     46  C   UNL A   1      45.280  24.536  28.661  1.00  0.00     0.031 C 
ATOM     47  C   UNL A   1      46.949  29.448  31.818  1.00  0.00     0.029 A 
ATOM     48  C   UNL A   1      46.214  28.546  31.067  1.00  0.00     0.049 A 
ATOM     49  H   UNL A   1      44.191  28.649  30.471  1.00  0.00     0.167 HD
ATOM     50  C   UNL A   1      45.834  26.427  29.835  1.00  0.00     0.074 A 
ATOM     51  C   UNL A   1      46.271  25.162  29.281  1.00  0.00     0.031 C 
ATOM     52  C   UNL A   1      46.640  27.295  30.493  1.00  0.00     0.037 A 
BRANCH  39  53
ATOM     53  C   UNL A   1      43.825  32.481  32.307  1.00  0.00     0.064 A 
ATOM     54  C   UNL A   1      44.138  33.633  31.572  1.00  0.00     0.173 A 
ATOM     55  C   UNL A   1      43.594  32.624  33.685  1.00  0.00     0.173 A 
ATOM     56  F   UNL A   1      44.379  33.547  30.255  1.00  0.00    -0.203 F 
ATOM     57  C   UNL A   1      44.239  34.875  32.195  1.00  0.00     0.198 A 
ATOM     58  C   UNL A   1      43.672  33.870  34.300  1.00  0.00     0.198 A 
ATOM     59  F   UNL A   1      43.287  31.553  34.432  1.00  0.00    -0.203 F 
ATOM     60  F   UNL A   1      44.579  35.956  31.478  1.00  0.00    -0.200 F 
ATOM     61  C   UNL A   1      44.000  34.993  33.556  1.00  0.00     0.200 A 
ATOM     62  F   UNL A   1      43.432  33.984  35.613  1.00  0.00    -0.200 F 
ATOM     63  F   UNL A   1      44.095  36.189  34.152  1.00  0.00    -0.200 F 
ENDBRANCH  39  53
BRANCH  40  64
ATOM     64  C   UNL A   1      42.668  23.814  27.531  1.00  0.00     0.064 A 
ATOM     65  C   UNL A   1      42.999  23.773  26.171  1.00  0.00     0.173 A 
ATOM     66  C   UNL A   1      42.228  22.628  28.137  1.00  0.00     0.173 A 
ATOM     67  F   UNL A   1      43.404  24.889  25.547  1.00  0.00    -0.203 F 
ATOM     68  C   UNL A   1      42.897  22.589  25.445  1.00  0.00     0.198 A 
ATOM     69  C   UNL A   1      42.149  21.440  27.416  1.00  0.00     0.198 A 
ATOM     70  F   UNL A   1      41.903  22.619  29.438  1.00  0.00    -0.203 F 
ATOM     71  F   UNL A   1      43.200  22.578  24.140  1.00  0.00    -0.200 F 
ATOM     72  C   UNL A   1      42.483  21.421  26.070  1.00  0.00     0.200 A 
ATOM     73  F   UNL A   1      41.762  20.312  28.027  1.00  0.00    -0.200 F 
ATOM     74  F   UNL A   1      42.403  20.279  25.375  1.00  0.00    -0.200 F 
ENDBRANCH  40  64
BRANCH  52  75
ATOM     75  C   UNL A   1      48.080  26.904  30.648  1.00  0.00     0.064 A 
ATOM     76  C   UNL A   1      49.058  27.351  29.748  1.00  0.00     0.173 A 
ATOM     77  C   UNL A   1      48.488  26.095  31.719  1.00  0.00     0.173 A 
ATOM     78  F   UNL A   1      48.713  28.111  28.698  1.00  0.00    -0.203 F 
ATOM     79  C   UNL A   1      50.392  26.986  29.904  1.00  0.00     0.198 A 
ATOM     80  C   UNL A   1      49.826  25.752  31.884  1.00  0.00     0.198 A 
ATOM     81  F   UNL A   1      47.590  25.644  32.606  1.00  0.00    -0.203 F 
ATOM     82  F   UNL A   1      51.305  27.391  29.010  1.00  0.00    -0.200 F 
ATOM     83  C   UNL A   1      50.776  26.192  30.975  1.00  0.00     0.200 A 
ATOM     84  F   UNL A   1      50.198  24.990  32.924  1.00  0.00    -0.200 F 
ATOM     85  F   UNL A   1      52.062  25.843  31.125  1.00  0.00    -0.200 F 
ENDBRANCH  52  75
ENDBRANCH  26  27
ENDBRANCH  19  21
ENDBRANCH  18  19
ENDBRANCH  17  18
ENDBRANCH   1  17
TORSDOF 14
ENDMDL
