MODEL 1
REMARK VINA RESULT:     -12.5      0.000      0.000
REMARK SMILES Nc1c(CC(=O)OCCOC(=O)c2ccc(-c3c4nc(c(-c5c(F)c(F)c(F)c(F)c5F)c5ccc([nH]5)c(-c5c(F)c(F)c(F)c(F)c5F)c5nc(c(-c6c(F)c(F)c(F)c(F)c6F)c6ccc3[nH]6)C=C5)C=C4)cc2)cccc1C(=O)c1ccc(Br)cc1
REMARK SMILES IDX 8 1 7 2 5 3 6 4 4 5 3 6 2 7 79 8 76 9 78 10 77 11 1 12 80 15
REMARK SMILES IDX 81 16 82 17 83 18 88 19 84 20 87 21 85 22 86 23 9 24 10 25
REMARK SMILES IDX 11 26 12 27 13 28 14 29 75 30 15 31 74 32 16 33 17 34 18 35
REMARK SMILES IDX 68 36 19 37 73 38 67 39 69 40 20 41 72 42 66 43 65 44 21 46
REMARK SMILES IDX 53 47 33 48 52 49 34 50 37 51 51 52 70 53 35 54 36 55 50 57
REMARK SMILES IDX 71 58 38 59 22 60 23 61 31 62 24 63 25 64 29 65 32 66 26 67
REMARK SMILES IDX 27 68 30 69 28 70 54 71 55 72 63 73 56 74 57 75 61 76 64 77
REMARK SMILES IDX 58 78 59 79 62 80 60 81 39 82 40 83 48 84 41 85 42 86 46 87
REMARK SMILES IDX 49 88 43 89 44 90 47 91 45 92
REMARK H PARENT 1 13 1 14 69 45 37 56
REMARK Flexibility Score: inf
ROOT
ATOM      1  C   UNL A   1      31.233  29.983  24.468  1.00  0.00     0.274 C 
ENDROOT
BRANCH   1   2
ATOM      2  O   UNL A   1      30.648  28.723  24.090  1.00  0.00    -0.462 OA
BRANCH   2   3
ATOM      3  C   UNL A   1      31.139  28.145  22.966  1.00  0.00     0.310 C 
ATOM      4  O   UNL A   1      30.463  27.829  21.991  1.00  0.00    -0.252 OA
BRANCH   3   5
ATOM      5  C   UNL A   1      32.635  27.954  22.975  1.00  0.00     0.160 C 
BRANCH   5   6
ATOM      6  C   UNL A   1      33.179  26.815  23.807  1.00  0.00    -0.013 A 
ATOM      7  C   UNL A   1      33.432  25.545  23.246  1.00  0.00     0.047 A 
ATOM      8  C   UNL A   1      34.138  24.603  24.034  1.00  0.00     0.046 A 
ATOM      9  C   UNL A   1      33.433  27.049  25.173  1.00  0.00     0.006 A 
ATOM     10  C   UNL A   1      34.385  24.857  25.394  1.00  0.00     0.014 A 
ATOM     11  C   UNL A   1      34.008  26.066  25.967  1.00  0.00     0.001 A 
BRANCH   7  12
ATOM     12  N   UNL A   1      33.071  25.303  21.920  1.00  0.00    -0.398 N 
ATOM     13  H   UNL A   1      33.079  24.383  21.568  1.00  0.00     0.156 HD
ATOM     14  H   UNL A   1      32.805  26.050  21.337  1.00  0.00     0.156 HD
ENDBRANCH   7  12
BRANCH   8  15
ATOM     15  C   UNL A   1      34.655  23.300  23.518  1.00  0.00     0.195 C 
ATOM     16  O   UNL A   1      35.525  23.273  22.651  1.00  0.00    -0.289 OA
BRANCH  15  17
ATOM     17  C   UNL A   1      34.148  22.011  24.041  1.00  0.00     0.023 A 
ATOM     18  C   UNL A   1      32.812  21.684  23.788  1.00  0.00     0.013 A 
ATOM     19  C   UNL A   1      34.994  21.097  24.680  1.00  0.00     0.013 A 
ATOM     20  C   UNL A   1      32.339  20.411  24.109  1.00  0.00     0.016 A 
ATOM     21  C   UNL A   1      34.516  19.824  25.003  1.00  0.00     0.016 A 
ATOM     22  C   UNL A   1      33.197  19.484  24.700  1.00  0.00     0.018 A 
ATOM     23  Br  UNL A   1      32.575  17.737  25.066  1.00  0.00    -0.051 Br
ENDBRANCH  15  17
ENDBRANCH   8  15
ENDBRANCH   5   6
ENDBRANCH   3   5
ENDBRANCH   2   3
ENDBRANCH   1   2
BRANCH   1  24
ATOM     24  C   UNL A   1      31.527  29.996  25.965  1.00  0.00     0.275 C 
BRANCH  24  25
ATOM     25  O   UNL A   1      32.937  30.179  26.186  1.00  0.00    -0.458 OA
BRANCH  25  26
ATOM     26  C   UNL A   1      33.270  31.191  27.018  1.00  0.00     0.338 C 
ATOM     27  O   UNL A   1      32.639  32.206  27.258  1.00  0.00    -0.246 OA
BRANCH  26  28
ATOM     28  C   UNL A   1      34.577  30.916  27.628  1.00  0.00     0.060 A 
ATOM     29  C   UNL A   1      34.961  29.606  27.919  1.00  0.00     0.016 A 
ATOM     30  C   UNL A   1      35.378  31.991  28.011  1.00  0.00     0.016 A 
ATOM     31  C   UNL A   1      36.123  29.366  28.649  1.00  0.00     0.010 A 
ATOM     32  C   UNL A   1      36.580  31.744  28.674  1.00  0.00     0.010 A 
ATOM     33  C   UNL A   1      36.952  30.432  29.019  1.00  0.00    -0.014 A 
BRANCH  33  34
ATOM     34  C   UNL A   1      38.212  30.217  29.773  1.00  0.00     0.031 A 
ATOM     35  C   UNL A   1      39.268  29.312  29.206  1.00  0.00     0.074 A 
ATOM     36  C   UNL A   1      38.376  30.766  30.990  1.00  0.00     0.049 A 
ATOM     37  N   UNL A   1      40.284  28.746  29.804  1.00  0.00    -0.248 NA
ATOM     38  C   UNL A   1      39.154  28.993  27.774  1.00  0.00     0.031 C 
ATOM     39  C   UNL A   1      37.457  31.709  31.628  1.00  0.00     0.029 A 
ATOM     40  N   UNL A   1      39.365  30.582  31.924  1.00  0.00    -0.354 N 
ATOM     41  C   UNL A   1      40.900  27.962  28.837  1.00  0.00     0.074 A 
ATOM     42  C   UNL A   1      40.148  28.131  27.611  1.00  0.00     0.031 C 
ATOM     43  C   UNL A   1      37.917  32.010  32.852  1.00  0.00     0.029 A 
ATOM     44  C   UNL A   1      39.116  31.222  33.114  1.00  0.00     0.049 A 
ATOM     45  H   UNL A   1      40.173  30.043  31.758  1.00  0.00     0.167 HD
ATOM     46  C   UNL A   1      41.988  27.168  28.970  1.00  0.00     0.037 A 
ATOM     47  C   UNL A   1      39.745  31.134  34.300  1.00  0.00     0.037 A 
ATOM     48  C   UNL A   1      42.743  27.034  30.188  1.00  0.00     0.049 A 
ATOM     49  C   UNL A   1      40.916  30.204  34.442  1.00  0.00     0.074 A 
ATOM     50  C   UNL A   1      43.863  26.258  30.431  1.00  0.00     0.029 A 
ATOM     51  N   UNL A   1      42.460  27.707  31.367  1.00  0.00    -0.354 N 
ATOM     52  N   UNL A   1      41.463  29.421  33.544  1.00  0.00    -0.248 NA
ATOM     53  C   UNL A   1      41.546  30.127  35.768  1.00  0.00     0.031 C 
ATOM     54  C   UNL A   1      44.239  26.439  31.766  1.00  0.00     0.029 A 
ATOM     55  C   UNL A   1      43.377  27.359  32.343  1.00  0.00     0.049 A 
ATOM     56  H   UNL A   1      41.715  28.340  31.491  1.00  0.00     0.167 HD
ATOM     57  C   UNL A   1      42.515  28.782  34.185  1.00  0.00     0.074 A 
ATOM     58  C   UNL A   1      42.531  29.267  35.550  1.00  0.00     0.031 C 
ATOM     59  C   UNL A   1      43.389  27.875  33.686  1.00  0.00     0.037 A 
BRANCH  46  60
ATOM     60  C   UNL A   1      42.406  26.353  27.784  1.00  0.00     0.064 A 
ATOM     61  C   UNL A   1      43.430  26.772  26.923  1.00  0.00     0.173 A 
ATOM     62  C   UNL A   1      41.800  25.112  27.530  1.00  0.00     0.173 A 
ATOM     63  F   UNL A   1      44.030  27.956  27.115  1.00  0.00    -0.203 F 
ATOM     64  C   UNL A   1      43.820  25.987  25.839  1.00  0.00     0.198 A 
ATOM     65  C   UNL A   1      42.208  24.320  26.460  1.00  0.00     0.198 A 
ATOM     66  F   UNL A   1      40.817  24.665  28.326  1.00  0.00    -0.203 F 
ATOM     67  F   UNL A   1      44.776  26.424  25.008  1.00  0.00    -0.200 F 
ATOM     68  C   UNL A   1      43.213  24.760  25.613  1.00  0.00     0.200 A 
ATOM     69  F   UNL A   1      41.628  23.131  26.250  1.00  0.00    -0.200 F 
ATOM     70  F   UNL A   1      43.595  24.003  24.575  1.00  0.00    -0.200 F 
ENDBRANCH  46  60
BRANCH  47  71
ATOM     71  C   UNL A   1      39.247  31.921  35.458  1.00  0.00     0.064 A 
ATOM     72  C   UNL A   1      39.632  33.255  35.637  1.00  0.00     0.173 A 
ATOM     73  C   UNL A   1      38.365  31.362  36.394  1.00  0.00     0.173 A 
ATOM     74  F   UNL A   1      40.492  33.824  34.780  1.00  0.00    -0.203 F 
ATOM     75  C   UNL A   1      39.160  34.000  36.716  1.00  0.00     0.198 A 
ATOM     76  C   UNL A   1      37.873  32.115  37.457  1.00  0.00     0.198 A 
ATOM     77  F   UNL A   1      37.967  30.087  36.266  1.00  0.00    -0.203 F 
ATOM     78  F   UNL A   1      39.569  35.264  36.884  1.00  0.00    -0.200 F 
ATOM     79  C   UNL A   1      38.275  33.432  37.621  1.00  0.00     0.200 A 
ATOM     80  F   UNL A   1      37.007  31.566  38.321  1.00  0.00    -0.200 F 
ATOM     81  F   UNL A   1      37.813  34.152  38.652  1.00  0.00    -0.200 F 
ENDBRANCH  47  71
BRANCH  59  82
ATOM     82  C   UNL A   1      44.473  27.391  34.600  1.00  0.00     0.064 A 
ATOM     83  C   UNL A   1      44.322  26.227  35.366  1.00  0.00     0.173 A 
ATOM     84  C   UNL A   1      45.700  28.068  34.656  1.00  0.00     0.173 A 
ATOM     85  F   UNL A   1      43.160  25.558  35.355  1.00  0.00    -0.203 F 
ATOM     86  C   UNL A   1      45.364  25.763  36.165  1.00  0.00     0.198 A 
ATOM     87  C   UNL A   1      46.745  27.589  35.439  1.00  0.00     0.198 A 
ATOM     88  F   UNL A   1      45.890  29.184  33.936  1.00  0.00    -0.203 F 
ATOM     89  F   UNL A   1      45.193  24.663  36.912  1.00  0.00    -0.200 F 
ATOM     90  C   UNL A   1      46.575  26.438  36.195  1.00  0.00     0.200 A 
ATOM     91  F   UNL A   1      47.918  28.237  35.459  1.00  0.00    -0.200 F 
ATOM     92  F   UNL A   1      47.580  25.982  36.955  1.00  0.00    -0.200 F 
ENDBRANCH  59  82
ENDBRANCH  33  34
ENDBRANCH  26  28
ENDBRANCH  25  26
ENDBRANCH  24  25
ENDBRANCH   1  24
TORSDOF 15
ENDMDL
MODEL 2
REMARK VINA RESULT:     -12.3      0.861      1.836
REMARK SMILES Nc1c(CC(=O)OCCOC(=O)c2ccc(-c3c4nc(c(-c5c(F)c(F)c(F)c(F)c5F)c5ccc([nH]5)c(-c5c(F)c(F)c(F)c(F)c5F)c5nc(c(-c6c(F)c(F)c(F)c(F)c6F)c6ccc3[nH]6)C=C5)C=C4)cc2)cccc1C(=O)c1ccc(Br)cc1
REMARK SMILES IDX 8 1 7 2 5 3 6 4 4 5 3 6 2 7 79 8 76 9 78 10 77 11 1 12 80 15
REMARK SMILES IDX 81 16 82 17 83 18 88 19 84 20 87 21 85 22 86 23 9 24 10 25
REMARK SMILES IDX 11 26 12 27 13 28 14 29 75 30 15 31 74 32 16 33 17 34 18 35
REMARK SMILES IDX 68 36 19 37 73 38 67 39 69 40 20 41 72 42 66 43 65 44 21 46
REMARK SMILES IDX 53 47 33 48 52 49 34 50 37 51 51 52 70 53 35 54 36 55 50 57
REMARK SMILES IDX 71 58 38 59 22 60 23 61 31 62 24 63 25 64 29 65 32 66 26 67
REMARK SMILES IDX 27 68 30 69 28 70 54 71 55 72 63 73 56 74 57 75 61 76 64 77
REMARK SMILES IDX 58 78 59 79 62 80 60 81 39 82 40 83 48 84 41 85 42 86 46 87
REMARK SMILES IDX 49 88 43 89 44 90 47 91 45 92
REMARK H PARENT 1 13 1 14 69 45 37 56
REMARK Flexibility Score: inf
ROOT
ATOM      1  C   UNL A   1      31.659  29.360  24.272  1.00  0.00     0.274 C 
ENDROOT
BRANCH   1   2
ATOM      2  O   UNL A   1      30.306  28.953  23.997  1.00  0.00    -0.462 OA
BRANCH   2   3
ATOM      3  C   UNL A   1      30.156  27.861  23.204  1.00  0.00     0.310 C 
ATOM      4  O   UNL A   1      30.483  27.808  22.021  1.00  0.00    -0.252 OA
BRANCH   3   5
ATOM      5  C   UNL A   1      29.588  26.659  23.914  1.00  0.00     0.160 C 
BRANCH   5   6
ATOM      6  C   UNL A   1      30.571  25.721  24.578  1.00  0.00    -0.013 A 
ATOM      7  C   UNL A   1      31.311  24.778  23.835  1.00  0.00     0.047 A 
ATOM      8  C   UNL A   1      32.359  24.091  24.496  1.00  0.00     0.046 A 
ATOM      9  C   UNL A   1      30.736  25.810  25.975  1.00  0.00     0.006 A 
ATOM     10  C   UNL A   1      32.510  24.196  25.890  1.00  0.00     0.014 A 
ATOM     11  C   UNL A   1      31.682  25.031  26.629  1.00  0.00     0.001 A 
BRANCH   7  12
ATOM     12  N   UNL A   1      31.051  24.631  22.472  1.00  0.00    -0.398 N 
ATOM     13  H   UNL A   1      31.417  25.281  21.829  1.00  0.00     0.156 HD
ATOM     14  H   UNL A   1      30.505  23.877  22.153  1.00  0.00     0.156 HD
ENDBRANCH   7  12
BRANCH   8  15
ATOM     15  C   UNL A   1      33.354  23.217  23.804  1.00  0.00     0.195 C 
ATOM     16  O   UNL A   1      34.107  23.682  22.953  1.00  0.00    -0.289 OA
BRANCH  15  17
ATOM     17  C   UNL A   1      33.470  21.777  24.130  1.00  0.00     0.023 A 
ATOM     18  C   UNL A   1      32.437  20.929  23.718  1.00  0.00     0.013 A 
ATOM     19  C   UNL A   1      34.618  21.255  24.739  1.00  0.00     0.013 A 
ATOM     20  C   UNL A   1      32.583  19.548  23.848  1.00  0.00     0.016 A 
ATOM     21  C   UNL A   1      34.759  19.872  24.872  1.00  0.00     0.016 A 
ATOM     22  C   UNL A   1      33.748  19.026  24.410  1.00  0.00     0.018 A 
ATOM     23  Br  UNL A   1      33.975  17.153  24.519  1.00  0.00    -0.051 Br
ENDBRANCH  15  17
ENDBRANCH   8  15
ENDBRANCH   5   6
ENDBRANCH   3   5
ENDBRANCH   2   3
ENDBRANCH   1   2
BRANCH   1  24
ATOM     24  C   UNL A   1      31.727  30.068  25.623  1.00  0.00     0.275 C 
BRANCH  24  25
ATOM     25  O   UNL A   1      33.093  30.138  26.071  1.00  0.00    -0.458 OA
BRANCH  25  26
ATOM     26  C   UNL A   1      33.365  31.121  26.957  1.00  0.00     0.338 C 
ATOM     27  O   UNL A   1      32.685  32.092  27.238  1.00  0.00    -0.246 OA
BRANCH  26  28
ATOM     28  C   UNL A   1      34.675  30.875  27.575  1.00  0.00     0.060 A 
ATOM     29  C   UNL A   1      35.040  29.588  27.973  1.00  0.00     0.016 A 
ATOM     30  C   UNL A   1      35.498  31.964  27.856  1.00  0.00     0.016 A 
ATOM     31  C   UNL A   1      36.206  29.390  28.710  1.00  0.00     0.010 A 
ATOM     32  C   UNL A   1      36.703  31.754  28.526  1.00  0.00     0.010 A 
ATOM     33  C   UNL A   1      37.057  30.469  28.979  1.00  0.00    -0.014 A 
BRANCH  33  34
ATOM     34  C   UNL A   1      38.322  30.297  29.735  1.00  0.00     0.031 A 
ATOM     35  C   UNL A   1      39.402  29.413  29.179  1.00  0.00     0.074 A 
ATOM     36  C   UNL A   1      38.471  30.865  30.945  1.00  0.00     0.049 A 
ATOM     37  N   UNL A   1      40.432  28.881  29.784  1.00  0.00    -0.248 NA
ATOM     38  C   UNL A   1      39.297  29.073  27.751  1.00  0.00     0.031 C 
ATOM     39  C   UNL A   1      37.528  31.791  31.571  1.00  0.00     0.029 A 
ATOM     40  N   UNL A   1      39.465  30.719  31.881  1.00  0.00    -0.354 N 
ATOM     41  C   UNL A   1      41.069  28.102  28.827  1.00  0.00     0.074 A 
ATOM     42  C   UNL A   1      40.313  28.236  27.599  1.00  0.00     0.031 C 
ATOM     43  C   UNL A   1      37.980  32.121  32.791  1.00  0.00     0.029 A 
ATOM     44  C   UNL A   1      39.199  31.367  33.063  1.00  0.00     0.049 A 
ATOM     45  H   UNL A   1      40.287  30.200  31.722  1.00  0.00     0.167 HD
ATOM     46  C   UNL A   1      42.177  27.338  28.970  1.00  0.00     0.037 A 
ATOM     47  C   UNL A   1      39.829  31.311  34.250  1.00  0.00     0.037 A 
ATOM     48  C   UNL A   1      42.935  27.240  30.190  1.00  0.00     0.049 A 
ATOM     49  C   UNL A   1      41.024  30.413  34.404  1.00  0.00     0.074 A 
ATOM     50  C   UNL A   1      44.075  26.496  30.442  1.00  0.00     0.029 A 
ATOM     51  N   UNL A   1      42.634  27.920  31.360  1.00  0.00    -0.354 N 
ATOM     52  N   UNL A   1      41.593  29.634  33.515  1.00  0.00    -0.248 NA
ATOM     53  C   UNL A   1      41.656  30.369  35.730  1.00  0.00     0.031 C 
ATOM     54  C   UNL A   1      44.446  26.704  31.775  1.00  0.00     0.029 A 
ATOM     55  C   UNL A   1      43.560  27.608  32.340  1.00  0.00     0.049 A 
ATOM     56  H   UNL A   1      41.873  28.534  31.477  1.00  0.00     0.167 HD
ATOM     57  C   UNL A   1      42.660  29.031  34.164  1.00  0.00     0.074 A 
ATOM     58  C   UNL A   1      42.663  29.533  35.523  1.00  0.00     0.031 C 
ATOM     59  C   UNL A   1      43.558  28.141  33.677  1.00  0.00     0.037 A 
BRANCH  46  60
ATOM     60  C   UNL A   1      42.617  26.520  27.794  1.00  0.00     0.064 A 
ATOM     61  C   UNL A   1      42.110  25.236  27.555  1.00  0.00     0.173 A 
ATOM     62  C   UNL A   1      43.532  27.049  26.868  1.00  0.00     0.173 A 
ATOM     63  F   UNL A   1      41.245  24.681  28.416  1.00  0.00    -0.203 F 
ATOM     64  C   UNL A   1      42.515  24.502  26.441  1.00  0.00     0.198 A 
ATOM     65  C   UNL A   1      43.916  26.323  25.745  1.00  0.00     0.198 A 
ATOM     66  F   UNL A   1      44.044  28.275  27.051  1.00  0.00    -0.203 F 
ATOM     67  F   UNL A   1      42.045  23.262  26.252  1.00  0.00    -0.200 F 
ATOM     68  C   UNL A   1      43.412  25.049  25.535  1.00  0.00     0.200 A 
ATOM     69  F   UNL A   1      44.775  26.857  24.865  1.00  0.00    -0.200 F 
ATOM     70  F   UNL A   1      43.794  24.344  24.461  1.00  0.00    -0.200 F 
ENDBRANCH  46  60
BRANCH  47  71
ATOM     71  C   UNL A   1      39.311  32.099  35.398  1.00  0.00     0.064 A 
ATOM     72  C   UNL A   1      38.483  31.506  36.359  1.00  0.00     0.173 A 
ATOM     73  C   UNL A   1      39.645  33.451  35.565  1.00  0.00     0.173 A 
ATOM     74  F   UNL A   1      38.118  30.222  36.228  1.00  0.00    -0.203 F 
ATOM     75  C   UNL A   1      38.002  32.238  37.442  1.00  0.00     0.198 A 
ATOM     76  C   UNL A   1      39.185  34.175  36.662  1.00  0.00     0.198 A 
ATOM     77  F   UNL A   1      40.434  34.064  34.670  1.00  0.00    -0.203 F 
ATOM     78  F   UNL A   1      37.186  31.657  38.331  1.00  0.00    -0.200 F 
ATOM     79  C   UNL A   1      38.360  33.569  37.598  1.00  0.00     0.200 A 
ATOM     80  F   UNL A   1      39.544  35.457  36.815  1.00  0.00    -0.200 F 
ATOM     81  F   UNL A   1      37.905  34.270  38.645  1.00  0.00    -0.200 F 
ENDBRANCH  47  71
BRANCH  59  82
ATOM     82  C   UNL A   1      44.654  27.697  34.596  1.00  0.00     0.064 A 
ATOM     83  C   UNL A   1      44.531  26.543  35.382  1.00  0.00     0.173 A 
ATOM     84  C   UNL A   1      45.865  28.402  34.639  1.00  0.00     0.173 A 
ATOM     85  F   UNL A   1      43.384  25.848  35.385  1.00  0.00    -0.203 F 
ATOM     86  C   UNL A   1      45.584  26.116  36.187  1.00  0.00     0.198 A 
ATOM     87  C   UNL A   1      46.922  27.960  35.428  1.00  0.00     0.198 A 
ATOM     88  F   UNL A   1      46.029  29.510  33.900  1.00  0.00    -0.203 F 
ATOM     89  F   UNL A   1      45.439  25.025  36.953  1.00  0.00    -0.200 F 
ATOM     90  C   UNL A   1      46.779  26.818  36.204  1.00  0.00     0.200 A 
ATOM     91  F   UNL A   1      48.080  28.635  35.435  1.00  0.00    -0.200 F 
ATOM     92  F   UNL A   1      47.795  26.398  36.970  1.00  0.00    -0.200 F 
ENDBRANCH  59  82
ENDBRANCH  33  34
ENDBRANCH  26  28
ENDBRANCH  25  26
ENDBRANCH  24  25
ENDBRANCH   1  24
TORSDOF 15
ENDMDL
MODEL 3
REMARK VINA RESULT:     -12.3      1.161      2.244
REMARK SMILES Nc1c(CC(=O)OCCOC(=O)c2ccc(-c3c4nc(c(-c5c(F)c(F)c(F)c(F)c5F)c5ccc([nH]5)c(-c5c(F)c(F)c(F)c(F)c5F)c5nc(c(-c6c(F)c(F)c(F)c(F)c6F)c6ccc3[nH]6)C=C5)C=C4)cc2)cccc1C(=O)c1ccc(Br)cc1
REMARK SMILES IDX 8 1 7 2 5 3 6 4 4 5 3 6 2 7 79 8 76 9 78 10 77 11 1 12 80 15
REMARK SMILES IDX 81 16 82 17 83 18 88 19 84 20 87 21 85 22 86 23 9 24 10 25
REMARK SMILES IDX 11 26 12 27 13 28 14 29 75 30 15 31 74 32 16 33 17 34 18 35
REMARK SMILES IDX 68 36 19 37 73 38 67 39 69 40 20 41 72 42 66 43 65 44 21 46
REMARK SMILES IDX 53 47 33 48 52 49 34 50 37 51 51 52 70 53 35 54 36 55 50 57
REMARK SMILES IDX 71 58 38 59 22 60 23 61 31 62 24 63 25 64 29 65 32 66 26 67
REMARK SMILES IDX 27 68 30 69 28 70 54 71 55 72 63 73 56 74 57 75 61 76 64 77
REMARK SMILES IDX 58 78 59 79 62 80 60 81 39 82 40 83 48 84 41 85 42 86 46 87
REMARK SMILES IDX 49 88 43 89 44 90 47 91 45 92
REMARK H PARENT 1 13 1 14 69 45 37 56
REMARK Flexibility Score: inf
ROOT
ATOM      1  C   UNL A   1      31.767  28.364  26.187  1.00  0.00     0.274 C 
ENDROOT
BRANCH   1   2
ATOM      2  O   UNL A   1      31.370  27.429  25.167  1.00  0.00    -0.462 OA
BRANCH   2   3
ATOM      3  C   UNL A   1      30.768  26.291  25.596  1.00  0.00     0.310 C 
ATOM      4  O   UNL A   1      29.623  25.955  25.304  1.00  0.00    -0.252 OA
BRANCH   3   5
ATOM      5  C   UNL A   1      31.649  25.412  26.446  1.00  0.00     0.160 C 
BRANCH   5   6
ATOM      6  C   UNL A   1      32.551  24.436  25.725  1.00  0.00    -0.013 A 
ATOM      7  C   UNL A   1      32.041  23.276  25.107  1.00  0.00     0.047 A 
ATOM      8  C   UNL A   1      32.914  22.532  24.275  1.00  0.00     0.046 A 
ATOM      9  C   UNL A   1      33.932  24.712  25.683  1.00  0.00     0.006 A 
ATOM     10  C   UNL A   1      34.288  22.826  24.243  1.00  0.00     0.014 A 
ATOM     11  C   UNL A   1      34.799  23.896  24.968  1.00  0.00     0.001 A 
BRANCH   7  12
ATOM     12  N   UNL A   1      30.689  22.964  25.255  1.00  0.00    -0.398 N 
ATOM     13  H   UNL A   1      30.012  23.677  25.207  1.00  0.00     0.156 HD
ATOM     14  H   UNL A   1      30.412  22.031  25.406  1.00  0.00     0.156 HD
ENDBRANCH   7  12
BRANCH   8  15
ATOM     15  C   UNL A   1      32.476  21.404  23.398  1.00  0.00     0.195 C 
ATOM     16  O   UNL A   1      32.117  21.615  22.243  1.00  0.00    -0.289 OA
BRANCH  15  17
ATOM     17  C   UNL A   1      32.474  20.007  23.888  1.00  0.00     0.023 A 
ATOM     18  C   UNL A   1      32.447  18.981  22.937  1.00  0.00     0.013 A 
ATOM     19  C   UNL A   1      32.597  19.709  25.251  1.00  0.00     0.013 A 
ATOM     20  C   UNL A   1      32.618  17.658  23.343  1.00  0.00     0.016 A 
ATOM     21  C   UNL A   1      32.763  18.382  25.654  1.00  0.00     0.016 A 
ATOM     22  C   UNL A   1      32.790  17.367  24.697  1.00  0.00     0.018 A 
ATOM     23  Br  UNL A   1      33.094  15.581  25.237  1.00  0.00    -0.051 Br
ENDBRANCH  15  17
ENDBRANCH   8  15
ENDBRANCH   5   6
ENDBRANCH   3   5
ENDBRANCH   2   3
ENDBRANCH   1   2
BRANCH   1  24
ATOM     24  C   UNL A   1      32.030  29.734  25.568  1.00  0.00     0.275 C 
BRANCH  24  25
ATOM     25  O   UNL A   1      33.334  30.205  25.956  1.00  0.00    -0.458 OA
BRANCH  25  26
ATOM     26  C   UNL A   1      33.345  31.179  26.893  1.00  0.00     0.338 C 
ATOM     27  O   UNL A   1      32.530  32.069  27.065  1.00  0.00    -0.246 OA
BRANCH  26  28
ATOM     28  C   UNL A   1      34.545  31.041  27.729  1.00  0.00     0.060 A 
ATOM     29  C   UNL A   1      35.411  32.121  27.908  1.00  0.00     0.016 A 
ATOM     30  C   UNL A   1      34.860  29.786  28.247  1.00  0.00     0.016 A 
ATOM     31  C   UNL A   1      36.629  31.937  28.559  1.00  0.00     0.010 A 
ATOM     32  C   UNL A   1      36.045  29.622  28.965  1.00  0.00     0.010 A 
ATOM     33  C   UNL A   1      36.950  30.689  29.108  1.00  0.00    -0.014 A 
BRANCH  33  34
ATOM     34  C   UNL A   1      38.225  30.458  29.832  1.00  0.00     0.031 A 
ATOM     35  C   UNL A   1      39.261  29.550  29.235  1.00  0.00     0.074 A 
ATOM     36  C   UNL A   1      38.419  30.996  31.050  1.00  0.00     0.049 A 
ATOM     37  N   UNL A   1      40.284  28.970  29.806  1.00  0.00    -0.248 NA
ATOM     38  C   UNL A   1      39.112  29.243  27.804  1.00  0.00     0.031 C 
ATOM     39  C   UNL A   1      37.522  31.942  31.715  1.00  0.00     0.029 A 
ATOM     40  N   UNL A   1      39.427  30.797  31.960  1.00  0.00    -0.354 N 
ATOM     41  C   UNL A   1      40.872  28.189  28.820  1.00  0.00     0.074 A 
ATOM     42  C   UNL A   1      40.095  28.374  27.612  1.00  0.00     0.031 C 
ATOM     43  C   UNL A   1      38.012  32.230  32.930  1.00  0.00     0.029 A 
ATOM     44  C   UNL A   1      39.209  31.430  33.160  1.00  0.00     0.049 A 
ATOM     45  H   UNL A   1      40.227  30.253  31.772  1.00  0.00     0.167 HD
ATOM     46  C   UNL A   1      41.956  27.385  28.924  1.00  0.00     0.037 A 
ATOM     47  C   UNL A   1      39.863  31.328  34.332  1.00  0.00     0.037 A 
ATOM     48  C   UNL A   1      42.737  27.235  30.124  1.00  0.00     0.049 A 
ATOM     49  C   UNL A   1      41.029  30.386  34.441  1.00  0.00     0.074 A 
ATOM     50  C   UNL A   1      43.855  26.448  30.336  1.00  0.00     0.029 A 
ATOM     51  N   UNL A   1      42.484  27.901  31.314  1.00  0.00    -0.354 N 
ATOM     52  N   UNL A   1      41.550  29.606  33.525  1.00  0.00    -0.248 NA
ATOM     53  C   UNL A   1      41.688  30.294  35.752  1.00  0.00     0.031 C 
ATOM     54  C   UNL A   1      44.261  26.615  31.664  1.00  0.00     0.029 A 
ATOM     55  C   UNL A   1      43.420  27.538  32.266  1.00  0.00     0.049 A 
ATOM     56  H   UNL A   1      41.748  28.539  31.459  1.00  0.00     0.167 HD
ATOM     57  C   UNL A   1      42.610  28.953  34.138  1.00  0.00     0.074 A 
ATOM     58  C   UNL A   1      42.660  29.428  35.506  1.00  0.00     0.031 C 
ATOM     59  C   UNL A   1      43.465  28.043  33.613  1.00  0.00     0.037 A 
BRANCH  46  60
ATOM     60  C   UNL A   1      42.342  26.576  27.722  1.00  0.00     0.064 A 
ATOM     61  C   UNL A   1      43.331  27.006  26.828  1.00  0.00     0.173 A 
ATOM     62  C   UNL A   1      41.739  25.329  27.487  1.00  0.00     0.173 A 
ATOM     63  F   UNL A   1      43.926  28.195  27.001  1.00  0.00    -0.203 F 
ATOM     64  C   UNL A   1      43.692  26.226  25.730  1.00  0.00     0.198 A 
ATOM     65  C   UNL A   1      42.118  24.543  26.403  1.00  0.00     0.198 A 
ATOM     66  F   UNL A   1      40.789  24.871  28.316  1.00  0.00    -0.203 F 
ATOM     67  F   UNL A   1      44.614  26.674  24.867  1.00  0.00    -0.200 F 
ATOM     68  C   UNL A   1      43.090  24.994  25.523  1.00  0.00     0.200 A 
ATOM     69  F   UNL A   1      41.543  23.348  26.210  1.00  0.00    -0.200 F 
ATOM     70  F   UNL A   1      43.444  24.243  24.471  1.00  0.00    -0.200 F 
ENDBRANCH  46  60
BRANCH  47  71
ATOM     71  C   UNL A   1      39.397  32.109  35.506  1.00  0.00     0.064 A 
ATOM     72  C   UNL A   1      38.503  31.553  36.428  1.00  0.00     0.173 A 
ATOM     73  C   UNL A   1      39.849  33.417  35.737  1.00  0.00     0.173 A 
ATOM     74  F   UNL A   1      38.026  30.314  36.236  1.00  0.00    -0.203 F 
ATOM     75  C   UNL A   1      38.070  32.279  37.537  1.00  0.00     0.198 A 
ATOM     76  C   UNL A   1      39.437  34.132  36.859  1.00  0.00     0.198 A 
ATOM     77  F   UNL A   1      40.705  33.994  34.882  1.00  0.00    -0.203 F 
ATOM     78  F   UNL A   1      37.190  31.736  38.387  1.00  0.00    -0.200 F 
ATOM     79  C   UNL A   1      38.544  33.564  37.756  1.00  0.00     0.200 A 
ATOM     80  F   UNL A   1      39.906  35.369  37.073  1.00  0.00    -0.200 F 
ATOM     81  F   UNL A   1      38.135  34.258  38.827  1.00  0.00    -0.200 F 
ENDBRANCH  47  71
BRANCH  59  82
ATOM     82  C   UNL A   1      44.565  27.543  34.499  1.00  0.00     0.064 A 
ATOM     83  C   UNL A   1      45.770  28.244  34.640  1.00  0.00     0.173 A 
ATOM     84  C   UNL A   1      44.379  26.382  35.264  1.00  0.00     0.173 A 
ATOM     85  F   UNL A   1      45.996  29.350  33.916  1.00  0.00    -0.203 F 
ATOM     86  C   UNL A   1      46.757  27.792  35.513  1.00  0.00     0.198 A 
ATOM     87  C   UNL A   1      45.359  25.946  36.150  1.00  0.00     0.198 A 
ATOM     88  F   UNL A   1      43.239  25.682  35.165  1.00  0.00    -0.203 F 
ATOM     89  F   UNL A   1      47.915  28.461  35.615  1.00  0.00    -0.200 F 
ATOM     90  C   UNL A   1      46.548  26.651  36.272  1.00  0.00     0.200 A 
ATOM     91  F   UNL A   1      45.151  24.848  36.890  1.00  0.00    -0.200 F 
ATOM     92  F   UNL A   1      47.495  26.225  37.120  1.00  0.00    -0.200 F 
ENDBRANCH  59  82
ENDBRANCH  33  34
ENDBRANCH  26  28
ENDBRANCH  25  26
ENDBRANCH  24  25
ENDBRANCH   1  24
TORSDOF 15
ENDMDL
