MODEL 1
REMARK VINA RESULT:     -12.8      0.000      0.000
REMARK SMILES COc1ccc(-c2nc(C(C)C)cc3nn(CC(=O)OCCOC(=O)c4ccc(-c5c6nc(c(-c7c(F)c(F)c(F)c(F)c7F)c7ccc([nH]7)c(-c7c(F)c(F)c(F)c(F)c7F)c7nc(c(-c8c(F)c(F)c(F)c(F)c8F)c8ccc5[nH]8)C=C7)C=C6)cc4)c(=O)n23)cc1
REMARK SMILES IDX 21 1 20 2 18 3 19 4 17 5 16 6 7 7 8 8 91 9 9 10 14 11 89 12
REMARK SMILES IDX 13 13 15 14 90 15 6 16 3 17 4 18 93 19 5 20 92 21 2 22 1 23
REMARK SMILES IDX 10 24 11 25 12 26 22 27 23 28 24 29 25 30 26 31 27 32 88 33
REMARK SMILES IDX 28 34 87 35 29 36 30 37 31 38 81 39 32 40 86 41 80 42 82 43
REMARK SMILES IDX 33 44 85 45 79 46 78 47 34 49 66 50 46 51 65 52 47 53 50 54
REMARK SMILES IDX 64 55 83 56 48 57 49 58 63 60 84 61 51 62 35 63 36 64 44 65
REMARK SMILES IDX 37 66 38 67 42 68 45 69 39 70 40 71 43 72 41 73 67 74 68 75
REMARK SMILES IDX 76 76 69 77 70 78 74 79 77 80 71 81 72 82 75 83 73 84 52 85
REMARK SMILES IDX 53 86 61 87 54 88 55 89 59 90 62 91 56 92 57 93 60 94 58 95
REMARK H PARENT 82 48 50 59
REMARK Flexibility Score: inf
ROOT
ATOM      1  C   UNL A   1      36.599  33.342  28.660  1.00  0.00     0.274 C 
ENDROOT
BRANCH   1   2
ATOM      2  O   UNL A   1      35.740  32.841  27.614  1.00  0.00    -0.461 OA
BRANCH   2   3
ATOM      3  C   UNL A   1      34.443  32.610  27.957  1.00  0.00     0.328 C 
ATOM      4  O   UNL A   1      33.638  33.499  28.231  1.00  0.00    -0.250 OA
BRANCH   3   5
ATOM      5  C   UNL A   1      34.065  31.135  28.044  1.00  0.00     0.272 C 
BRANCH   5   6
ATOM      6  N   UNL A   1      33.119  30.630  27.075  1.00  0.00    -0.201 N 
ATOM      7  C   UNL A   1      31.666  28.440  24.633  1.00  0.00     0.150 A 
ATOM      8  N   UNL A   1      30.662  28.687  23.845  1.00  0.00    -0.234 NA
ATOM      9  N   UNL A   1      32.156  29.398  25.509  1.00  0.00    -0.226 N 
ATOM     10  C   UNL A   1      30.075  29.935  23.914  1.00  0.00     0.049 A 
ATOM     11  C   UNL A   1      31.523  30.572  25.711  1.00  0.00     0.165 A 
ATOM     12  C   UNL A   1      33.291  29.479  26.288  1.00  0.00     0.352 A 
ATOM     13  C   UNL A   1      30.404  30.869  24.826  1.00  0.00     0.073 A 
ATOM     14  N   UNL A   1      32.018  31.335  26.639  1.00  0.00    -0.149 NA
ATOM     15  O   UNL A   1      34.326  28.842  26.157  1.00  0.00    -0.245 OA
BRANCH   7  16
ATOM     16  C   UNL A   1      32.293  27.101  24.626  1.00  0.00     0.018 A 
ATOM     17  C   UNL A   1      33.481  24.578  24.645  1.00  0.00     0.118 A 
ATOM     18  C   UNL A   1      33.853  25.519  23.686  1.00  0.00     0.047 A 
ATOM     19  C   UNL A   1      32.578  24.928  25.650  1.00  0.00     0.047 A 
ATOM     20  C   UNL A   1      33.251  26.777  23.660  1.00  0.00     0.016 A 
ATOM     21  C   UNL A   1      31.989  26.196  25.646  1.00  0.00     0.016 A 
BRANCH  17  22
ATOM     22  O   UNL A   1      34.080  23.352  24.574  1.00  0.00    -0.497 OA
ATOM     23  C   UNL A   1      34.364  22.955  23.233  1.00  0.00     0.278 C 
ENDBRANCH  17  22
ENDBRANCH   7  16
BRANCH  10  24
ATOM     24  C   UNL A   1      29.015  30.193  22.857  1.00  0.00     0.032 C 
ATOM     25  C   UNL A   1      27.971  29.077  22.784  1.00  0.00     0.014 C 
ATOM     26  C   UNL A   1      28.357  31.557  23.087  1.00  0.00     0.014 C 
ENDBRANCH  10  24
ENDBRANCH   5   6
ENDBRANCH   3   5
ENDBRANCH   2   3
ENDBRANCH   1   2
BRANCH   1  27
ATOM     27  C   UNL A   1      37.273  32.205  29.418  1.00  0.00     0.275 C 
BRANCH  27  28
ATOM     28  O   UNL A   1      37.936  31.309  28.524  1.00  0.00    -0.458 OA
BRANCH  28  29
ATOM     29  C   UNL A   1      37.581  30.018  28.711  1.00  0.00     0.338 C 
ATOM     30  O   UNL A   1      36.756  29.584  29.492  1.00  0.00    -0.246 OA
BRANCH  29  31
ATOM     31  C   UNL A   1      38.519  29.143  28.017  1.00  0.00     0.060 A 
ATOM     32  C   UNL A   1      38.506  27.789  28.355  1.00  0.00     0.016 A 
ATOM     33  C   UNL A   1      39.633  29.755  27.444  1.00  0.00     0.016 A 
ATOM     34  C   UNL A   1      39.693  27.098  28.368  1.00  0.00     0.010 A 
ATOM     35  C   UNL A   1      40.814  29.062  27.437  1.00  0.00     0.010 A 
ATOM     36  C   UNL A   1      40.846  27.781  27.999  1.00  0.00    -0.014 A 
BRANCH  36  37
ATOM     37  C   UNL A   1      42.119  27.094  28.076  1.00  0.00     0.031 A 
ATOM     38  C   UNL A   1      42.835  27.388  29.343  1.00  0.00     0.074 A 
ATOM     39  C   UNL A   1      42.418  26.149  27.162  1.00  0.00     0.049 A 
ATOM     40  N   UNL A   1      44.052  27.787  29.515  1.00  0.00    -0.248 NA
ATOM     41  C   UNL A   1      42.028  27.385  30.584  1.00  0.00     0.031 C 
ATOM     42  C   UNL A   1      41.569  25.698  26.049  1.00  0.00     0.029 A 
ATOM     43  N   UNL A   1      43.462  25.276  27.114  1.00  0.00    -0.354 N 
ATOM     44  C   UNL A   1      44.216  27.858  30.897  1.00  0.00     0.074 A 
ATOM     45  C   UNL A   1      42.907  27.817  31.484  1.00  0.00     0.031 C 
ATOM     46  C   UNL A   1      42.019  24.513  25.588  1.00  0.00     0.029 A 
ATOM     47  C   UNL A   1      43.220  24.159  26.314  1.00  0.00     0.049 A 
ATOM     48  H   UNL A   1      44.307  25.420  27.598  1.00  0.00     0.167 HD
ATOM     49  C   UNL A   1      45.420  27.591  31.466  1.00  0.00     0.037 A 
ATOM     50  C   UNL A   1      43.889  22.980  26.371  1.00  0.00     0.037 A 
ATOM     51  C   UNL A   1      46.495  27.782  30.531  1.00  0.00     0.049 A 
ATOM     52  C   UNL A   1      45.155  23.221  27.111  1.00  0.00     0.074 A 
ATOM     53  C   UNL A   1      46.980  28.858  29.819  1.00  0.00     0.029 A 
ATOM     54  N   UNL A   1      47.034  26.666  29.944  1.00  0.00    -0.354 N 
ATOM     55  N   UNL A   1      46.141  23.946  26.655  1.00  0.00    -0.248 NA
ATOM     56  C   UNL A   1      45.116  23.063  28.557  1.00  0.00     0.031 C 
ATOM     57  C   UNL A   1      47.414  28.315  28.574  1.00  0.00     0.029 A 
ATOM     58  C   UNL A   1      47.218  26.932  28.613  1.00  0.00     0.049 A 
ATOM     59  H   UNL A   1      47.252  25.821  30.399  1.00  0.00     0.167 HD
ATOM     60  C   UNL A   1      46.564  24.691  27.746  1.00  0.00     0.074 A 
ATOM     61  C   UNL A   1      45.946  24.051  28.905  1.00  0.00     0.031 C 
ATOM     62  C   UNL A   1      47.133  25.923  27.578  1.00  0.00     0.037 A 
BRANCH  49  63
ATOM     63  C   UNL A   1      45.562  26.739  32.704  1.00  0.00     0.064 A 
ATOM     64  C   UNL A   1      45.012  25.446  32.702  1.00  0.00     0.173 A 
ATOM     65  C   UNL A   1      45.924  27.248  33.974  1.00  0.00     0.173 A 
ATOM     66  F   UNL A   1      44.613  24.880  31.553  1.00  0.00    -0.203 F 
ATOM     67  C   UNL A   1      44.767  24.750  33.888  1.00  0.00     0.198 A 
ATOM     68  C   UNL A   1      45.732  26.527  35.150  1.00  0.00     0.198 A 
ATOM     69  F   UNL A   1      46.361  28.499  34.152  1.00  0.00    -0.203 F 
ATOM     70  F   UNL A   1      44.118  23.579  33.847  1.00  0.00    -0.200 F 
ATOM     71  C   UNL A   1      45.121  25.293  35.110  1.00  0.00     0.200 A 
ATOM     72  F   UNL A   1      46.063  27.082  36.323  1.00  0.00    -0.200 F 
ATOM     73  F   UNL A   1      44.826  24.658  36.251  1.00  0.00    -0.200 F 
ENDBRANCH  49  63
BRANCH  50  74
ATOM     74  C   UNL A   1      43.319  21.621  26.190  1.00  0.00     0.064 A 
ATOM     75  C   UNL A   1      43.899  20.700  25.304  1.00  0.00     0.173 A 
ATOM     76  C   UNL A   1      42.343  21.105  27.070  1.00  0.00     0.173 A 
ATOM     77  F   UNL A   1      44.877  21.091  24.473  1.00  0.00    -0.203 F 
ATOM     78  C   UNL A   1      43.531  19.349  25.301  1.00  0.00     0.198 A 
ATOM     79  C   UNL A   1      41.967  19.763  27.057  1.00  0.00     0.198 A 
ATOM     80  F   UNL A   1      41.799  21.871  28.026  1.00  0.00    -0.203 F 
ATOM     81  F   UNL A   1      44.148  18.488  24.479  1.00  0.00    -0.200 F 
ATOM     82  C   UNL A   1      42.569  18.881  26.181  1.00  0.00     0.200 A 
ATOM     83  F   UNL A   1      41.061  19.319  27.942  1.00  0.00    -0.200 F 
ATOM     84  F   UNL A   1      42.253  17.580  26.216  1.00  0.00    -0.200 F 
ENDBRANCH  50  74
BRANCH  62  85
ATOM     85  C   UNL A   1      47.490  26.355  26.174  1.00  0.00     0.064 A 
ATOM     86  C   UNL A   1      46.667  27.153  25.357  1.00  0.00     0.173 A 
ATOM     87  C   UNL A   1      48.783  26.091  25.702  1.00  0.00     0.173 A 
ATOM     88  F   UNL A   1      45.456  27.543  25.771  1.00  0.00    -0.203 F 
ATOM     89  C   UNL A   1      47.108  27.639  24.126  1.00  0.00     0.198 A 
ATOM     90  C   UNL A   1      49.238  26.614  24.493  1.00  0.00     0.198 A 
ATOM     91  F   UNL A   1      49.639  25.373  26.447  1.00  0.00    -0.203 F 
ATOM     92  F   UNL A   1      46.298  28.394  23.369  1.00  0.00    -0.200 F 
ATOM     93  C   UNL A   1      48.399  27.381  23.703  1.00  0.00     0.200 A 
ATOM     94  F   UNL A   1      50.507  26.404  24.114  1.00  0.00    -0.200 F 
ATOM     95  F   UNL A   1      48.847  27.896  22.549  1.00  0.00    -0.200 F 
ENDBRANCH  62  85
ENDBRANCH  36  37
ENDBRANCH  29  31
ENDBRANCH  28  29
ENDBRANCH  27  28
ENDBRANCH   1  27
TORSDOF 15
ENDMDL
MODEL 2
REMARK VINA RESULT:     -12.6      1.263      2.859
REMARK SMILES COc1ccc(-c2nc(C(C)C)cc3nn(CC(=O)OCCOC(=O)c4ccc(-c5c6nc(c(-c7c(F)c(F)c(F)c(F)c7F)c7ccc([nH]7)c(-c7c(F)c(F)c(F)c(F)c7F)c7nc(c(-c8c(F)c(F)c(F)c(F)c8F)c8ccc5[nH]8)C=C7)C=C6)cc4)c(=O)n23)cc1
REMARK SMILES IDX 21 1 20 2 18 3 19 4 17 5 16 6 7 7 8 8 91 9 9 10 14 11 89 12
REMARK SMILES IDX 13 13 15 14 90 15 6 16 3 17 4 18 93 19 5 20 92 21 2 22 1 23
REMARK SMILES IDX 10 24 11 25 12 26 22 27 23 28 24 29 25 30 26 31 27 32 88 33
REMARK SMILES IDX 28 34 87 35 29 36 30 37 31 38 81 39 32 40 86 41 80 42 82 43
REMARK SMILES IDX 33 44 85 45 79 46 78 47 34 49 66 50 46 51 65 52 47 53 50 54
REMARK SMILES IDX 64 55 83 56 48 57 49 58 63 60 84 61 51 62 35 63 36 64 44 65
REMARK SMILES IDX 37 66 38 67 42 68 45 69 39 70 40 71 43 72 41 73 67 74 68 75
REMARK SMILES IDX 76 76 69 77 70 78 74 79 77 80 71 81 72 82 75 83 73 84 52 85
REMARK SMILES IDX 53 86 61 87 54 88 55 89 59 90 62 91 56 92 57 93 60 94 58 95
REMARK H PARENT 82 48 50 59
REMARK Flexibility Score: inf
ROOT
ATOM      1  C   UNL A   1      35.546  32.474  28.029  1.00  0.00     0.274 C 
ENDROOT
BRANCH   1   2
ATOM      2  O   UNL A   1      35.158  31.388  27.161  1.00  0.00    -0.461 OA
BRANCH   2   3
ATOM      3  C   UNL A   1      33.905  30.886  27.346  1.00  0.00     0.328 C 
ATOM      4  O   UNL A   1      32.885  31.574  27.349  1.00  0.00    -0.250 OA
BRANCH   3   5
ATOM      5  C   UNL A   1      33.859  29.387  27.619  1.00  0.00     0.272 C 
BRANCH   5   6
ATOM      6  N   UNL A   1      33.578  28.513  26.502  1.00  0.00    -0.201 N 
ATOM      7  C   UNL A   1      31.818  27.087  23.720  1.00  0.00     0.150 A 
ATOM      8  N   UNL A   1      32.082  25.975  23.101  1.00  0.00    -0.234 NA
ATOM      9  N   UNL A   1      32.561  27.504  24.816  1.00  0.00    -0.226 N 
ATOM     10  C   UNL A   1      33.145  25.218  23.554  1.00  0.00     0.049 A 
ATOM     11  C   UNL A   1      33.689  26.872  25.195  1.00  0.00     0.165 A 
ATOM     12  C   UNL A   1      32.388  28.500  25.755  1.00  0.00     0.352 A 
ATOM     13  C   UNL A   1      33.993  25.617  24.519  1.00  0.00     0.073 A 
ATOM     14  N   UNL A   1      34.356  27.426  26.164  1.00  0.00    -0.149 NA
ATOM     15  O   UNL A   1      31.349  29.076  26.041  1.00  0.00    -0.245 OA
BRANCH   7  16
ATOM     16  C   UNL A   1      30.719  27.952  23.239  1.00  0.00     0.018 A 
ATOM     17  C   UNL A   1      28.631  29.556  22.321  1.00  0.00     0.118 A 
ATOM     18  C   UNL A   1      29.950  29.873  21.999  1.00  0.00     0.047 A 
ATOM     19  C   UNL A   1      28.349  28.388  23.029  1.00  0.00     0.047 A 
ATOM     20  C   UNL A   1      31.000  29.084  22.468  1.00  0.00     0.016 A 
ATOM     21  C   UNL A   1      29.395  27.578  23.482  1.00  0.00     0.016 A 
BRANCH  17  22
ATOM     22  O   UNL A   1      27.662  30.405  21.865  1.00  0.00    -0.497 OA
ATOM     23  C   UNL A   1      28.143  31.304  20.867  1.00  0.00     0.278 C 
ENDBRANCH  17  22
ENDBRANCH   7  16
BRANCH  10  24
ATOM     24  C   UNL A   1      33.289  23.866  22.876  1.00  0.00     0.032 C 
ATOM     25  C   UNL A   1      34.667  23.239  23.096  1.00  0.00     0.014 C 
ATOM     26  C   UNL A   1      32.169  22.924  23.331  1.00  0.00     0.014 C 
ENDBRANCH  10  24
ENDBRANCH   5   6
ENDBRANCH   3   5
ENDBRANCH   2   3
ENDBRANCH   1   2
BRANCH   1  27
ATOM     27  C   UNL A   1      36.639  32.046  29.000  1.00  0.00     0.275 C 
BRANCH  27  28
ATOM     28  O   UNL A   1      37.582  31.179  28.368  1.00  0.00    -0.458 OA
BRANCH  28  29
ATOM     29  C   UNL A   1      37.463  29.892  28.764  1.00  0.00     0.338 C 
ATOM     30  O   UNL A   1      36.830  29.464  29.710  1.00  0.00    -0.246 OA
BRANCH  29  31
ATOM     31  C   UNL A   1      38.426  29.064  28.044  1.00  0.00     0.060 A 
ATOM     32  C   UNL A   1      38.440  27.698  28.330  1.00  0.00     0.016 A 
ATOM     33  C   UNL A   1      39.529  29.722  27.502  1.00  0.00     0.016 A 
ATOM     34  C   UNL A   1      39.642  27.033  28.325  1.00  0.00     0.010 A 
ATOM     35  C   UNL A   1      40.725  29.055  27.477  1.00  0.00     0.010 A 
ATOM     36  C   UNL A   1      40.782  27.756  27.991  1.00  0.00    -0.014 A 
BRANCH  36  37
ATOM     37  C   UNL A   1      42.069  27.094  28.051  1.00  0.00     0.031 A 
ATOM     38  C   UNL A   1      42.802  27.413  29.302  1.00  0.00     0.074 A 
ATOM     39  C   UNL A   1      42.370  26.147  27.140  1.00  0.00     0.049 A 
ATOM     40  N   UNL A   1      44.014  27.837  29.449  1.00  0.00    -0.248 NA
ATOM     41  C   UNL A   1      42.017  27.406  30.557  1.00  0.00     0.031 C 
ATOM     42  C   UNL A   1      41.511  25.670  26.046  1.00  0.00     0.029 A 
ATOM     43  N   UNL A   1      43.430  25.294  27.080  1.00  0.00    -0.354 N 
ATOM     44  C   UNL A   1      44.201  27.923  30.827  1.00  0.00     0.074 A 
ATOM     45  C   UNL A   1      42.903  27.863  31.437  1.00  0.00     0.031 C 
ATOM     46  C   UNL A   1      41.975  24.490  25.587  1.00  0.00     0.029 A 
ATOM     47  C   UNL A   1      43.196  24.166  26.295  1.00  0.00     0.049 A 
ATOM     48  H   UNL A   1      44.281  25.459  27.548  1.00  0.00     0.167 HD
ATOM     49  C   UNL A   1      45.420  27.685  31.377  1.00  0.00     0.037 A 
ATOM     50  C   UNL A   1      43.889  23.000  26.349  1.00  0.00     0.037 A 
ATOM     51  C   UNL A   1      46.474  27.889  30.421  1.00  0.00     0.049 A 
ATOM     52  C   UNL A   1      45.164  23.273  27.064  1.00  0.00     0.074 A 
ATOM     53  C   UNL A   1      46.925  28.968  29.691  1.00  0.00     0.029 A 
ATOM     54  N   UNL A   1      47.024  26.779  29.834  1.00  0.00    -0.354 N 
ATOM     55  N   UNL A   1      46.126  24.012  26.584  1.00  0.00    -0.248 NA
ATOM     56  C   UNL A   1      45.153  23.127  28.512  1.00  0.00     0.031 C 
ATOM     57  C   UNL A   1      47.348  28.422  28.444  1.00  0.00     0.029 A 
ATOM     58  C   UNL A   1      47.179  27.037  28.497  1.00  0.00     0.049 A 
ATOM     59  H   UNL A   1      47.266  25.942  30.292  1.00  0.00     0.167 HD
ATOM     60  C   UNL A   1      46.554  24.776  27.661  1.00  0.00     0.074 A 
ATOM     61  C   UNL A   1      45.969  24.134  28.836  1.00  0.00     0.031 C 
ATOM     62  C   UNL A   1      47.096  26.016  27.472  1.00  0.00     0.037 A 
BRANCH  49  63
ATOM     63  C   UNL A   1      45.600  26.848  32.619  1.00  0.00     0.064 A 
ATOM     64  C   UNL A   1      45.057  25.552  32.645  1.00  0.00     0.173 A 
ATOM     65  C   UNL A   1      45.994  27.371  33.873  1.00  0.00     0.173 A 
ATOM     66  F   UNL A   1      44.629  24.971  31.514  1.00  0.00    -0.203 F 
ATOM     67  C   UNL A   1      44.849  24.867  33.845  1.00  0.00     0.198 A 
ATOM     68  C   UNL A   1      45.839  26.662  35.061  1.00  0.00     0.198 A 
ATOM     69  F   UNL A   1      46.430  28.627  34.025  1.00  0.00    -0.203 F 
ATOM     70  F   UNL A   1      44.205  23.693  33.835  1.00  0.00    -0.200 F 
ATOM     71  C   UNL A   1      45.234  25.425  35.051  1.00  0.00     0.200 A 
ATOM     72  F   UNL A   1      46.199  27.231  36.219  1.00  0.00    -0.200 F 
ATOM     73  F   UNL A   1      44.974  24.800  36.206  1.00  0.00    -0.200 F 
ENDBRANCH  49  63
BRANCH  50  74
ATOM     74  C   UNL A   1      43.343  21.629  26.190  1.00  0.00     0.064 A 
ATOM     75  C   UNL A   1      43.922  20.714  25.298  1.00  0.00     0.173 A 
ATOM     76  C   UNL A   1      42.396  21.101  27.094  1.00  0.00     0.173 A 
ATOM     77  F   UNL A   1      44.874  21.117  24.444  1.00  0.00    -0.203 F 
ATOM     78  C   UNL A   1      43.582  19.356  25.313  1.00  0.00     0.198 A 
ATOM     79  C   UNL A   1      42.047  19.751  27.099  1.00  0.00     0.198 A 
ATOM     80  F   UNL A   1      41.857  21.863  28.055  1.00  0.00    -0.203 F 
ATOM     81  F   UNL A   1      44.198  18.501  24.484  1.00  0.00    -0.200 F 
ATOM     82  C   UNL A   1      42.648  18.875  26.216  1.00  0.00     0.200 A 
ATOM     83  F   UNL A   1      41.169  19.296  28.005  1.00  0.00    -0.200 F 
ATOM     84  F   UNL A   1      42.359  17.567  26.267  1.00  0.00    -0.200 F 
ENDBRANCH  50  74
BRANCH  62  85
ATOM     85  C   UNL A   1      47.419  26.443  26.059  1.00  0.00     0.064 A 
ATOM     86  C   UNL A   1      46.579  27.242  25.260  1.00  0.00     0.173 A 
ATOM     87  C   UNL A   1      48.699  26.173  25.555  1.00  0.00     0.173 A 
ATOM     88  F   UNL A   1      45.380  27.638  25.703  1.00  0.00    -0.203 F 
ATOM     89  C   UNL A   1      46.991  27.723  24.017  1.00  0.00     0.198 A 
ATOM     90  C   UNL A   1      49.126  26.691  24.334  1.00  0.00     0.198 A 
ATOM     91  F   UNL A   1      49.570  25.454  26.281  1.00  0.00    -0.203 F 
ATOM     92  F   UNL A   1      46.165  28.478  23.279  1.00  0.00    -0.200 F 
ATOM     93  C   UNL A   1      48.270  27.458  23.563  1.00  0.00     0.200 A 
ATOM     94  F   UNL A   1      50.384  26.475  23.925  1.00  0.00    -0.200 F 
ATOM     95  F   UNL A   1      48.691  27.969  22.396  1.00  0.00    -0.200 F 
ENDBRANCH  62  85
ENDBRANCH  36  37
ENDBRANCH  29  31
ENDBRANCH  28  29
ENDBRANCH  27  28
ENDBRANCH   1  27
TORSDOF 15
ENDMDL
MODEL 3
REMARK VINA RESULT:     -12.6      4.937      7.316
REMARK SMILES COc1ccc(-c2nc(C(C)C)cc3nn(CC(=O)OCCOC(=O)c4ccc(-c5c6nc(c(-c7c(F)c(F)c(F)c(F)c7F)c7ccc([nH]7)c(-c7c(F)c(F)c(F)c(F)c7F)c7nc(c(-c8c(F)c(F)c(F)c(F)c8F)c8ccc5[nH]8)C=C7)C=C6)cc4)c(=O)n23)cc1
REMARK SMILES IDX 21 1 20 2 18 3 19 4 17 5 16 6 7 7 8 8 91 9 9 10 14 11 89 12
REMARK SMILES IDX 13 13 15 14 90 15 6 16 3 17 4 18 93 19 5 20 92 21 2 22 1 23
REMARK SMILES IDX 10 24 11 25 12 26 22 27 23 28 24 29 25 30 26 31 27 32 88 33
REMARK SMILES IDX 28 34 87 35 29 36 30 37 31 38 81 39 32 40 86 41 80 42 82 43
REMARK SMILES IDX 33 44 85 45 79 46 78 47 34 49 66 50 46 51 65 52 47 53 50 54
REMARK SMILES IDX 64 55 83 56 48 57 49 58 63 60 84 61 51 62 35 63 36 64 44 65
REMARK SMILES IDX 37 66 38 67 42 68 45 69 39 70 40 71 43 72 41 73 67 74 68 75
REMARK SMILES IDX 76 76 69 77 70 78 74 79 77 80 71 81 72 82 75 83 73 84 52 85
REMARK SMILES IDX 53 86 61 87 54 88 55 89 59 90 62 91 56 92 57 93 60 94 58 95
REMARK H PARENT 82 48 50 59
REMARK Flexibility Score: inf
ROOT
ATOM      1  C   UNL A   1      33.888  35.015  28.997  1.00  0.00     0.274 C 
ENDROOT
BRANCH   1   2
ATOM      2  O   UNL A   1      33.620  33.603  28.866  1.00  0.00    -0.461 OA
BRANCH   2   3
ATOM      3  C   UNL A   1      34.536  32.878  28.167  1.00  0.00     0.328 C 
ATOM      4  O   UNL A   1      35.419  33.378  27.471  1.00  0.00    -0.250 OA
BRANCH   3   5
ATOM      5  C   UNL A   1      34.349  31.367  28.258  1.00  0.00     0.272 C 
BRANCH   5   6
ATOM      6  N   UNL A   1      33.424  30.752  27.333  1.00  0.00    -0.201 N 
ATOM      7  C   UNL A   1      32.015  28.286  25.141  1.00  0.00     0.150 A 
ATOM      8  N   UNL A   1      31.035  28.440  24.301  1.00  0.00    -0.234 NA
ATOM      9  N   UNL A   1      32.491  29.343  25.906  1.00  0.00    -0.226 N 
ATOM     10  C   UNL A   1      30.459  29.692  24.199  1.00  0.00     0.049 A 
ATOM     11  C   UNL A   1      31.865  30.536  25.943  1.00  0.00     0.165 A 
ATOM     12  C   UNL A   1      33.606  29.512  26.700  1.00  0.00     0.352 A 
ATOM     13  C   UNL A   1      30.772  30.729  24.997  1.00  0.00     0.073 A 
ATOM     14  N   UNL A   1      32.342  31.405  26.782  1.00  0.00    -0.149 NA
ATOM     15  O   UNL A   1      34.637  28.856  26.677  1.00  0.00    -0.245 OA
BRANCH   7  16
ATOM     16  C   UNL A   1      32.628  26.953  25.317  1.00  0.00     0.018 A 
ATOM     17  C   UNL A   1      33.785  24.433  25.617  1.00  0.00     0.118 A 
ATOM     18  C   UNL A   1      32.660  24.779  26.365  1.00  0.00     0.047 A 
ATOM     19  C   UNL A   1      34.279  25.313  24.654  1.00  0.00     0.047 A 
ATOM     20  C   UNL A   1      32.086  26.044  26.232  1.00  0.00     0.016 A 
ATOM     21  C   UNL A   1      33.694  26.573  24.497  1.00  0.00     0.016 A 
BRANCH  17  22
ATOM     22  O   UNL A   1      34.318  23.194  25.840  1.00  0.00    -0.497 OA
ATOM     23  C   UNL A   1      34.333  22.842  27.222  1.00  0.00     0.278 C 
ENDBRANCH  17  22
ENDBRANCH   7  16
BRANCH  10  24
ATOM     24  C   UNL A   1      29.430  29.823  23.089  1.00  0.00     0.032 C 
ATOM     25  C   UNL A   1      28.812  28.480  22.695  1.00  0.00     0.014 C 
ATOM     26  C   UNL A   1      28.352  30.838  23.483  1.00  0.00     0.014 C 
ENDBRANCH  10  24
ENDBRANCH   5   6
ENDBRANCH   3   5
ENDBRANCH   2   3
ENDBRANCH   1   2
BRANCH   1  27
ATOM     27  C   UNL A   1      32.846  35.700  29.873  1.00  0.00     0.275 C 
BRANCH  27  28
ATOM     28  O   UNL A   1      33.384  36.028  31.155  1.00  0.00    -0.458 OA
BRANCH  28  29
ATOM     29  C   UNL A   1      33.020  35.154  32.120  1.00  0.00     0.338 C 
ATOM     30  O   UNL A   1      31.919  35.022  32.621  1.00  0.00    -0.246 OA
BRANCH  29  31
ATOM     31  C   UNL A   1      34.207  34.530  32.695  1.00  0.00     0.060 A 
ATOM     32  C   UNL A   1      35.228  35.373  33.134  1.00  0.00     0.016 A 
ATOM     33  C   UNL A   1      34.438  33.199  32.349  1.00  0.00     0.016 A 
ATOM     34  C   UNL A   1      36.532  34.971  32.980  1.00  0.00     0.010 A 
ATOM     35  C   UNL A   1      35.737  32.788  32.214  1.00  0.00     0.010 A 
ATOM     36  C   UNL A   1      36.763  33.715  32.427  1.00  0.00    -0.014 A 
BRANCH  36  37
ATOM     37  C   UNL A   1      38.129  33.300  32.186  1.00  0.00     0.031 A 
ATOM     38  C   UNL A   1      38.966  33.402  33.408  1.00  0.00     0.074 A 
ATOM     39  C   UNL A   1      38.442  32.695  31.022  1.00  0.00     0.049 A 
ATOM     40  N   UNL A   1      40.112  33.980  33.563  1.00  0.00    -0.248 NA
ATOM     41  C   UNL A   1      38.363  32.925  34.673  1.00  0.00     0.031 C 
ATOM     42  C   UNL A   1      37.525  32.379  29.918  1.00  0.00     0.029 A 
ATOM     43  N   UNL A   1      39.598  32.090  30.633  1.00  0.00    -0.354 N 
ATOM     44  C   UNL A   1      40.464  33.731  34.888  1.00  0.00     0.074 A 
ATOM     45  C   UNL A   1      39.282  33.284  35.566  1.00  0.00     0.031 C 
ATOM     46  C   UNL A   1      38.092  31.463  29.106  1.00  0.00     0.029 A 
ATOM     47  C   UNL A   1      39.430  31.185  29.585  1.00  0.00     0.049 A 
ATOM     48  H   UNL A   1      40.470  32.273  31.053  1.00  0.00     0.167 HD
ATOM     49  C   UNL A   1      41.767  33.576  35.240  1.00  0.00     0.037 A 
ATOM     50  C   UNL A   1      40.287  30.188  29.248  1.00  0.00     0.037 A 
ATOM     51  C   UNL A   1      42.644  34.208  34.293  1.00  0.00     0.049 A 
ATOM     52  C   UNL A   1      41.591  30.483  29.898  1.00  0.00     0.074 A 
ATOM     53  C   UNL A   1      42.832  35.503  33.860  1.00  0.00     0.029 A 
ATOM     54  N   UNL A   1      43.268  33.407  33.371  1.00  0.00    -0.354 N 
ATOM     55  N   UNL A   1      42.363  31.481  29.565  1.00  0.00    -0.248 NA
ATOM     56  C   UNL A   1      41.793  29.962  31.241  1.00  0.00     0.031 C 
ATOM     57  C   UNL A   1      43.162  35.389  32.478  1.00  0.00     0.029 A 
ATOM     58  C   UNL A   1      43.206  34.032  32.153  1.00  0.00     0.049 A 
ATOM     59  H   UNL A   1      43.689  32.536  33.552  1.00  0.00     0.167 HD
ATOM     60  C   UNL A   1      42.813  31.997  30.772  1.00  0.00     0.074 A 
ATOM     61  C   UNL A   1      42.489  30.975  31.764  1.00  0.00     0.031 C 
ATOM     62  C   UNL A   1      43.139  33.319  30.894  1.00  0.00     0.037 A 
BRANCH  49  63
ATOM     63  C   UNL A   1      42.230  32.486  36.176  1.00  0.00     0.064 A 
ATOM     64  C   UNL A   1      43.107  32.821  37.222  1.00  0.00     0.173 A 
ATOM     65  C   UNL A   1      42.108  31.104  35.899  1.00  0.00     0.173 A 
ATOM     66  F   UNL A   1      43.314  34.105  37.551  1.00  0.00    -0.203 F 
ATOM     67  C   UNL A   1      43.864  31.851  37.883  1.00  0.00     0.198 A 
ATOM     68  C   UNL A   1      42.822  30.136  36.600  1.00  0.00     0.198 A 
ATOM     69  F   UNL A   1      41.395  30.636  34.868  1.00  0.00    -0.203 F 
ATOM     70  F   UNL A   1      44.786  32.228  38.780  1.00  0.00    -0.200 F 
ATOM     71  C   UNL A   1      43.726  30.512  37.568  1.00  0.00     0.200 A 
ATOM     72  F   UNL A   1      42.687  28.846  36.261  1.00  0.00    -0.200 F 
ATOM     73  F   UNL A   1      44.499  29.589  38.152  1.00  0.00    -0.200 F 
ENDBRANCH  49  63
BRANCH  50  74
ATOM     74  C   UNL A   1      39.931  28.832  28.758  1.00  0.00     0.064 A 
ATOM     75  C   UNL A   1      40.433  28.344  27.542  1.00  0.00     0.173 A 
ATOM     76  C   UNL A   1      39.292  27.889  29.590  1.00  0.00     0.173 A 
ATOM     77  F   UNL A   1      41.106  29.158  26.716  1.00  0.00    -0.203 F 
ATOM     78  C   UNL A   1      40.311  26.996  27.185  1.00  0.00     0.198 A 
ATOM     79  C   UNL A   1      39.159  26.549  29.228  1.00  0.00     0.198 A 
ATOM     80  F   UNL A   1      38.867  28.223  30.816  1.00  0.00    -0.203 F 
ATOM     81  F   UNL A   1      40.855  26.553  26.042  1.00  0.00    -0.200 F 
ATOM     82  C   UNL A   1      39.678  26.099  28.030  1.00  0.00     0.200 A 
ATOM     83  F   UNL A   1      38.577  25.687  30.075  1.00  0.00    -0.200 F 
ATOM     84  F   UNL A   1      39.607  24.799  27.714  1.00  0.00    -0.200 F 
ENDBRANCH  50  74
BRANCH  62  85
ATOM     85  C   UNL A   1      43.206  34.154  29.635  1.00  0.00     0.064 A 
ATOM     86  C   UNL A   1      44.323  34.209  28.779  1.00  0.00     0.173 A 
ATOM     87  C   UNL A   1      42.037  34.788  29.190  1.00  0.00     0.173 A 
ATOM     88  F   UNL A   1      45.447  33.546  29.071  1.00  0.00    -0.203 F 
ATOM     89  C   UNL A   1      44.276  34.883  27.558  1.00  0.00     0.198 A 
ATOM     90  C   UNL A   1      41.979  35.422  27.951  1.00  0.00     0.198 A 
ATOM     91  F   UNL A   1      40.920  34.739  29.934  1.00  0.00    -0.203 F 
ATOM     92  F   UNL A   1      45.359  34.921  26.768  1.00  0.00    -0.200 F 
ATOM     93  C   UNL A   1      43.100  35.476  27.140  1.00  0.00     0.200 A 
ATOM     94  F   UNL A   1      40.821  35.948  27.528  1.00  0.00    -0.200 F 
ATOM     95  F   UNL A   1      43.034  36.072  25.941  1.00  0.00    -0.200 F 
ENDBRANCH  62  85
ENDBRANCH  36  37
ENDBRANCH  29  31
ENDBRANCH  28  29
ENDBRANCH  27  28
ENDBRANCH   1  27
TORSDOF 15
ENDMDL
