MODEL 1
REMARK VINA RESULT:     -11.5      0.000      0.000
REMARK SMILES COc1ccc([C@@H]([NH3+])[C@](C)(C(N)=O)C(=O)OCCOC(=O)c2ccc(-c3c4nc(c(-c5c(F)c(F)c(F)c(F)c5F)c5ccc([nH]5)c(-c5c(F)c(F)c(F)c(F)c5F)c5nc(c(-c6c(F)c(F)c(F)c(F)c6F)c6ccc3[nH]6)C=C5)C=C4)cc2)cc1OC
REMARK SMILES IDX 17 1 16 2 14 3 15 4 9 5 10 6 7 7 6 8 3 9 4 10 86 11 5 12
REMARK SMILES IDX 85 13 2 14 1 15 87 16 88 17 8 18 11 22 12 23 13 24 18 27
REMARK SMILES IDX 19 28 20 29 21 30 22 31 23 32 84 33 24 34 83 35 25 36 26 37
REMARK SMILES IDX 27 38 77 39 28 40 82 41 76 42 78 43 29 44 81 45 75 46 74 47
REMARK SMILES IDX 30 49 62 50 42 51 61 52 43 53 46 54 60 55 79 56 44 57 45 58
REMARK SMILES IDX 59 60 80 61 47 62 31 63 32 64 40 65 33 66 34 67 38 68 41 69
REMARK SMILES IDX 35 70 36 71 39 72 37 73 63 74 64 75 72 76 65 77 66 78 70 79
REMARK SMILES IDX 73 80 67 81 68 82 71 83 69 84 48 85 49 86 57 87 50 88 51 89
REMARK SMILES IDX 55 90 58 91 52 92 53 93 56 94 54 95
REMARK H PARENT 8 19 8 20 8 21 12 25 12 26 78 48 46 59
REMARK Flexibility Score: inf
ROOT
ATOM      1  C   UNL A   1      31.148  29.484  24.376  1.00  0.00     0.274 C 
ENDROOT
BRANCH   1   2
ATOM      2  O   UNL A   1      31.050  28.044  24.273  1.00  0.00    -0.461 OA
BRANCH   2   3
ATOM      3  C   UNL A   1      30.982  27.524  23.017  1.00  0.00     0.328 C 
ATOM      4  O   UNL A   1      30.236  27.980  22.152  1.00  0.00    -0.251 OA
BRANCH   3   5
ATOM      5  C   UNL A   1      31.847  26.287  22.781  1.00  0.00     0.198 C 
ATOM      6  C   UNL A   1      30.851  25.092  22.803  1.00  0.00     0.041 C 
BRANCH   5   7
ATOM      7  C   UNL A   1      32.834  26.243  24.002  1.00  0.00     0.239 C 
BRANCH   7   8
ATOM      8  C   UNL A   1      33.476  24.880  24.237  1.00  0.00     0.015 A 
ATOM      9  C   UNL A   1      34.346  22.223  24.545  1.00  0.00     0.160 A 
ATOM     10  C   UNL A   1      34.861  23.028  23.520  1.00  0.00     0.051 A 
ATOM     11  C   UNL A   1      33.457  22.760  25.481  1.00  0.00     0.161 A 
ATOM     12  C   UNL A   1      34.430  24.346  23.366  1.00  0.00     0.014 A 
ATOM     13  C   UNL A   1      33.028  24.082  25.308  1.00  0.00     0.060 A 
BRANCH   9  14
ATOM     14  O   UNL A   1      34.754  20.916  24.602  1.00  0.00    -0.493 OA
ATOM     15  C   UNL A   1      35.963  20.807  25.359  1.00  0.00     0.278 C 
ENDBRANCH   9  14
BRANCH  11  16
ATOM     16  O   UNL A   1      32.877  22.152  26.561  1.00  0.00    -0.493 OA
ATOM     17  C   UNL A   1      33.453  22.358  27.843  1.00  0.00     0.278 C 
ENDBRANCH  11  16
ENDBRANCH   7   8
BRANCH   7  18
ATOM     18  N   UNL A   1      33.856  27.304  24.003  1.00  0.00    -0.350 N 
ATOM     19  H   UNL A   1      33.443  28.175  23.670  1.00  0.00     0.345 HD
ATOM     20  H   UNL A   1      34.626  27.035  23.390  1.00  0.00     0.345 HD
ATOM     21  H   UNL A   1      34.207  27.436  24.952  1.00  0.00     0.345 HD
ENDBRANCH   7  18
ENDBRANCH   5   7
BRANCH   5  22
ATOM     22  C   UNL A   1      32.567  26.162  21.431  1.00  0.00     0.241 C 
ATOM     23  N   UNL A   1      31.930  25.609  20.367  1.00  0.00    -0.368 N 
ATOM     24  O   UNL A   1      33.718  26.563  21.248  1.00  0.00    -0.274 OA
ATOM     25  H   UNL A   1      31.009  25.274  20.464  1.00  0.00     0.159 HD
ATOM     26  H   UNL A   1      32.387  25.542  19.499  1.00  0.00     0.159 HD
ENDBRANCH   5  22
ENDBRANCH   3   5
ENDBRANCH   2   3
ENDBRANCH   1   2
BRANCH   1  27
ATOM     27  C   UNL A   1      31.429  29.896  25.819  1.00  0.00     0.275 C 
BRANCH  27  28
ATOM     28  O   UNL A   1      32.814  30.259  25.945  1.00  0.00    -0.458 OA
BRANCH  28  29
ATOM     29  C   UNL A   1      33.102  31.206  26.861  1.00  0.00     0.338 C 
ATOM     30  O   UNL A   1      32.393  32.148  27.202  1.00  0.00    -0.246 OA
BRANCH  29  31
ATOM     31  C   UNL A   1      34.431  30.954  27.443  1.00  0.00     0.060 A 
ATOM     32  C   UNL A   1      34.843  29.648  27.708  1.00  0.00     0.016 A 
ATOM     33  C   UNL A   1      35.230  32.026  27.837  1.00  0.00     0.016 A 
ATOM     34  C   UNL A   1      35.986  29.415  28.469  1.00  0.00     0.010 A 
ATOM     35  C   UNL A   1      36.443  31.783  28.491  1.00  0.00     0.010 A 
ATOM     36  C   UNL A   1      36.818  30.476  28.852  1.00  0.00    -0.014 A 
BRANCH  36  37
ATOM     37  C   UNL A   1      38.055  30.229  29.648  1.00  0.00     0.031 A 
ATOM     38  C   UNL A   1      39.177  29.406  29.069  1.00  0.00     0.074 A 
ATOM     39  C   UNL A   1      38.190  30.738  30.890  1.00  0.00     0.049 A 
ATOM     40  N   UNL A   1      40.214  28.878  29.671  1.00  0.00    -0.248 NA
ATOM     41  C   UNL A   1      39.115  29.123  27.627  1.00  0.00     0.031 C 
ATOM     42  C   UNL A   1      37.218  31.595  31.569  1.00  0.00     0.029 A 
ATOM     43  N   UNL A   1      39.210  30.614  31.802  1.00  0.00    -0.354 N 
ATOM     44  C   UNL A   1      40.882  28.143  28.700  1.00  0.00     0.074 A 
ATOM     45  C   UNL A   1      40.144  28.302  27.466  1.00  0.00     0.031 C 
ATOM     46  C   UNL A   1      37.708  31.961  32.762  1.00  0.00     0.029 A 
ATOM     47  C   UNL A   1      38.982  31.284  32.979  1.00  0.00     0.049 A 
ATOM     48  H   UNL A   1      40.028  30.093  31.628  1.00  0.00     0.167 HD
ATOM     49  C   UNL A   1      42.004  27.395  28.832  1.00  0.00     0.037 A 
ATOM     50  C   UNL A   1      39.688  31.317  34.124  1.00  0.00     0.037 A 
ATOM     51  C   UNL A   1      42.782  27.299  30.040  1.00  0.00     0.049 A 
ATOM     52  C   UNL A   1      40.934  30.488  34.244  1.00  0.00     0.074 A 
ATOM     53  C   UNL A   1      43.933  26.564  30.274  1.00  0.00     0.029 A 
ATOM     54  N   UNL A   1      42.505  27.987  31.211  1.00  0.00    -0.354 N 
ATOM     55  N   UNL A   1      41.497  29.710  33.354  1.00  0.00    -0.248 NA
ATOM     56  C   UNL A   1      41.626  30.519  35.541  1.00  0.00     0.031 C 
ATOM     57  C   UNL A   1      44.342  26.796  31.591  1.00  0.00     0.029 A 
ATOM     58  C   UNL A   1      43.464  27.699  32.168  1.00  0.00     0.049 A 
ATOM     59  H   UNL A   1      41.740  28.592  31.343  1.00  0.00     0.167 HD
ATOM     60  C   UNL A   1      42.604  29.156  33.979  1.00  0.00     0.074 A 
ATOM     61  C   UNL A   1      42.651  29.708  35.317  1.00  0.00     0.031 C 
ATOM     62  C   UNL A   1      43.495  28.258  33.493  1.00  0.00     0.037 A 
BRANCH  49  63
ATOM     63  C   UNL A   1      42.446  26.589  27.646  1.00  0.00     0.064 A 
ATOM     64  C   UNL A   1      43.406  27.063  26.742  1.00  0.00     0.173 A 
ATOM     65  C   UNL A   1      41.927  25.302  27.441  1.00  0.00     0.173 A 
ATOM     66  F   UNL A   1      43.921  28.292  26.888  1.00  0.00    -0.203 F 
ATOM     67  C   UNL A   1      43.817  26.284  25.662  1.00  0.00     0.198 A 
ATOM     68  C   UNL A   1      42.356  24.516  26.375  1.00  0.00     0.198 A 
ATOM     69  F   UNL A   1      41.010  24.800  28.281  1.00  0.00    -0.203 F 
ATOM     70  F   UNL A   1      44.709  26.769  24.789  1.00  0.00    -0.200 F 
ATOM     71  C   UNL A   1      43.296  25.010  25.483  1.00  0.00     0.200 A 
ATOM     72  F   UNL A   1      41.860  23.282  26.210  1.00  0.00    -0.200 F 
ATOM     73  F   UNL A   1      43.699  24.259  24.449  1.00  0.00    -0.200 F 
ENDBRANCH  49  63
BRANCH  50  74
ATOM     74  C   UNL A   1      39.201  32.131  35.266  1.00  0.00     0.064 A 
ATOM     75  C   UNL A   1      38.454  31.545  36.298  1.00  0.00     0.173 A 
ATOM     76  C   UNL A   1      39.485  33.501  35.360  1.00  0.00     0.173 A 
ATOM     77  F   UNL A   1      38.134  30.245  36.238  1.00  0.00    -0.203 F 
ATOM     78  C   UNL A   1      38.008  32.303  37.379  1.00  0.00     0.198 A 
ATOM     79  C   UNL A   1      39.062  34.250  36.454  1.00  0.00     0.198 A 
ATOM     80  F   UNL A   1      40.194  34.106  34.396  1.00  0.00    -0.203 F 
ATOM     81  F   UNL A   1      37.267  31.728  38.336  1.00  0.00    -0.200 F 
ATOM     82  C   UNL A   1      38.320  33.652  37.460  1.00  0.00     0.200 A 
ATOM     83  F   UNL A   1      39.377  35.550  36.536  1.00  0.00    -0.200 F 
ATOM     84  F   UNL A   1      37.901  34.377  38.506  1.00  0.00    -0.200 F 
ENDBRANCH  50  74
BRANCH  62  85
ATOM     85  C   UNL A   1      44.599  27.833  34.410  1.00  0.00     0.064 A 
ATOM     86  C   UNL A   1      45.803  28.548  34.480  1.00  0.00     0.173 A 
ATOM     87  C   UNL A   1      44.442  26.716  35.243  1.00  0.00     0.173 A 
ATOM     88  F   UNL A   1      46.002  29.613  33.689  1.00  0.00    -0.203 F 
ATOM     89  C   UNL A   1      46.821  28.147  35.340  1.00  0.00     0.198 A 
ATOM     90  C   UNL A   1      45.455  26.329  36.115  1.00  0.00     0.198 A 
ATOM     91  F   UNL A   1      43.306  26.003  35.211  1.00  0.00    -0.203 F 
ATOM     92  F   UNL A   1      47.980  28.820  35.365  1.00  0.00    -0.200 F 
ATOM     93  C   UNL A   1      46.646  27.040  36.159  1.00  0.00     0.200 A 
ATOM     94  F   UNL A   1      45.283  25.263  36.909  1.00  0.00    -0.200 F 
ATOM     95  F   UNL A   1      47.627  26.655  36.985  1.00  0.00    -0.200 F 
ENDBRANCH  62  85
ENDBRANCH  36  37
ENDBRANCH  29  31
ENDBRANCH  28  29
ENDBRANCH  27  28
ENDBRANCH   1  27
TORSDOF 17
ENDMDL
MODEL 2
REMARK VINA RESULT:     -11.5      4.129      9.746
REMARK SMILES COc1ccc([C@@H]([NH3+])[C@](C)(C(N)=O)C(=O)OCCOC(=O)c2ccc(-c3c4nc(c(-c5c(F)c(F)c(F)c(F)c5F)c5ccc([nH]5)c(-c5c(F)c(F)c(F)c(F)c5F)c5nc(c(-c6c(F)c(F)c(F)c(F)c6F)c6ccc3[nH]6)C=C5)C=C4)cc2)cc1OC
REMARK SMILES IDX 17 1 16 2 14 3 15 4 9 5 10 6 7 7 6 8 3 9 4 10 86 11 5 12
REMARK SMILES IDX 85 13 2 14 1 15 87 16 88 17 8 18 11 22 12 23 13 24 18 27
REMARK SMILES IDX 19 28 20 29 21 30 22 31 23 32 84 33 24 34 83 35 25 36 26 37
REMARK SMILES IDX 27 38 77 39 28 40 82 41 76 42 78 43 29 44 81 45 75 46 74 47
REMARK SMILES IDX 30 49 62 50 42 51 61 52 43 53 46 54 60 55 79 56 44 57 45 58
REMARK SMILES IDX 59 60 80 61 47 62 31 63 32 64 40 65 33 66 34 67 38 68 41 69
REMARK SMILES IDX 35 70 36 71 39 72 37 73 63 74 64 75 72 76 65 77 66 78 70 79
REMARK SMILES IDX 73 80 67 81 68 82 71 83 69 84 48 85 49 86 57 87 50 88 51 89
REMARK SMILES IDX 55 90 58 91 52 92 53 93 56 94 54 95
REMARK H PARENT 8 19 8 20 8 21 12 25 12 26 78 48 46 59
REMARK Flexibility Score: inf
ROOT
ATOM      1  C   UNL A   1      35.758  20.166  25.008  1.00  0.00     0.274 C 
ENDROOT
BRANCH   1   2
ATOM      2  O   UNL A   1      34.698  20.997  24.477  1.00  0.00    -0.461 OA
BRANCH   2   3
ATOM      3  C   UNL A   1      33.556  21.074  25.213  1.00  0.00     0.328 C 
ATOM      4  O   UNL A   1      32.881  20.084  25.492  1.00  0.00    -0.251 OA
BRANCH   3   5
ATOM      5  C   UNL A   1      33.132  22.488  25.605  1.00  0.00     0.198 C 
ATOM      6  C   UNL A   1      31.973  22.844  24.630  1.00  0.00     0.041 C 
BRANCH   5   7
ATOM      7  C   UNL A   1      34.400  23.378  25.348  1.00  0.00     0.239 C 
BRANCH   7   8
ATOM      8  C   UNL A   1      34.089  24.764  24.795  1.00  0.00     0.015 A 
ATOM      9  C   UNL A   1      33.190  27.182  23.673  1.00  0.00     0.160 A 
ATOM     10  C   UNL A   1      33.281  27.030  25.064  1.00  0.00     0.051 A 
ATOM     11  C   UNL A   1      33.628  26.161  22.825  1.00  0.00     0.161 A 
ATOM     12  C   UNL A   1      33.727  25.831  25.621  1.00  0.00     0.014 A 
ATOM     13  C   UNL A   1      34.066  24.960  23.400  1.00  0.00     0.060 A 
BRANCH   9  14
ATOM     14  O   UNL A   1      32.678  28.356  23.187  1.00  0.00    -0.493 OA
ATOM     15  C   UNL A   1      31.252  28.277  23.104  1.00  0.00     0.278 C 
ENDBRANCH   9  14
BRANCH  11  16
ATOM     16  O   UNL A   1      33.652  26.132  21.457  1.00  0.00    -0.493 OA
ATOM     17  C   UNL A   1      32.537  25.580  20.773  1.00  0.00     0.278 C 
ENDBRANCH  11  16
ENDBRANCH   7   8
BRANCH   7  18
ATOM     18  N   UNL A   1      35.325  23.472  26.491  1.00  0.00    -0.350 N 
ATOM     19  H   UNL A   1      35.562  22.534  26.816  1.00  0.00     0.345 HD
ATOM     20  H   UNL A   1      34.880  23.992  27.247  1.00  0.00     0.345 HD
ATOM     21  H   UNL A   1      36.175  23.955  26.201  1.00  0.00     0.345 HD
ENDBRANCH   7  18
ENDBRANCH   5   7
BRANCH   5  22
ATOM     22  C   UNL A   1      32.535  22.696  27.004  1.00  0.00     0.241 C 
ATOM     23  N   UNL A   1      32.854  21.848  28.015  1.00  0.00    -0.368 N 
ATOM     24  O   UNL A   1      31.774  23.628  27.274  1.00  0.00    -0.274 OA
ATOM     25  H   UNL A   1      33.459  21.088  27.849  1.00  0.00     0.159 HD
ATOM     26  H   UNL A   1      32.482  21.992  28.915  1.00  0.00     0.159 HD
ENDBRANCH   5  22
ENDBRANCH   3   5
ENDBRANCH   2   3
ENDBRANCH   1   2
BRANCH   1  27
ATOM     27  C   UNL A   1      37.122  20.738  24.627  1.00  0.00     0.275 C 
BRANCH  27  28
ATOM     28  O   UNL A   1      37.616  21.541  25.712  1.00  0.00    -0.458 OA
BRANCH  28  29
ATOM     29  C   UNL A   1      38.884  21.299  26.106  1.00  0.00     0.338 C 
ATOM     30  O   UNL A   1      39.487  20.232  26.047  1.00  0.00    -0.246 OA
BRANCH  29  31
ATOM     31  C   UNL A   1      39.491  22.534  26.628  1.00  0.00     0.060 A 
ATOM     32  C   UNL A   1      39.030  23.777  26.197  1.00  0.00     0.016 A 
ATOM     33  C   UNL A   1      40.606  22.459  27.461  1.00  0.00     0.016 A 
ATOM     34  C   UNL A   1      39.747  24.933  26.498  1.00  0.00     0.010 A 
ATOM     35  C   UNL A   1      41.250  23.634  27.865  1.00  0.00     0.010 A 
ATOM     36  C   UNL A   1      40.853  24.884  27.357  1.00  0.00    -0.014 A 
BRANCH  36  37
ATOM     37  C   UNL A   1      41.611  26.123  27.699  1.00  0.00     0.031 A 
ATOM     38  C   UNL A   1      40.980  27.183  28.564  1.00  0.00     0.074 A 
ATOM     39  C   UNL A   1      42.868  26.312  27.245  1.00  0.00     0.049 A 
ATOM     40  N   UNL A   1      41.363  28.417  28.777  1.00  0.00    -0.248 NA
ATOM     41  C   UNL A   1      39.743  26.811  29.269  1.00  0.00     0.031 C 
ATOM     42  C   UNL A   1      43.634  25.359  26.441  1.00  0.00     0.029 A 
ATOM     43  N   UNL A   1      43.727  27.372  27.405  1.00  0.00    -0.354 N 
ATOM     44  C   UNL A   1      40.380  28.988  29.575  1.00  0.00     0.074 A 
ATOM     45  C   UNL A   1      39.388  27.964  29.822  1.00  0.00     0.031 C 
ATOM     46  C   UNL A   1      44.862  25.852  26.223  1.00  0.00     0.029 A 
ATOM     47  C   UNL A   1      44.938  27.197  26.782  1.00  0.00     0.049 A 
ATOM     48  H   UNL A   1      43.496  28.181  27.917  1.00  0.00     0.167 HD
ATOM     49  C   UNL A   1      40.309  30.256  30.048  1.00  0.00     0.037 A 
ATOM     50  C   UNL A   1      45.979  28.037  26.632  1.00  0.00     0.037 A 
ATOM     51  C   UNL A   1      41.332  31.252  29.868  1.00  0.00     0.049 A 
ATOM     52  C   UNL A   1      45.883  29.434  27.173  1.00  0.00     0.074 A 
ATOM     53  C   UNL A   1      41.351  32.565  30.306  1.00  0.00     0.029 A 
ATOM     54  N   UNL A   1      42.538  31.032  29.219  1.00  0.00    -0.354 N 
ATOM     55  N   UNL A   1      44.901  29.998  27.833  1.00  0.00    -0.248 NA
ATOM     56  C   UNL A   1      47.027  30.321  26.923  1.00  0.00     0.031 C 
ATOM     57  C   UNL A   1      42.561  33.145  29.909  1.00  0.00     0.029 A 
ATOM     58  C   UNL A   1      43.309  32.183  29.250  1.00  0.00     0.049 A 
ATOM     59  H   UNL A   1      42.807  30.184  28.799  1.00  0.00     0.167 HD
ATOM     60  C   UNL A   1      45.304  31.303  28.072  1.00  0.00     0.074 A 
ATOM     61  C   UNL A   1      46.633  31.441  27.513  1.00  0.00     0.031 C 
ATOM     62  C   UNL A   1      44.627  32.302  28.689  1.00  0.00     0.037 A 
BRANCH  49  63
ATOM     63  C   UNL A   1      39.063  30.654  30.784  1.00  0.00     0.064 A 
ATOM     64  C   UNL A   1      37.933  31.147  30.118  1.00  0.00     0.173 A 
ATOM     65  C   UNL A   1      38.992  30.498  32.176  1.00  0.00     0.173 A 
ATOM     66  F   UNL A   1      37.958  31.327  28.790  1.00  0.00    -0.203 F 
ATOM     67  C   UNL A   1      36.780  31.486  30.823  1.00  0.00     0.198 A 
ATOM     68  C   UNL A   1      37.831  30.815  32.876  1.00  0.00     0.198 A 
ATOM     69  F   UNL A   1      40.045  30.025  32.860  1.00  0.00    -0.203 F 
ATOM     70  F   UNL A   1      35.722  31.988  30.172  1.00  0.00    -0.200 F 
ATOM     71  C   UNL A   1      36.727  31.315  32.199  1.00  0.00     0.200 A 
ATOM     72  F   UNL A   1      37.778  30.638  34.203  1.00  0.00    -0.200 F 
ATOM     73  F   UNL A   1      35.615  31.634  32.874  1.00  0.00    -0.200 F 
ENDBRANCH  49  63
BRANCH  50  74
ATOM     74  C   UNL A   1      47.186  27.589  25.892  1.00  0.00     0.064 A 
ATOM     75  C   UNL A   1      47.281  27.759  24.504  1.00  0.00     0.173 A 
ATOM     76  C   UNL A   1      48.273  27.001  26.556  1.00  0.00     0.173 A 
ATOM     77  F   UNL A   1      46.257  28.290  23.822  1.00  0.00    -0.203 F 
ATOM     78  C   UNL A   1      48.418  27.352  23.809  1.00  0.00     0.198 A 
ATOM     79  C   UNL A   1      49.419  26.621  25.863  1.00  0.00     0.198 A 
ATOM     80  F   UNL A   1      48.227  26.816  27.883  1.00  0.00    -0.203 F 
ATOM     81  F   UNL A   1      48.473  27.494  22.477  1.00  0.00    -0.200 F 
ATOM     82  C   UNL A   1      49.489  26.793  24.490  1.00  0.00     0.200 A 
ATOM     83  F   UNL A   1      50.456  26.093  26.527  1.00  0.00    -0.200 F 
ATOM     84  F   UNL A   1      50.587  26.414  23.822  1.00  0.00    -0.200 F 
ENDBRANCH  50  74
BRANCH  62  85
ATOM     85  C   UNL A   1      45.323  33.624  28.801  1.00  0.00     0.064 A 
ATOM     86  C   UNL A   1      46.168  33.912  29.881  1.00  0.00     0.173 A 
ATOM     87  C   UNL A   1      45.161  34.598  27.807  1.00  0.00     0.173 A 
ATOM     88  F   UNL A   1      46.339  33.014  30.864  1.00  0.00    -0.203 F 
ATOM     89  C   UNL A   1      46.813  35.142  29.973  1.00  0.00     0.198 A 
ATOM     90  C   UNL A   1      45.823  35.820  27.892  1.00  0.00     0.198 A 
ATOM     91  F   UNL A   1      44.363  34.365  26.754  1.00  0.00    -0.203 F 
ATOM     92  F   UNL A   1      47.587  35.414  31.033  1.00  0.00    -0.200 F 
ATOM     93  C   UNL A   1      46.643  36.093  28.977  1.00  0.00     0.200 A 
ATOM     94  F   UNL A   1      45.661  36.737  26.928  1.00  0.00    -0.200 F 
ATOM     95  F   UNL A   1      47.264  37.277  29.068  1.00  0.00    -0.200 F 
ENDBRANCH  62  85
ENDBRANCH  36  37
ENDBRANCH  29  31
ENDBRANCH  28  29
ENDBRANCH  27  28
ENDBRANCH   1  27
TORSDOF 17
ENDMDL
MODEL 3
REMARK VINA RESULT:     -11.4      0.931      2.117
REMARK SMILES COc1ccc([C@@H]([NH3+])[C@](C)(C(N)=O)C(=O)OCCOC(=O)c2ccc(-c3c4nc(c(-c5c(F)c(F)c(F)c(F)c5F)c5ccc([nH]5)c(-c5c(F)c(F)c(F)c(F)c5F)c5nc(c(-c6c(F)c(F)c(F)c(F)c6F)c6ccc3[nH]6)C=C5)C=C4)cc2)cc1OC
REMARK SMILES IDX 17 1 16 2 14 3 15 4 9 5 10 6 7 7 6 8 3 9 4 10 86 11 5 12
REMARK SMILES IDX 85 13 2 14 1 15 87 16 88 17 8 18 11 22 12 23 13 24 18 27
REMARK SMILES IDX 19 28 20 29 21 30 22 31 23 32 84 33 24 34 83 35 25 36 26 37
REMARK SMILES IDX 27 38 77 39 28 40 82 41 76 42 78 43 29 44 81 45 75 46 74 47
REMARK SMILES IDX 30 49 62 50 42 51 61 52 43 53 46 54 60 55 79 56 44 57 45 58
REMARK SMILES IDX 59 60 80 61 47 62 31 63 32 64 40 65 33 66 34 67 38 68 41 69
REMARK SMILES IDX 35 70 36 71 39 72 37 73 63 74 64 75 72 76 65 77 66 78 70 79
REMARK SMILES IDX 73 80 67 81 68 82 71 83 69 84 48 85 49 86 57 87 50 88 51 89
REMARK SMILES IDX 55 90 58 91 52 92 53 93 56 94 54 95
REMARK H PARENT 8 19 8 20 8 21 12 25 12 26 78 48 46 59
REMARK Flexibility Score: inf
ROOT
ATOM      1  C   UNL A   1      31.335  29.079  24.369  1.00  0.00     0.274 C 
ENDROOT
BRANCH   1   2
ATOM      2  O   UNL A   1      32.461  28.258  23.976  1.00  0.00    -0.461 OA
BRANCH   2   3
ATOM      3  C   UNL A   1      32.171  27.058  23.403  1.00  0.00     0.328 C 
ATOM      4  O   UNL A   1      31.711  26.961  22.267  1.00  0.00    -0.251 OA
BRANCH   3   5
ATOM      5  C   UNL A   1      32.389  25.842  24.302  1.00  0.00     0.198 C 
ATOM      6  C   UNL A   1      33.605  26.218  25.197  1.00  0.00     0.041 C 
BRANCH   5   7
ATOM      7  C   UNL A   1      32.735  24.668  23.318  1.00  0.00     0.239 C 
BRANCH   7   8
ATOM      8  C   UNL A   1      33.730  23.657  23.876  1.00  0.00     0.015 A 
ATOM      9  C   UNL A   1      35.429  21.557  24.660  1.00  0.00     0.160 A 
ATOM     10  C   UNL A   1      35.932  22.654  23.948  1.00  0.00     0.051 A 
ATOM     11  C   UNL A   1      34.091  21.535  25.065  1.00  0.00     0.161 A 
ATOM     12  C   UNL A   1      35.089  23.696  23.558  1.00  0.00     0.014 A 
ATOM     13  C   UNL A   1      33.256  22.585  24.659  1.00  0.00     0.060 A 
BRANCH   9  14
ATOM     14  O   UNL A   1      36.289  20.531  24.951  1.00  0.00    -0.493 OA
ATOM     15  C   UNL A   1      37.635  21.013  25.003  1.00  0.00     0.278 C 
ENDBRANCH   9  14
BRANCH  11  16
ATOM     16  O   UNL A   1      33.428  20.581  25.788  1.00  0.00    -0.493 OA
ATOM     17  C   UNL A   1      32.949  19.430  25.108  1.00  0.00     0.278 C 
ENDBRANCH  11  16
ENDBRANCH   7   8
BRANCH   7  18
ATOM     18  N   UNL A   1      31.562  23.979  22.749  1.00  0.00    -0.350 N 
ATOM     19  H   UNL A   1      31.850  23.080  22.361  1.00  0.00     0.345 HD
ATOM     20  H   UNL A   1      31.155  24.554  22.012  1.00  0.00     0.345 HD
ATOM     21  H   UNL A   1      30.870  23.826  23.482  1.00  0.00     0.345 HD
ENDBRANCH   7  18
ENDBRANCH   5   7
BRANCH   5  22
ATOM     22  C   UNL A   1      31.279  25.476  25.297  1.00  0.00     0.241 C 
ATOM     23  N   UNL A   1      31.591  25.159  26.580  1.00  0.00    -0.368 N 
ATOM     24  O   UNL A   1      30.084  25.470  24.993  1.00  0.00    -0.274 OA
ATOM     25  H   UNL A   1      32.531  25.150  26.870  1.00  0.00     0.159 HD
ATOM     26  H   UNL A   1      30.877  24.939  27.220  1.00  0.00     0.159 HD
ENDBRANCH   5  22
ENDBRANCH   3   5
ENDBRANCH   2   3
ENDBRANCH   1   2
BRANCH   1  27
ATOM     27  C   UNL A   1      31.576  29.683  25.751  1.00  0.00     0.275 C 
BRANCH  27  28
ATOM     28  O   UNL A   1      32.894  30.255  25.793  1.00  0.00    -0.458 OA
BRANCH  28  29
ATOM     29  C   UNL A   1      33.135  31.127  26.794  1.00  0.00     0.338 C 
ATOM     30  O   UNL A   1      32.392  32.016  27.197  1.00  0.00    -0.246 OA
BRANCH  29  31
ATOM     31  C   UNL A   1      34.457  30.858  27.385  1.00  0.00     0.060 A 
ATOM     32  C   UNL A   1      34.861  29.546  27.628  1.00  0.00     0.016 A 
ATOM     33  C   UNL A   1      35.254  31.920  27.808  1.00  0.00     0.016 A 
ATOM     34  C   UNL A   1      35.995  29.295  28.397  1.00  0.00     0.010 A 
ATOM     35  C   UNL A   1      36.460  31.661  28.470  1.00  0.00     0.010 A 
ATOM     36  C   UNL A   1      36.827  30.346  28.809  1.00  0.00    -0.014 A 
BRANCH  36  37
ATOM     37  C   UNL A   1      38.055  30.079  29.613  1.00  0.00     0.031 A 
ATOM     38  C   UNL A   1      39.168  29.240  29.041  1.00  0.00     0.074 A 
ATOM     39  C   UNL A   1      38.189  30.584  30.857  1.00  0.00     0.049 A 
ATOM     40  N   UNL A   1      40.193  28.696  29.648  1.00  0.00    -0.248 NA
ATOM     41  C   UNL A   1      39.112  28.962  27.598  1.00  0.00     0.031 C 
ATOM     42  C   UNL A   1      37.224  31.454  31.531  1.00  0.00     0.029 A 
ATOM     43  N   UNL A   1      39.201  30.442  31.776  1.00  0.00    -0.354 N 
ATOM     44  C   UNL A   1      40.858  27.953  28.681  1.00  0.00     0.074 A 
ATOM     45  C   UNL A   1      40.130  28.126  27.442  1.00  0.00     0.031 C 
ATOM     46  C   UNL A   1      37.712  31.810  32.729  1.00  0.00     0.029 A 
ATOM     47  C   UNL A   1      38.974  31.114  32.952  1.00  0.00     0.049 A 
ATOM     48  H   UNL A   1      40.012  29.910  31.607  1.00  0.00     0.167 HD
ATOM     49  C   UNL A   1      41.968  27.189  28.819  1.00  0.00     0.037 A 
ATOM     50  C   UNL A   1      39.672  31.135  34.102  1.00  0.00     0.037 A 
ATOM     51  C   UNL A   1      42.736  27.079  30.032  1.00  0.00     0.049 A 
ATOM     52  C   UNL A   1      40.905  30.287  34.230  1.00  0.00     0.074 A 
ATOM     53  C   UNL A   1      43.874  26.327  30.272  1.00  0.00     0.029 A 
ATOM     54  N   UNL A   1      42.460  27.769  31.202  1.00  0.00    -0.354 N 
ATOM     55  N   UNL A   1      41.463  29.503  33.342  1.00  0.00    -0.248 NA
ATOM     56  C   UNL A   1      41.588  30.305  35.532  1.00  0.00     0.031 C 
ATOM     57  C   UNL A   1      44.278  26.550  31.593  1.00  0.00     0.029 A 
ATOM     58  C   UNL A   1      43.408  27.465  32.166  1.00  0.00     0.049 A 
ATOM     59  H   UNL A   1      41.703  28.384  31.330  1.00  0.00     0.167 HD
ATOM     60  C   UNL A   1      42.557  28.931  33.974  1.00  0.00     0.074 A 
ATOM     61  C   UNL A   1      42.603  29.480  35.313  1.00  0.00     0.031 C 
ATOM     62  C   UNL A   1      43.438  28.021  33.491  1.00  0.00     0.037 A 
BRANCH  49  63
ATOM     63  C   UNL A   1      42.406  26.379  27.635  1.00  0.00     0.064 A 
ATOM     64  C   UNL A   1      43.417  26.816  26.769  1.00  0.00     0.173 A 
ATOM     65  C   UNL A   1      41.828  25.124  27.392  1.00  0.00     0.173 A 
ATOM     66  F   UNL A   1      43.990  28.015  26.952  1.00  0.00    -0.203 F 
ATOM     67  C   UNL A   1      43.822  26.032  25.690  1.00  0.00     0.198 A 
ATOM     68  C   UNL A   1      42.251  24.332  26.327  1.00  0.00     0.198 A 
ATOM     69  F   UNL A   1      40.860  24.658  28.195  1.00  0.00    -0.203 F 
ATOM     70  F   UNL A   1      44.767  26.484  24.854  1.00  0.00    -0.200 F 
ATOM     71  C   UNL A   1      43.244  24.790  25.474  1.00  0.00     0.200 A 
ATOM     72  F   UNL A   1      41.698  23.128  26.127  1.00  0.00    -0.200 F 
ATOM     73  F   UNL A   1      43.641  24.034  24.441  1.00  0.00    -0.200 F 
ENDBRANCH  49  63
BRANCH  50  74
ATOM     74  C   UNL A   1      39.189  31.953  35.243  1.00  0.00     0.064 A 
ATOM     75  C   UNL A   1      39.468  33.325  35.311  1.00  0.00     0.173 A 
ATOM     76  C   UNL A   1      38.426  31.388  36.275  1.00  0.00     0.173 A 
ATOM     77  F   UNL A   1      40.217  33.905  34.362  1.00  0.00    -0.203 F 
ATOM     78  C   UNL A   1      39.004  34.099  36.373  1.00  0.00     0.198 A 
ATOM     79  C   UNL A   1      37.940  32.168  37.321  1.00  0.00     0.198 A 
ATOM     80  F   UNL A   1      38.135  30.079  36.255  1.00  0.00    -0.203 F 
ATOM     81  F   UNL A   1      39.311  35.402  36.434  1.00  0.00    -0.200 F 
ATOM     82  C   UNL A   1      38.233  33.522  37.371  1.00  0.00     0.200 A 
ATOM     83  F   UNL A   1      37.184  31.609  38.275  1.00  0.00    -0.200 F 
ATOM     84  F   UNL A   1      37.776  34.269  38.385  1.00  0.00    -0.200 F 
ENDBRANCH  50  74
BRANCH  62  85
ATOM     85  C   UNL A   1      44.530  27.578  34.416  1.00  0.00     0.064 A 
ATOM     86  C   UNL A   1      44.359  26.481  35.271  1.00  0.00     0.173 A 
ATOM     87  C   UNL A   1      45.764  28.242  34.429  1.00  0.00     0.173 A 
ATOM     88  F   UNL A   1      43.188  25.826  35.304  1.00  0.00    -0.203 F 
ATOM     89  C   UNL A   1      45.381  26.075  36.123  1.00  0.00     0.198 A 
ATOM     90  C   UNL A   1      46.792  27.822  35.268  1.00  0.00     0.198 A 
ATOM     91  F   UNL A   1      45.973  29.297  33.626  1.00  0.00    -0.203 F 
ATOM     92  F   UNL A   1      45.186  25.047  36.961  1.00  0.00    -0.200 F 
ATOM     93  C   UNL A   1      46.598  26.743  36.119  1.00  0.00     0.200 A 
ATOM     94  F   UNL A   1      47.967  28.465  35.261  1.00  0.00    -0.200 F 
ATOM     95  F   UNL A   1      47.581  26.351  36.940  1.00  0.00    -0.200 F 
ENDBRANCH  62  85
ENDBRANCH  36  37
ENDBRANCH  29  31
ENDBRANCH  28  29
ENDBRANCH  27  28
ENDBRANCH   1  27
TORSDOF 17
ENDMDL
