MODEL 1
REMARK VINA RESULT:     -11.1      0.000      0.000
REMARK SMILES CC[NH2+][C@@H](CC(=O)Nc1ccc(C)c(C)c1)C(=O)OCCOC(=O)c1ccc(-c2c3nc(c(-c4c(F)c(F)c(F)c(F)c4F)c4ccc([nH]4)c(-c4c(F)c(F)c(F)c(F)c4F)c4nc(c(-c5c(F)c(F)c(F)c(F)c5F)c5ccc2[nH]5)C=C4)C=C3)cc1
REMARK SMILES IDX 20 1 19 2 17 3 18 4 4 5 3 6 2 9 1 10 5 11 6 12 7 13 8 14
REMARK SMILES IDX 9 16 10 17 16 18 11 19 14 20 12 21 15 22 13 23 21 24 22 25
REMARK SMILES IDX 23 26 24 27 25 28 26 29 87 30 27 31 86 32 28 33 29 34 30 35
REMARK SMILES IDX 80 36 31 37 85 38 79 39 81 40 32 41 84 42 78 43 77 44 33 46
REMARK SMILES IDX 65 47 45 48 64 49 46 50 49 51 63 52 82 53 47 54 48 55 62 57
REMARK SMILES IDX 83 58 50 59 34 60 35 61 43 62 36 63 37 64 41 65 44 66 38 67
REMARK SMILES IDX 39 68 42 69 40 70 66 71 67 72 75 73 68 74 69 75 73 76 76 77
REMARK SMILES IDX 70 78 71 79 74 80 72 81 51 82 52 83 60 84 53 85 54 86 58 87
REMARK SMILES IDX 61 88 55 89 56 90 59 91 57 92
REMARK H PARENT 3 7 3 8 8 15 81 45 49 56
REMARK Flexibility Score: inf
ROOT
ATOM      1  C   UNL A   1      35.776  20.433  25.031  1.00  0.00     0.274 C 
ENDROOT
BRANCH   1   2
ATOM      2  O   UNL A   1      34.785  21.443  24.756  1.00  0.00    -0.458 OA
BRANCH   2   3
ATOM      3  C   UNL A   1      34.190  22.018  25.834  1.00  0.00     0.365 C 
ATOM      4  O   UNL A   1      34.192  21.537  26.964  1.00  0.00    -0.245 OA
BRANCH   3   5
ATOM      5  C   UNL A   1      33.543  23.380  25.517  1.00  0.00     0.302 C 
BRANCH   5   6
ATOM      6  N   UNL A   1      34.167  23.994  24.322  1.00  0.00    -0.334 N 
ATOM      7  H   UNL A   1      34.704  24.808  24.623  1.00  0.00     0.347 HD
ATOM      8  H   UNL A   1      34.749  23.275  23.893  1.00  0.00     0.347 HD
BRANCH   6   9
ATOM      9  C   UNL A   1      33.212  24.426  23.302  1.00  0.00     0.257 C 
ATOM     10  C   UNL A   1      33.525  25.835  22.818  1.00  0.00     0.071 C 
ENDBRANCH   6   9
ENDBRANCH   5   6
BRANCH   5  11
ATOM     11  C   UNL A   1      32.015  23.397  25.474  1.00  0.00     0.177 C 
BRANCH  11  12
ATOM     12  C   UNL A   1      31.225  23.866  26.682  1.00  0.00     0.231 C 
ATOM     13  O   UNL A   1      30.911  23.080  27.578  1.00  0.00    -0.274 OA
ATOM     14  N   UNL A   1      31.027  25.214  26.852  1.00  0.00    -0.326 N 
ATOM     15  H   UNL A   1      30.988  25.540  27.779  1.00  0.00     0.169 HD
BRANCH  14  16
ATOM     16  C   UNL A   1      30.872  26.173  25.844  1.00  0.00     0.041 A 
ATOM     17  C   UNL A   1      29.843  26.055  24.917  1.00  0.00     0.026 A 
ATOM     18  C   UNL A   1      31.682  27.305  25.831  1.00  0.00     0.029 A 
ATOM     19  C   UNL A   1      29.702  26.999  23.900  1.00  0.00     0.006 A 
ATOM     20  C   UNL A   1      31.557  28.266  24.807  1.00  0.00    -0.046 A 
ATOM     21  C   UNL A   1      30.573  28.093  23.810  1.00  0.00    -0.048 A 
ATOM     22  C   UNL A   1      32.491  29.446  24.832  1.00  0.00     0.044 C 
ATOM     23  C   UNL A   1      30.424  29.036  22.648  1.00  0.00     0.044 C 
ENDBRANCH  14  16
ENDBRANCH  11  12
ENDBRANCH   5  11
ENDBRANCH   3   5
ENDBRANCH   2   3
ENDBRANCH   1   2
BRANCH   1  24
ATOM     24  C   UNL A   1      37.191  20.942  24.757  1.00  0.00     0.275 C 
BRANCH  24  25
ATOM     25  O   UNL A   1      37.694  21.696  25.874  1.00  0.00    -0.458 OA
BRANCH  25  26
ATOM     26  C   UNL A   1      38.966  21.408  26.226  1.00  0.00     0.338 C 
ATOM     27  O   UNL A   1      39.560  20.346  26.081  1.00  0.00    -0.246 OA
BRANCH  26  28
ATOM     28  C   UNL A   1      39.615  22.626  26.725  1.00  0.00     0.060 A 
ATOM     29  C   UNL A   1      39.189  23.845  26.199  1.00  0.00     0.016 A 
ATOM     30  C   UNL A   1      40.670  22.579  27.635  1.00  0.00     0.016 A 
ATOM     31  C   UNL A   1      39.826  25.027  26.550  1.00  0.00     0.010 A 
ATOM     32  C   UNL A   1      41.309  23.769  28.001  1.00  0.00     0.010 A 
ATOM     33  C   UNL A   1      40.900  24.996  27.445  1.00  0.00    -0.014 A 
BRANCH  33  34
ATOM     34  C   UNL A   1      41.625  26.251  27.736  1.00  0.00     0.031 A 
ATOM     35  C   UNL A   1      40.961  27.315  28.556  1.00  0.00     0.074 A 
ATOM     36  C   UNL A   1      42.892  26.404  27.312  1.00  0.00     0.049 A 
ATOM     37  N   UNL A   1      41.396  28.507  28.878  1.00  0.00    -0.248 NA
ATOM     38  C   UNL A   1      39.628  26.994  29.090  1.00  0.00     0.031 C 
ATOM     39  C   UNL A   1      43.656  25.407  26.562  1.00  0.00     0.029 A 
ATOM     40  N   UNL A   1      43.759  27.456  27.454  1.00  0.00    -0.354 N 
ATOM     41  C   UNL A   1      40.386  29.083  29.635  1.00  0.00     0.074 A 
ATOM     42  C   UNL A   1      39.308  28.120  29.712  1.00  0.00     0.031 C 
ATOM     43  C   UNL A   1      44.879  25.897  26.306  1.00  0.00     0.029 A 
ATOM     44  C   UNL A   1      44.967  27.256  26.835  1.00  0.00     0.049 A 
ATOM     45  H   UNL A   1      43.537  28.276  27.952  1.00  0.00     0.167 HD
ATOM     46  C   UNL A   1      40.366  30.306  30.214  1.00  0.00     0.037 A 
ATOM     47  C   UNL A   1      46.014  28.089  26.687  1.00  0.00     0.037 A 
ATOM     48  C   UNL A   1      41.448  31.254  30.140  1.00  0.00     0.049 A 
ATOM     49  C   UNL A   1      45.941  29.466  27.288  1.00  0.00     0.074 A 
ATOM     50  C   UNL A   1      41.525  32.522  30.687  1.00  0.00     0.029 A 
ATOM     51  N   UNL A   1      42.644  31.031  29.473  1.00  0.00    -0.354 N 
ATOM     52  N   UNL A   1      44.977  30.015  27.987  1.00  0.00    -0.248 NA
ATOM     53  C   UNL A   1      47.101  30.344  27.075  1.00  0.00     0.031 C 
ATOM     54  C   UNL A   1      42.754  33.081  30.319  1.00  0.00     0.029 A 
ATOM     55  C   UNL A   1      43.461  32.145  29.580  1.00  0.00     0.049 A 
ATOM     56  H   UNL A   1      42.879  30.203  28.995  1.00  0.00     0.167 HD
ATOM     57  C   UNL A   1      45.417  31.289  28.311  1.00  0.00     0.074 A 
ATOM     58  C   UNL A   1      46.744  31.429  27.747  1.00  0.00     0.031 C 
ATOM     59  C   UNL A   1      44.779  32.260  29.012  1.00  0.00     0.037 A 
BRANCH  46  60
ATOM     60  C   UNL A   1      39.121  30.700  30.951  1.00  0.00     0.064 A 
ATOM     61  C   UNL A   1      38.993  30.517  32.335  1.00  0.00     0.173 A 
ATOM     62  C   UNL A   1      38.048  31.288  30.263  1.00  0.00     0.173 A 
ATOM     63  F   UNL A   1      39.984  29.945  33.035  1.00  0.00    -0.203 F 
ATOM     64  C   UNL A   1      37.826  30.888  33.001  1.00  0.00     0.198 A 
ATOM     65  C   UNL A   1      36.894  31.679  30.936  1.00  0.00     0.198 A 
ATOM     66  F   UNL A   1      38.121  31.486  28.938  1.00  0.00    -0.203 F 
ATOM     67  F   UNL A   1      37.709  30.664  34.317  1.00  0.00    -0.200 F 
ATOM     68  C   UNL A   1      36.781  31.473  32.303  1.00  0.00     0.200 A 
ATOM     69  F   UNL A   1      35.888  32.252  30.261  1.00  0.00    -0.200 F 
ATOM     70  F   UNL A   1      35.661  31.831  32.945  1.00  0.00    -0.200 F 
ENDBRANCH  46  60
BRANCH  47  71
ATOM     71  C   UNL A   1      47.205  27.649  25.918  1.00  0.00     0.064 A 
ATOM     72  C   UNL A   1      47.246  27.756  24.522  1.00  0.00     0.173 A 
ATOM     73  C   UNL A   1      48.328  27.114  26.567  1.00  0.00     0.173 A 
ATOM     74  F   UNL A   1      46.187  28.237  23.856  1.00  0.00    -0.203 F 
ATOM     75  C   UNL A   1      48.363  27.332  23.803  1.00  0.00     0.198 A 
ATOM     76  C   UNL A   1      49.453  26.716  25.849  1.00  0.00     0.198 A 
ATOM     77  F   UNL A   1      48.336  26.988  27.903  1.00  0.00    -0.203 F 
ATOM     78  F   UNL A   1      48.362  27.407  22.464  1.00  0.00    -0.200 F 
ATOM     79  C   UNL A   1      49.468  26.820  24.467  1.00  0.00     0.200 A 
ATOM     80  F   UNL A   1      50.521  26.231  26.496  1.00  0.00    -0.200 F 
ATOM     81  F   UNL A   1      50.541  26.417  23.774  1.00  0.00    -0.200 F 
ENDBRANCH  47  71
BRANCH  59  82
ATOM     82  C   UNL A   1      45.520  33.546  29.225  1.00  0.00     0.064 A 
ATOM     83  C   UNL A   1      46.374  33.726  30.322  1.00  0.00     0.173 A 
ATOM     84  C   UNL A   1      45.404  34.594  28.300  1.00  0.00     0.173 A 
ATOM     85  F   UNL A   1      46.506  32.757  31.241  1.00  0.00    -0.203 F 
ATOM     86  C   UNL A   1      47.070  34.919  30.497  1.00  0.00     0.198 A 
ATOM     87  C   UNL A   1      46.121  35.775  28.464  1.00  0.00     0.198 A 
ATOM     88  F   UNL A   1      44.604  34.467  27.231  1.00  0.00    -0.203 F 
ATOM     89  F   UNL A   1      47.848  35.087  31.574  1.00  0.00    -0.200 F 
ATOM     90  C   UNL A   1      46.947  35.939  29.565  1.00  0.00     0.200 A 
ATOM     91  F   UNL A   1      46.010  36.757  27.559  1.00  0.00    -0.200 F 
ATOM     92  F   UNL A   1      47.622  37.085  29.733  1.00  0.00    -0.200 F 
ENDBRANCH  59  82
ENDBRANCH  33  34
ENDBRANCH  26  28
ENDBRANCH  25  26
ENDBRANCH  24  25
ENDBRANCH   1  24
TORSDOF 16
ENDMDL
MODEL 2
REMARK VINA RESULT:     -11.1      4.476      9.754
REMARK SMILES CC[NH2+][C@@H](CC(=O)Nc1ccc(C)c(C)c1)C(=O)OCCOC(=O)c1ccc(-c2c3nc(c(-c4c(F)c(F)c(F)c(F)c4F)c4ccc([nH]4)c(-c4c(F)c(F)c(F)c(F)c4F)c4nc(c(-c5c(F)c(F)c(F)c(F)c5F)c5ccc2[nH]5)C=C4)C=C3)cc1
REMARK SMILES IDX 20 1 19 2 17 3 18 4 4 5 3 6 2 9 1 10 5 11 6 12 7 13 8 14
REMARK SMILES IDX 9 16 10 17 16 18 11 19 14 20 12 21 15 22 13 23 21 24 22 25
REMARK SMILES IDX 23 26 24 27 25 28 26 29 87 30 27 31 86 32 28 33 29 34 30 35
REMARK SMILES IDX 80 36 31 37 85 38 79 39 81 40 32 41 84 42 78 43 77 44 33 46
REMARK SMILES IDX 65 47 45 48 64 49 46 50 49 51 63 52 82 53 47 54 48 55 62 57
REMARK SMILES IDX 83 58 50 59 34 60 35 61 43 62 36 63 37 64 41 65 44 66 38 67
REMARK SMILES IDX 39 68 42 69 40 70 66 71 67 72 75 73 68 74 69 75 73 76 76 77
REMARK SMILES IDX 70 78 71 79 74 80 72 81 51 82 52 83 60 84 53 85 54 86 58 87
REMARK SMILES IDX 61 88 55 89 56 90 59 91 57 92
REMARK H PARENT 3 7 3 8 8 15 81 45 49 56
REMARK Flexibility Score: inf
ROOT
ATOM      1  C   UNL A   1      31.822  28.629  26.581  1.00  0.00     0.274 C 
ENDROOT
BRANCH   1   2
ATOM      2  O   UNL A   1      31.188  28.134  25.385  1.00  0.00    -0.458 OA
BRANCH   2   3
ATOM      3  C   UNL A   1      32.015  27.747  24.377  1.00  0.00     0.365 C 
ATOM      4  O   UNL A   1      33.240  27.810  24.425  1.00  0.00    -0.245 OA
BRANCH   3   5
ATOM      5  C   UNL A   1      31.263  27.164  23.165  1.00  0.00     0.302 C 
BRANCH   5   6
ATOM      6  N   UNL A   1      31.225  28.139  22.050  1.00  0.00    -0.334 N 
ATOM      7  H   UNL A   1      32.159  28.534  21.938  1.00  0.00     0.347 HD
ATOM      8  H   UNL A   1      30.912  27.628  21.225  1.00  0.00     0.347 HD
BRANCH   6   9
ATOM      9  C   UNL A   1      30.281  29.238  22.247  1.00  0.00     0.257 C 
ATOM     10  C   UNL A   1      28.938  28.725  22.749  1.00  0.00     0.071 C 
ENDBRANCH   6   9
ENDBRANCH   5   6
BRANCH   5  11
ATOM     11  C   UNL A   1      31.694  25.764  22.726  1.00  0.00     0.177 C 
BRANCH  11  12
ATOM     12  C   UNL A   1      33.040  25.558  22.057  1.00  0.00     0.231 C 
ATOM     13  O   UNL A   1      33.241  25.944  20.904  1.00  0.00    -0.274 OA
ATOM     14  N   UNL A   1      34.087  25.100  22.820  1.00  0.00    -0.326 N 
ATOM     15  H   UNL A   1      34.984  25.424  22.575  1.00  0.00     0.169 HD
BRANCH  14  16
ATOM     16  C   UNL A   1      34.013  24.223  23.907  1.00  0.00     0.041 A 
ATOM     17  C   UNL A   1      34.297  24.673  25.191  1.00  0.00     0.026 A 
ATOM     18  C   UNL A   1      33.551  22.922  23.722  1.00  0.00     0.029 A 
ATOM     19  C   UNL A   1      34.244  23.794  26.272  1.00  0.00     0.006 A 
ATOM     20  C   UNL A   1      33.496  22.018  24.803  1.00  0.00    -0.046 A 
ATOM     21  C   UNL A   1      33.879  22.453  26.089  1.00  0.00    -0.048 A 
ATOM     22  C   UNL A   1      33.023  20.617  24.523  1.00  0.00     0.044 C 
ATOM     23  C   UNL A   1      33.914  21.530  27.276  1.00  0.00     0.044 C 
ENDBRANCH  14  16
ENDBRANCH  11  12
ENDBRANCH   5  11
ENDBRANCH   3   5
ENDBRANCH   2   3
ENDBRANCH   1   2
BRANCH   1  24
ATOM     24  C   UNL A   1      31.830  30.157  26.625  1.00  0.00     0.275 C 
BRANCH  24  25
ATOM     25  O   UNL A   1      33.147  30.673  26.366  1.00  0.00    -0.458 OA
BRANCH  25  26
ATOM     26  C   UNL A   1      33.534  31.675  27.185  1.00  0.00     0.338 C 
ATOM     27  O   UNL A   1      32.908  32.688  27.474  1.00  0.00    -0.246 OA
BRANCH  26  28
ATOM     28  C   UNL A   1      34.818  31.324  27.804  1.00  0.00     0.060 A 
ATOM     29  C   UNL A   1      34.963  30.026  28.293  1.00  0.00     0.016 A 
ATOM     30  C   UNL A   1      35.836  32.261  27.972  1.00  0.00     0.016 A 
ATOM     31  C   UNL A   1      36.111  29.655  28.979  1.00  0.00     0.010 A 
ATOM     32  C   UNL A   1      37.000  31.888  28.654  1.00  0.00     0.010 A 
ATOM     33  C   UNL A   1      37.133  30.588  29.176  1.00  0.00    -0.014 A 
BRANCH  33  34
ATOM     34  C   UNL A   1      38.307  30.202  29.988  1.00  0.00     0.031 A 
ATOM     35  C   UNL A   1      39.332  29.274  29.410  1.00  0.00     0.074 A 
ATOM     36  C   UNL A   1      38.474  30.731  31.213  1.00  0.00     0.049 A 
ATOM     37  N   UNL A   1      40.401  28.767  29.971  1.00  0.00    -0.248 NA
ATOM     38  C   UNL A   1      39.129  28.861  28.013  1.00  0.00     0.031 C 
ATOM     39  C   UNL A   1      37.572  31.692  31.846  1.00  0.00     0.029 A 
ATOM     40  N   UNL A   1      39.462  30.534  32.142  1.00  0.00    -0.354 N 
ATOM     41  C   UNL A   1      40.988  27.965  29.002  1.00  0.00     0.074 A 
ATOM     42  C   UNL A   1      40.150  28.037  27.824  1.00  0.00     0.031 C 
ATOM     43  C   UNL A   1      38.047  32.000  33.063  1.00  0.00     0.029 A 
ATOM     44  C   UNL A   1      39.259  31.225  33.310  1.00  0.00     0.049 A 
ATOM     45  H   UNL A   1      40.242  29.953  31.986  1.00  0.00     0.167 HD
ATOM     46  C   UNL A   1      42.126  27.239  29.093  1.00  0.00     0.037 A 
ATOM     47  C   UNL A   1      39.959  31.207  34.460  1.00  0.00     0.037 A 
ATOM     48  C   UNL A   1      42.958  27.182  30.266  1.00  0.00     0.049 A 
ATOM     49  C   UNL A   1      41.186  30.343  34.555  1.00  0.00     0.074 A 
ATOM     50  C   UNL A   1      44.129  26.472  30.463  1.00  0.00     0.029 A 
ATOM     51  N   UNL A   1      42.703  27.867  31.446  1.00  0.00    -0.354 N 
ATOM     52  N   UNL A   1      41.727  29.571  33.643  1.00  0.00    -0.248 NA
ATOM     53  C   UNL A   1      41.898  30.342  35.840  1.00  0.00     0.031 C 
ATOM     54  C   UNL A   1      44.562  26.698  31.774  1.00  0.00     0.029 A 
ATOM     55  C   UNL A   1      43.685  27.584  32.380  1.00  0.00     0.049 A 
ATOM     56  H   UNL A   1      41.937  28.467  31.595  1.00  0.00     0.167 HD
ATOM     57  C   UNL A   1      42.848  29.008  34.235  1.00  0.00     0.074 A 
ATOM     58  C   UNL A   1      42.921  29.539  35.581  1.00  0.00     0.031 C 
ATOM     59  C   UNL A   1      43.738  28.127  33.714  1.00  0.00     0.037 A 
BRANCH  46  60
ATOM     60  C   UNL A   1      42.518  26.420  27.899  1.00  0.00     0.064 A 
ATOM     61  C   UNL A   1      42.010  25.131  27.689  1.00  0.00     0.173 A 
ATOM     62  C   UNL A   1      43.401  26.943  26.942  1.00  0.00     0.173 A 
ATOM     63  F   UNL A   1      41.176  24.580  28.583  1.00  0.00    -0.203 F 
ATOM     64  C   UNL A   1      42.389  24.385  26.574  1.00  0.00     0.198 A 
ATOM     65  C   UNL A   1      43.758  26.205  25.817  1.00  0.00     0.198 A 
ATOM     66  F   UNL A   1      43.914  28.173  27.096  1.00  0.00    -0.203 F 
ATOM     67  F   UNL A   1      41.924  23.138  26.415  1.00  0.00    -0.200 F 
ATOM     68  C   UNL A   1      43.257  24.924  25.637  1.00  0.00     0.200 A 
ATOM     69  F   UNL A   1      44.591  26.731  24.908  1.00  0.00    -0.200 F 
ATOM     70  F   UNL A   1      43.618  24.207  24.564  1.00  0.00    -0.200 F 
ENDBRANCH  46  60
BRANCH  47  71
ATOM     71  C   UNL A   1      39.499  32.017  35.617  1.00  0.00     0.064 A 
ATOM     72  C   UNL A   1      38.551  31.517  36.519  1.00  0.00     0.173 A 
ATOM     73  C   UNL A   1      40.002  33.307  35.843  1.00  0.00     0.173 A 
ATOM     74  F   UNL A   1      38.024  30.300  36.330  1.00  0.00    -0.203 F 
ATOM     75  C   UNL A   1      38.115  32.284  37.598  1.00  0.00     0.198 A 
ATOM     76  C   UNL A   1      39.584  34.061  36.936  1.00  0.00     0.198 A 
ATOM     77  F   UNL A   1      40.909  33.831  35.004  1.00  0.00    -0.203 F 
ATOM     78  F   UNL A   1      37.177  31.800  38.425  1.00  0.00    -0.200 F 
ATOM     79  C   UNL A   1      38.637  33.552  37.810  1.00  0.00     0.200 A 
ATOM     80  F   UNL A   1      40.098  35.282  37.141  1.00  0.00    -0.200 F 
ATOM     81  F   UNL A   1      38.218  34.285  38.850  1.00  0.00    -0.200 F 
ENDBRANCH  47  71
BRANCH  59  82
ATOM     82  C   UNL A   1      44.876  27.704  34.594  1.00  0.00     0.064 A 
ATOM     83  C   UNL A   1      46.071  28.434  34.645  1.00  0.00     0.173 A 
ATOM     84  C   UNL A   1      44.752  26.580  35.423  1.00  0.00     0.173 A 
ATOM     85  F   UNL A   1      46.242  29.509  33.860  1.00  0.00    -0.203 F 
ATOM     86  C   UNL A   1      47.112  28.040  35.482  1.00  0.00     0.198 A 
ATOM     87  C   UNL A   1      45.785  26.204  36.276  1.00  0.00     0.198 A 
ATOM     88  F   UNL A   1      43.625  25.853  35.413  1.00  0.00    -0.203 F 
ATOM     89  F   UNL A   1      48.263  28.727  35.485  1.00  0.00    -0.200 F 
ATOM     90  C   UNL A   1      46.966  26.930  36.300  1.00  0.00     0.200 A 
ATOM     91  F   UNL A   1      45.639  25.137  37.074  1.00  0.00    -0.200 F 
ATOM     92  F   UNL A   1      47.968  26.555  37.107  1.00  0.00    -0.200 F 
ENDBRANCH  59  82
ENDBRANCH  33  34
ENDBRANCH  26  28
ENDBRANCH  25  26
ENDBRANCH  24  25
ENDBRANCH   1  24
TORSDOF 16
ENDMDL
MODEL 3
REMARK VINA RESULT:     -11.1      0.325      1.643
REMARK SMILES CC[NH2+][C@@H](CC(=O)Nc1ccc(C)c(C)c1)C(=O)OCCOC(=O)c1ccc(-c2c3nc(c(-c4c(F)c(F)c(F)c(F)c4F)c4ccc([nH]4)c(-c4c(F)c(F)c(F)c(F)c4F)c4nc(c(-c5c(F)c(F)c(F)c(F)c5F)c5ccc2[nH]5)C=C4)C=C3)cc1
REMARK SMILES IDX 20 1 19 2 17 3 18 4 4 5 3 6 2 9 1 10 5 11 6 12 7 13 8 14
REMARK SMILES IDX 9 16 10 17 16 18 11 19 14 20 12 21 15 22 13 23 21 24 22 25
REMARK SMILES IDX 23 26 24 27 25 28 26 29 87 30 27 31 86 32 28 33 29 34 30 35
REMARK SMILES IDX 80 36 31 37 85 38 79 39 81 40 32 41 84 42 78 43 77 44 33 46
REMARK SMILES IDX 65 47 45 48 64 49 46 50 49 51 63 52 82 53 47 54 48 55 62 57
REMARK SMILES IDX 83 58 50 59 34 60 35 61 43 62 36 63 37 64 41 65 44 66 38 67
REMARK SMILES IDX 39 68 42 69 40 70 66 71 67 72 75 73 68 74 69 75 73 76 76 77
REMARK SMILES IDX 70 78 71 79 74 80 72 81 51 82 52 83 60 84 53 85 54 86 58 87
REMARK SMILES IDX 61 88 55 89 56 90 59 91 57 92
REMARK H PARENT 3 7 3 8 8 15 81 45 49 56
REMARK Flexibility Score: inf
ROOT
ATOM      1  C   UNL A   1      35.462  20.504  25.030  1.00  0.00     0.274 C 
ENDROOT
BRANCH   1   2
ATOM      2  O   UNL A   1      34.275  21.270  24.742  1.00  0.00    -0.458 OA
BRANCH   2   3
ATOM      3  C   UNL A   1      33.700  21.915  25.792  1.00  0.00     0.365 C 
ATOM      4  O   UNL A   1      33.695  21.491  26.944  1.00  0.00    -0.245 OA
BRANCH   3   5
ATOM      5  C   UNL A   1      33.088  23.276  25.407  1.00  0.00     0.302 C 
BRANCH   5   6
ATOM      6  N   UNL A   1      33.733  23.818  24.189  1.00  0.00    -0.334 N 
ATOM      7  H   UNL A   1      34.195  24.693  24.434  1.00  0.00     0.347 HD
ATOM      8  H   UNL A   1      34.384  23.105  23.860  1.00  0.00     0.347 HD
BRANCH   6   9
ATOM      9  C   UNL A   1      32.807  24.080  23.088  1.00  0.00     0.257 C 
ATOM     10  C   UNL A   1      32.919  25.521  22.608  1.00  0.00     0.071 C 
ENDBRANCH   6   9
ENDBRANCH   5   6
BRANCH   5  11
ATOM     11  C   UNL A   1      31.561  23.327  25.354  1.00  0.00     0.177 C 
BRANCH  11  12
ATOM     12  C   UNL A   1      30.776  23.846  26.545  1.00  0.00     0.231 C 
ATOM     13  O   UNL A   1      30.412  23.086  27.444  1.00  0.00    -0.274 OA
ATOM     14  N   UNL A   1      30.638  25.204  26.697  1.00  0.00    -0.326 N 
ATOM     15  H   UNL A   1      30.602  25.542  27.620  1.00  0.00     0.169 HD
BRANCH  14  16
ATOM     16  C   UNL A   1      30.545  26.157  25.677  1.00  0.00     0.041 A 
ATOM     17  C   UNL A   1      29.509  26.094  24.752  1.00  0.00     0.026 A 
ATOM     18  C   UNL A   1      31.426  27.235  25.647  1.00  0.00     0.029 A 
ATOM     19  C   UNL A   1      29.427  27.031  23.723  1.00  0.00     0.006 A 
ATOM     20  C   UNL A   1      31.361  28.188  24.610  1.00  0.00    -0.046 A 
ATOM     21  C   UNL A   1      30.367  28.065  23.617  1.00  0.00    -0.048 A 
ATOM     22  C   UNL A   1      32.369  29.305  24.619  1.00  0.00     0.044 C 
ATOM     23  C   UNL A   1      30.277  29.001  22.443  1.00  0.00     0.044 C 
ENDBRANCH  14  16
ENDBRANCH  11  12
ENDBRANCH   5  11
ENDBRANCH   3   5
ENDBRANCH   2   3
ENDBRANCH   1   2
BRANCH   1  24
ATOM     24  C   UNL A   1      36.732  21.271  24.662  1.00  0.00     0.275 C 
BRANCH  24  25
ATOM     25  O   UNL A   1      37.304  21.908  25.818  1.00  0.00    -0.458 OA
BRANCH  25  26
ATOM     26  C   UNL A   1      38.596  21.599  26.055  1.00  0.00     0.338 C 
ATOM     27  O   UNL A   1      39.174  20.549  25.795  1.00  0.00    -0.246 OA
BRANCH  26  28
ATOM     28  C   UNL A   1      39.285  22.780  26.589  1.00  0.00     0.060 A 
ATOM     29  C   UNL A   1      38.847  24.031  26.157  1.00  0.00     0.016 A 
ATOM     30  C   UNL A   1      40.386  22.671  27.438  1.00  0.00     0.016 A 
ATOM     31  C   UNL A   1      39.515  25.185  26.541  1.00  0.00     0.010 A 
ATOM     32  C   UNL A   1      41.056  23.832  27.836  1.00  0.00     0.010 A 
ATOM     33  C   UNL A   1      40.634  25.092  27.374  1.00  0.00    -0.014 A 
BRANCH  33  34
ATOM     34  C   UNL A   1      41.388  26.322  27.698  1.00  0.00     0.031 A 
ATOM     35  C   UNL A   1      40.731  27.401  28.506  1.00  0.00     0.074 A 
ATOM     36  C   UNL A   1      42.672  26.438  27.316  1.00  0.00     0.049 A 
ATOM     37  N   UNL A   1      41.192  28.576  28.850  1.00  0.00    -0.248 NA
ATOM     38  C   UNL A   1      39.372  27.118  28.994  1.00  0.00     0.031 C 
ATOM     39  C   UNL A   1      43.428  25.424  26.583  1.00  0.00     0.029 A 
ATOM     40  N   UNL A   1      43.566  27.462  27.494  1.00  0.00    -0.354 N 
ATOM     41  C   UNL A   1      40.177  29.178  29.579  1.00  0.00     0.074 A 
ATOM     42  C   UNL A   1      39.068  28.249  29.615  1.00  0.00     0.031 C 
ATOM     43  C   UNL A   1      44.673  25.877  26.370  1.00  0.00     0.029 A 
ATOM     44  C   UNL A   1      44.786  27.228  26.912  1.00  0.00     0.049 A 
ATOM     45  H   UNL A   1      43.353  28.285  27.991  1.00  0.00     0.167 HD
ATOM     46  C   UNL A   1      40.177  30.398  30.167  1.00  0.00     0.037 A 
ATOM     47  C   UNL A   1      45.863  28.030  26.804  1.00  0.00     0.037 A 
ATOM     48  C   UNL A   1      41.289  31.311  30.135  1.00  0.00     0.049 A 
ATOM     49  C   UNL A   1      45.814  29.404  27.413  1.00  0.00     0.074 A 
ATOM     50  C   UNL A   1      41.388  32.573  30.694  1.00  0.00     0.029 A 
ATOM     51  N   UNL A   1      42.498  31.056  29.505  1.00  0.00    -0.354 N 
ATOM     52  N   UNL A   1      44.845  29.978  28.085  1.00  0.00    -0.248 NA
ATOM     53  C   UNL A   1      47.006  30.246  27.244  1.00  0.00     0.031 C 
ATOM     54  C   UNL A   1      42.645  33.096  30.371  1.00  0.00     0.029 A 
ATOM     55  C   UNL A   1      43.345  32.143  29.647  1.00  0.00     0.049 A 
ATOM     56  H   UNL A   1      42.722  30.224  29.028  1.00  0.00     0.167 HD
ATOM     57  C   UNL A   1      45.314  31.236  28.434  1.00  0.00     0.074 A 
ATOM     58  C   UNL A   1      46.662  31.338  27.913  1.00  0.00     0.031 C 
ATOM     59  C   UNL A   1      44.684  32.221  29.121  1.00  0.00     0.037 A 
BRANCH  46  60
ATOM     60  C   UNL A   1      38.921  30.826  30.867  1.00  0.00     0.064 A 
ATOM     61  C   UNL A   1      37.848  31.401  30.172  1.00  0.00     0.173 A 
ATOM     62  C   UNL A   1      38.784  30.638  32.251  1.00  0.00     0.173 A 
ATOM     63  F   UNL A   1      37.937  31.617  28.852  1.00  0.00    -0.203 F 
ATOM     64  C   UNL A   1      36.691  31.794  30.842  1.00  0.00     0.198 A 
ATOM     65  C   UNL A   1      37.617  31.009  32.912  1.00  0.00     0.198 A 
ATOM     66  F   UNL A   1      39.781  30.090  32.961  1.00  0.00    -0.203 F 
ATOM     67  F   UNL A   1      35.694  32.381  30.165  1.00  0.00    -0.200 F 
ATOM     68  C   UNL A   1      36.574  31.593  32.209  1.00  0.00     0.200 A 
ATOM     69  F   UNL A   1      37.502  30.806  34.232  1.00  0.00    -0.200 F 
ATOM     70  F   UNL A   1      35.459  31.969  32.851  1.00  0.00    -0.200 F 
ENDBRANCH  46  60
BRANCH  47  71
ATOM     71  C   UNL A   1      47.064  27.558  26.070  1.00  0.00     0.064 A 
ATOM     72  C   UNL A   1      47.151  27.669  24.676  1.00  0.00     0.173 A 
ATOM     73  C   UNL A   1      48.150  26.988  26.750  1.00  0.00     0.173 A 
ATOM     74  F   UNL A   1      46.128  28.185  23.980  1.00  0.00    -0.203 F 
ATOM     75  C   UNL A   1      48.276  27.217  23.990  1.00  0.00     0.198 A 
ATOM     76  C   UNL A   1      49.284  26.559  26.066  1.00  0.00     0.198 A 
ATOM     77  F   UNL A   1      48.113  26.855  28.085  1.00  0.00    -0.203 F 
ATOM     78  F   UNL A   1      48.319  27.297  22.652  1.00  0.00    -0.200 F 
ATOM     79  C   UNL A   1      49.345  26.669  24.685  1.00  0.00     0.200 A 
ATOM     80  F   UNL A   1      50.317  26.040  26.743  1.00  0.00    -0.200 F 
ATOM     81  F   UNL A   1      50.426  26.238  24.023  1.00  0.00    -0.200 F 
ENDBRANCH  47  71
BRANCH  59  82
ATOM     82  C   UNL A   1      45.457  33.482  29.369  1.00  0.00     0.064 A 
ATOM     83  C   UNL A   1      45.399  34.563  28.479  1.00  0.00     0.173 A 
ATOM     84  C   UNL A   1      46.233  33.622  30.530  1.00  0.00     0.173 A 
ATOM     85  F   UNL A   1      44.682  34.470  27.349  1.00  0.00    -0.203 F 
ATOM     86  C   UNL A   1      46.108  35.734  28.732  1.00  0.00     0.198 A 
ATOM     87  C   UNL A   1      46.920  34.803  30.791  1.00  0.00     0.198 A 
ATOM     88  F   UNL A   1      46.315  32.617  31.413  1.00  0.00    -0.203 F 
ATOM     89  F   UNL A   1      46.073  36.741  27.848  1.00  0.00    -0.200 F 
ATOM     90  C   UNL A   1      46.863  35.855  29.890  1.00  0.00     0.200 A 
ATOM     91  F   UNL A   1      47.641  34.923  31.915  1.00  0.00    -0.200 F 
ATOM     92  F   UNL A   1      47.541  36.985  30.134  1.00  0.00    -0.200 F 
ENDBRANCH  59  82
ENDBRANCH  33  34
ENDBRANCH  26  28
ENDBRANCH  25  26
ENDBRANCH  24  25
ENDBRANCH   1  24
TORSDOF 16
ENDMDL
