MODEL 1
REMARK VINA RESULT:     -11.7      0.000      0.000
REMARK SMILES Cc1ccc2oc(CCCC(=O)OCCOC(=O)c3ccc(-c4c5nc(c(-c6c(F)c(F)c(F)c(F)c6F)c6ccc([nH]6)c(-c6c(F)c(F)c(F)c(F)c6F)c6nc(c(-c7c(F)c(F)c(F)c(F)c7F)c7ccc4[nH]7)C=C6)C=C5)cc3)cc(=O)c2c1
REMARK SMILES IDX 14 1 13 2 11 3 12 4 10 5 9 6 8 7 7 8 1 9 2 10 3 11 86 12
REMARK SMILES IDX 4 13 85 14 5 15 83 16 6 17 82 18 84 19 15 20 16 21 17 22
REMARK SMILES IDX 18 23 19 24 20 25 81 26 21 27 80 28 22 29 23 30 24 31 74 32
REMARK SMILES IDX 25 33 79 34 73 35 75 36 26 37 78 38 72 39 71 40 27 42 59 43
REMARK SMILES IDX 39 44 58 45 40 46 43 47 57 48 76 49 41 50 42 51 56 53 77 54
REMARK SMILES IDX 44 55 28 56 29 57 37 58 30 59 31 60 35 61 38 62 32 63 33 64
REMARK SMILES IDX 36 65 34 66 60 67 61 68 69 69 62 70 63 71 67 72 70 73 64 74
REMARK SMILES IDX 65 75 68 76 66 77 45 78 46 79 54 80 47 81 48 82 52 83 55 84
REMARK SMILES IDX 49 85 50 86 53 87 51 88
REMARK H PARENT 75 41 43 52
REMARK Flexibility Score: inf
ROOT
ATOM      1  C   UNL A   1      45.195  20.896  24.664  1.00  0.00     0.274 C 
ENDROOT
BRANCH   1   2
ATOM      2  O   UNL A   1      43.907  20.252  24.624  1.00  0.00    -0.462 OA
BRANCH   2   3
ATOM      3  C   UNL A   1      43.784  19.056  25.244  1.00  0.00     0.305 C 
ATOM      4  O   UNL A   1      44.526  18.097  25.065  1.00  0.00    -0.252 OA
BRANCH   3   5
ATOM      5  C   UNL A   1      42.608  18.992  26.200  1.00  0.00     0.123 C 
BRANCH   5   6
ATOM      6  C   UNL A   1      41.660  20.194  26.246  1.00  0.00     0.020 C 
BRANCH   6   7
ATOM      7  C   UNL A   1      40.150  19.919  26.126  1.00  0.00     0.076 C 
BRANCH   7   8
ATOM      8  C   UNL A   1      39.313  21.156  25.949  1.00  0.00     0.108 A 
ATOM      9  C   UNL A   1      33.957  24.701  25.253  1.00  0.00     0.044 C 
ATOM     10  C   UNL A   1      35.090  23.719  25.224  1.00  0.00    -0.050 A 
ATOM     11  C   UNL A   1      34.921  22.445  24.663  1.00  0.00     0.007 A 
ATOM     12  C   UNL A   1      36.340  24.078  25.751  1.00  0.00     0.019 A 
ATOM     13  C   UNL A   1      35.983  21.539  24.626  1.00  0.00     0.048 A 
ATOM     14  C   UNL A   1      37.392  23.160  25.730  1.00  0.00     0.065 A 
ATOM     15  C   UNL A   1      37.216  21.903  25.164  1.00  0.00     0.138 A 
ATOM     16  C   UNL A   1      38.690  23.469  26.353  1.00  0.00     0.192 A 
ATOM     17  O   UNL A   1      38.218  20.972  25.120  1.00  0.00    -0.461 OA
ATOM     18  C   UNL A   1      39.612  22.330  26.525  1.00  0.00     0.095 A 
ATOM     19  O   UNL A   1      38.977  24.585  26.763  1.00  0.00    -0.289 OA
ENDBRANCH   7   8
ENDBRANCH   6   7
ENDBRANCH   5   6
ENDBRANCH   3   5
ENDBRANCH   2   3
ENDBRANCH   1   2
BRANCH   1  20
ATOM     20  C   UNL A   1      45.220  21.975  25.749  1.00  0.00     0.275 C 
BRANCH  20  21
ATOM     21  O   UNL A   1      43.981  22.708  25.771  1.00  0.00    -0.458 OA
BRANCH  21  22
ATOM     22  C   UNL A   1      44.076  24.002  25.388  1.00  0.00     0.338 C 
ATOM     23  O   UNL A   1      44.501  24.441  24.335  1.00  0.00    -0.246 OA
BRANCH  22  24
ATOM     24  C   UNL A   1      43.430  24.849  26.400  1.00  0.00     0.060 A 
ATOM     25  C   UNL A   1      43.812  26.190  26.465  1.00  0.00     0.016 A 
ATOM     26  C   UNL A   1      42.522  24.323  27.317  1.00  0.00     0.016 A 
ATOM     27  C   UNL A   1      43.292  27.019  27.452  1.00  0.00     0.010 A 
ATOM     28  C   UNL A   1      41.998  25.155  28.311  1.00  0.00     0.010 A 
ATOM     29  C   UNL A   1      42.390  26.504  28.390  1.00  0.00    -0.014 A 
BRANCH  29  30
ATOM     30  C   UNL A   1      41.915  27.374  29.490  1.00  0.00     0.031 A 
ATOM     31  C   UNL A   1      42.660  27.397  30.792  1.00  0.00     0.074 A 
ATOM     32  C   UNL A   1      40.847  28.168  29.301  1.00  0.00     0.049 A 
ATOM     33  N   UNL A   1      42.376  28.036  31.897  1.00  0.00    -0.248 NA
ATOM     34  C   UNL A   1      43.889  26.591  30.859  1.00  0.00     0.031 C 
ATOM     35  C   UNL A   1      40.080  28.269  28.061  1.00  0.00     0.029 A 
ATOM     36  N   UNL A   1      40.226  29.045  30.154  1.00  0.00    -0.354 N 
ATOM     37  C   UNL A   1      43.375  27.695  32.797  1.00  0.00     0.074 A 
ATOM     38  C   UNL A   1      44.268  26.783  32.114  1.00  0.00     0.031 C 
ATOM     39  C   UNL A   1      39.091  29.161  28.230  1.00  0.00     0.029 A 
ATOM     40  C   UNL A   1      39.131  29.661  29.602  1.00  0.00     0.049 A 
ATOM     41  H   UNL A   1      40.536  29.216  31.073  1.00  0.00     0.167 HD
ATOM     42  C   UNL A   1      43.531  28.108  34.078  1.00  0.00     0.037 A 
ATOM     43  C   UNL A   1      38.247  30.515  30.153  1.00  0.00     0.037 A 
ATOM     44  C   UNL A   1      42.651  29.030  34.744  1.00  0.00     0.049 A 
ATOM     45  C   UNL A   1      38.420  30.926  31.589  1.00  0.00     0.074 A 
ATOM     46  C   UNL A   1      42.722  29.511  36.040  1.00  0.00     0.029 A 
ATOM     47  N   UNL A   1      41.537  29.616  34.161  1.00  0.00    -0.354 N 
ATOM     48  N   UNL A   1      39.356  30.583  32.440  1.00  0.00    -0.248 NA
ATOM     49  C   UNL A   1      37.411  31.839  32.143  1.00  0.00     0.031 C 
ATOM     50  C   UNL A   1      41.633  30.364  36.251  1.00  0.00     0.029 A 
ATOM     51  C   UNL A   1      40.906  30.445  35.075  1.00  0.00     0.049 A 
ATOM     52  H   UNL A   1      41.239  29.466  33.236  1.00  0.00     0.167 HD
ATOM     53  C   UNL A   1      39.063  31.251  33.620  1.00  0.00     0.074 A 
ATOM     54  C   UNL A   1      37.867  32.030  33.373  1.00  0.00     0.031 C 
ATOM     55  C   UNL A   1      39.723  31.218  34.804  1.00  0.00     0.037 A 
BRANCH  42  56
ATOM     56  C   UNL A   1      44.682  27.538  34.851  1.00  0.00     0.064 A 
ATOM     57  C   UNL A   1      45.918  28.196  34.926  1.00  0.00     0.173 A 
ATOM     58  C   UNL A   1      44.535  26.328  35.547  1.00  0.00     0.173 A 
ATOM     59  F   UNL A   1      46.112  29.345  34.263  1.00  0.00    -0.203 F 
ATOM     60  C   UNL A   1      46.973  27.652  35.655  1.00  0.00     0.198 A 
ATOM     61  C   UNL A   1      45.585  25.801  36.293  1.00  0.00     0.198 A 
ATOM     62  F   UNL A   1      43.372  25.662  35.506  1.00  0.00    -0.203 F 
ATOM     63  F   UNL A   1      48.158  28.277  35.682  1.00  0.00    -0.200 F 
ATOM     64  C   UNL A   1      46.804  26.460  36.342  1.00  0.00     0.200 A 
ATOM     65  F   UNL A   1      45.417  24.652  36.963  1.00  0.00    -0.200 F 
ATOM     66  F   UNL A   1      47.820  25.940  37.047  1.00  0.00    -0.200 F 
ENDBRANCH  42  56
BRANCH  43  67
ATOM     67  C   UNL A   1      37.111  31.025  29.343  1.00  0.00     0.064 A 
ATOM     68  C   UNL A   1      36.002  30.217  29.064  1.00  0.00     0.173 A 
ATOM     69  C   UNL A   1      37.114  32.332  28.834  1.00  0.00     0.173 A 
ATOM     70  F   UNL A   1      35.967  28.952  29.508  1.00  0.00    -0.203 F 
ATOM     71  C   UNL A   1      34.942  30.692  28.295  1.00  0.00     0.198 A 
ATOM     72  C   UNL A   1      36.042  32.815  28.088  1.00  0.00     0.198 A 
ATOM     73  F   UNL A   1      38.155  33.144  29.072  1.00  0.00    -0.203 F 
ATOM     74  F   UNL A   1      33.910  29.887  28.010  1.00  0.00    -0.200 F 
ATOM     75  C   UNL A   1      34.960  31.993  27.814  1.00  0.00     0.200 A 
ATOM     76  F   UNL A   1      36.060  34.075  27.633  1.00  0.00    -0.200 F 
ATOM     77  F   UNL A   1      33.938  32.452  27.079  1.00  0.00    -0.200 F 
ENDBRANCH  43  67
BRANCH  55  78
ATOM     78  C   UNL A   1      39.183  32.075  35.910  1.00  0.00     0.064 A 
ATOM     79  C   UNL A   1      38.251  31.579  36.833  1.00  0.00     0.173 A 
ATOM     80  C   UNL A   1      39.632  33.394  36.069  1.00  0.00     0.173 A 
ATOM     81  F   UNL A   1      37.780  30.329  36.712  1.00  0.00    -0.203 F 
ATOM     82  C   UNL A   1      37.773  32.382  37.865  1.00  0.00     0.198 A 
ATOM     83  C   UNL A   1      39.170  34.186  37.116  1.00  0.00     0.198 A 
ATOM     84  F   UNL A   1      40.527  33.911  35.214  1.00  0.00    -0.203 F 
ATOM     85  F   UNL A   1      36.853  31.902  38.713  1.00  0.00    -0.200 F 
ATOM     86  C   UNL A   1      38.236  33.682  38.010  1.00  0.00     0.200 A 
ATOM     87  F   UNL A   1      39.626  35.438  37.260  1.00  0.00    -0.200 F 
ATOM     88  F   UNL A   1      37.778  34.451  39.007  1.00  0.00    -0.200 F 
ENDBRANCH  55  78
ENDBRANCH  29  30
ENDBRANCH  22  24
ENDBRANCH  21  22
ENDBRANCH  20  21
ENDBRANCH   1  20
TORSDOF 14
ENDMDL
MODEL 2
REMARK VINA RESULT:     -11.6      4.998     11.304
REMARK SMILES Cc1ccc2oc(CCCC(=O)OCCOC(=O)c3ccc(-c4c5nc(c(-c6c(F)c(F)c(F)c(F)c6F)c6ccc([nH]6)c(-c6c(F)c(F)c(F)c(F)c6F)c6nc(c(-c7c(F)c(F)c(F)c(F)c7F)c7ccc4[nH]7)C=C6)C=C5)cc3)cc(=O)c2c1
REMARK SMILES IDX 14 1 13 2 11 3 12 4 10 5 9 6 8 7 7 8 1 9 2 10 3 11 86 12
REMARK SMILES IDX 4 13 85 14 5 15 83 16 6 17 82 18 84 19 15 20 16 21 17 22
REMARK SMILES IDX 18 23 19 24 20 25 81 26 21 27 80 28 22 29 23 30 24 31 74 32
REMARK SMILES IDX 25 33 79 34 73 35 75 36 26 37 78 38 72 39 71 40 27 42 59 43
REMARK SMILES IDX 39 44 58 45 40 46 43 47 57 48 76 49 41 50 42 51 56 53 77 54
REMARK SMILES IDX 44 55 28 56 29 57 37 58 30 59 31 60 35 61 38 62 32 63 33 64
REMARK SMILES IDX 36 65 34 66 60 67 61 68 69 69 62 70 63 71 67 72 70 73 64 74
REMARK SMILES IDX 65 75 68 76 66 77 45 78 46 79 54 80 47 81 48 82 52 83 55 84
REMARK SMILES IDX 49 85 50 86 53 87 51 88
REMARK H PARENT 75 41 43 52
REMARK Flexibility Score: inf
ROOT
ATOM      1  C   UNL A   1      33.731  34.230  28.411  1.00  0.00     0.274 C 
ENDROOT
BRANCH   1   2
ATOM      2  O   UNL A   1      32.949  34.559  29.575  1.00  0.00    -0.462 OA
BRANCH   2   3
ATOM      3  C   UNL A   1      32.992  35.837  30.018  1.00  0.00     0.305 C 
ATOM      4  O   UNL A   1      32.678  36.818  29.352  1.00  0.00    -0.252 OA
BRANCH   3   5
ATOM      5  C   UNL A   1      33.486  35.963  31.445  1.00  0.00     0.123 C 
BRANCH   5   6
ATOM      6  C   UNL A   1      32.862  35.044  32.500  1.00  0.00     0.020 C 
BRANCH   6   7
ATOM      7  C   UNL A   1      33.653  33.791  32.916  1.00  0.00     0.076 C 
BRANCH   7   8
ATOM      8  C   UNL A   1      35.135  33.895  32.682  1.00  0.00     0.108 A 
ATOM      9  C   UNL A   1      40.621  34.741  29.376  1.00  0.00     0.044 C 
ATOM     10  C   UNL A   1      39.279  34.379  29.940  1.00  0.00    -0.050 A 
ATOM     11  C   UNL A   1      38.290  33.808  29.126  1.00  0.00     0.007 A 
ATOM     12  C   UNL A   1      39.009  34.600  31.298  1.00  0.00     0.019 A 
ATOM     13  C   UNL A   1      37.047  33.460  29.658  1.00  0.00     0.048 A 
ATOM     14  C   UNL A   1      37.756  34.269  31.820  1.00  0.00     0.065 A 
ATOM     15  C   UNL A   1      36.787  33.696  31.007  1.00  0.00     0.138 A 
ATOM     16  C   UNL A   1      37.406  34.567  33.219  1.00  0.00     0.192 A 
ATOM     17  O   UNL A   1      35.546  33.353  31.474  1.00  0.00    -0.461 OA
ATOM     18  C   UNL A   1      35.979  34.442  33.569  1.00  0.00     0.095 A 
ATOM     19  O   UNL A   1      38.228  34.954  34.038  1.00  0.00    -0.289 OA
ENDBRANCH   7   8
ENDBRANCH   6   7
ENDBRANCH   5   6
ENDBRANCH   3   5
ENDBRANCH   2   3
ENDBRANCH   1   2
BRANCH   1  20
ATOM     20  C   UNL A   1      33.370  32.833  27.901  1.00  0.00     0.275 C 
BRANCH  20  21
ATOM     21  O   UNL A   1      34.165  31.827  28.555  1.00  0.00    -0.458 OA
BRANCH  21  22
ATOM     22  C   UNL A   1      34.375  30.704  27.830  1.00  0.00     0.338 C 
ATOM     23  O   UNL A   1      33.679  30.247  26.941  1.00  0.00    -0.246 OA
BRANCH  22  24
ATOM     24  C   UNL A   1      35.694  30.155  28.169  1.00  0.00     0.060 A 
ATOM     25  C   UNL A   1      35.891  29.693  29.472  1.00  0.00     0.016 A 
ATOM     26  C   UNL A   1      36.743  30.162  27.252  1.00  0.00     0.016 A 
ATOM     27  C   UNL A   1      37.141  29.236  29.872  1.00  0.00     0.010 A 
ATOM     28  C   UNL A   1      38.002  29.703  27.653  1.00  0.00     0.010 A 
ATOM     29  C   UNL A   1      38.209  29.249  28.968  1.00  0.00    -0.014 A 
BRANCH  29  30
ATOM     30  C   UNL A   1      39.555  28.846  29.433  1.00  0.00     0.031 A 
ATOM     31  C   UNL A   1      40.280  29.696  30.434  1.00  0.00     0.074 A 
ATOM     32  C   UNL A   1      40.101  27.700  28.989  1.00  0.00     0.049 A 
ATOM     33  N   UNL A   1      41.486  29.556  30.921  1.00  0.00    -0.248 NA
ATOM     34  C   UNL A   1      39.549  30.861  30.956  1.00  0.00     0.031 C 
ATOM     35  C   UNL A   1      39.465  26.768  28.059  1.00  0.00     0.029 A 
ATOM     36  N   UNL A   1      41.315  27.124  29.268  1.00  0.00    -0.354 N 
ATOM     37  C   UNL A   1      41.669  30.624  31.788  1.00  0.00     0.074 A 
ATOM     38  C   UNL A   1      40.454  31.410  31.755  1.00  0.00     0.031 C 
ATOM     39  C   UNL A   1      40.293  25.733  27.845  1.00  0.00     0.029 A 
ATOM     40  C   UNL A   1      41.531  25.951  28.589  1.00  0.00     0.049 A 
ATOM     41  H   UNL A   1      41.967  27.514  29.894  1.00  0.00     0.167 HD
ATOM     42  C   UNL A   1      42.753  30.917  32.545  1.00  0.00     0.037 A 
ATOM     43  C   UNL A   1      42.618  25.156  28.555  1.00  0.00     0.037 A 
ATOM     44  C   UNL A   1      43.950  30.120  32.589  1.00  0.00     0.049 A 
ATOM     45  C   UNL A   1      43.824  25.527  29.373  1.00  0.00     0.074 A 
ATOM     46  C   UNL A   1      45.104  30.332  33.323  1.00  0.00     0.029 A 
ATOM     47  N   UNL A   1      44.143  28.949  31.869  1.00  0.00    -0.354 N 
ATOM     48  N   UNL A   1      43.996  26.549  30.176  1.00  0.00    -0.248 NA
ATOM     49  C   UNL A   1      44.988  24.637  29.277  1.00  0.00     0.031 C 
ATOM     50  C   UNL A   1      46.008  29.307  33.023  1.00  0.00     0.029 A 
ATOM     51  C   UNL A   1      45.402  28.435  32.132  1.00  0.00     0.049 A 
ATOM     52  H   UNL A   1      43.483  28.545  31.261  1.00  0.00     0.167 HD
ATOM     53  C   UNL A   1      45.276  26.415  30.695  1.00  0.00     0.074 A 
ATOM     54  C   UNL A   1      45.834  25.206  30.126  1.00  0.00     0.031 C 
ATOM     55  C   UNL A   1      45.932  27.225  31.562  1.00  0.00     0.037 A 
BRANCH  42  56
ATOM     56  C   UNL A   1      42.704  32.172  33.362  1.00  0.00     0.064 A 
ATOM     57  C   UNL A   1      42.330  32.159  34.714  1.00  0.00     0.173 A 
ATOM     58  C   UNL A   1      43.061  33.403  32.789  1.00  0.00     0.173 A 
ATOM     59  F   UNL A   1      41.963  31.010  35.300  1.00  0.00    -0.203 F 
ATOM     60  C   UNL A   1      42.297  33.336  35.457  1.00  0.00     0.198 A 
ATOM     61  C   UNL A   1      43.050  34.573  33.543  1.00  0.00     0.198 A 
ATOM     62  F   UNL A   1      43.427  33.467  31.500  1.00  0.00    -0.203 F 
ATOM     63  F   UNL A   1      41.899  33.307  36.736  1.00  0.00    -0.200 F 
ATOM     64  C   UNL A   1      42.663  34.540  34.874  1.00  0.00     0.200 A 
ATOM     65  F   UNL A   1      43.411  35.735  32.979  1.00  0.00    -0.200 F 
ATOM     66  F   UNL A   1      42.634  35.671  35.593  1.00  0.00    -0.200 F 
ENDBRANCH  42  56
BRANCH  43  67
ATOM     67  C   UNL A   1      42.615  23.938  27.705  1.00  0.00     0.064 A 
ATOM     68  C   UNL A   1      42.972  24.001  26.352  1.00  0.00     0.173 A 
ATOM     69  C   UNL A   1      42.257  22.688  28.231  1.00  0.00     0.173 A 
ATOM     70  F   UNL A   1      43.298  25.178  25.800  1.00  0.00    -0.203 F 
ATOM     71  C   UNL A   1      42.960  22.861  25.552  1.00  0.00     0.198 A 
ATOM     72  C   UNL A   1      42.270  21.544  27.437  1.00  0.00     0.198 A 
ATOM     73  F   UNL A   1      41.905  22.577  29.520  1.00  0.00    -0.203 F 
ATOM     74  F   UNL A   1      43.268  22.953  24.252  1.00  0.00    -0.200 F 
ATOM     75  C   UNL A   1      42.615  21.633  26.097  1.00  0.00     0.200 A 
ATOM     76  F   UNL A   1      41.945  20.358  27.969  1.00  0.00    -0.200 F 
ATOM     77  F   UNL A   1      42.609  20.535  25.329  1.00  0.00    -0.200 F 
ENDBRANCH  43  67
BRANCH  55  78
ATOM     78  C   UNL A   1      47.314  26.809  31.972  1.00  0.00     0.064 A 
ATOM     79  C   UNL A   1      48.450  27.271  31.293  1.00  0.00     0.173 A 
ATOM     80  C   UNL A   1      47.501  25.969  33.080  1.00  0.00     0.173 A 
ATOM     81  F   UNL A   1      48.319  28.062  30.218  1.00  0.00    -0.203 F 
ATOM     82  C   UNL A   1      49.726  26.889  31.697  1.00  0.00     0.198 A 
ATOM     83  C   UNL A   1      48.780  25.609  33.496  1.00  0.00     0.198 A 
ATOM     84  F   UNL A   1      46.445  25.506  33.765  1.00  0.00    -0.203 F 
ATOM     85  F   UNL A   1      50.798  27.310  31.011  1.00  0.00    -0.200 F 
ATOM     86  C   UNL A   1      49.891  26.064  32.801  1.00  0.00     0.200 A 
ATOM     87  F   UNL A   1      48.937  24.820  34.567  1.00  0.00    -0.200 F 
ATOM     88  F   UNL A   1      51.121  25.703  33.191  1.00  0.00    -0.200 F 
ENDBRANCH  55  78
ENDBRANCH  29  30
ENDBRANCH  22  24
ENDBRANCH  21  22
ENDBRANCH  20  21
ENDBRANCH   1  20
TORSDOF 14
ENDMDL
MODEL 3
REMARK VINA RESULT:     -11.3      4.082      6.209
REMARK SMILES Cc1ccc2oc(CCCC(=O)OCCOC(=O)c3ccc(-c4c5nc(c(-c6c(F)c(F)c(F)c(F)c6F)c6ccc([nH]6)c(-c6c(F)c(F)c(F)c(F)c6F)c6nc(c(-c7c(F)c(F)c(F)c(F)c7F)c7ccc4[nH]7)C=C6)C=C5)cc3)cc(=O)c2c1
REMARK SMILES IDX 14 1 13 2 11 3 12 4 10 5 9 6 8 7 7 8 1 9 2 10 3 11 86 12
REMARK SMILES IDX 4 13 85 14 5 15 83 16 6 17 82 18 84 19 15 20 16 21 17 22
REMARK SMILES IDX 18 23 19 24 20 25 81 26 21 27 80 28 22 29 23 30 24 31 74 32
REMARK SMILES IDX 25 33 79 34 73 35 75 36 26 37 78 38 72 39 71 40 27 42 59 43
REMARK SMILES IDX 39 44 58 45 40 46 43 47 57 48 76 49 41 50 42 51 56 53 77 54
REMARK SMILES IDX 44 55 28 56 29 57 37 58 30 59 31 60 35 61 38 62 32 63 33 64
REMARK SMILES IDX 36 65 34 66 60 67 61 68 69 69 62 70 63 71 67 72 70 73 64 74
REMARK SMILES IDX 65 75 68 76 66 77 45 78 46 79 54 80 47 81 48 82 52 83 55 84
REMARK SMILES IDX 49 85 50 86 53 87 51 88
REMARK H PARENT 75 41 43 52
REMARK Flexibility Score: inf
ROOT
ATOM      1  C   UNL A   1      44.345  18.922  23.922  1.00  0.00     0.274 C 
ENDROOT
BRANCH   1   2
ATOM      2  O   UNL A   1      45.710  18.506  24.120  1.00  0.00    -0.462 OA
BRANCH   2   3
ATOM      3  C   UNL A   1      46.486  19.267  24.927  1.00  0.00     0.305 C 
ATOM      4  O   UNL A   1      47.018  18.873  25.959  1.00  0.00    -0.252 OA
BRANCH   3   5
ATOM      5  C   UNL A   1      46.639  20.695  24.442  1.00  0.00     0.123 C 
BRANCH   5   6
ATOM      6  C   UNL A   1      45.843  21.784  25.169  1.00  0.00     0.020 C 
BRANCH   6   7
ATOM      7  C   UNL A   1      45.240  22.917  24.319  1.00  0.00     0.076 C 
BRANCH   7   8
ATOM      8  C   UNL A   1      45.728  24.290  24.691  1.00  0.00     0.108 A 
ATOM      9  C   UNL A   1      45.558  30.183  27.334  1.00  0.00     0.044 C 
ATOM     10  C   UNL A   1      45.350  28.876  26.627  1.00  0.00    -0.050 A 
ATOM     11  C   UNL A   1      44.065  28.464  26.246  1.00  0.00     0.007 A 
ATOM     12  C   UNL A   1      46.451  28.059  26.331  1.00  0.00     0.019 A 
ATOM     13  C   UNL A   1      43.878  27.254  25.576  1.00  0.00     0.048 A 
ATOM     14  C   UNL A   1      46.255  26.840  25.679  1.00  0.00     0.065 A 
ATOM     15  C   UNL A   1      44.979  26.445  25.298  1.00  0.00     0.138 A 
ATOM     16  C   UNL A   1      47.374  25.916  25.430  1.00  0.00     0.192 A 
ATOM     17  O   UNL A   1      44.738  25.260  24.656  1.00  0.00    -0.461 OA
ATOM     18  C   UNL A   1      47.005  24.552  25.006  1.00  0.00     0.095 A 
ATOM     19  O   UNL A   1      48.542  26.227  25.617  1.00  0.00    -0.289 OA
ENDBRANCH   7   8
ENDBRANCH   6   7
ENDBRANCH   5   6
ENDBRANCH   3   5
ENDBRANCH   2   3
ENDBRANCH   1   2
BRANCH   1  20
ATOM     20  C   UNL A   1      43.587  18.923  25.251  1.00  0.00     0.275 C 
BRANCH  20  21
ATOM     21  O   UNL A   1      42.312  19.576  25.114  1.00  0.00    -0.458 OA
BRANCH  21  22
ATOM     22  C   UNL A   1      41.683  19.852  26.280  1.00  0.00     0.338 C 
ATOM     23  O   UNL A   1      40.982  19.111  26.945  1.00  0.00    -0.246 OA
BRANCH  22  24
ATOM     24  C   UNL A   1      42.096  21.183  26.742  1.00  0.00     0.060 A 
ATOM     25  C   UNL A   1      42.400  21.335  28.096  1.00  0.00     0.016 A 
ATOM     26  C   UNL A   1      42.113  22.280  25.883  1.00  0.00     0.016 A 
ATOM     27  C   UNL A   1      42.721  22.587  28.606  1.00  0.00     0.010 A 
ATOM     28  C   UNL A   1      42.435  23.541  26.394  1.00  0.00     0.010 A 
ATOM     29  C   UNL A   1      42.729  23.702  27.760  1.00  0.00    -0.014 A 
BRANCH  29  30
ATOM     30  C   UNL A   1      42.982  25.043  28.333  1.00  0.00     0.031 A 
ATOM     31  C   UNL A   1      44.377  25.429  28.729  1.00  0.00     0.074 A 
ATOM     32  C   UNL A   1      41.971  25.922  28.455  1.00  0.00     0.049 A 
ATOM     33  N   UNL A   1      44.802  26.525  29.303  1.00  0.00    -0.248 NA
ATOM     34  C   UNL A   1      45.436  24.450  28.439  1.00  0.00     0.031 C 
ATOM     35  C   UNL A   1      40.588  25.675  28.052  1.00  0.00     0.029 A 
ATOM     36  N   UNL A   1      41.957  27.201  28.949  1.00  0.00    -0.354 N 
ATOM     37  C   UNL A   1      46.170  26.359  29.465  1.00  0.00     0.074 A 
ATOM     38  C   UNL A   1      46.505  25.054  28.937  1.00  0.00     0.031 C 
ATOM     39  C   UNL A   1      39.856  26.770  28.312  1.00  0.00     0.029 A 
ATOM     40  C   UNL A   1      40.710  27.776  28.937  1.00  0.00     0.049 A 
ATOM     41  H   UNL A   1      42.761  27.662  29.280  1.00  0.00     0.167 HD
ATOM     42  C   UNL A   1      47.064  27.222  30.004  1.00  0.00     0.037 A 
ATOM     43  C   UNL A   1      40.304  28.974  29.402  1.00  0.00     0.037 A 
ATOM     44  C   UNL A   1      46.727  28.527  30.508  1.00  0.00     0.049 A 
ATOM     45  C   UNL A   1      41.310  29.897  30.033  1.00  0.00     0.074 A 
ATOM     46  C   UNL A   1      47.560  29.477  31.074  1.00  0.00     0.029 A 
ATOM     47  N   UNL A   1      45.449  29.068  30.501  1.00  0.00    -0.354 N 
ATOM     48  N   UNL A   1      42.599  29.725  30.200  1.00  0.00    -0.248 NA
ATOM     49  C   UNL A   1      40.804  31.177  30.544  1.00  0.00     0.031 C 
ATOM     50  C   UNL A   1      46.781  30.580  31.439  1.00  0.00     0.029 A 
ATOM     51  C   UNL A   1      45.469  30.334  31.065  1.00  0.00     0.049 A 
ATOM     52  H   UNL A   1      44.648  28.620  30.149  1.00  0.00     0.167 HD
ATOM     53  C   UNL A   1      43.060  30.879  30.816  1.00  0.00     0.074 A 
ATOM     54  C   UNL A   1      41.916  31.751  30.982  1.00  0.00     0.031 C 
ATOM     55  C   UNL A   1      44.320  31.188  31.211  1.00  0.00     0.037 A 
BRANCH  42  56
ATOM     56  C   UNL A   1      48.488  26.767  30.104  1.00  0.00     0.064 A 
ATOM     57  C   UNL A   1      49.455  27.156  29.166  1.00  0.00     0.173 A 
ATOM     58  C   UNL A   1      48.895  25.949  31.170  1.00  0.00     0.173 A 
ATOM     59  F   UNL A   1      49.111  27.922  28.121  1.00  0.00    -0.203 F 
ATOM     60  C   UNL A   1      50.775  26.726  29.281  1.00  0.00     0.198 A 
ATOM     61  C   UNL A   1      50.220  25.542  31.294  1.00  0.00     0.198 A 
ATOM     62  F   UNL A   1      48.007  25.551  32.094  1.00  0.00    -0.203 F 
ATOM     63  F   UNL A   1      51.675  27.077  28.352  1.00  0.00    -0.200 F 
ATOM     64  C   UNL A   1      51.157  25.926  30.347  1.00  0.00     0.200 A 
ATOM     65  F   UNL A   1      50.589  24.774  32.329  1.00  0.00    -0.200 F 
ATOM     66  F   UNL A   1      52.429  25.516  30.458  1.00  0.00    -0.200 F 
ENDBRANCH  42  56
BRANCH  43  67
ATOM     67  C   UNL A   1      38.873  29.358  29.297  1.00  0.00     0.064 A 
ATOM     68  C   UNL A   1      38.304  29.692  28.062  1.00  0.00     0.173 A 
ATOM     69  C   UNL A   1      38.048  29.398  30.431  1.00  0.00     0.173 A 
ATOM     70  F   UNL A   1      39.059  29.692  26.955  1.00  0.00    -0.203 F 
ATOM     71  C   UNL A   1      36.964  30.062  27.965  1.00  0.00     0.198 A 
ATOM     72  C   UNL A   1      36.703  29.743  30.330  1.00  0.00     0.198 A 
ATOM     73  F   UNL A   1      38.548  29.089  31.637  1.00  0.00    -0.203 F 
ATOM     74  F   UNL A   1      36.452  30.414  26.778  1.00  0.00    -0.200 F 
ATOM     75  C   UNL A   1      36.164  30.081  29.098  1.00  0.00     0.200 A 
ATOM     76  F   UNL A   1      35.931  29.751  31.425  1.00  0.00    -0.200 F 
ATOM     77  F   UNL A   1      34.874  30.432  29.004  1.00  0.00    -0.200 F 
ENDBRANCH  43  67
BRANCH  55  78
ATOM     78  C   UNL A   1      44.529  32.537  31.832  1.00  0.00     0.064 A 
ATOM     79  C   UNL A   1      44.427  32.730  33.218  1.00  0.00     0.173 A 
ATOM     80  C   UNL A   1      44.873  33.638  31.035  1.00  0.00     0.173 A 
ATOM     81  F   UNL A   1      44.085  31.709  34.018  1.00  0.00    -0.203 F 
ATOM     82  C   UNL A   1      44.641  33.984  33.780  1.00  0.00     0.198 A 
ATOM     83  C   UNL A   1      45.110  34.886  31.604  1.00  0.00     0.198 A 
ATOM     84  F   UNL A   1      44.988  33.502  29.706  1.00  0.00    -0.203 F 
ATOM     85  F   UNL A   1      44.500  34.158  35.101  1.00  0.00    -0.200 F 
ATOM     86  C   UNL A   1      44.989  35.060  32.975  1.00  0.00     0.200 A 
ATOM     87  F   UNL A   1      45.455  35.921  30.826  1.00  0.00    -0.200 F 
ATOM     88  F   UNL A   1      45.199  36.266  33.520  1.00  0.00    -0.200 F 
ENDBRANCH  55  78
ENDBRANCH  29  30
ENDBRANCH  22  24
ENDBRANCH  21  22
ENDBRANCH  20  21
ENDBRANCH   1  20
TORSDOF 14
ENDMDL
