MODEL 1
REMARK VINA RESULT:     -14.6      0.000      0.000
REMARK SMILES Cc1cc(C(=O)OCCOC(=O)c2ccc(-c3c4nc(c(-c5c(F)c(F)c(F)c(F)c5F)c5ccc([nH]5)c(-c5c(F)c(F)c(F)c(F)c5F)c5nc(c(-c6c(F)c(F)c(F)c(F)c6F)c6ccc3[nH]6)C=C5)C=C4)cc2)ccc1NC(=O)c1ccc(=O)n(CCOc2ccccc2)n1
REMARK SMILES IDX 5 1 6 2 4 3 1 4 2 5 3 6 78 7 77 8 76 9 79 10 80 11 81 13
REMARK SMILES IDX 82 14 83 15 97 16 84 17 87 18 85 19 86 20 88 21 89 22 90 23
REMARK SMILES IDX 91 24 92 25 96 26 93 27 95 28 94 29 7 30 8 31 9 32 10 33
REMARK SMILES IDX 11 34 12 35 13 36 14 37 75 38 15 39 74 40 16 41 17 42 18 43
REMARK SMILES IDX 68 44 19 45 73 46 67 47 69 48 20 49 72 50 66 51 65 52 21 54
REMARK SMILES IDX 53 55 33 56 52 57 34 58 37 59 51 60 70 61 35 62 36 63 50 65
REMARK SMILES IDX 71 66 38 67 22 68 23 69 31 70 24 71 25 72 29 73 32 74 26 75
REMARK SMILES IDX 27 76 30 77 28 78 54 79 55 80 63 81 56 82 57 83 61 84 64 85
REMARK SMILES IDX 58 86 59 87 62 88 60 89 39 90 40 91 48 92 41 93 42 94 46 95
REMARK SMILES IDX 49 96 43 97 44 98 47 99 45 100
REMARK H PARENT 79 12 69 53 37 64
REMARK Flexibility Score: inf
ROOT
ATOM      1  C   UNL A   1      31.972  29.616  26.241  1.00  0.00     0.338 C 
ATOM      2  O   UNL A   1      31.864  30.823  26.439  1.00  0.00    -0.246 OA
ENDROOT
BRANCH   1   3
ATOM      3  C   UNL A   1      31.384  29.066  25.012  1.00  0.00     0.060 A 
ATOM      4  C   UNL A   1      30.023  25.751  23.650  1.00  0.00     0.046 C 
ATOM      5  C   UNL A   1      30.813  27.030  23.722  1.00  0.00    -0.027 A 
ATOM      6  C   UNL A   1      30.663  27.861  24.885  1.00  0.00     0.021 A 
ATOM      7  C   UNL A   1      31.826  27.344  22.807  1.00  0.00     0.044 A 
ATOM      8  C   UNL A   1      32.563  28.460  23.117  1.00  0.00     0.027 A 
ATOM      9  C   UNL A   1      32.223  29.446  24.006  1.00  0.00     0.018 A 
BRANCH   7  10
ATOM     10  N   UNL A   1      32.170  26.596  21.646  1.00  0.00    -0.320 N 
ATOM     11  C   UNL A   1      32.874  25.379  21.526  1.00  0.00     0.276 C 
ATOM     12  H   UNL A   1      31.870  26.988  20.795  1.00  0.00     0.170 HD
ATOM     13  O   UNL A   1      33.200  24.931  20.432  1.00  0.00    -0.267 OA
BRANCH  11  14
ATOM     14  C   UNL A   1      33.314  24.615  22.783  1.00  0.00     0.149 A 
ATOM     15  C   UNL A   1      34.240  25.344  23.680  1.00  0.00     0.042 A 
ATOM     16  N   UNL A   1      32.720  23.489  23.085  1.00  0.00    -0.164 NA
ATOM     17  C   UNL A   1      34.088  25.088  24.981  1.00  0.00     0.076 A 
ATOM     18  N   UNL A   1      32.714  23.149  24.457  1.00  0.00    -0.226 N 
ATOM     19  C   UNL A   1      33.085  24.092  25.423  1.00  0.00     0.266 A 
ATOM     20  O   UNL A   1      32.615  24.186  26.554  1.00  0.00    -0.268 OA
BRANCH  18  21
ATOM     21  C   UNL A   1      31.847  22.025  24.848  1.00  0.00     0.190 C 
BRANCH  21  22
ATOM     22  C   UNL A   1      32.318  20.667  24.303  1.00  0.00     0.253 C 
BRANCH  22  23
ATOM     23  O   UNL A   1      32.022  19.553  25.175  1.00  0.00    -0.492 OA
BRANCH  23  24
ATOM     24  C   UNL A   1      32.605  18.395  24.745  1.00  0.00     0.119 A 
ATOM     25  C   UNL A   1      32.972  18.207  23.420  1.00  0.00     0.046 A 
ATOM     26  C   UNL A   1      32.771  17.359  25.651  1.00  0.00     0.046 A 
ATOM     27  C   UNL A   1      33.653  17.039  23.056  1.00  0.00     0.004 A 
ATOM     28  C   UNL A   1      33.537  16.243  25.325  1.00  0.00     0.004 A 
ATOM     29  C   UNL A   1      33.991  16.089  24.022  1.00  0.00     0.000 A 
ENDBRANCH  23  24
ENDBRANCH  22  23
ENDBRANCH  21  22
ENDBRANCH  18  21
ENDBRANCH  11  14
ENDBRANCH   7  10
ENDBRANCH   1   3
BRANCH   1  30
ATOM     30  O   UNL A   1      32.299  28.692  27.170  1.00  0.00    -0.458 OA
BRANCH  30  31
ATOM     31  C   UNL A   1      33.633  28.190  26.989  1.00  0.00     0.275 C 
BRANCH  31  32
ATOM     32  C   UNL A   1      34.665  29.309  26.833  1.00  0.00     0.275 C 
BRANCH  32  33
ATOM     33  O   UNL A   1      35.056  30.090  28.001  1.00  0.00    -0.458 OA
BRANCH  33  34
ATOM     34  C   UNL A   1      36.246  30.707  28.181  1.00  0.00     0.338 C 
ATOM     35  O   UNL A   1      36.374  31.929  28.149  1.00  0.00    -0.246 OA
BRANCH  34  36
ATOM     36  C   UNL A   1      37.408  29.837  28.416  1.00  0.00     0.060 A 
ATOM     37  C   UNL A   1      37.400  28.989  29.541  1.00  0.00     0.016 A 
ATOM     38  C   UNL A   1      38.403  29.753  27.449  1.00  0.00     0.016 A 
ATOM     39  C   UNL A   1      38.336  27.973  29.648  1.00  0.00     0.010 A 
ATOM     40  C   UNL A   1      39.238  28.670  27.469  1.00  0.00     0.010 A 
ATOM     41  C   UNL A   1      39.237  27.830  28.596  1.00  0.00    -0.014 A 
BRANCH  41  42
ATOM     42  C   UNL A   1      40.501  27.150  28.758  1.00  0.00     0.031 A 
ATOM     43  C   UNL A   1      40.649  25.727  28.438  1.00  0.00     0.074 A 
ATOM     44  C   UNL A   1      41.454  28.082  28.992  1.00  0.00     0.049 A 
ATOM     45  N   UNL A   1      41.670  25.033  28.783  1.00  0.00    -0.248 NA
ATOM     46  C   UNL A   1      39.647  24.930  27.733  1.00  0.00     0.031 C 
ATOM     47  C   UNL A   1      42.896  28.071  28.891  1.00  0.00     0.029 A 
ATOM     48  N   UNL A   1      41.173  29.359  29.532  1.00  0.00    -0.354 N 
ATOM     49  C   UNL A   1      41.641  23.850  28.070  1.00  0.00     0.074 A 
ATOM     50  C   UNL A   1      40.298  23.771  27.553  1.00  0.00     0.031 C 
ATOM     51  C   UNL A   1      43.375  29.081  29.652  1.00  0.00     0.029 A 
ATOM     52  C   UNL A   1      42.243  29.675  30.362  1.00  0.00     0.049 A 
ATOM     53  H   UNL A   1      40.380  29.914  29.355  1.00  0.00     0.167 HD
ATOM     54  C   UNL A   1      42.833  23.205  27.886  1.00  0.00     0.037 A 
ATOM     55  C   UNL A   1      42.005  29.603  31.706  1.00  0.00     0.037 A 
ATOM     56  C   UNL A   1      43.866  23.928  28.632  1.00  0.00     0.049 A 
ATOM     57  C   UNL A   1      42.779  28.440  32.274  1.00  0.00     0.074 A 
ATOM     58  C   UNL A   1      44.736  24.936  28.246  1.00  0.00     0.029 A 
ATOM     59  N   UNL A   1      43.784  23.981  30.020  1.00  0.00    -0.354 N 
ATOM     60  N   UNL A   1      42.950  27.291  31.670  1.00  0.00    -0.248 NA
ATOM     61  C   UNL A   1      43.547  28.572  33.503  1.00  0.00     0.031 C 
ATOM     62  C   UNL A   1      45.080  25.671  29.414  1.00  0.00     0.029 A 
ATOM     63  C   UNL A   1      44.425  25.109  30.500  1.00  0.00     0.049 A 
ATOM     64  H   UNL A   1      43.333  23.310  30.581  1.00  0.00     0.167 HD
ATOM     65  C   UNL A   1      43.913  26.586  32.345  1.00  0.00     0.074 A 
ATOM     66  C   UNL A   1      44.236  27.420  33.492  1.00  0.00     0.031 C 
ATOM     67  C   UNL A   1      44.447  25.400  31.925  1.00  0.00     0.037 A 
BRANCH  54  68
ATOM     68  C   UNL A   1      43.173  22.143  26.853  1.00  0.00     0.064 A 
ATOM     69  C   UNL A   1      42.538  20.875  26.914  1.00  0.00     0.173 A 
ATOM     70  C   UNL A   1      44.126  22.260  25.823  1.00  0.00     0.173 A 
ATOM     71  F   UNL A   1      41.564  20.623  27.800  1.00  0.00    -0.203 F 
ATOM     72  C   UNL A   1      42.874  19.811  26.071  1.00  0.00     0.198 A 
ATOM     73  C   UNL A   1      44.469  21.189  24.983  1.00  0.00     0.198 A 
ATOM     74  F   UNL A   1      44.740  23.416  25.559  1.00  0.00    -0.203 F 
ATOM     75  F   UNL A   1      42.246  18.634  26.202  1.00  0.00    -0.200 F 
ATOM     76  C   UNL A   1      43.851  19.963  25.113  1.00  0.00     0.200 A 
ATOM     77  F   UNL A   1      45.408  21.360  24.040  1.00  0.00    -0.200 F 
ATOM     78  F   UNL A   1      44.182  18.943  24.309  1.00  0.00    -0.200 F 
ENDBRANCH  54  68
BRANCH  55  79
ATOM     79  C   UNL A   1      40.634  30.061  32.134  1.00  0.00     0.064 A 
ATOM     80  C   UNL A   1      40.188  31.341  31.720  1.00  0.00     0.173 A 
ATOM     81  C   UNL A   1      39.666  29.229  32.713  1.00  0.00     0.173 A 
ATOM     82  F   UNL A   1      41.057  32.208  31.172  1.00  0.00    -0.203 F 
ATOM     83  C   UNL A   1      38.846  31.723  31.779  1.00  0.00     0.198 A 
ATOM     84  C   UNL A   1      38.320  29.625  32.796  1.00  0.00     0.198 A 
ATOM     85  F   UNL A   1      39.989  27.999  33.136  1.00  0.00    -0.203 F 
ATOM     86  F   UNL A   1      38.459  32.898  31.260  1.00  0.00    -0.200 F 
ATOM     87  C   UNL A   1      37.909  30.859  32.310  1.00  0.00     0.200 A 
ATOM     88  F   UNL A   1      37.396  28.770  33.262  1.00  0.00    -0.200 F 
ATOM     89  F   UNL A   1      36.607  31.180  32.295  1.00  0.00    -0.200 F 
ENDBRANCH  55  79
BRANCH  67  90
ATOM     90  C   UNL A   1      45.152  24.435  32.844  1.00  0.00     0.064 A 
ATOM     91  C   UNL A   1      46.432  24.678  33.369  1.00  0.00     0.173 A 
ATOM     92  C   UNL A   1      44.481  23.306  33.371  1.00  0.00     0.173 A 
ATOM     93  F   UNL A   1      47.109  25.799  33.081  1.00  0.00    -0.203 F 
ATOM     94  C   UNL A   1      47.039  23.804  34.267  1.00  0.00     0.198 A 
ATOM     95  C   UNL A   1      45.056  22.486  34.336  1.00  0.00     0.198 A 
ATOM     96  F   UNL A   1      43.234  22.982  32.998  1.00  0.00    -0.203 F 
ATOM     97  F   UNL A   1      48.293  24.044  34.672  1.00  0.00    -0.200 F 
ATOM     98  C   UNL A   1      46.348  22.716  34.760  1.00  0.00     0.200 A 
ATOM     99  F   UNL A   1      44.341  21.485  34.869  1.00  0.00    -0.200 F 
ATOM    100  F   UNL A   1      46.915  21.908  35.664  1.00  0.00    -0.200 F 
ENDBRANCH  67  90
ENDBRANCH  41  42
ENDBRANCH  34  36
ENDBRANCH  33  34
ENDBRANCH  32  33
ENDBRANCH  31  32
ENDBRANCH  30  31
ENDBRANCH   1  30
TORSDOF 17
ENDMDL
MODEL 2
REMARK VINA RESULT:     -14.2      3.770      9.579
REMARK SMILES Cc1cc(C(=O)OCCOC(=O)c2ccc(-c3c4nc(c(-c5c(F)c(F)c(F)c(F)c5F)c5ccc([nH]5)c(-c5c(F)c(F)c(F)c(F)c5F)c5nc(c(-c6c(F)c(F)c(F)c(F)c6F)c6ccc3[nH]6)C=C5)C=C4)cc2)ccc1NC(=O)c1ccc(=O)n(CCOc2ccccc2)n1
REMARK SMILES IDX 5 1 6 2 4 3 1 4 2 5 3 6 78 7 77 8 76 9 79 10 80 11 81 13
REMARK SMILES IDX 82 14 83 15 97 16 84 17 87 18 85 19 86 20 88 21 89 22 90 23
REMARK SMILES IDX 91 24 92 25 96 26 93 27 95 28 94 29 7 30 8 31 9 32 10 33
REMARK SMILES IDX 11 34 12 35 13 36 14 37 75 38 15 39 74 40 16 41 17 42 18 43
REMARK SMILES IDX 68 44 19 45 73 46 67 47 69 48 20 49 72 50 66 51 65 52 21 54
REMARK SMILES IDX 53 55 33 56 52 57 34 58 37 59 51 60 70 61 35 62 36 63 50 65
REMARK SMILES IDX 71 66 38 67 22 68 23 69 31 70 24 71 25 72 29 73 32 74 26 75
REMARK SMILES IDX 27 76 30 77 28 78 54 79 55 80 63 81 56 82 57 83 61 84 64 85
REMARK SMILES IDX 58 86 59 87 62 88 60 89 39 90 40 91 48 92 41 93 42 94 46 95
REMARK SMILES IDX 49 96 43 97 44 98 47 99 45 100
REMARK H PARENT 79 12 69 53 37 64
REMARK Flexibility Score: inf
ROOT
ATOM      1  C   UNL A   1      34.641  22.714  26.789  1.00  0.00     0.338 C 
ATOM      2  O   UNL A   1      34.740  21.506  26.978  1.00  0.00    -0.246 OA
ENDROOT
BRANCH   1   3
ATOM      3  C   UNL A   1      33.379  23.368  27.162  1.00  0.00     0.060 A 
ATOM      4  C   UNL A   1      29.606  22.690  27.112  1.00  0.00     0.046 C 
ATOM      5  C   UNL A   1      30.915  23.406  26.914  1.00  0.00    -0.027 A 
ATOM      6  C   UNL A   1      32.123  22.749  27.331  1.00  0.00     0.021 A 
ATOM      7  C   UNL A   1      31.023  24.586  26.169  1.00  0.00     0.044 A 
ATOM      8  C   UNL A   1      32.309  25.013  25.940  1.00  0.00     0.027 A 
ATOM      9  C   UNL A   1      33.436  24.613  26.607  1.00  0.00     0.018 A 
BRANCH   7  10
ATOM     10  N   UNL A   1      29.945  25.328  25.609  1.00  0.00    -0.320 N 
ATOM     11  C   UNL A   1      29.715  25.729  24.276  1.00  0.00     0.276 C 
ATOM     12  H   UNL A   1      29.253  25.604  26.252  1.00  0.00     0.170 HD
ATOM     13  O   UNL A   1      28.792  26.482  23.982  1.00  0.00    -0.267 OA
BRANCH  11  14
ATOM     14  C   UNL A   1      30.669  25.281  23.160  1.00  0.00     0.149 A 
ATOM     15  C   UNL A   1      31.427  26.368  22.496  1.00  0.00     0.042 A 
ATOM     16  N   UNL A   1      30.902  24.005  22.994  1.00  0.00    -0.164 NA
ATOM     17  C   UNL A   1      32.659  26.040  22.101  1.00  0.00     0.076 A 
ATOM     18  N   UNL A   1      32.150  23.680  22.417  1.00  0.00    -0.226 N 
ATOM     19  C   UNL A   1      33.148  24.654  22.291  1.00  0.00     0.266 A 
ATOM     20  O   UNL A   1      34.358  24.460  22.379  1.00  0.00    -0.268 OA
BRANCH  18  21
ATOM     21  C   UNL A   1      32.535  22.260  22.448  1.00  0.00     0.190 C 
BRANCH  21  22
ATOM     22  C   UNL A   1      32.823  21.732  23.863  1.00  0.00     0.253 C 
BRANCH  22  23
ATOM     23  O   UNL A   1      32.112  20.516  24.189  1.00  0.00    -0.492 OA
BRANCH  23  24
ATOM     24  C   UNL A   1      32.887  19.405  24.009  1.00  0.00     0.119 A 
ATOM     25  C   UNL A   1      34.128  19.270  24.614  1.00  0.00     0.046 A 
ATOM     26  C   UNL A   1      32.441  18.419  23.142  1.00  0.00     0.046 A 
ATOM     27  C   UNL A   1      34.835  18.071  24.471  1.00  0.00     0.004 A 
ATOM     28  C   UNL A   1      33.083  17.185  23.078  1.00  0.00     0.004 A 
ATOM     29  C   UNL A   1      34.280  17.006  23.756  1.00  0.00     0.000 A 
ENDBRANCH  23  24
ENDBRANCH  22  23
ENDBRANCH  21  22
ENDBRANCH  18  21
ENDBRANCH  11  14
ENDBRANCH   7  10
ENDBRANCH   1   3
BRANCH   1  30
ATOM     30  O   UNL A   1      35.443  23.456  25.994  1.00  0.00    -0.458 OA
BRANCH  30  31
ATOM     31  C   UNL A   1      36.710  22.821  25.761  1.00  0.00     0.275 C 
BRANCH  31  32
ATOM     32  C   UNL A   1      37.889  23.781  25.935  1.00  0.00     0.275 C 
BRANCH  32  33
ATOM     33  O   UNL A   1      38.955  23.443  26.870  1.00  0.00    -0.458 OA
BRANCH  33  34
ATOM     34  C   UNL A   1      40.148  24.071  26.976  1.00  0.00     0.338 C 
ATOM     35  O   UNL A   1      41.213  23.534  26.677  1.00  0.00    -0.246 OA
BRANCH  34  36
ATOM     36  C   UNL A   1      40.120  25.451  27.483  1.00  0.00     0.060 A 
ATOM     37  C   UNL A   1      40.422  26.503  26.595  1.00  0.00     0.016 A 
ATOM     38  C   UNL A   1      39.644  25.697  28.766  1.00  0.00     0.016 A 
ATOM     39  C   UNL A   1      40.146  27.813  26.954  1.00  0.00     0.010 A 
ATOM     40  C   UNL A   1      39.234  26.964  29.074  1.00  0.00     0.010 A 
ATOM     41  C   UNL A   1      39.544  28.015  28.193  1.00  0.00    -0.014 A 
BRANCH  41  42
ATOM     42  C   UNL A   1      39.609  29.286  28.877  1.00  0.00     0.031 A 
ATOM     43  C   UNL A   1      38.558  30.294  28.715  1.00  0.00     0.074 A 
ATOM     44  C   UNL A   1      40.607  29.223  29.790  1.00  0.00     0.049 A 
ATOM     45  N   UNL A   1      38.684  31.509  29.105  1.00  0.00    -0.248 NA
ATOM     46  C   UNL A   1      37.273  30.051  28.060  1.00  0.00     0.031 C 
ATOM     47  C   UNL A   1      40.923  30.002  30.966  1.00  0.00     0.029 A 
ATOM     48  N   UNL A   1      41.699  28.331  29.684  1.00  0.00    -0.354 N 
ATOM     49  C   UNL A   1      37.432  32.092  29.092  1.00  0.00     0.074 A 
ATOM     50  C   UNL A   1      36.624  31.201  28.298  1.00  0.00     0.031 C 
ATOM     51  C   UNL A   1      42.232  29.816  31.248  1.00  0.00     0.029 A 
ATOM     52  C   UNL A   1      42.808  29.013  30.170  1.00  0.00     0.049 A 
ATOM     53  H   UNL A   1      41.679  27.410  29.336  1.00  0.00     0.167 HD
ATOM     54  C   UNL A   1      37.238  33.165  29.918  1.00  0.00     0.037 A 
ATOM     55  C   UNL A   1      43.710  29.442  29.238  1.00  0.00     0.037 A 
ATOM     56  C   UNL A   1      38.517  33.496  30.550  1.00  0.00     0.049 A 
ATOM     57  C   UNL A   1      43.655  30.948  29.167  1.00  0.00     0.074 A 
ATOM     58  C   UNL A   1      39.071  33.096  31.756  1.00  0.00     0.029 A 
ATOM     59  N   UNL A   1      39.570  33.937  29.755  1.00  0.00    -0.354 N 
ATOM     60  N   UNL A   1      42.561  31.660  29.262  1.00  0.00    -0.248 NA
ATOM     61  C   UNL A   1      44.871  31.748  29.145  1.00  0.00     0.031 C 
ATOM     62  C   UNL A   1      40.484  33.191  31.628  1.00  0.00     0.029 A 
ATOM     63  C   UNL A   1      40.783  33.649  30.353  1.00  0.00     0.049 A 
ATOM     64  H   UNL A   1      39.465  34.391  28.887  1.00  0.00     0.167 HD
ATOM     65  C   UNL A   1      42.912  32.974  29.426  1.00  0.00     0.074 A 
ATOM     66  C   UNL A   1      44.363  32.978  29.323  1.00  0.00     0.031 C 
ATOM     67  C   UNL A   1      42.034  33.988  29.694  1.00  0.00     0.037 A 
BRANCH  54  68
ATOM     68  C   UNL A   1      35.920  33.746  30.403  1.00  0.00     0.064 A 
ATOM     69  C   UNL A   1      35.042  34.366  29.477  1.00  0.00     0.173 A 
ATOM     70  C   UNL A   1      35.470  33.784  31.737  1.00  0.00     0.173 A 
ATOM     71  F   UNL A   1      35.297  34.362  28.161  1.00  0.00    -0.203 F 
ATOM     72  C   UNL A   1      33.865  35.019  29.859  1.00  0.00     0.198 A 
ATOM     73  C   UNL A   1      34.293  34.447  32.121  1.00  0.00     0.198 A 
ATOM     74  F   UNL A   1      36.122  33.158  32.719  1.00  0.00    -0.203 F 
ATOM     75  F   UNL A   1      33.095  35.603  28.929  1.00  0.00    -0.200 F 
ATOM     76  C   UNL A   1      33.496  35.072  31.185  1.00  0.00     0.200 A 
ATOM     77  F   UNL A   1      33.938  34.471  33.414  1.00  0.00    -0.200 F 
ATOM     78  F   UNL A   1      32.374  35.704  31.555  1.00  0.00    -0.200 F 
ENDBRANCH  54  68
BRANCH  55  79
ATOM     79  C   UNL A   1      43.927  28.499  28.082  1.00  0.00     0.064 A 
ATOM     80  C   UNL A   1      44.426  27.200  28.353  1.00  0.00     0.173 A 
ATOM     81  C   UNL A   1      43.452  28.717  26.781  1.00  0.00     0.173 A 
ATOM     82  F   UNL A   1      44.917  26.912  29.570  1.00  0.00    -0.203 F 
ATOM     83  C   UNL A   1      44.355  26.161  27.423  1.00  0.00     0.198 A 
ATOM     84  C   UNL A   1      43.405  27.676  25.838  1.00  0.00     0.198 A 
ATOM     85  F   UNL A   1      42.958  29.911  26.427  1.00  0.00    -0.203 F 
ATOM     86  F   UNL A   1      44.730  24.921  27.773  1.00  0.00    -0.200 F 
ATOM     87  C   UNL A   1      43.836  26.397  26.166  1.00  0.00     0.200 A 
ATOM     88  F   UNL A   1      42.853  27.886  24.633  1.00  0.00    -0.200 F 
ATOM     89  F   UNL A   1      43.684  25.389  25.295  1.00  0.00    -0.200 F 
ENDBRANCH  55  79
BRANCH  67  90
ATOM     90  C   UNL A   1      42.343  35.442  29.443  1.00  0.00     0.064 A 
ATOM     91  C   UNL A   1      43.241  36.179  30.232  1.00  0.00     0.173 A 
ATOM     92  C   UNL A   1      41.874  36.097  28.279  1.00  0.00     0.173 A 
ATOM     93  F   UNL A   1      43.885  35.624  31.268  1.00  0.00    -0.203 F 
ATOM     94  C   UNL A   1      43.560  37.504  29.945  1.00  0.00     0.198 A 
ATOM     95  C   UNL A   1      42.268  37.390  27.947  1.00  0.00     0.198 A 
ATOM     96  F   UNL A   1      41.051  35.496  27.407  1.00  0.00    -0.203 F 
ATOM     97  F   UNL A   1      44.359  38.183  30.778  1.00  0.00    -0.200 F 
ATOM     98  C   UNL A   1      43.085  38.105  28.797  1.00  0.00     0.200 A 
ATOM     99  F   UNL A   1      41.868  37.928  26.787  1.00  0.00    -0.200 F 
ATOM    100  F   UNL A   1      43.438  39.360  28.496  1.00  0.00    -0.200 F 
ENDBRANCH  67  90
ENDBRANCH  41  42
ENDBRANCH  34  36
ENDBRANCH  33  34
ENDBRANCH  32  33
ENDBRANCH  31  32
ENDBRANCH  30  31
ENDBRANCH   1  30
TORSDOF 17
ENDMDL
MODEL 3
REMARK VINA RESULT:     -14.2      3.927     10.476
REMARK SMILES Cc1cc(C(=O)OCCOC(=O)c2ccc(-c3c4nc(c(-c5c(F)c(F)c(F)c(F)c5F)c5ccc([nH]5)c(-c5c(F)c(F)c(F)c(F)c5F)c5nc(c(-c6c(F)c(F)c(F)c(F)c6F)c6ccc3[nH]6)C=C5)C=C4)cc2)ccc1NC(=O)c1ccc(=O)n(CCOc2ccccc2)n1
REMARK SMILES IDX 5 1 6 2 4 3 1 4 2 5 3 6 78 7 77 8 76 9 79 10 80 11 81 13
REMARK SMILES IDX 82 14 83 15 97 16 84 17 87 18 85 19 86 20 88 21 89 22 90 23
REMARK SMILES IDX 91 24 92 25 96 26 93 27 95 28 94 29 7 30 8 31 9 32 10 33
REMARK SMILES IDX 11 34 12 35 13 36 14 37 75 38 15 39 74 40 16 41 17 42 18 43
REMARK SMILES IDX 68 44 19 45 73 46 67 47 69 48 20 49 72 50 66 51 65 52 21 54
REMARK SMILES IDX 53 55 33 56 52 57 34 58 37 59 51 60 70 61 35 62 36 63 50 65
REMARK SMILES IDX 71 66 38 67 22 68 23 69 31 70 24 71 25 72 29 73 32 74 26 75
REMARK SMILES IDX 27 76 30 77 28 78 54 79 55 80 63 81 56 82 57 83 61 84 64 85
REMARK SMILES IDX 58 86 59 87 62 88 60 89 39 90 40 91 48 92 41 93 42 94 46 95
REMARK SMILES IDX 49 96 43 97 44 98 47 99 45 100
REMARK H PARENT 79 12 69 53 37 64
REMARK Flexibility Score: inf
ROOT
ATOM      1  C   UNL A   1      36.379  22.299  24.270  1.00  0.00     0.338 C 
ATOM      2  O   UNL A   1      36.702  22.944  23.277  1.00  0.00    -0.246 OA
ENDROOT
BRANCH   1   3
ATOM      3  C   UNL A   1      35.000  21.797  24.345  1.00  0.00     0.060 A 
ATOM      4  C   UNL A   1      31.460  22.791  23.263  1.00  0.00     0.046 C 
ATOM      5  C   UNL A   1      32.589  22.327  24.142  1.00  0.00    -0.027 A 
ATOM      6  C   UNL A   1      33.902  22.218  23.568  1.00  0.00     0.021 A 
ATOM      7  C   UNL A   1      32.457  22.188  25.529  1.00  0.00     0.044 A 
ATOM      8  C   UNL A   1      33.627  21.925  26.200  1.00  0.00     0.027 A 
ATOM      9  C   UNL A   1      34.801  21.477  25.656  1.00  0.00     0.018 A 
BRANCH   7  10
ATOM     10  N   UNL A   1      31.256  22.339  26.278  1.00  0.00    -0.320 N 
ATOM     11  C   UNL A   1      30.561  23.508  26.652  1.00  0.00     0.276 C 
ATOM     12  H   UNL A   1      30.847  21.497  26.581  1.00  0.00     0.170 HD
ATOM     13  O   UNL A   1      29.601  23.468  27.415  1.00  0.00    -0.267 OA
BRANCH  11  14
ATOM     14  C   UNL A   1      31.041  24.881  26.162  1.00  0.00     0.149 A 
ATOM     15  C   UNL A   1      32.391  25.284  26.618  1.00  0.00     0.042 A 
ATOM     16  N   UNL A   1      30.349  25.510  25.247  1.00  0.00    -0.164 NA
ATOM     17  C   UNL A   1      33.091  26.012  25.745  1.00  0.00     0.076 A 
ATOM     18  N   UNL A   1      31.078  26.407  24.435  1.00  0.00    -0.226 N 
ATOM     19  C   UNL A   1      32.478  26.403  24.455  1.00  0.00     0.266 A 
ATOM     20  O   UNL A   1      33.211  26.637  23.497  1.00  0.00    -0.268 OA
BRANCH  18  21
ATOM     21  C   UNL A   1      30.379  26.934  23.252  1.00  0.00     0.190 C 
BRANCH  21  22
ATOM     22  C   UNL A   1      29.572  28.212  23.533  1.00  0.00     0.253 C 
BRANCH  22  23
ATOM     23  O   UNL A   1      28.727  28.624  22.435  1.00  0.00    -0.492 OA
BRANCH  23  24
ATOM     24  C   UNL A   1      28.580  29.980  22.381  1.00  0.00     0.119 A 
ATOM     25  C   UNL A   1      28.849  30.792  23.474  1.00  0.00     0.046 A 
ATOM     26  C   UNL A   1      28.082  30.548  21.217  1.00  0.00     0.046 A 
ATOM     27  C   UNL A   1      28.773  32.182  23.331  1.00  0.00     0.004 A 
ATOM     28  C   UNL A   1      28.104  31.928  21.033  1.00  0.00     0.004 A 
ATOM     29  C   UNL A   1      28.464  32.749  22.092  1.00  0.00     0.000 A 
ENDBRANCH  23  24
ENDBRANCH  22  23
ENDBRANCH  21  22
ENDBRANCH  18  21
ENDBRANCH  11  14
ENDBRANCH   7  10
ENDBRANCH   1   3
BRANCH   1  30
ATOM     30  O   UNL A   1      37.054  22.263  25.439  1.00  0.00    -0.458 OA
BRANCH  30  31
ATOM     31  C   UNL A   1      38.262  21.490  25.343  1.00  0.00     0.275 C 
BRANCH  31  32
ATOM     32  C   UNL A   1      39.321  21.927  26.357  1.00  0.00     0.275 C 
BRANCH  32  33
ATOM     33  O   UNL A   1      39.468  23.343  26.673  1.00  0.00    -0.458 OA
BRANCH  33  34
ATOM     34  C   UNL A   1      40.635  24.021  26.762  1.00  0.00     0.338 C 
ATOM     35  O   UNL A   1      41.710  23.545  26.407  1.00  0.00    -0.246 OA
BRANCH  34  36
ATOM     36  C   UNL A   1      40.563  25.380  27.320  1.00  0.00     0.060 A 
ATOM     37  C   UNL A   1      40.618  26.476  26.438  1.00  0.00     0.016 A 
ATOM     38  C   UNL A   1      40.282  25.547  28.672  1.00  0.00     0.016 A 
ATOM     39  C   UNL A   1      40.285  27.744  26.887  1.00  0.00     0.010 A 
ATOM     40  C   UNL A   1      39.813  26.761  29.091  1.00  0.00     0.010 A 
ATOM     41  C   UNL A   1      39.878  27.857  28.214  1.00  0.00    -0.014 A 
BRANCH  41  42
ATOM     42  C   UNL A   1      39.936  29.112  28.928  1.00  0.00     0.031 A 
ATOM     43  C   UNL A   1      38.842  30.084  28.854  1.00  0.00     0.074 A 
ATOM     44  C   UNL A   1      40.987  29.064  29.780  1.00  0.00     0.049 A 
ATOM     45  N   UNL A   1      38.947  31.292  29.271  1.00  0.00    -0.248 NA
ATOM     46  C   UNL A   1      37.531  29.809  28.268  1.00  0.00     0.031 C 
ATOM     47  C   UNL A   1      41.343  29.823  30.957  1.00  0.00     0.029 A 
ATOM     48  N   UNL A   1      42.103  28.216  29.587  1.00  0.00    -0.354 N 
ATOM     49  C   UNL A   1      37.676  31.828  29.345  1.00  0.00     0.074 A 
ATOM     50  C   UNL A   1      36.856  30.928  28.575  1.00  0.00     0.031 C 
ATOM     51  C   UNL A   1      42.673  29.680  31.159  1.00  0.00     0.029 A 
ATOM     52  C   UNL A   1      43.214  28.926  30.028  1.00  0.00     0.049 A 
ATOM     53  H   UNL A   1      42.096  27.304  29.215  1.00  0.00     0.167 HD
ATOM     54  C   UNL A   1      37.491  32.872  30.210  1.00  0.00     0.037 A 
ATOM     55  C   UNL A   1      44.043  29.413  29.058  1.00  0.00     0.037 A 
ATOM     56  C   UNL A   1      38.793  33.234  30.778  1.00  0.00     0.049 A 
ATOM     57  C   UNL A   1      43.930  30.918  29.031  1.00  0.00     0.074 A 
ATOM     58  C   UNL A   1      39.430  32.824  31.938  1.00  0.00     0.029 A 
ATOM     59  N   UNL A   1      39.781  33.735  29.935  1.00  0.00    -0.354 N 
ATOM     60  N   UNL A   1      42.818  31.585  29.210  1.00  0.00    -0.248 NA
ATOM     61  C   UNL A   1      45.112  31.763  28.962  1.00  0.00     0.031 C 
ATOM     62  C   UNL A   1      40.829  32.975  31.732  1.00  0.00     0.029 A 
ATOM     63  C   UNL A   1      41.036  33.477  30.455  1.00  0.00     0.049 A 
ATOM     64  H   UNL A   1      39.609  34.206  29.088  1.00  0.00     0.167 HD
ATOM     65  C   UNL A   1      43.131  32.907  29.389  1.00  0.00     0.074 A 
ATOM     66  C   UNL A   1      44.572  32.968  29.204  1.00  0.00     0.031 C 
ATOM     67  C   UNL A   1      42.234  33.880  29.735  1.00  0.00     0.037 A 
BRANCH  54  68
ATOM     68  C   UNL A   1      36.184  33.390  30.786  1.00  0.00     0.064 A 
ATOM     69  C   UNL A   1      35.270  34.078  29.947  1.00  0.00     0.173 A 
ATOM     70  C   UNL A   1      35.777  33.304  32.131  1.00  0.00     0.173 A 
ATOM     71  F   UNL A   1      35.482  34.194  28.628  1.00  0.00    -0.203 F 
ATOM     72  C   UNL A   1      34.100  34.679  30.422  1.00  0.00     0.198 A 
ATOM     73  C   UNL A   1      34.607  33.914  32.610  1.00  0.00     0.198 A 
ATOM     74  F   UNL A   1      36.467  32.602  33.034  1.00  0.00    -0.203 F 
ATOM     75  F   UNL A   1      33.294  35.332  29.572  1.00  0.00    -0.200 F 
ATOM     76  C   UNL A   1      33.773  34.610  31.758  1.00  0.00     0.200 A 
ATOM     77  F   UNL A   1      34.293  33.820  33.910  1.00  0.00    -0.200 F 
ATOM     78  F   UNL A   1      32.658  35.192  32.218  1.00  0.00    -0.200 F 
ENDBRANCH  54  68
BRANCH  55  79
ATOM     79  C   UNL A   1      44.226  28.509  27.866  1.00  0.00     0.064 A 
ATOM     80  C   UNL A   1      44.845  27.249  28.061  1.00  0.00     0.173 A 
ATOM     81  C   UNL A   1      43.621  28.711  26.617  1.00  0.00     0.173 A 
ATOM     82  F   UNL A   1      45.464  26.980  29.223  1.00  0.00    -0.203 F 
ATOM     83  C   UNL A   1      44.770  26.222  27.117  1.00  0.00     0.198 A 
ATOM     84  C   UNL A   1      43.569  27.685  25.658  1.00  0.00     0.198 A 
ATOM     85  F   UNL A   1      43.007  29.868  26.336  1.00  0.00    -0.203 F 
ATOM     86  F   UNL A   1      45.268  25.010  27.404  1.00  0.00    -0.200 F 
ATOM     87  C   UNL A   1      44.123  26.438  25.917  1.00  0.00     0.200 A 
ATOM     88  F   UNL A   1      42.895  27.871  24.512  1.00  0.00    -0.200 F 
ATOM     89  F   UNL A   1      43.971  25.436  25.039  1.00  0.00    -0.200 F 
ENDBRANCH  55  79
BRANCH  67  90
ATOM     90  C   UNL A   1      42.475  35.350  29.507  1.00  0.00     0.064 A 
ATOM     91  C   UNL A   1      43.360  36.109  30.290  1.00  0.00     0.173 A 
ATOM     92  C   UNL A   1      41.950  36.008  28.369  1.00  0.00     0.173 A 
ATOM     93  F   UNL A   1      44.053  35.562  31.298  1.00  0.00    -0.203 F 
ATOM     94  C   UNL A   1      43.616  37.452  30.023  1.00  0.00     0.198 A 
ATOM     95  C   UNL A   1      42.281  37.323  28.055  1.00  0.00     0.198 A 
ATOM     96  F   UNL A   1      41.132  35.390  27.504  1.00  0.00    -0.203 F 
ATOM     97  F   UNL A   1      44.406  38.148  30.851  1.00  0.00    -0.200 F 
ATOM     98  C   UNL A   1      43.088  38.055  28.899  1.00  0.00     0.200 A 
ATOM     99  F   UNL A   1      41.830  37.867  26.916  1.00  0.00    -0.200 F 
ATOM    100  F   UNL A   1      43.380  39.330  28.616  1.00  0.00    -0.200 F 
ENDBRANCH  67  90
ENDBRANCH  41  42
ENDBRANCH  34  36
ENDBRANCH  33  34
ENDBRANCH  32  33
ENDBRANCH  31  32
ENDBRANCH  30  31
ENDBRANCH   1  30
TORSDOF 17
ENDMDL
