MODEL 1
REMARK VINA RESULT:     -11.1      0.000      0.000
REMARK SMILES CC(C)OCCS(=O)(=O)N1CCC[C@H](C(=O)OCCOC(=O)c2ccc(-c3c4nc(c(-c5c(F)c(F)c(F)c(F)c5F)c5ccc([nH]5)c(-c5c(F)c(F)c(F)c(F)c5F)c5nc(c(-c6c(F)c(F)c(F)c(F)c6F)c6ccc3[nH]6)C=C5)C=C4)cc2)C1
REMARK SMILES IDX 17 1 15 2 16 3 14 4 10 5 11 6 86 7 12 8 13 9 7 10 8 11 9 12
REMARK SMILES IDX 6 13 5 14 4 15 2 16 1 17 3 18 18 19 19 20 20 21 21 22 22 23
REMARK SMILES IDX 23 24 24 25 85 26 25 27 84 28 26 29 27 30 28 31 78 32 29 33
REMARK SMILES IDX 83 34 77 35 79 36 30 37 82 38 76 39 75 40 31 42 63 43 43 44
REMARK SMILES IDX 62 45 44 46 47 47 61 48 80 49 45 50 46 51 60 53 81 54 48 55
REMARK SMILES IDX 32 56 33 57 41 58 34 59 35 60 39 61 42 62 36 63 37 64 40 65
REMARK SMILES IDX 38 66 64 67 65 68 73 69 66 70 67 71 71 72 74 73 68 74 69 75
REMARK SMILES IDX 72 76 70 77 49 78 50 79 58 80 51 81 52 82 56 83 59 84 53 85
REMARK SMILES IDX 54 86 57 87 55 88
REMARK H PARENT 79 41 47 52
REMARK Flexibility Score: inf
ROOT
ATOM      1  O   UNL A   1      31.632  28.227  24.755  1.00  0.00    -0.462 OA
ENDROOT
BRANCH   1   2
ATOM      2  C   UNL A   1      32.644  27.583  24.118  1.00  0.00     0.310 C 
ATOM      3  O   UNL A   1      32.888  27.693  22.919  1.00  0.00    -0.252 OA
BRANCH   2   4
ATOM      4  C   UNL A   1      33.482  26.684  25.015  1.00  0.00     0.114 C 
ATOM      5  N   UNL A   1      33.072  24.339  24.170  1.00  0.00    -0.201 NA
ATOM      6  C   UNL A   1      32.641  23.924  25.547  1.00  0.00     0.102 C 
ATOM      7  C   UNL A   1      34.046  25.481  24.250  1.00  0.00     0.117 C 
ATOM      8  C   UNL A   1      31.959  25.083  26.265  1.00  0.00     0.018 C 
ATOM      9  C   UNL A   1      32.862  26.304  26.359  1.00  0.00     0.018 C 
BRANCH   5  10
ATOM     10  S   UNL A   1      33.637  22.991  23.245  1.00  0.00     0.216 S 
ATOM     11  O   UNL A   1      34.894  23.366  22.633  1.00  0.00    -0.212 OA
ATOM     12  O   UNL A   1      32.527  22.572  22.412  1.00  0.00    -0.212 OA
BRANCH  10  13
ATOM     13  C   UNL A   1      33.961  21.683  24.440  1.00  0.00     0.182 C 
BRANCH  13  14
ATOM     14  C   UNL A   1      33.166  20.399  24.206  1.00  0.00     0.178 C 
BRANCH  14  15
ATOM     15  O   UNL A   1      33.760  19.138  24.517  1.00  0.00    -0.378 OA
BRANCH  15  16
ATOM     16  C   UNL A   1      33.217  17.936  23.988  1.00  0.00     0.112 C 
ATOM     17  C   UNL A   1      32.524  18.076  22.634  1.00  0.00     0.038 C 
ATOM     18  C   UNL A   1      34.275  16.855  24.081  1.00  0.00     0.038 C 
ENDBRANCH  15  16
ENDBRANCH  14  15
ENDBRANCH  13  14
ENDBRANCH  10  13
ENDBRANCH   5  10
ENDBRANCH   2   4
ENDBRANCH   1   2
BRANCH   1  19
ATOM     19  C   UNL A   1      31.598  29.671  24.670  1.00  0.00     0.274 C 
BRANCH  19  20
ATOM     20  C   UNL A   1      31.687  30.352  26.034  1.00  0.00     0.275 C 
BRANCH  20  21
ATOM     21  O   UNL A   1      33.005  30.189  26.580  1.00  0.00    -0.458 OA
BRANCH  21  22
ATOM     22  C   UNL A   1      33.501  31.305  27.156  1.00  0.00     0.338 C 
ATOM     23  O   UNL A   1      32.931  32.360  27.359  1.00  0.00    -0.246 OA
BRANCH  22  24
ATOM     24  C   UNL A   1      34.827  31.003  27.700  1.00  0.00     0.060 A 
ATOM     25  C   UNL A   1      35.097  29.672  28.029  1.00  0.00     0.016 A 
ATOM     26  C   UNL A   1      35.753  32.011  27.960  1.00  0.00     0.016 A 
ATOM     27  C   UNL A   1      36.287  29.334  28.648  1.00  0.00     0.010 A 
ATOM     28  C   UNL A   1      36.950  31.675  28.589  1.00  0.00     0.010 A 
ATOM     29  C   UNL A   1      37.206  30.341  28.956  1.00  0.00    -0.014 A 
BRANCH  29  30
ATOM     30  C   UNL A   1      38.384  30.004  29.777  1.00  0.00     0.031 A 
ATOM     31  C   UNL A   1      39.406  29.064  29.217  1.00  0.00     0.074 A 
ATOM     32  C   UNL A   1      38.537  30.568  30.986  1.00  0.00     0.049 A 
ATOM     33  N   UNL A   1      40.448  28.531  29.796  1.00  0.00    -0.248 NA
ATOM     34  C   UNL A   1      39.226  28.666  27.811  1.00  0.00     0.031 C 
ATOM     35  C   UNL A   1      37.633  31.554  31.577  1.00  0.00     0.029 A 
ATOM     36  N   UNL A   1      39.506  30.385  31.936  1.00  0.00    -0.354 N 
ATOM     37  C   UNL A   1      41.030  27.713  28.838  1.00  0.00     0.074 A 
ATOM     38  C   UNL A   1      40.219  27.806  27.644  1.00  0.00     0.031 C 
ATOM     39  C   UNL A   1      38.085  31.881  32.798  1.00  0.00     0.029 A 
ATOM     40  C   UNL A   1      39.273  31.086  33.091  1.00  0.00     0.049 A 
ATOM     41  H   UNL A   1      40.292  29.807  31.802  1.00  0.00     0.167 HD
ATOM     42  C   UNL A   1      42.144  26.954  28.956  1.00  0.00     0.037 A 
ATOM     43  C   UNL A   1      39.927  31.048  34.266  1.00  0.00     0.037 A 
ATOM     44  C   UNL A   1      42.938  26.889  30.155  1.00  0.00     0.049 A 
ATOM     45  C   UNL A   1      41.118  30.136  34.396  1.00  0.00     0.074 A 
ATOM     46  C   UNL A   1      44.089  26.159  30.392  1.00  0.00     0.029 A 
ATOM     47  N   UNL A   1      42.656  27.586  31.322  1.00  0.00    -0.354 N 
ATOM     48  N   UNL A   1      41.660  29.348  33.497  1.00  0.00    -0.248 NA
ATOM     49  C   UNL A   1      41.783  30.102  35.704  1.00  0.00     0.031 C 
ATOM     50  C   UNL A   1      44.472  26.375  31.721  1.00  0.00     0.029 A 
ATOM     51  C   UNL A   1      43.595  27.284  32.294  1.00  0.00     0.049 A 
ATOM     52  H   UNL A   1      41.899  28.204  31.442  1.00  0.00     0.167 HD
ATOM     53  C   UNL A   1      42.740  28.742  34.120  1.00  0.00     0.074 A 
ATOM     54  C   UNL A   1      42.788  29.270  35.471  1.00  0.00     0.031 C 
ATOM     55  C   UNL A   1      43.616  27.830  33.628  1.00  0.00     0.037 A 
BRANCH  42  56
ATOM     56  C   UNL A   1      42.534  26.105  27.782  1.00  0.00     0.064 A 
ATOM     57  C   UNL A   1      41.948  24.853  27.542  1.00  0.00     0.173 A 
ATOM     58  C   UNL A   1      43.504  26.558  26.874  1.00  0.00     0.173 A 
ATOM     59  F   UNL A   1      41.030  24.364  28.389  1.00  0.00    -0.203 F 
ATOM     60  C   UNL A   1      42.337  24.075  26.452  1.00  0.00     0.198 A 
ATOM     61  C   UNL A   1      43.869  25.792  25.770  1.00  0.00     0.198 A 
ATOM     62  F   UNL A   1      44.099  27.747  27.057  1.00  0.00    -0.203 F 
ATOM     63  F   UNL A   1      41.802  22.860  26.274  1.00  0.00    -0.200 F 
ATOM     64  C   UNL A   1      43.292  24.548  25.565  1.00  0.00     0.200 A 
ATOM     65  F   UNL A   1      44.786  26.255  24.908  1.00  0.00    -0.200 F 
ATOM     66  F   UNL A   1      43.664  23.801  24.517  1.00  0.00    -0.200 F 
ENDBRANCH  42  56
BRANCH  43  67
ATOM     67  C   UNL A   1      39.451  31.869  35.409  1.00  0.00     0.064 A 
ATOM     68  C   UNL A   1      39.865  33.199  35.567  1.00  0.00     0.173 A 
ATOM     69  C   UNL A   1      38.575  31.342  36.370  1.00  0.00     0.173 A 
ATOM     70  F   UNL A   1      40.718  33.742  34.687  1.00  0.00    -0.203 F 
ATOM     71  C   UNL A   1      39.434  33.963  36.650  1.00  0.00     0.198 A 
ATOM     72  C   UNL A   1      38.120  32.117  37.434  1.00  0.00     0.198 A 
ATOM     73  F   UNL A   1      38.147  30.075  36.267  1.00  0.00    -0.203 F 
ATOM     74  F   UNL A   1      39.882  35.217  36.800  1.00  0.00    -0.200 F 
ATOM     75  C   UNL A   1      38.558  33.424  37.578  1.00  0.00     0.200 A 
ATOM     76  F   UNL A   1      37.261  31.596  38.321  1.00  0.00    -0.200 F 
ATOM     77  F   UNL A   1      38.140  34.162  38.617  1.00  0.00    -0.200 F 
ENDBRANCH  43  67
BRANCH  55  78
ATOM     78  C   UNL A   1      44.713  27.376  34.545  1.00  0.00     0.064 A 
ATOM     79  C   UNL A   1      45.916  28.087  34.663  1.00  0.00     0.173 A 
ATOM     80  C   UNL A   1      44.541  26.234  35.342  1.00  0.00     0.173 A 
ATOM     81  F   UNL A   1      46.133  29.175  33.909  1.00  0.00    -0.203 F 
ATOM     82  C   UNL A   1      46.918  27.654  35.526  1.00  0.00     0.198 A 
ATOM     83  C   UNL A   1      45.532  25.825  36.228  1.00  0.00     0.198 A 
ATOM     84  F   UNL A   1      43.405  25.523  35.271  1.00  0.00    -0.203 F 
ATOM     85  F   UNL A   1      48.081  28.319  35.584  1.00  0.00    -0.200 F 
ATOM     86  C   UNL A   1      46.723  26.530  36.313  1.00  0.00     0.200 A 
ATOM     87  F   UNL A   1      45.334  24.747  37.001  1.00  0.00    -0.200 F 
ATOM     88  F   UNL A   1      47.686  26.121  37.150  1.00  0.00    -0.200 F 
ENDBRANCH  55  78
ENDBRANCH  29  30
ENDBRANCH  22  24
ENDBRANCH  21  22
ENDBRANCH  20  21
ENDBRANCH  19  20
ENDBRANCH   1  19
TORSDOF 16
ENDMDL
MODEL 2
REMARK VINA RESULT:     -11.0      4.270      9.831
REMARK SMILES CC(C)OCCS(=O)(=O)N1CCC[C@H](C(=O)OCCOC(=O)c2ccc(-c3c4nc(c(-c5c(F)c(F)c(F)c(F)c5F)c5ccc([nH]5)c(-c5c(F)c(F)c(F)c(F)c5F)c5nc(c(-c6c(F)c(F)c(F)c(F)c6F)c6ccc3[nH]6)C=C5)C=C4)cc2)C1
REMARK SMILES IDX 17 1 15 2 16 3 14 4 10 5 11 6 86 7 12 8 13 9 7 10 8 11 9 12
REMARK SMILES IDX 6 13 5 14 4 15 2 16 1 17 3 18 18 19 19 20 20 21 21 22 22 23
REMARK SMILES IDX 23 24 24 25 85 26 25 27 84 28 26 29 27 30 28 31 78 32 29 33
REMARK SMILES IDX 83 34 77 35 79 36 30 37 82 38 76 39 75 40 31 42 63 43 43 44
REMARK SMILES IDX 62 45 44 46 47 47 61 48 80 49 45 50 46 51 60 53 81 54 48 55
REMARK SMILES IDX 32 56 33 57 41 58 34 59 35 60 39 61 42 62 36 63 37 64 40 65
REMARK SMILES IDX 38 66 64 67 65 68 73 69 66 70 67 71 71 72 74 73 68 74 69 75
REMARK SMILES IDX 72 76 70 77 49 78 50 79 58 80 51 81 52 82 56 83 59 84 53 85
REMARK SMILES IDX 54 86 57 87 55 88
REMARK H PARENT 79 41 47 52
REMARK Flexibility Score: inf
ROOT
ATOM      1  O   UNL A   1      35.493  22.643  25.429  1.00  0.00    -0.462 OA
ENDROOT
BRANCH   1   2
ATOM      2  C   UNL A   1      34.301  23.272  25.263  1.00  0.00     0.310 C 
ATOM      3  O   UNL A   1      33.901  24.194  25.969  1.00  0.00    -0.252 OA
BRANCH   2   4
ATOM      4  C   UNL A   1      33.464  22.740  24.109  1.00  0.00     0.114 C 
ATOM      5  N   UNL A   1      32.476  24.789  23.009  1.00  0.00    -0.201 NA
ATOM      6  C   UNL A   1      31.100  24.216  23.191  1.00  0.00     0.102 C 
ATOM      7  C   UNL A   1      33.490  23.685  22.902  1.00  0.00     0.117 C 
ATOM      8  C   UNL A   1      31.033  23.381  24.465  1.00  0.00     0.018 C 
ATOM      9  C   UNL A   1      32.058  22.256  24.462  1.00  0.00     0.018 C 
BRANCH   5  10
ATOM     10  S   UNL A   1      32.527  25.925  21.707  1.00  0.00     0.216 S 
ATOM     11  O   UNL A   1      31.179  26.401  21.477  1.00  0.00    -0.212 OA
ATOM     12  O   UNL A   1      33.258  25.283  20.633  1.00  0.00    -0.212 OA
BRANCH  10  13
ATOM     13  C   UNL A   1      33.516  27.307  22.306  1.00  0.00     0.182 C 
BRANCH  13  14
ATOM     14  C   UNL A   1      33.678  27.358  23.825  1.00  0.00     0.178 C 
BRANCH  14  15
ATOM     15  O   UNL A   1      34.063  28.584  24.449  1.00  0.00    -0.378 OA
BRANCH  15  16
ATOM     16  C   UNL A   1      33.532  28.944  25.717  1.00  0.00     0.112 C 
ATOM     17  C   UNL A   1      32.303  29.850  25.673  1.00  0.00     0.038 C 
ATOM     18  C   UNL A   1      33.396  27.685  26.550  1.00  0.00     0.038 C 
ENDBRANCH  15  16
ENDBRANCH  14  15
ENDBRANCH  13  14
ENDBRANCH  10  13
ENDBRANCH   5  10
ENDBRANCH   2   4
ENDBRANCH   1   2
BRANCH   1  19
ATOM     19  C   UNL A   1      35.545  21.222  25.158  1.00  0.00     0.274 C 
BRANCH  19  20
ATOM     20  C   UNL A   1      36.969  20.700  24.982  1.00  0.00     0.275 C 
BRANCH  20  21
ATOM     21  O   UNL A   1      37.913  21.755  25.221  1.00  0.00    -0.458 OA
BRANCH  21  22
ATOM     22  C   UNL A   1      38.959  21.390  25.994  1.00  0.00     0.338 C 
ATOM     23  O   UNL A   1      39.470  20.290  26.091  1.00  0.00    -0.246 OA
BRANCH  22  24
ATOM     24  C   UNL A   1      39.546  22.593  26.588  1.00  0.00     0.060 A 
ATOM     25  C   UNL A   1      39.103  23.827  26.107  1.00  0.00     0.016 A 
ATOM     26  C   UNL A   1      40.564  22.512  27.536  1.00  0.00     0.016 A 
ATOM     27  C   UNL A   1      39.693  24.999  26.547  1.00  0.00     0.010 A 
ATOM     28  C   UNL A   1      41.165  23.690  27.975  1.00  0.00     0.010 A 
ATOM     29  C   UNL A   1      40.746  24.932  27.462  1.00  0.00    -0.014 A 
BRANCH  29  30
ATOM     30  C   UNL A   1      41.491  26.163  27.785  1.00  0.00     0.031 A 
ATOM     31  C   UNL A   1      40.805  27.230  28.582  1.00  0.00     0.074 A 
ATOM     32  C   UNL A   1      42.769  26.291  27.394  1.00  0.00     0.049 A 
ATOM     33  N   UNL A   1      41.211  28.435  28.876  1.00  0.00    -0.248 NA
ATOM     34  C   UNL A   1      39.476  26.892  29.116  1.00  0.00     0.031 C 
ATOM     35  C   UNL A   1      43.541  25.272  26.684  1.00  0.00     0.029 A 
ATOM     36  N   UNL A   1      43.641  27.338  27.534  1.00  0.00    -0.354 N 
ATOM     37  C   UNL A   1      40.180  29.011  29.603  1.00  0.00     0.074 A 
ATOM     38  C   UNL A   1      39.120  28.030  29.694  1.00  0.00     0.031 C 
ATOM     39  C   UNL A   1      44.771  25.749  26.439  1.00  0.00     0.029 A 
ATOM     40  C   UNL A   1      44.849  27.124  26.923  1.00  0.00     0.049 A 
ATOM     41  H   UNL A   1      43.421  28.163  28.024  1.00  0.00     0.167 HD
ATOM     42  C   UNL A   1      40.130  30.251  30.143  1.00  0.00     0.037 A 
ATOM     43  C   UNL A   1      45.883  27.966  26.742  1.00  0.00     0.037 A 
ATOM     44  C   UNL A   1      41.205  31.202  30.046  1.00  0.00     0.049 A 
ATOM     45  C   UNL A   1      45.771  29.366  27.285  1.00  0.00     0.074 A 
ATOM     46  C   UNL A   1      41.272  32.487  30.554  1.00  0.00     0.029 A 
ATOM     47  N   UNL A   1      42.406  30.966  29.389  1.00  0.00    -0.354 N 
ATOM     48  N   UNL A   1      44.789  29.918  27.957  1.00  0.00    -0.248 NA
ATOM     49  C   UNL A   1      46.908  30.261  27.038  1.00  0.00     0.031 C 
ATOM     50  C   UNL A   1      42.493  33.046  30.160  1.00  0.00     0.029 A 
ATOM     51  C   UNL A   1      43.212  32.090  29.456  1.00  0.00     0.049 A 
ATOM     52  H   UNL A   1      42.649  30.124  28.942  1.00  0.00     0.167 HD
ATOM     53  C   UNL A   1      45.194  31.215  28.233  1.00  0.00     0.074 A 
ATOM     54  C   UNL A   1      46.523  31.361  27.670  1.00  0.00     0.031 C 
ATOM     55  C   UNL A   1      44.533  32.201  28.888  1.00  0.00     0.037 A 
BRANCH  42  56
ATOM     56  C   UNL A   1      38.863  30.657  30.836  1.00  0.00     0.064 A 
ATOM     57  C   UNL A   1      38.722  30.587  32.231  1.00  0.00     0.173 A 
ATOM     58  C   UNL A   1      37.773  31.134  30.092  1.00  0.00     0.173 A 
ATOM     59  F   UNL A   1      39.725  30.119  32.988  1.00  0.00    -0.203 F 
ATOM     60  C   UNL A   1      37.529  30.956  32.851  1.00  0.00     0.198 A 
ATOM     61  C   UNL A   1      36.593  31.530  30.717  1.00  0.00     0.198 A 
ATOM     62  F   UNL A   1      37.852  31.219  28.755  1.00  0.00    -0.203 F 
ATOM     63  F   UNL A   1      37.400  30.830  34.179  1.00  0.00    -0.200 F 
ATOM     64  C   UNL A   1      36.470  31.432  32.094  1.00  0.00     0.200 A 
ATOM     65  F   UNL A   1      35.573  31.999  29.985  1.00  0.00    -0.200 F 
ATOM     66  F   UNL A   1      35.324  31.789  32.692  1.00  0.00    -0.200 F 
ENDBRANCH  42  56
BRANCH  43  67
ATOM     67  C   UNL A   1      47.084  27.518  25.992  1.00  0.00     0.064 A 
ATOM     68  C   UNL A   1      48.190  26.972  26.657  1.00  0.00     0.173 A 
ATOM     69  C   UNL A   1      47.155  27.630  24.595  1.00  0.00     0.173 A 
ATOM     70  F   UNL A   1      48.181  26.863  27.993  1.00  0.00    -0.203 F 
ATOM     71  C   UNL A   1      49.326  26.571  25.956  1.00  0.00     0.198 A 
ATOM     72  C   UNL A   1      48.277  27.199  23.892  1.00  0.00     0.198 A 
ATOM     73  F   UNL A   1      46.124  28.146  23.909  1.00  0.00    -0.203 F 
ATOM     74  F   UNL A   1      50.386  26.094  26.621  1.00  0.00    -0.200 F 
ATOM     75  C   UNL A   1      49.366  26.679  24.574  1.00  0.00     0.200 A 
ATOM     76  F   UNL A   1      48.306  27.291  22.555  1.00  0.00    -0.200 F 
ATOM     77  F   UNL A   1      50.456  26.287  23.900  1.00  0.00    -0.200 F 
ENDBRANCH  43  67
BRANCH  55  78
ATOM     78  C   UNL A   1      45.251  33.507  29.058  1.00  0.00     0.064 A 
ATOM     79  C   UNL A   1      46.103  33.742  30.148  1.00  0.00     0.173 A 
ATOM     80  C   UNL A   1      45.114  34.521  28.098  1.00  0.00     0.173 A 
ATOM     81  F   UNL A   1      46.254  32.810  31.100  1.00  0.00    -0.203 F 
ATOM     82  C   UNL A   1      46.768  34.957  30.282  1.00  0.00     0.198 A 
ATOM     83  C   UNL A   1      45.808  35.720  28.220  1.00  0.00     0.198 A 
ATOM     84  F   UNL A   1      44.316  34.341  27.034  1.00  0.00    -0.203 F 
ATOM     85  F   UNL A   1      47.536  35.181  31.359  1.00  0.00    -0.200 F 
ATOM     86  C   UNL A   1      46.627  35.941  29.316  1.00  0.00     0.200 A 
ATOM     87  F   UNL A   1      45.683  36.663  27.275  1.00  0.00    -0.200 F 
ATOM     88  F   UNL A   1      47.276  37.106  29.444  1.00  0.00    -0.200 F 
ENDBRANCH  55  78
ENDBRANCH  29  30
ENDBRANCH  22  24
ENDBRANCH  21  22
ENDBRANCH  20  21
ENDBRANCH  19  20
ENDBRANCH   1  19
TORSDOF 16
ENDMDL
MODEL 3
REMARK VINA RESULT:     -10.9      4.400     10.043
REMARK SMILES CC(C)OCCS(=O)(=O)N1CCC[C@H](C(=O)OCCOC(=O)c2ccc(-c3c4nc(c(-c5c(F)c(F)c(F)c(F)c5F)c5ccc([nH]5)c(-c5c(F)c(F)c(F)c(F)c5F)c5nc(c(-c6c(F)c(F)c(F)c(F)c6F)c6ccc3[nH]6)C=C5)C=C4)cc2)C1
REMARK SMILES IDX 17 1 15 2 16 3 14 4 10 5 11 6 86 7 12 8 13 9 7 10 8 11 9 12
REMARK SMILES IDX 6 13 5 14 4 15 2 16 1 17 3 18 18 19 19 20 20 21 21 22 22 23
REMARK SMILES IDX 23 24 24 25 85 26 25 27 84 28 26 29 27 30 28 31 78 32 29 33
REMARK SMILES IDX 83 34 77 35 79 36 30 37 82 38 76 39 75 40 31 42 63 43 43 44
REMARK SMILES IDX 62 45 44 46 47 47 61 48 80 49 45 50 46 51 60 53 81 54 48 55
REMARK SMILES IDX 32 56 33 57 41 58 34 59 35 60 39 61 42 62 36 63 37 64 40 65
REMARK SMILES IDX 38 66 64 67 65 68 73 69 66 70 67 71 71 72 74 73 68 74 69 75
REMARK SMILES IDX 72 76 70 77 49 78 50 79 58 80 51 81 52 82 56 83 59 84 53 85
REMARK SMILES IDX 54 86 57 87 55 88
REMARK H PARENT 79 41 47 52
REMARK Flexibility Score: inf
ROOT
ATOM      1  O   UNL A   1      35.503  22.485  25.367  1.00  0.00    -0.462 OA
ENDROOT
BRANCH   1   2
ATOM      2  C   UNL A   1      34.267  23.021  25.196  1.00  0.00     0.310 C 
ATOM      3  O   UNL A   1      33.558  23.433  26.111  1.00  0.00    -0.252 OA
BRANCH   2   4
ATOM      4  C   UNL A   1      33.800  23.078  23.748  1.00  0.00     0.114 C 
ATOM      5  N   UNL A   1      32.566  25.272  23.537  1.00  0.00    -0.201 NA
ATOM      6  C   UNL A   1      31.356  24.537  23.037  1.00  0.00     0.102 C 
ATOM      7  C   UNL A   1      33.816  24.509  23.199  1.00  0.00     0.117 C 
ATOM      8  C   UNL A   1      31.264  23.159  23.682  1.00  0.00     0.018 C 
ATOM      9  C   UNL A   1      32.510  22.326  23.425  1.00  0.00     0.018 C 
BRANCH   5  10
ATOM     10  S   UNL A   1      32.577  26.918  23.007  1.00  0.00     0.216 S 
ATOM     11  O   UNL A   1      33.567  27.041  21.957  1.00  0.00    -0.212 OA
ATOM     12  O   UNL A   1      32.688  27.732  24.201  1.00  0.00    -0.212 OA
BRANCH  10  13
ATOM     13  C   UNL A   1      30.952  27.207  22.283  1.00  0.00     0.182 C 
BRANCH  13  14
ATOM     14  C   UNL A   1      30.351  28.575  22.604  1.00  0.00     0.178 C 
BRANCH  14  15
ATOM     15  O   UNL A   1      29.821  29.374  21.545  1.00  0.00    -0.378 OA
BRANCH  15  16
ATOM     16  C   UNL A   1      28.543  29.983  21.673  1.00  0.00     0.112 C 
ATOM     17  C   UNL A   1      27.775  29.622  22.943  1.00  0.00     0.038 C 
ATOM     18  C   UNL A   1      28.693  31.464  21.388  1.00  0.00     0.038 C 
ENDBRANCH  15  16
ENDBRANCH  14  15
ENDBRANCH  13  14
ENDBRANCH  10  13
ENDBRANCH   5  10
ENDBRANCH   2   4
ENDBRANCH   1   2
BRANCH   1  19
ATOM     19  C   UNL A   1      35.694  21.104  24.979  1.00  0.00     0.274 C 
BRANCH  19  20
ATOM     20  C   UNL A   1      37.125  20.616  25.194  1.00  0.00     0.275 C 
BRANCH  20  21
ATOM     21  O   UNL A   1      37.994  21.733  25.432  1.00  0.00    -0.458 OA
BRANCH  21  22
ATOM     22  C   UNL A   1      39.128  21.414  26.093  1.00  0.00     0.338 C 
ATOM     23  O   UNL A   1      39.711  20.346  26.107  1.00  0.00    -0.246 OA
BRANCH  22  24
ATOM     24  C   UNL A   1      39.696  22.635  26.669  1.00  0.00     0.060 A 
ATOM     25  C   UNL A   1      39.246  23.855  26.157  1.00  0.00     0.016 A 
ATOM     26  C   UNL A   1      40.704  22.585  27.629  1.00  0.00     0.016 A 
ATOM     27  C   UNL A   1      39.819  25.042  26.578  1.00  0.00     0.010 A 
ATOM     28  C   UNL A   1      41.287  23.778  28.051  1.00  0.00     0.010 A 
ATOM     29  C   UNL A   1      40.862  25.004  27.508  1.00  0.00    -0.014 A 
BRANCH  29  30
ATOM     30  C   UNL A   1      41.590  26.250  27.813  1.00  0.00     0.031 A 
ATOM     31  C   UNL A   1      40.896  27.311  28.611  1.00  0.00     0.074 A 
ATOM     32  C   UNL A   1      42.860  26.397  27.406  1.00  0.00     0.049 A 
ATOM     33  N   UNL A   1      41.285  28.525  28.892  1.00  0.00    -0.248 NA
ATOM     34  C   UNL A   1      39.578  26.955  29.163  1.00  0.00     0.031 C 
ATOM     35  C   UNL A   1      43.640  25.385  26.694  1.00  0.00     0.029 A 
ATOM     36  N   UNL A   1      43.716  27.459  27.528  1.00  0.00    -0.354 N 
ATOM     37  C   UNL A   1      40.253  29.088  29.627  1.00  0.00     0.074 A 
ATOM     38  C   UNL A   1      39.211  28.091  29.737  1.00  0.00     0.031 C 
ATOM     39  C   UNL A   1      44.860  25.881  26.430  1.00  0.00     0.029 A 
ATOM     40  C   UNL A   1      44.921  27.260  26.905  1.00  0.00     0.049 A 
ATOM     41  H   UNL A   1      43.489  28.283  28.015  1.00  0.00     0.167 HD
ATOM     42  C   UNL A   1      40.189  30.331  30.159  1.00  0.00     0.037 A 
ATOM     43  C   UNL A   1      45.938  28.118  26.706  1.00  0.00     0.037 A 
ATOM     44  C   UNL A   1      41.247  31.300  30.043  1.00  0.00     0.049 A 
ATOM     45  C   UNL A   1      45.810  29.519  27.240  1.00  0.00     0.074 A 
ATOM     46  C   UNL A   1      41.299  32.589  30.542  1.00  0.00     0.029 A 
ATOM     47  N   UNL A   1      42.444  31.079  29.374  1.00  0.00    -0.354 N 
ATOM     48  N   UNL A   1      44.827  30.060  27.920  1.00  0.00    -0.248 NA
ATOM     49  C   UNL A   1      46.929  30.431  26.974  1.00  0.00     0.031 C 
ATOM     50  C   UNL A   1      42.506  33.165  30.130  1.00  0.00     0.029 A 
ATOM     51  C   UNL A   1      43.232  32.216  29.423  1.00  0.00     0.049 A 
ATOM     52  H   UNL A   1      42.696  30.238  28.929  1.00  0.00     0.167 HD
ATOM     53  C   UNL A   1      45.214  31.365  28.182  1.00  0.00     0.074 A 
ATOM     54  C   UNL A   1      46.533  31.529  27.603  1.00  0.00     0.031 C 
ATOM     55  C   UNL A   1      44.544  32.345  28.839  1.00  0.00     0.037 A 
BRANCH  42  56
ATOM     56  C   UNL A   1      38.924  30.721  30.865  1.00  0.00     0.064 A 
ATOM     57  C   UNL A   1      37.824  31.257  30.178  1.00  0.00     0.173 A 
ATOM     58  C   UNL A   1      38.806  30.545  32.252  1.00  0.00     0.173 A 
ATOM     59  F   UNL A   1      37.890  31.466  28.855  1.00  0.00    -0.203 F 
ATOM     60  C   UNL A   1      36.664  31.626  30.858  1.00  0.00     0.198 A 
ATOM     61  C   UNL A   1      37.635  30.886  32.923  1.00  0.00     0.198 A 
ATOM     62  F   UNL A   1      39.828  30.038  32.959  1.00  0.00    -0.203 F 
ATOM     63  F   UNL A   1      35.647  32.186  30.188  1.00  0.00    -0.200 F 
ATOM     64  C   UNL A   1      36.569  31.434  32.227  1.00  0.00     0.200 A 
ATOM     65  F   UNL A   1      37.541  30.691  34.247  1.00  0.00    -0.200 F 
ATOM     66  F   UNL A   1      35.452  31.788  32.879  1.00  0.00    -0.200 F 
ENDBRANCH  42  56
BRANCH  43  67
ATOM     67  C   UNL A   1      47.138  27.684  25.944  1.00  0.00     0.064 A 
ATOM     68  C   UNL A   1      47.152  27.705  24.543  1.00  0.00     0.173 A 
ATOM     69  C   UNL A   1      48.295  27.237  26.600  1.00  0.00     0.173 A 
ATOM     70  F   UNL A   1      46.064  28.104  23.869  1.00  0.00    -0.203 F 
ATOM     71  C   UNL A   1      48.270  27.280  23.828  1.00  0.00     0.198 A 
ATOM     72  C   UNL A   1      49.423  26.842  25.885  1.00  0.00     0.198 A 
ATOM     73  F   UNL A   1      48.336  27.197  27.940  1.00  0.00    -0.203 F 
ATOM     74  F   UNL A   1      48.240  27.268  22.489  1.00  0.00    -0.200 F 
ATOM     75  C   UNL A   1      49.406  26.855  24.499  1.00  0.00     0.200 A 
ATOM     76  F   UNL A   1      50.525  26.447  26.538  1.00  0.00    -0.200 F 
ATOM     77  F   UNL A   1      50.483  26.452  23.810  1.00  0.00    -0.200 F 
ENDBRANCH  43  67
BRANCH  55  78
ATOM     78  C   UNL A   1      45.243  33.664  28.992  1.00  0.00     0.064 A 
ATOM     79  C   UNL A   1      46.100  33.922  30.072  1.00  0.00     0.173 A 
ATOM     80  C   UNL A   1      45.081  34.666  28.023  1.00  0.00     0.173 A 
ATOM     81  F   UNL A   1      46.273  33.001  31.031  1.00  0.00    -0.203 F 
ATOM     82  C   UNL A   1      46.746  35.149  30.191  1.00  0.00     0.198 A 
ATOM     83  C   UNL A   1      45.757  35.877  28.129  1.00  0.00     0.198 A 
ATOM     84  F   UNL A   1      44.279  34.464  26.967  1.00  0.00    -0.203 F 
ATOM     85  F   UNL A   1      47.518  35.394  31.259  1.00  0.00    -0.200 F 
ATOM     86  C   UNL A   1      46.582  36.122  29.216  1.00  0.00     0.200 A 
ATOM     87  F   UNL A   1      45.609  36.810  27.177  1.00  0.00    -0.200 F 
ATOM     88  F   UNL A   1      47.212  37.298  29.329  1.00  0.00    -0.200 F 
ENDBRANCH  55  78
ENDBRANCH  29  30
ENDBRANCH  22  24
ENDBRANCH  21  22
ENDBRANCH  20  21
ENDBRANCH  19  20
ENDBRANCH   1  19
TORSDOF 16
ENDMDL
