MODEL 1
REMARK VINA RESULT:     -10.4      0.000      0.000
REMARK SMILES Cc1ccc(NS(=O)(=O)c2cc(C(=O)Nc3ccccc3C(=O)OCCOC(=O)c3ccc(-c4c5nc(c(-c6c(F)c(F)c(F)c(F)c6F)c6ccc([nH]6)c(-c6c(F)c(F)c(F)c(F)c6F)c6nc(c(-c7c(F)c(F)c(F)c(F)c7F)c7ccc4[nH]7)C=C6)C=C5)cc3)ccc2Br)cc1
REMARK SMILES IDX 24 1 22 2 23 3 21 4 16 5 17 6 18 7 20 8 19 9 15 10 13 11
REMARK SMILES IDX 14 12 12 14 10 15 11 16 95 17 94 18 96 19 93 20 7 21 8 22
REMARK SMILES IDX 9 23 6 24 5 26 1 27 2 28 3 29 98 30 4 31 97 32 25 33 26 34
REMARK SMILES IDX 27 35 28 36 29 37 30 38 31 39 92 40 32 41 91 42 33 43 34 44
REMARK SMILES IDX 35 45 85 46 36 47 90 48 84 49 86 50 37 51 89 52 83 53 82 54
REMARK SMILES IDX 38 56 70 57 50 58 69 59 51 60 54 61 68 62 87 63 52 64 53 65
REMARK SMILES IDX 67 67 88 68 55 69 39 70 40 71 48 72 41 73 42 74 46 75 49 76
REMARK SMILES IDX 43 77 44 78 47 79 45 80 71 81 72 82 80 83 73 84 74 85 78 86
REMARK SMILES IDX 81 87 75 88 76 89 79 90 77 91 56 92 57 93 65 94 58 95 59 96
REMARK SMILES IDX 63 97 66 98 60 99 61 100 64 101 62 102
REMARK H PARENT 15 13 6 25 86 55 54 66
REMARK Flexibility Score: inf
ROOT
ATOM      1  O   UNL A   1      40.516  23.096  28.090  1.00  0.00    -0.458 OA
ENDROOT
BRANCH   1   2
ATOM      2  C   UNL A   1      41.204  22.027  27.564  1.00  0.00     0.340 C 
ATOM      3  O   UNL A   1      40.712  20.945  27.804  1.00  0.00    -0.246 OA
BRANCH   2   4
ATOM      4  C   UNL A   1      42.667  22.413  26.674  1.00  0.00     0.083 A 
ATOM      5  C   UNL A   1      43.794  24.106  26.702  1.00  0.00     0.056 A 
ATOM      6  C   UNL A   1      45.476  24.845  25.669  1.00  0.00     0.027 A 
ATOM      7  C   UNL A   1      46.316  23.451  24.598  1.00  0.00     0.002 A 
ATOM      8  C   UNL A   1      43.712  21.135  25.288  1.00  0.00     0.018 A 
ATOM      9  C   UNL A   1      45.369  21.780  24.539  1.00  0.00     0.001 A 
BRANCH   5  10
ATOM     10  N   UNL A   1      43.374  24.744  28.056  1.00  0.00    -0.321 N 
ATOM     11  C   UNL A   1      43.797  25.823  28.926  1.00  0.00     0.255 C 
ATOM     12  O   UNL A   1      42.995  26.166  29.808  1.00  0.00    -0.269 OA
ATOM     13  H   UNL A   1      42.591  24.279  28.433  1.00  0.00     0.170 HD
BRANCH  11  14
ATOM     14  C   UNL A   1      45.119  26.625  28.924  1.00  0.00     0.041 A 
ATOM     15  C   UNL A   1      46.532  27.949  27.374  1.00  0.00     0.102 A 
ATOM     16  C   UNL A   1      45.349  27.620  27.994  1.00  0.00     0.037 A 
ATOM     17  C   UNL A   1      47.687  27.445  27.944  1.00  0.00     0.038 A 
ATOM     18  C   UNL A   1      47.557  26.621  29.102  1.00  0.00     0.018 A 
ATOM     19  Br  UNL A   1      49.398  27.644  27.162  1.00  0.00    -0.049 Br
ATOM     20  C   UNL A   1      46.277  26.195  29.584  1.00  0.00     0.015 A 
BRANCH  15  21
ATOM     21  S   UNL A   1      46.299  28.715  25.755  1.00  0.00     0.263 S 
ATOM     22  O   UNL A   1      45.048  28.237  25.193  1.00  0.00    -0.201 OA
ATOM     23  O   UNL A   1      47.517  28.486  25.011  1.00  0.00    -0.201 OA
BRANCH  21  24
ATOM     24  N   UNL A   1      46.100  30.541  25.841  1.00  0.00    -0.280 N 
ATOM     25  H   UNL A   1      46.244  31.032  25.000  1.00  0.00     0.180 HD
BRANCH  24  26
ATOM     26  C   UNL A   1      45.708  31.450  27.153  1.00  0.00     0.049 A 
ATOM     27  C   UNL A   1      43.621  34.428  30.744  1.00  0.00     0.044 C 
ATOM     28  C   UNL A   1      44.010  33.444  29.686  1.00  0.00    -0.051 A 
ATOM     29  C   UNL A   1      43.790  33.743  27.975  1.00  0.00     0.005 A 
ATOM     30  C   UNL A   1      44.925  32.163  30.332  1.00  0.00     0.005 A 
ATOM     31  C   UNL A   1      44.540  32.779  26.711  1.00  0.00     0.027 A 
ATOM     32  C   UNL A   1      45.874  31.142  29.181  1.00  0.00     0.027 A 
ENDBRANCH  24  26
ENDBRANCH  21  24
ENDBRANCH  15  21
ENDBRANCH  11  14
ENDBRANCH   5  10
ENDBRANCH   2   4
ENDBRANCH   1   2
BRANCH   1  33
ATOM     33  C   UNL A   1      39.509  24.067  27.622  1.00  0.00     0.275 C 
BRANCH  33  34
ATOM     34  C   UNL A   1      39.603  25.544  28.030  1.00  0.00     0.275 C 
BRANCH  34  35
ATOM     35  O   UNL A   1      40.746  26.260  27.661  1.00  0.00    -0.458 OA
BRANCH  35  36
ATOM     36  C   UNL A   1      40.745  27.034  26.578  1.00  0.00     0.338 C 
ATOM     37  O   UNL A   1      41.027  26.410  25.568  1.00  0.00    -0.246 OA
BRANCH  36  38
ATOM     38  C   UNL A   1      40.632  28.606  26.464  1.00  0.00     0.060 A 
ATOM     39  C   UNL A   1      42.259  29.337  26.630  1.00  0.00     0.016 A 
ATOM     40  C   UNL A   1      39.499  29.083  27.431  1.00  0.00     0.016 A 
ATOM     41  C   UNL A   1      42.573  30.203  28.556  1.00  0.00     0.010 A 
ATOM     42  C   UNL A   1      39.753  29.725  28.922  1.00  0.00     0.010 A 
ATOM     43  C   UNL A   1      41.193  30.013  29.589  1.00  0.00    -0.014 A 
BRANCH  43  44
ATOM     44  C   UNL A   1      41.090  30.207  31.052  1.00  0.00     0.031 A 
ATOM     45  C   UNL A   1      40.498  31.664  30.950  1.00  0.00     0.074 A 
ATOM     46  C   UNL A   1      41.080  28.992  31.822  1.00  0.00     0.049 A 
ATOM     47  N   UNL A   1      40.294  32.601  31.807  1.00  0.00    -0.248 NA
ATOM     48  C   UNL A   1      40.178  32.349  29.626  1.00  0.00     0.031 C 
ATOM     49  C   UNL A   1      40.289  28.392  32.968  1.00  0.00     0.029 A 
ATOM     50  N   UNL A   1      42.136  27.998  31.860  1.00  0.00    -0.354 N 
ATOM     51  C   UNL A   1      39.134  33.222  31.297  1.00  0.00     0.074 A 
ATOM     52  C   UNL A   1      39.335  33.334  29.904  1.00  0.00     0.031 C 
ATOM     53  C   UNL A   1      41.029  27.602  33.788  1.00  0.00     0.029 A 
ATOM     54  C   UNL A   1      42.335  27.498  33.196  1.00  0.00     0.049 A 
ATOM     55  H   UNL A   1      42.651  27.704  31.075  1.00  0.00     0.167 HD
ATOM     56  C   UNL A   1      37.949  32.997  31.938  1.00  0.00     0.037 A 
ATOM     57  C   UNL A   1      43.496  27.676  33.890  1.00  0.00     0.037 A 
ATOM     58  C   UNL A   1      38.206  32.071  33.048  1.00  0.00     0.049 A 
ATOM     59  C   UNL A   1      43.250  28.949  34.669  1.00  0.00     0.074 A 
ATOM     60  C   UNL A   1      37.831  30.790  33.386  1.00  0.00     0.029 A 
ATOM     61  N   UNL A   1      39.303  32.351  33.846  1.00  0.00    -0.354 N 
ATOM     62  N   UNL A   1      42.414  29.876  34.263  1.00  0.00    -0.248 NA
ATOM     63  C   UNL A   1      43.672  29.104  36.053  1.00  0.00     0.031 C 
ATOM     64  C   UNL A   1      38.750  30.347  34.408  1.00  0.00     0.029 A 
ATOM     65  C   UNL A   1      39.762  31.287  34.573  1.00  0.00     0.049 A 
ATOM     66  H   UNL A   1      39.719  33.242  33.886  1.00  0.00     0.167 HD
ATOM     67  C   UNL A   1      41.998  30.580  35.351  1.00  0.00     0.074 A 
ATOM     68  C   UNL A   1      42.828  30.072  36.438  1.00  0.00     0.031 C 
ATOM     69  C   UNL A   1      40.976  31.490  35.377  1.00  0.00     0.037 A 
BRANCH  56  70
ATOM     70  C   UNL A   1      36.566  33.474  31.547  1.00  0.00     0.064 A 
ATOM     71  C   UNL A   1      35.898  34.288  32.486  1.00  0.00     0.173 A 
ATOM     72  C   UNL A   1      35.875  33.303  30.323  1.00  0.00     0.173 A 
ATOM     73  F   UNL A   1      36.441  34.548  33.683  1.00  0.00    -0.203 F 
ATOM     74  C   UNL A   1      34.677  34.909  32.227  1.00  0.00     0.198 A 
ATOM     75  C   UNL A   1      34.651  33.943  30.058  1.00  0.00     0.198 A 
ATOM     76  F   UNL A   1      36.337  32.523  29.340  1.00  0.00    -0.203 F 
ATOM     77  F   UNL A   1      34.122  35.683  33.168  1.00  0.00    -0.200 F 
ATOM     78  C   UNL A   1      34.060  34.753  31.007  1.00  0.00     0.200 A 
ATOM     79  F   UNL A   1      34.055  33.784  28.866  1.00  0.00    -0.200 F 
ATOM     80  F   UNL A   1      32.909  35.388  30.746  1.00  0.00    -0.200 F 
ENDBRANCH  56  70
BRANCH  57  81
ATOM     81  C   UNL A   1      44.642  27.353  33.003  1.00  0.00     0.064 A 
ATOM     82  C   UNL A   1      45.413  28.444  32.517  1.00  0.00     0.173 A 
ATOM     83  C   UNL A   1      45.280  26.143  33.242  1.00  0.00     0.173 A 
ATOM     84  F   UNL A   1      44.835  29.634  32.285  1.00  0.00    -0.203 F 
ATOM     85  C   UNL A   1      46.801  28.375  32.470  1.00  0.00     0.198 A 
ATOM     86  C   UNL A   1      46.660  26.110  33.256  1.00  0.00     0.198 A 
ATOM     87  F   UNL A   1      44.607  25.111  33.773  1.00  0.00    -0.203 F 
ATOM     88  F   UNL A   1      47.533  29.480  32.255  1.00  0.00    -0.200 F 
ATOM     89  C   UNL A   1      47.420  27.208  32.858  1.00  0.00     0.200 A 
ATOM     90  F   UNL A   1      47.228  25.093  33.905  1.00  0.00    -0.200 F 
ATOM     91  F   UNL A   1      48.740  27.228  33.065  1.00  0.00    -0.200 F 
ENDBRANCH  57  81
BRANCH  69  92
ATOM     92  C   UNL A   1      41.112  32.718  36.261  1.00  0.00     0.064 A 
ATOM     93  C   UNL A   1      42.038  33.746  36.007  1.00  0.00     0.173 A 
ATOM     94  C   UNL A   1      40.250  32.977  37.354  1.00  0.00     0.173 A 
ATOM     95  F   UNL A   1      42.695  33.853  34.845  1.00  0.00    -0.203 F 
ATOM     96  C   UNL A   1      42.284  34.763  36.918  1.00  0.00     0.198 A 
ATOM     97  C   UNL A   1      40.388  34.092  38.168  1.00  0.00     0.198 A 
ATOM     98  F   UNL A   1      39.213  32.201  37.681  1.00  0.00    -0.203 F 
ATOM     99  F   UNL A   1      43.324  35.580  36.719  1.00  0.00    -0.200 F 
ATOM    100  C   UNL A   1      41.453  34.940  37.999  1.00  0.00     0.200 A 
ATOM    101  F   UNL A   1      39.475  34.323  39.120  1.00  0.00    -0.200 F 
ATOM    102  F   UNL A   1      41.655  35.948  38.852  1.00  0.00    -0.200 F 
ENDBRANCH  69  92
ENDBRANCH  43  44
ENDBRANCH  36  38
ENDBRANCH  35  36
ENDBRANCH  34  35
ENDBRANCH  33  34
ENDBRANCH   1  33
TORSDOF 16
ENDMDL
MODEL 2
REMARK VINA RESULT:      -9.7      2.537      5.494
REMARK SMILES Cc1ccc(NS(=O)(=O)c2cc(C(=O)Nc3ccccc3C(=O)OCCOC(=O)c3ccc(-c4c5nc(c(-c6c(F)c(F)c(F)c(F)c6F)c6ccc([nH]6)c(-c6c(F)c(F)c(F)c(F)c6F)c6nc(c(-c7c(F)c(F)c(F)c(F)c7F)c7ccc4[nH]7)C=C6)C=C5)cc3)ccc2Br)cc1
REMARK SMILES IDX 24 1 22 2 23 3 21 4 16 5 17 6 18 7 20 8 19 9 15 10 13 11
REMARK SMILES IDX 14 12 12 14 10 15 11 16 95 17 94 18 96 19 93 20 7 21 8 22
REMARK SMILES IDX 9 23 6 24 5 26 1 27 2 28 3 29 98 30 4 31 97 32 25 33 26 34
REMARK SMILES IDX 27 35 28 36 29 37 30 38 31 39 92 40 32 41 91 42 33 43 34 44
REMARK SMILES IDX 35 45 85 46 36 47 90 48 84 49 86 50 37 51 89 52 83 53 82 54
REMARK SMILES IDX 38 56 70 57 50 58 69 59 51 60 54 61 68 62 87 63 52 64 53 65
REMARK SMILES IDX 67 67 88 68 55 69 39 70 40 71 48 72 41 73 42 74 46 75 49 76
REMARK SMILES IDX 43 77 44 78 47 79 45 80 71 81 72 82 80 83 73 84 74 85 78 86
REMARK SMILES IDX 81 87 75 88 76 89 79 90 77 91 56 92 57 93 65 94 58 95 59 96
REMARK SMILES IDX 63 97 66 98 60 99 61 100 64 101 62 102
REMARK H PARENT 15 13 6 25 86 55 54 66
REMARK Flexibility Score: inf
ROOT
ATOM      1  O   UNL A   1      46.888  27.712  27.043  1.00  0.00    -0.458 OA
ENDROOT
BRANCH   1   2
ATOM      2  C   UNL A   1      46.942  27.628  28.415  1.00  0.00     0.340 C 
ATOM      3  O   UNL A   1      47.622  28.481  28.944  1.00  0.00    -0.246 OA
BRANCH   2   4
ATOM      4  C   UNL A   1      46.052  26.301  29.142  1.00  0.00     0.083 A 
ATOM      5  C   UNL A   1      45.083  24.749  28.255  1.00  0.00     0.056 A 
ATOM      6  C   UNL A   1      43.872  23.141  28.879  1.00  0.00     0.027 A 
ATOM      7  C   UNL A   1      43.901  22.945  30.818  1.00  0.00     0.002 A 
ATOM      8  C   UNL A   1      45.769  25.936  31.248  1.00  0.00     0.018 A 
ATOM      9  C   UNL A   1      44.840  24.327  31.767  1.00  0.00     0.001 A 
BRANCH   5  10
ATOM     10  N   UNL A   1      45.753  24.716  26.853  1.00  0.00    -0.321 N 
ATOM     11  C   UNL A   1      45.589  24.031  25.586  1.00  0.00     0.255 C 
ATOM     12  O   UNL A   1      46.196  24.512  24.617  1.00  0.00    -0.269 OA
ATOM     13  H   UNL A   1      46.509  25.346  26.813  1.00  0.00     0.170 HD
BRANCH  11  14
ATOM     14  C   UNL A   1      44.760  22.768  25.253  1.00  0.00     0.041 A 
ATOM     15  C   UNL A   1      42.582  21.726  25.819  1.00  0.00     0.102 A 
ATOM     16  C   UNL A   1      43.386  22.758  25.395  1.00  0.00     0.037 A 
ATOM     17  C   UNL A   1      43.149  20.464  25.820  1.00  0.00     0.038 A 
ATOM     18  C   UNL A   1      44.510  20.342  25.407  1.00  0.00     0.018 A 
ATOM     19  Br  UNL A   1      42.272  18.937  26.513  1.00  0.00    -0.049 Br
ATOM     20  C   UNL A   1      45.322  21.491  25.141  1.00  0.00     0.015 A 
BRANCH  15  21
ATOM     21  S   UNL A   1      41.045  22.287  26.584  1.00  0.00     0.263 S 
ATOM     22  O   UNL A   1      40.825  23.674  26.217  1.00  0.00    -0.201 OA
ATOM     23  O   UNL A   1      41.139  21.955  27.987  1.00  0.00    -0.201 OA
BRANCH  21  24
ATOM     24  N   UNL A   1      39.560  21.402  25.958  1.00  0.00    -0.280 N 
ATOM     25  H   UNL A   1      39.646  20.426  25.865  1.00  0.00     0.180 HD
BRANCH  24  26
ATOM     26  C   UNL A   1      38.108  22.046  25.536  1.00  0.00     0.049 A 
ATOM     27  C   UNL A   1      33.220  23.175  24.561  1.00  0.00     0.044 C 
ATOM     28  C   UNL A   1      34.566  22.759  25.064  1.00  0.00    -0.051 A 
ATOM     29  C   UNL A   1      35.226  21.156  24.818  1.00  0.00     0.005 A 
ATOM     30  C   UNL A   1      35.456  24.092  25.637  1.00  0.00     0.005 A 
ATOM     31  C   UNL A   1      36.914  20.744  25.083  1.00  0.00     0.027 A 
ATOM     32  C   UNL A   1      37.240  23.887  25.844  1.00  0.00     0.027 A 
ENDBRANCH  24  26
ENDBRANCH  21  24
ENDBRANCH  15  21
ENDBRANCH  11  14
ENDBRANCH   5  10
ENDBRANCH   2   4
ENDBRANCH   1   2
BRANCH   1  33
ATOM     33  C   UNL A   1      46.098  28.448  26.038  1.00  0.00     0.275 C 
BRANCH  33  34
ATOM     34  C   UNL A   1      44.856  27.804  25.402  1.00  0.00     0.275 C 
BRANCH  34  35
ATOM     35  O   UNL A   1      43.899  27.238  26.249  1.00  0.00    -0.458 OA
BRANCH  35  36
ATOM     36  C   UNL A   1      43.216  27.993  27.107  1.00  0.00     0.338 C 
ATOM     37  O   UNL A   1      43.068  27.442  28.186  1.00  0.00    -0.246 OA
BRANCH  36  38
ATOM     38  C   UNL A   1      42.440  29.347  26.862  1.00  0.00     0.060 A 
ATOM     39  C   UNL A   1      43.522  30.730  27.214  1.00  0.00     0.016 A 
ATOM     40  C   UNL A   1      41.070  29.264  27.611  1.00  0.00     0.016 A 
ATOM     41  C   UNL A   1      43.097  31.644  29.095  1.00  0.00     0.010 A 
ATOM     42  C   UNL A   1      40.761  29.951  29.072  1.00  0.00     0.010 A 
ATOM     43  C   UNL A   1      41.793  30.854  29.922  1.00  0.00    -0.014 A 
BRANCH  43  44
ATOM     44  C   UNL A   1      41.373  30.981  31.335  1.00  0.00     0.031 A 
ATOM     45  C   UNL A   1      40.560  32.313  31.112  1.00  0.00     0.074 A 
ATOM     46  C   UNL A   1      41.431  29.760  32.094  1.00  0.00     0.049 A 
ATOM     47  N   UNL A   1      40.028  33.172  31.908  1.00  0.00    -0.248 NA
ATOM     48  C   UNL A   1      40.387  32.971  29.748  1.00  0.00     0.031 C 
ATOM     49  C   UNL A   1      40.553  28.994  33.063  1.00  0.00     0.029 A 
ATOM     50  N   UNL A   1      42.621  28.968  32.343  1.00  0.00    -0.354 N 
ATOM     51  C   UNL A   1      38.897  33.593  31.176  1.00  0.00     0.074 A 
ATOM     52  C   UNL A   1      39.342  33.782  29.850  1.00  0.00     0.031 C 
ATOM     53  C   UNL A   1      41.249  28.322  34.017  1.00  0.00     0.029 A 
ATOM     54  C   UNL A   1      42.642  28.470  33.694  1.00  0.00     0.049 A 
ATOM     55  H   UNL A   1      43.324  28.795  31.677  1.00  0.00     0.167 HD
ATOM     56  C   UNL A   1      37.670  33.141  31.571  1.00  0.00     0.037 A 
ATOM     57  C   UNL A   1      43.594  28.828  34.603  1.00  0.00     0.037 A 
ATOM     58  C   UNL A   1      37.867  32.241  32.714  1.00  0.00     0.049 A 
ATOM     59  C   UNL A   1      42.976  30.012  35.313  1.00  0.00     0.074 A 
ATOM     60  C   UNL A   1      37.670  30.905  32.977  1.00  0.00     0.029 A 
ATOM     61  N   UNL A   1      38.719  32.685  33.712  1.00  0.00    -0.354 N 
ATOM     62  N   UNL A   1      42.082  30.790  34.746  1.00  0.00    -0.248 NA
ATOM     63  C   UNL A   1      43.084  30.196  36.753  1.00  0.00     0.031 C 
ATOM     64  C   UNL A   1      38.437  30.599  34.162  1.00  0.00     0.029 A 
ATOM     65  C   UNL A   1      39.211  31.697  34.520  1.00  0.00     0.049 A 
ATOM     66  H   UNL A   1      38.952  33.635  33.829  1.00  0.00     0.167 HD
ATOM     67  C   UNL A   1      41.342  31.374  35.727  1.00  0.00     0.074 A 
ATOM     68  C   UNL A   1      42.022  30.986  36.960  1.00  0.00     0.031 C 
ATOM     69  C   UNL A   1      40.188  32.087  35.547  1.00  0.00     0.037 A 
BRANCH  56  70
ATOM     70  C   UNL A   1      36.327  33.378  30.912  1.00  0.00     0.064 A 
ATOM     71  C   UNL A   1      35.474  34.305  31.549  1.00  0.00     0.173 A 
ATOM     72  C   UNL A   1      35.833  32.875  29.685  1.00  0.00     0.173 A 
ATOM     73  F   UNL A   1      35.820  34.874  32.712  1.00  0.00    -0.203 F 
ATOM     74  C   UNL A   1      34.262  34.726  31.005  1.00  0.00     0.198 A 
ATOM     75  C   UNL A   1      34.617  33.313  29.131  1.00  0.00     0.198 A 
ATOM     76  F   UNL A   1      36.486  31.951  28.972  1.00  0.00    -0.203 F 
ATOM     77  F   UNL A   1      33.524  35.627  31.667  1.00  0.00    -0.200 F 
ATOM     78  C   UNL A   1      33.839  34.246  29.787  1.00  0.00     0.200 A 
ATOM     79  F   UNL A   1      34.212  32.838  27.942  1.00  0.00    -0.200 F 
ATOM     80  F   UNL A   1      32.696  34.688  29.246  1.00  0.00    -0.200 F 
ENDBRANCH  56  70
BRANCH  57  81
ATOM     81  C   UNL A   1      44.930  28.741  33.962  1.00  0.00     0.064 A 
ATOM     82  C   UNL A   1      45.563  29.966  33.614  1.00  0.00     0.173 A 
ATOM     83  C   UNL A   1      45.724  27.668  34.343  1.00  0.00     0.173 A 
ATOM     84  F   UNL A   1      44.829  31.031  33.252  1.00  0.00    -0.203 F 
ATOM     85  C   UNL A   1      46.921  30.159  33.839  1.00  0.00     0.198 A 
ATOM     86  C   UNL A   1      47.057  27.894  34.625  1.00  0.00     0.198 A 
ATOM     87  F   UNL A   1      45.166  26.519  34.753  1.00  0.00    -0.203 F 
ATOM     88  F   UNL A   1      47.462  31.385  33.749  1.00  0.00    -0.200 F 
ATOM     89  C   UNL A   1      47.661  29.121  34.362  1.00  0.00     0.200 A 
ATOM     90  F   UNL A   1      47.668  26.989  35.391  1.00  0.00    -0.200 F 
ATOM     91  F   UNL A   1      48.888  29.385  34.820  1.00  0.00    -0.200 F 
ENDBRANCH  57  81
BRANCH  69  92
ATOM     92  C   UNL A   1      39.926  33.291  36.436  1.00  0.00     0.064 A 
ATOM     93  C   UNL A   1      40.369  34.588  36.118  1.00  0.00     0.173 A 
ATOM     94  C   UNL A   1      39.128  33.226  37.603  1.00  0.00     0.173 A 
ATOM     95  F   UNL A   1      40.834  34.914  34.906  1.00  0.00    -0.203 F 
ATOM     96  C   UNL A   1      40.290  35.639  37.020  1.00  0.00     0.198 A 
ATOM     97  C   UNL A   1      38.903  34.324  38.419  1.00  0.00     0.198 A 
ATOM     98  F   UNL A   1      38.493  32.121  38.006  1.00  0.00    -0.203 F 
ATOM     99  F   UNL A   1      40.923  36.785  36.745  1.00  0.00    -0.200 F 
ATOM    100  C   UNL A   1      39.551  35.508  38.172  1.00  0.00     0.200 A 
ATOM    101  F   UNL A   1      38.057  34.211  39.451  1.00  0.00    -0.200 F 
ATOM    102  F   UNL A   1      39.429  36.534  39.020  1.00  0.00    -0.200 F 
ENDBRANCH  69  92
ENDBRANCH  43  44
ENDBRANCH  36  38
ENDBRANCH  35  36
ENDBRANCH  34  35
ENDBRANCH  33  34
ENDBRANCH   1  33
TORSDOF 16
ENDMDL
MODEL 3
REMARK VINA RESULT:      -9.7      3.985      7.277
REMARK SMILES Cc1ccc(NS(=O)(=O)c2cc(C(=O)Nc3ccccc3C(=O)OCCOC(=O)c3ccc(-c4c5nc(c(-c6c(F)c(F)c(F)c(F)c6F)c6ccc([nH]6)c(-c6c(F)c(F)c(F)c(F)c6F)c6nc(c(-c7c(F)c(F)c(F)c(F)c7F)c7ccc4[nH]7)C=C6)C=C5)cc3)ccc2Br)cc1
REMARK SMILES IDX 24 1 22 2 23 3 21 4 16 5 17 6 18 7 20 8 19 9 15 10 13 11
REMARK SMILES IDX 14 12 12 14 10 15 11 16 95 17 94 18 96 19 93 20 7 21 8 22
REMARK SMILES IDX 9 23 6 24 5 26 1 27 2 28 3 29 98 30 4 31 97 32 25 33 26 34
REMARK SMILES IDX 27 35 28 36 29 37 30 38 31 39 92 40 32 41 91 42 33 43 34 44
REMARK SMILES IDX 35 45 85 46 36 47 90 48 84 49 86 50 37 51 89 52 83 53 82 54
REMARK SMILES IDX 38 56 70 57 50 58 69 59 51 60 54 61 68 62 87 63 52 64 53 65
REMARK SMILES IDX 67 67 88 68 55 69 39 70 40 71 48 72 41 73 42 74 46 75 49 76
REMARK SMILES IDX 43 77 44 78 47 79 45 80 71 81 72 82 80 83 73 84 74 85 78 86
REMARK SMILES IDX 81 87 75 88 76 89 79 90 77 91 56 92 57 93 65 94 58 95 59 96
REMARK SMILES IDX 63 97 66 98 60 99 61 100 64 101 62 102
REMARK H PARENT 15 13 6 25 86 55 54 66
REMARK Flexibility Score: inf
ROOT
ATOM      1  O   UNL A   1      45.508  28.901  25.758  1.00  0.00    -0.458 OA
ENDROOT
BRANCH   1   2
ATOM      2  C   UNL A   1      46.698  28.733  25.089  1.00  0.00     0.340 C 
ATOM      3  O   UNL A   1      46.629  28.900  23.890  1.00  0.00    -0.246 OA
BRANCH   2   4
ATOM      4  C   UNL A   1      48.081  28.284  26.074  1.00  0.00     0.083 A 
ATOM      5  C   UNL A   1      48.796  26.439  26.541  1.00  0.00     0.056 A 
ATOM      6  C   UNL A   1      50.319  25.650  27.766  1.00  0.00     0.027 A 
ATOM      7  C   UNL A   1      51.503  27.056  28.414  1.00  0.00     0.002 A 
ATOM      8  C   UNL A   1      49.453  29.622  27.060  1.00  0.00     0.018 A 
ATOM      9  C   UNL A   1      50.959  28.848  27.985  1.00  0.00     0.001 A 
BRANCH   5  10
ATOM     10  N   UNL A   1      48.176  25.564  25.415  1.00  0.00    -0.321 N 
ATOM     11  C   UNL A   1      47.134  24.568  25.263  1.00  0.00     0.255 C 
ATOM     12  O   UNL A   1      46.784  24.311  24.101  1.00  0.00    -0.269 OA
ATOM     13  H   UNL A   1      48.621  25.737  24.554  1.00  0.00     0.170 HD
BRANCH  11  14
ATOM     14  C   UNL A   1      46.380  23.762  26.347  1.00  0.00     0.041 A 
ATOM     15  C   UNL A   1      44.185  22.668  26.714  1.00  0.00     0.102 A 
ATOM     16  C   UNL A   1      45.343  22.913  26.014  1.00  0.00     0.037 A 
ATOM     17  C   UNL A   1      44.169  23.071  28.037  1.00  0.00     0.038 A 
ATOM     18  C   UNL A   1      45.331  23.716  28.555  1.00  0.00     0.018 A 
ATOM     19  Br  UNL A   1      42.626  22.973  29.128  1.00  0.00    -0.049 Br
ATOM     20  C   UNL A   1      46.430  24.079  27.710  1.00  0.00     0.015 A 
BRANCH  15  21
ATOM     21  S   UNL A   1      42.811  22.152  25.661  1.00  0.00     0.263 S 
ATOM     22  O   UNL A   1      42.581  20.733  25.862  1.00  0.00    -0.201 OA
ATOM     23  O   UNL A   1      43.117  22.615  24.327  1.00  0.00    -0.201 OA
BRANCH  21  24
ATOM     24  N   UNL A   1      41.216  22.947  26.113  1.00  0.00    -0.280 N 
ATOM     25  H   UNL A   1      40.463  22.337  26.289  1.00  0.00     0.180 HD
BRANCH  24  26
ATOM     26  C   UNL A   1      40.897  24.553  26.260  1.00  0.00     0.049 A 
ATOM     27  C   UNL A   1      39.686  29.313  27.673  1.00  0.00     0.044 C 
ATOM     28  C   UNL A   1      40.167  27.909  27.473  1.00  0.00    -0.051 A 
ATOM     29  C   UNL A   1      39.293  26.508  28.054  1.00  0.00     0.005 A 
ATOM     30  C   UNL A   1      41.482  27.849  26.396  1.00  0.00     0.005 A 
ATOM     31  C   UNL A   1      39.639  24.862  27.544  1.00  0.00     0.027 A 
ATOM     32  C   UNL A   1      41.900  26.249  25.666  1.00  0.00     0.027 A 
ENDBRANCH  24  26
ENDBRANCH  21  24
ENDBRANCH  15  21
ENDBRANCH  11  14
ENDBRANCH   5  10
ENDBRANCH   2   4
ENDBRANCH   1   2
BRANCH   1  33
ATOM     33  C   UNL A   1      44.796  30.003  26.433  1.00  0.00     0.275 C 
BRANCH  33  34
ATOM     34  C   UNL A   1      45.431  30.717  27.636  1.00  0.00     0.275 C 
BRANCH  34  35
ATOM     35  O   UNL A   1      45.301  30.127  28.897  1.00  0.00    -0.458 OA
BRANCH  35  36
ATOM     36  C   UNL A   1      46.180  29.220  29.320  1.00  0.00     0.338 C 
ATOM     37  O   UNL A   1      47.208  29.734  29.730  1.00  0.00    -0.246 OA
BRANCH  36  38
ATOM     38  C   UNL A   1      46.149  27.647  29.179  1.00  0.00     0.060 A 
ATOM     39  C   UNL A   1      44.450  27.081  29.147  1.00  0.00     0.016 A 
ATOM     40  C   UNL A   1      47.114  27.045  30.253  1.00  0.00     0.016 A 
ATOM     41  C   UNL A   1      43.838  26.224  31.004  1.00  0.00     0.010 A 
ATOM     42  C   UNL A   1      46.633  26.411  31.691  1.00  0.00     0.010 A 
ATOM     43  C   UNL A   1      45.106  26.260  32.187  1.00  0.00    -0.014 A 
BRANCH  43  44
ATOM     44  C   UNL A   1      45.024  26.036  33.647  1.00  0.00     0.031 A 
ATOM     45  C   UNL A   1      44.747  27.547  33.997  1.00  0.00     0.074 A 
ATOM     46  C   UNL A   1      44.754  24.677  34.035  1.00  0.00     0.049 A 
ATOM     47  N   UNL A   1      44.728  28.215  35.096  1.00  0.00    -0.248 NA
ATOM     48  C   UNL A   1      44.593  28.638  32.943  1.00  0.00     0.031 C 
ATOM     49  C   UNL A   1      43.840  23.941  34.994  1.00  0.00     0.029 A 
ATOM     50  N   UNL A   1      45.582  23.525  33.734  1.00  0.00    -0.354 N 
ATOM     51  C   UNL A   1      43.728  29.178  34.842  1.00  0.00     0.074 A 
ATOM     52  C   UNL A   1      43.967  29.648  33.532  1.00  0.00     0.031 C 
ATOM     53  C   UNL A   1      44.390  22.814  35.517  1.00  0.00     0.029 A 
ATOM     54  C   UNL A   1      45.654  22.628  34.859  1.00  0.00     0.049 A 
ATOM     55  H   UNL A   1      46.036  23.374  32.874  1.00  0.00     0.167 HD
ATOM     56  C   UNL A   1      42.513  29.018  35.446  1.00  0.00     0.037 A 
ATOM     57  C   UNL A   1      46.818  22.358  35.519  1.00  0.00     0.037 A 
ATOM     58  C   UNL A   1      42.558  27.777  36.229  1.00  0.00     0.049 A 
ATOM     59  C   UNL A   1      46.827  23.370  36.643  1.00  0.00     0.074 A 
ATOM     60  C   UNL A   1      41.923  26.556  36.201  1.00  0.00     0.029 A 
ATOM     61  N   UNL A   1      43.678  27.585  37.021  1.00  0.00    -0.354 N 
ATOM     62  N   UNL A   1      46.206  24.525  36.561  1.00  0.00    -0.248 NA
ATOM     63  C   UNL A   1      47.253  23.027  37.992  1.00  0.00     0.031 C 
ATOM     64  C   UNL A   1      42.717  25.659  37.007  1.00  0.00     0.029 A 
ATOM     65  C   UNL A   1      43.897  26.286  37.389  1.00  0.00     0.049 A 
ATOM     66  H   UNL A   1      44.268  28.324  37.296  1.00  0.00     0.167 HD
ATOM     67  C   UNL A   1      45.929  24.949  37.824  1.00  0.00     0.074 A 
ATOM     68  C   UNL A   1      46.621  23.989  38.679  1.00  0.00     0.031 C 
ATOM     69  C   UNL A   1      45.116  25.997  38.159  1.00  0.00     0.037 A 
BRANCH  56  70
ATOM     70  C   UNL A   1      41.264  29.857  35.274  1.00  0.00     0.064 A 
ATOM     71  C   UNL A   1      40.359  29.432  34.278  1.00  0.00     0.173 A 
ATOM     72  C   UNL A   1      40.818  30.961  36.039  1.00  0.00     0.173 A 
ATOM     73  F   UNL A   1      40.644  28.390  33.487  1.00  0.00    -0.203 F 
ATOM     74  C   UNL A   1      39.110  30.020  34.080  1.00  0.00     0.198 A 
ATOM     75  C   UNL A   1      39.550  31.542  35.848  1.00  0.00     0.198 A 
ATOM     76  F   UNL A   1      41.568  31.526  36.991  1.00  0.00    -0.203 F 
ATOM     77  F   UNL A   1      38.303  29.539  33.125  1.00  0.00    -0.200 F 
ATOM     78  C   UNL A   1      38.695  31.063  34.877  1.00  0.00     0.200 A 
ATOM     79  F   UNL A   1      39.155  32.560  36.629  1.00  0.00    -0.200 F 
ATOM     80  F   UNL A   1      37.476  31.594  34.713  1.00  0.00    -0.200 F 
ENDBRANCH  56  70
BRANCH  57  81
ATOM     81  C   UNL A   1      47.884  22.084  34.525  1.00  0.00     0.064 A 
ATOM     82  C   UNL A   1      48.846  23.109  34.306  1.00  0.00     0.173 A 
ATOM     83  C   UNL A   1      48.286  20.760  34.406  1.00  0.00     0.173 A 
ATOM     84  F   UNL A   1      48.499  24.401  34.424  1.00  0.00    -0.203 F 
ATOM     85  C   UNL A   1      50.196  22.807  34.176  1.00  0.00     0.198 A 
ATOM     86  C   UNL A   1      49.636  20.478  34.344  1.00  0.00     0.198 A 
ATOM     87  F   UNL A   1      47.433  19.762  34.678  1.00  0.00    -0.203 F 
ATOM     88  F   UNL A   1      51.122  23.779  34.224  1.00  0.00    -0.200 F 
ATOM     89  C   UNL A   1      50.588  21.487  34.213  1.00  0.00     0.200 A 
ATOM     90  F   UNL A   1      50.005  19.239  34.674  1.00  0.00    -0.200 F 
ATOM     91  F   UNL A   1      51.888  21.214  34.353  1.00  0.00    -0.200 F 
ENDBRANCH  57  81
BRANCH  69  92
ATOM     92  C   UNL A   1      45.489  26.861  39.352  1.00  0.00     0.064 A 
ATOM     93  C   UNL A   1      46.455  27.882  39.286  1.00  0.00     0.173 A 
ATOM     94  C   UNL A   1      44.825  26.777  40.599  1.00  0.00     0.173 A 
ATOM     95  F   UNL A   1      46.939  28.342  38.126  1.00  0.00    -0.203 F 
ATOM     96  C   UNL A   1      46.921  28.534  40.418  1.00  0.00     0.198 A 
ATOM     97  C   UNL A   1      45.180  27.556  41.691  1.00  0.00     0.198 A 
ATOM     98  F   UNL A   1      43.783  25.973  40.832  1.00  0.00    -0.203 F 
ATOM     99  F   UNL A   1      47.989  29.334  40.318  1.00  0.00    -0.200 F 
ATOM    100  C   UNL A   1      46.279  28.374  41.624  1.00  0.00     0.200 A 
ATOM    101  F   UNL A   1      44.443  27.493  42.807  1.00  0.00    -0.200 F 
ATOM    102  F   UNL A   1      46.694  29.038  42.706  1.00  0.00    -0.200 F 
ENDBRANCH  69  92
ENDBRANCH  43  44
ENDBRANCH  36  38
ENDBRANCH  35  36
ENDBRANCH  34  35
ENDBRANCH  33  34
ENDBRANCH   1  33
TORSDOF 16
ENDMDL
