MODEL 1
REMARK VINA RESULT:     -16.0      0.000      0.000
REMARK SMILES O=C(OCCOC(=O)c1ccc(-c2c3nc(c(-c4c(F)c(F)c(F)c(F)c4F)c4ccc([nH]4)c(-c4c(F)c(F)c(F)c(F)c4F)c4nc(c(-c5c(F)c(F)c(F)c(F)c5F)c5ccc2[nH]5)C=C4)C=C3)cc1)C1=Cc2cc(Cl)cc(-c3ccc(CO)cc3)c2O[C@@H]1C(F)(F)F
REMARK SMILES IDX 4 1 3 2 2 3 1 4 72 5 73 6 90 7 74 8 89 9 75 10 88 11 76 12
REMARK SMILES IDX 79 13 77 14 78 15 91 16 92 17 93 18 94 19 80 20 81 21 87 22
REMARK SMILES IDX 82 23 86 24 83 25 84 26 85 27 5 29 6 30 7 31 8 32 9 33 10 34
REMARK SMILES IDX 71 35 11 36 70 37 12 38 13 39 14 40 64 41 15 42 69 43 63 44
REMARK SMILES IDX 65 45 16 46 68 47 62 48 61 49 17 51 49 52 29 53 48 54 30 55
REMARK SMILES IDX 33 56 47 57 66 58 31 59 32 60 46 62 67 63 34 64 18 65 19 66
REMARK SMILES IDX 27 67 20 68 21 69 25 70 28 71 22 72 23 73 26 74 24 75 50 76
REMARK SMILES IDX 51 77 59 78 52 79 53 80 57 81 60 82 54 83 55 84 58 85 56 86
REMARK SMILES IDX 35 87 36 88 44 89 37 90 38 91 42 92 45 93 39 94 40 95 43 96
REMARK SMILES IDX 41 97
REMARK H PARENT 85 28 65 50 33 61
REMARK Flexibility Score: inf
ROOT
ATOM      1  C   UNL A   1      31.367  27.360  26.412  1.00  0.00     0.275 C 
ENDROOT
BRANCH   1   2
ATOM      2  O   UNL A   1      32.440  26.273  26.720  1.00  0.00    -0.459 OA
BRANCH   2   3
ATOM      3  C   UNL A   1      31.994  25.024  26.541  1.00  0.00     0.338 C 
ATOM      4  O   UNL A   1      31.557  24.234  27.339  1.00  0.00    -0.246 OA
BRANCH   3   5
ATOM      5  C   UNL A   1      32.623  24.853  25.252  1.00  0.00     0.087 C 
ATOM      6  C   UNL A   1      34.051  24.640  25.337  1.00  0.00     0.027 C 
ATOM      7  C   UNL A   1      31.328  23.603  24.570  1.00  0.00     0.316 C 
ATOM      8  C   UNL A   1      34.822  23.066  24.998  1.00  0.00     0.019 A 
ATOM      9  O   UNL A   1      32.128  21.852  24.288  1.00  0.00    -0.475 OA
ATOM     10  C   UNL A   1      36.160  23.005  25.275  1.00  0.00     0.032 A 
ATOM     11  C   UNL A   1      33.920  21.624  24.612  1.00  0.00     0.135 A 
ATOM     12  C   UNL A   1      36.703  21.728  25.230  1.00  0.00     0.042 A 
ATOM     13  C   UNL A   1      34.535  20.392  24.672  1.00  0.00     0.026 A 
ATOM     14  Cl  UNL A   1      38.387  21.572  25.599  1.00  0.00    -0.084 Cl
ATOM     15  C   UNL A   1      35.947  20.526  24.957  1.00  0.00     0.033 A 
BRANCH   7  16
ATOM     16  C   UNL A   1      30.665  24.745  23.645  1.00  0.00     0.430 C 
ATOM     17  F   UNL A   1      31.559  25.281  22.807  1.00  0.00    -0.167 F 
ATOM     18  F   UNL A   1      29.760  24.176  22.785  1.00  0.00    -0.167 F 
ATOM     19  F   UNL A   1      29.914  25.694  24.234  1.00  0.00    -0.167 F 
ENDBRANCH   7  16
BRANCH  13  20
ATOM     20  C   UNL A   1      34.031  19.022  24.632  1.00  0.00    -0.015 A 
ATOM     21  C   UNL A   1      32.714  18.779  25.089  1.00  0.00     0.009 A 
ATOM     22  C   UNL A   1      34.871  17.925  24.449  1.00  0.00     0.009 A 
ATOM     23  C   UNL A   1      32.274  17.494  25.409  1.00  0.00     0.007 A 
ATOM     24  C   UNL A   1      34.428  16.630  24.766  1.00  0.00     0.007 A 
ATOM     25  C   UNL A   1      33.136  16.406  25.267  1.00  0.00    -0.023 A 
BRANCH  25  26
ATOM     26  C   UNL A   1      32.679  15.033  25.683  1.00  0.00     0.191 C 
BRANCH  26  27
ATOM     27  O   UNL A   1      33.705  14.070  25.467  1.00  0.00    -0.392 OA
ATOM     28  H   UNL A   1      33.748  13.468  26.226  1.00  0.00     0.211 HD
ENDBRANCH  26  27
ENDBRANCH  25  26
ENDBRANCH  13  20
ENDBRANCH   3   5
ENDBRANCH   2   3
ENDBRANCH   1   2
BRANCH   1  29
ATOM     29  C   UNL A   1      31.717  29.488  26.200  1.00  0.00     0.275 C 
BRANCH  29  30
ATOM     30  O   UNL A   1      32.703  30.448  27.286  1.00  0.00    -0.458 OA
BRANCH  30  31
ATOM     31  C   UNL A   1      33.362  31.653  27.422  1.00  0.00     0.338 C 
ATOM     32  O   UNL A   1      32.912  32.751  27.693  1.00  0.00    -0.246 OA
BRANCH  31  33
ATOM     33  C   UNL A   1      34.821  31.329  27.608  1.00  0.00     0.060 A 
ATOM     34  C   UNL A   1      35.731  32.385  27.815  1.00  0.00     0.016 A 
ATOM     35  C   UNL A   1      35.192  30.036  27.965  1.00  0.00     0.016 A 
ATOM     36  C   UNL A   1      36.865  32.185  28.633  1.00  0.00     0.010 A 
ATOM     37  C   UNL A   1      36.333  29.838  28.753  1.00  0.00     0.010 A 
ATOM     38  C   UNL A   1      37.123  30.920  29.181  1.00  0.00    -0.014 A 
BRANCH  38  39
ATOM     39  C   UNL A   1      38.324  30.631  30.018  1.00  0.00     0.031 A 
ATOM     40  C   UNL A   1      39.283  29.634  29.444  1.00  0.00     0.074 A 
ATOM     41  C   UNL A   1      38.508  31.091  31.277  1.00  0.00     0.049 A 
ATOM     42  N   UNL A   1      40.286  29.013  30.003  1.00  0.00    -0.248 NA
ATOM     43  C   UNL A   1      39.029  29.250  28.046  1.00  0.00     0.031 C 
ATOM     44  C   UNL A   1      37.666  32.061  31.972  1.00  0.00     0.029 A 
ATOM     45  N   UNL A   1      39.467  30.765  32.220  1.00  0.00    -0.354 N 
ATOM     46  C   UNL A   1      40.760  28.144  29.033  1.00  0.00     0.074 A 
ATOM     47  C   UNL A   1      39.911  28.283  27.873  1.00  0.00     0.031 C 
ATOM     48  C   UNL A   1      38.127  32.236  33.229  1.00  0.00     0.029 A 
ATOM     49  C   UNL A   1      39.284  31.368  33.447  1.00  0.00     0.049 A 
ATOM     50  H   UNL A   1      40.216  30.154  32.031  1.00  0.00     0.167 HD
ATOM     51  C   UNL A   1      41.816  27.305  29.093  1.00  0.00     0.037 A 
ATOM     52  C   UNL A   1      39.962  31.216  34.610  1.00  0.00     0.037 A 
ATOM     53  C   UNL A   1      42.659  27.157  30.242  1.00  0.00     0.049 A 
ATOM     54  C   UNL A   1      41.121  30.234  34.666  1.00  0.00     0.074 A 
ATOM     55  C   UNL A   1      43.779  26.364  30.387  1.00  0.00     0.029 A 
ATOM     56  N   UNL A   1      42.460  27.811  31.448  1.00  0.00    -0.354 N 
ATOM     57  N   UNL A   1      41.617  29.480  33.714  1.00  0.00    -0.248 NA
ATOM     58  C   UNL A   1      41.811  30.079  35.959  1.00  0.00     0.031 C 
ATOM     59  C   UNL A   1      44.231  26.494  31.704  1.00  0.00     0.029 A 
ATOM     60  C   UNL A   1      43.424  27.415  32.357  1.00  0.00     0.049 A 
ATOM     61  H   UNL A   1      41.742  28.459  31.631  1.00  0.00     0.167 HD
ATOM     62  C   UNL A   1      42.690  28.798  34.280  1.00  0.00     0.074 A 
ATOM     63  C   UNL A   1      42.786  29.233  35.655  1.00  0.00     0.031 C 
ATOM     64  C   UNL A   1      43.521  27.889  33.713  1.00  0.00     0.037 A 
BRANCH  51  65
ATOM     65  C   UNL A   1      42.079  26.474  27.878  1.00  0.00     0.064 A 
ATOM     66  C   UNL A   1      41.407  25.261  27.660  1.00  0.00     0.173 A 
ATOM     67  C   UNL A   1      43.053  26.866  26.951  1.00  0.00     0.173 A 
ATOM     68  F   UNL A   1      40.491  24.829  28.541  1.00  0.00    -0.203 F 
ATOM     69  C   UNL A   1      41.736  24.447  26.582  1.00  0.00     0.198 A 
ATOM     70  C   UNL A   1      43.352  26.067  25.852  1.00  0.00     0.198 A 
ATOM     71  F   UNL A   1      43.730  28.011  27.121  1.00  0.00    -0.203 F 
ATOM     72  F   UNL A   1      41.141  23.255  26.441  1.00  0.00    -0.200 F 
ATOM     73  C   UNL A   1      42.703  24.853  25.676  1.00  0.00     0.200 A 
ATOM     74  F   UNL A   1      44.285  26.461  24.974  1.00  0.00    -0.200 F 
ATOM     75  F   UNL A   1      43.024  24.065  24.641  1.00  0.00    -0.200 F 
ENDBRANCH  51  65
BRANCH  52  76
ATOM     76  C   UNL A   1      39.592  31.973  35.848  1.00  0.00     0.064 A 
ATOM     77  C   UNL A   1      38.549  31.530  36.682  1.00  0.00     0.173 A 
ATOM     78  C   UNL A   1      40.181  33.207  36.166  1.00  0.00     0.173 A 
ATOM     79  F   UNL A   1      37.916  30.381  36.406  1.00  0.00    -0.203 F 
ATOM     80  C   UNL A   1      38.089  32.303  37.751  1.00  0.00     0.198 A 
ATOM     81  C   UNL A   1      39.741  33.964  37.255  1.00  0.00     0.198 A 
ATOM     82  F   UNL A   1      41.167  33.696  35.400  1.00  0.00    -0.203 F 
ATOM     83  F   UNL A   1      37.037  31.889  38.471  1.00  0.00    -0.200 F 
ATOM     84  C   UNL A   1      38.688  33.519  38.038  1.00  0.00     0.200 A 
ATOM     85  F   UNL A   1      40.321  35.141  37.528  1.00  0.00    -0.200 F 
ATOM     86  F   UNL A   1      38.232  34.272  39.049  1.00  0.00    -0.200 F 
ENDBRANCH  52  76
BRANCH  64  87
ATOM     87  C   UNL A   1      44.639  27.331  34.546  1.00  0.00     0.064 A 
ATOM     88  C   UNL A   1      44.503  26.130  35.255  1.00  0.00     0.173 A 
ATOM     89  C   UNL A   1      45.903  27.945  34.528  1.00  0.00     0.173 A 
ATOM     90  F   UNL A   1      43.315  25.510  35.311  1.00  0.00    -0.203 F 
ATOM     91  C   UNL A   1      45.589  25.565  35.919  1.00  0.00     0.198 A 
ATOM     92  C   UNL A   1      46.993  27.360  35.165  1.00  0.00     0.198 A 
ATOM     93  F   UNL A   1      46.090  29.089  33.853  1.00  0.00    -0.203 F 
ATOM     94  F   UNL A   1      45.432  24.428  36.610  1.00  0.00    -0.200 F 
ATOM     95  C   UNL A   1      46.836  26.172  35.861  1.00  0.00     0.200 A 
ATOM     96  F   UNL A   1      48.201  27.936  35.086  1.00  0.00    -0.200 F 
ATOM     97  F   UNL A   1      47.886  25.608  36.473  1.00  0.00    -0.200 F 
ENDBRANCH  64  87
ENDBRANCH  38  39
ENDBRANCH  31  33
ENDBRANCH  30  31
ENDBRANCH  29  30
ENDBRANCH   1  29
TORSDOF 15
ENDMDL
MODEL 2
REMARK VINA RESULT:     -15.2      0.892      7.150
REMARK SMILES O=C(OCCOC(=O)c1ccc(-c2c3nc(c(-c4c(F)c(F)c(F)c(F)c4F)c4ccc([nH]4)c(-c4c(F)c(F)c(F)c(F)c4F)c4nc(c(-c5c(F)c(F)c(F)c(F)c5F)c5ccc2[nH]5)C=C4)C=C3)cc1)C1=Cc2cc(Cl)cc(-c3ccc(CO)cc3)c2O[C@@H]1C(F)(F)F
REMARK SMILES IDX 4 1 3 2 2 3 1 4 72 5 73 6 90 7 74 8 89 9 75 10 88 11 76 12
REMARK SMILES IDX 79 13 77 14 78 15 91 16 92 17 93 18 94 19 80 20 81 21 87 22
REMARK SMILES IDX 82 23 86 24 83 25 84 26 85 27 5 29 6 30 7 31 8 32 9 33 10 34
REMARK SMILES IDX 71 35 11 36 70 37 12 38 13 39 14 40 64 41 15 42 69 43 63 44
REMARK SMILES IDX 65 45 16 46 68 47 62 48 61 49 17 51 49 52 29 53 48 54 30 55
REMARK SMILES IDX 33 56 47 57 66 58 31 59 32 60 46 62 67 63 34 64 18 65 19 66
REMARK SMILES IDX 27 67 20 68 21 69 25 70 28 71 22 72 23 73 26 74 24 75 50 76
REMARK SMILES IDX 51 77 59 78 52 79 53 80 57 81 60 82 54 83 55 84 58 85 56 86
REMARK SMILES IDX 35 87 36 88 44 89 37 90 38 91 42 92 45 93 39 94 40 95 43 96
REMARK SMILES IDX 41 97
REMARK H PARENT 85 28 65 50 33 61
REMARK Flexibility Score: inf
ROOT
ATOM      1  C   UNL A   1      31.891  27.622  27.229  1.00  0.00     0.275 C 
ENDROOT
BRANCH   1   2
ATOM      2  O   UNL A   1      32.786  26.728  26.320  1.00  0.00    -0.459 OA
BRANCH   2   3
ATOM      3  C   UNL A   1      32.351  25.465  26.228  1.00  0.00     0.338 C 
ATOM      4  O   UNL A   1      31.889  24.740  27.071  1.00  0.00    -0.246 OA
BRANCH   3   5
ATOM      5  C   UNL A   1      33.027  25.194  24.980  1.00  0.00     0.087 C 
ATOM      6  C   UNL A   1      34.433  24.898  25.144  1.00  0.00     0.027 C 
ATOM      7  C   UNL A   1      31.688  23.994  24.293  1.00  0.00     0.316 C 
ATOM      8  C   UNL A   1      35.118  23.266  24.915  1.00  0.00     0.019 A 
ATOM      9  O   UNL A   1      32.388  22.186  24.131  1.00  0.00    -0.475 OA
ATOM     10  C   UNL A   1      36.435  23.137  25.261  1.00  0.00     0.032 A 
ATOM     11  C   UNL A   1      34.145  21.865  24.551  1.00  0.00     0.135 A 
ATOM     12  C   UNL A   1      36.897  21.828  25.300  1.00  0.00     0.042 A 
ATOM     13  C   UNL A   1      34.677  20.602  24.698  1.00  0.00     0.026 A 
ATOM     14  Cl  UNL A   1      38.549  21.588  25.758  1.00  0.00    -0.084 Cl
ATOM     15  C   UNL A   1      36.080  20.663  25.045  1.00  0.00     0.033 A 
BRANCH   7  16
ATOM     16  C   UNL A   1      31.142  25.128  23.286  1.00  0.00     0.430 C 
ATOM     17  F   UNL A   1      31.914  25.236  22.199  1.00  0.00    -0.167 F 
ATOM     18  F   UNL A   1      29.940  24.734  22.753  1.00  0.00    -0.167 F 
ATOM     19  F   UNL A   1      30.828  26.337  23.787  1.00  0.00    -0.167 F 
ENDBRANCH   7  16
BRANCH  13  20
ATOM     20  C   UNL A   1      34.090  19.265  24.695  1.00  0.00    -0.015 A 
ATOM     21  C   UNL A   1      32.878  19.064  25.398  1.00  0.00     0.009 A 
ATOM     22  C   UNL A   1      34.806  18.138  24.294  1.00  0.00     0.009 A 
ATOM     23  C   UNL A   1      32.431  17.787  25.739  1.00  0.00     0.007 A 
ATOM     24  C   UNL A   1      34.354  16.852  24.633  1.00  0.00     0.007 A 
ATOM     25  C   UNL A   1      33.177  16.665  25.373  1.00  0.00    -0.023 A 
BRANCH  25  26
ATOM     26  C   UNL A   1      32.725  15.296  25.807  1.00  0.00     0.191 C 
BRANCH  26  27
ATOM     27  O   UNL A   1      33.676  14.306  25.427  1.00  0.00    -0.392 OA
ATOM     28  H   UNL A   1      34.533  14.508  25.835  1.00  0.00     0.211 HD
ENDBRANCH  26  27
ENDBRANCH  25  26
ENDBRANCH  13  20
ENDBRANCH   3   5
ENDBRANCH   2   3
ENDBRANCH   1   2
BRANCH   1  29
ATOM     29  C   UNL A   1      31.776  29.786  27.191  1.00  0.00     0.275 C 
BRANCH  29  30
ATOM     30  O   UNL A   1      33.148  30.852  26.956  1.00  0.00    -0.458 OA
BRANCH  30  31
ATOM     31  C   UNL A   1      33.961  31.775  27.581  1.00  0.00     0.338 C 
ATOM     32  O   UNL A   1      33.654  32.747  28.245  1.00  0.00    -0.246 OA
BRANCH  31  33
ATOM     33  C   UNL A   1      35.328  31.149  27.681  1.00  0.00     0.060 A 
ATOM     34  C   UNL A   1      36.426  31.964  28.018  1.00  0.00     0.016 A 
ATOM     35  C   UNL A   1      35.436  29.770  27.833  1.00  0.00     0.016 A 
ATOM     36  C   UNL A   1      37.495  31.427  28.770  1.00  0.00     0.010 A 
ATOM     37  C   UNL A   1      36.512  29.237  28.554  1.00  0.00     0.010 A 
ATOM     38  C   UNL A   1      37.497  30.068  29.118  1.00  0.00    -0.014 A 
BRANCH  38  39
ATOM     39  C   UNL A   1      38.615  29.429  29.873  1.00  0.00     0.031 A 
ATOM     40  C   UNL A   1      38.866  29.982  31.242  1.00  0.00     0.074 A 
ATOM     41  C   UNL A   1      39.468  28.518  29.350  1.00  0.00     0.049 A 
ATOM     42  N   UNL A   1      39.876  29.803  32.048  1.00  0.00    -0.248 NA
ATOM     43  C   UNL A   1      37.844  30.915  31.741  1.00  0.00     0.031 C 
ATOM     44  C   UNL A   1      39.357  27.887  28.037  1.00  0.00     0.029 A 
ATOM     45  N   UNL A   1      40.636  27.985  29.864  1.00  0.00    -0.354 N 
ATOM     46  C   UNL A   1      39.623  30.626  33.134  1.00  0.00     0.074 A 
ATOM     47  C   UNL A   1      38.394  31.336  32.864  1.00  0.00     0.031 C 
ATOM     48  C   UNL A   1      40.417  27.075  27.839  1.00  0.00     0.029 A 
ATOM     49  C   UNL A   1      41.306  27.144  28.999  1.00  0.00     0.049 A 
ATOM     50  H   UNL A   1      40.962  28.188  30.771  1.00  0.00     0.167 HD
ATOM     51  C   UNL A   1      40.343  30.776  34.267  1.00  0.00     0.037 A 
ATOM     52  C   UNL A   1      42.504  26.525  29.127  1.00  0.00     0.037 A 
ATOM     53  C   UNL A   1      41.565  30.081  34.539  1.00  0.00     0.049 A 
ATOM     54  C   UNL A   1      43.316  26.743  30.392  1.00  0.00     0.074 A 
ATOM     55  C   UNL A   1      42.347  30.134  35.676  1.00  0.00     0.029 A 
ATOM     56  N   UNL A   1      42.188  29.215  33.654  1.00  0.00    -0.354 N 
ATOM     57  N   UNL A   1      43.024  27.458  31.454  1.00  0.00    -0.248 NA
ATOM     58  C   UNL A   1      44.627  26.074  30.476  1.00  0.00     0.031 C 
ATOM     59  C   UNL A   1      43.476  29.341  35.458  1.00  0.00     0.029 A 
ATOM     60  C   UNL A   1      43.365  28.748  34.209  1.00  0.00     0.049 A 
ATOM     61  H   UNL A   1      41.844  28.970  32.764  1.00  0.00     0.167 HD
ATOM     62  C   UNL A   1      44.087  27.292  32.336  1.00  0.00     0.074 A 
ATOM     63  C   UNL A   1      45.029  26.401  31.697  1.00  0.00     0.031 C 
ATOM     64  C   UNL A   1      44.270  27.832  33.566  1.00  0.00     0.037 A 
BRANCH  51  65
ATOM     65  C   UNL A   1      39.818  31.758  35.266  1.00  0.00     0.064 A 
ATOM     66  C   UNL A   1      38.842  31.393  36.209  1.00  0.00     0.173 A 
ATOM     67  C   UNL A   1      40.252  33.089  35.245  1.00  0.00     0.173 A 
ATOM     68  F   UNL A   1      38.371  30.137  36.241  1.00  0.00    -0.203 F 
ATOM     69  C   UNL A   1      38.287  32.340  37.062  1.00  0.00     0.198 A 
ATOM     70  C   UNL A   1      39.721  34.025  36.127  1.00  0.00     0.198 A 
ATOM     71  F   UNL A   1      41.173  33.488  34.356  1.00  0.00    -0.203 F 
ATOM     72  F   UNL A   1      37.297  31.988  37.894  1.00  0.00    -0.200 F 
ATOM     73  C   UNL A   1      38.731  33.653  37.025  1.00  0.00     0.200 A 
ATOM     74  F   UNL A   1      40.153  35.293  36.093  1.00  0.00    -0.200 F 
ATOM     75  F   UNL A   1      38.189  34.566  37.843  1.00  0.00    -0.200 F 
ENDBRANCH  51  65
BRANCH  52  76
ATOM     76  C   UNL A   1      43.060  25.646  28.049  1.00  0.00     0.064 A 
ATOM     77  C   UNL A   1      43.891  26.173  27.044  1.00  0.00     0.173 A 
ATOM     78  C   UNL A   1      42.689  24.298  27.928  1.00  0.00     0.173 A 
ATOM     79  F   UNL A   1      44.245  27.465  27.078  1.00  0.00    -0.203 F 
ATOM     80  C   UNL A   1      44.290  25.403  25.948  1.00  0.00     0.198 A 
ATOM     81  C   UNL A   1      43.116  23.520  26.848  1.00  0.00     0.198 A 
ATOM     82  F   UNL A   1      41.883  23.739  28.842  1.00  0.00    -0.203 F 
ATOM     83  F   UNL A   1      45.010  25.962  24.965  1.00  0.00    -0.200 F 
ATOM     84  C   UNL A   1      43.904  24.076  25.853  1.00  0.00     0.200 A 
ATOM     85  F   UNL A   1      42.739  22.237  26.758  1.00  0.00    -0.200 F 
ATOM     86  F   UNL A   1      44.269  23.343  24.791  1.00  0.00    -0.200 F 
ENDBRANCH  52  76
BRANCH  64  87
ATOM     87  C   UNL A   1      45.503  27.449  34.335  1.00  0.00     0.064 A 
ATOM     88  C   UNL A   1      45.544  26.302  35.139  1.00  0.00     0.173 A 
ATOM     89  C   UNL A   1      46.693  28.174  34.160  1.00  0.00     0.173 A 
ATOM     90  F   UNL A   1      44.432  25.581  35.345  1.00  0.00    -0.203 F 
ATOM     91  C   UNL A   1      46.731  25.896  35.743  1.00  0.00     0.198 A 
ATOM     92  C   UNL A   1      47.885  27.747  34.739  1.00  0.00     0.198 A 
ATOM     93  F   UNL A   1      46.710  29.272  33.389  1.00  0.00    -0.203 F 
ATOM     94  F   UNL A   1      46.745  24.809  36.526  1.00  0.00    -0.200 F 
ATOM     95  C   UNL A   1      47.903  26.609  35.531  1.00  0.00     0.200 A 
ATOM     96  F   UNL A   1      49.019  28.424  34.512  1.00  0.00    -0.200 F 
ATOM     97  F   UNL A   1      49.050  26.197  36.087  1.00  0.00    -0.200 F 
ENDBRANCH  64  87
ENDBRANCH  38  39
ENDBRANCH  31  33
ENDBRANCH  30  31
ENDBRANCH  29  30
ENDBRANCH   1  29
TORSDOF 15
ENDMDL
MODEL 3
REMARK VINA RESULT:     -15.2      3.248      7.660
REMARK SMILES O=C(OCCOC(=O)c1ccc(-c2c3nc(c(-c4c(F)c(F)c(F)c(F)c4F)c4ccc([nH]4)c(-c4c(F)c(F)c(F)c(F)c4F)c4nc(c(-c5c(F)c(F)c(F)c(F)c5F)c5ccc2[nH]5)C=C4)C=C3)cc1)C1=Cc2cc(Cl)cc(-c3ccc(CO)cc3)c2O[C@@H]1C(F)(F)F
REMARK SMILES IDX 4 1 3 2 2 3 1 4 72 5 73 6 90 7 74 8 89 9 75 10 88 11 76 12
REMARK SMILES IDX 79 13 77 14 78 15 91 16 92 17 93 18 94 19 80 20 81 21 87 22
REMARK SMILES IDX 82 23 86 24 83 25 84 26 85 27 5 29 6 30 7 31 8 32 9 33 10 34
REMARK SMILES IDX 71 35 11 36 70 37 12 38 13 39 14 40 64 41 15 42 69 43 63 44
REMARK SMILES IDX 65 45 16 46 68 47 62 48 61 49 17 51 49 52 29 53 48 54 30 55
REMARK SMILES IDX 33 56 47 57 66 58 31 59 32 60 46 62 67 63 34 64 18 65 19 66
REMARK SMILES IDX 27 67 20 68 21 69 25 70 28 71 22 72 23 73 26 74 24 75 50 76
REMARK SMILES IDX 51 77 59 78 52 79 53 80 57 81 60 82 54 83 55 84 58 85 56 86
REMARK SMILES IDX 35 87 36 88 44 89 37 90 38 91 42 92 45 93 39 94 40 95 43 96
REMARK SMILES IDX 41 97
REMARK H PARENT 85 28 65 50 33 61
REMARK Flexibility Score: inf
ROOT
ATOM      1  C   UNL A   1      31.951  27.956  27.144  1.00  0.00     0.275 C 
ENDROOT
BRANCH   1   2
ATOM      2  O   UNL A   1      32.895  26.856  26.571  1.00  0.00    -0.459 OA
BRANCH   2   3
ATOM      3  C   UNL A   1      32.257  25.721  26.261  1.00  0.00     0.338 C 
ATOM      4  O   UNL A   1      31.582  24.997  26.947  1.00  0.00    -0.246 OA
BRANCH   3   5
ATOM      5  C   UNL A   1      33.010  25.484  25.051  1.00  0.00     0.087 C 
ATOM      6  C   UNL A   1      34.413  25.221  25.294  1.00  0.00     0.027 C 
ATOM      7  C   UNL A   1      31.746  24.260  24.273  1.00  0.00     0.316 C 
ATOM      8  C   UNL A   1      35.151  23.610  25.085  1.00  0.00     0.019 A 
ATOM      9  O   UNL A   1      32.500  22.473  24.130  1.00  0.00    -0.475 OA
ATOM     10  C   UNL A   1      36.449  23.509  25.505  1.00  0.00     0.032 A 
ATOM     11  C   UNL A   1      34.237  22.190  24.648  1.00  0.00     0.135 A 
ATOM     12  C   UNL A   1      36.941  22.212  25.555  1.00  0.00     0.042 A 
ATOM     13  C   UNL A   1      34.793  20.938  24.810  1.00  0.00     0.026 A 
ATOM     14  Cl  UNL A   1      38.570  22.007  26.106  1.00  0.00    -0.084 Cl
ATOM     15  C   UNL A   1      36.171  21.031  25.239  1.00  0.00     0.033 A 
BRANCH   7  16
ATOM     16  C   UNL A   1      31.229  25.394  23.249  1.00  0.00     0.430 C 
ATOM     17  F   UNL A   1      31.082  24.910  22.011  1.00  0.00    -0.167 F 
ATOM     18  F   UNL A   1      29.948  25.761  23.575  1.00  0.00    -0.167 F 
ATOM     19  F   UNL A   1      31.855  26.586  23.240  1.00  0.00    -0.167 F 
ENDBRANCH   7  16
BRANCH  13  20
ATOM     20  C   UNL A   1      34.241  19.588  24.757  1.00  0.00    -0.015 A 
ATOM     21  C   UNL A   1      32.974  19.358  25.342  1.00  0.00     0.009 A 
ATOM     22  C   UNL A   1      35.020  18.478  24.428  1.00  0.00     0.009 A 
ATOM     23  C   UNL A   1      32.528  18.071  25.644  1.00  0.00     0.007 A 
ATOM     24  C   UNL A   1      34.570  17.182  24.728  1.00  0.00     0.007 A 
ATOM     25  C   UNL A   1      33.333  16.967  25.354  1.00  0.00    -0.023 A 
BRANCH  25  26
ATOM     26  C   UNL A   1      32.876  15.588  25.748  1.00  0.00     0.191 C 
BRANCH  26  27
ATOM     27  O   UNL A   1      33.829  14.607  25.352  1.00  0.00    -0.392 OA
ATOM     28  H   UNL A   1      33.368  13.792  25.100  1.00  0.00     0.211 HD
ENDBRANCH  26  27
ENDBRANCH  25  26
ENDBRANCH  13  20
ENDBRANCH   3   5
ENDBRANCH   2   3
ENDBRANCH   1   2
BRANCH   1  29
ATOM     29  C   UNL A   1      32.201  30.098  26.940  1.00  0.00     0.275 C 
BRANCH  29  30
ATOM     30  O   UNL A   1      33.680  30.967  27.303  1.00  0.00    -0.458 OA
BRANCH  30  31
ATOM     31  C   UNL A   1      34.546  31.317  28.318  1.00  0.00     0.338 C 
ATOM     32  O   UNL A   1      34.378  32.093  29.241  1.00  0.00    -0.246 OA
BRANCH  31  33
ATOM     33  C   UNL A   1      35.608  30.250  28.366  1.00  0.00     0.060 A 
ATOM     34  C   UNL A   1      36.465  30.094  27.259  1.00  0.00     0.016 A 
ATOM     35  C   UNL A   1      35.988  29.721  29.596  1.00  0.00     0.016 A 
ATOM     36  C   UNL A   1      37.801  29.678  27.457  1.00  0.00     0.010 A 
ATOM     37  C   UNL A   1      37.305  29.283  29.782  1.00  0.00     0.010 A 
ATOM     38  C   UNL A   1      38.252  29.353  28.745  1.00  0.00    -0.014 A 
BRANCH  38  39
ATOM     39  C   UNL A   1      39.637  28.866  29.017  1.00  0.00     0.031 A 
ATOM     40  C   UNL A   1      40.559  29.866  29.644  1.00  0.00     0.074 A 
ATOM     41  C   UNL A   1      40.121  27.670  28.609  1.00  0.00     0.049 A 
ATOM     42  N   UNL A   1      41.854  29.833  29.801  1.00  0.00    -0.248 NA
ATOM     43  C   UNL A   1      39.918  31.107  30.110  1.00  0.00     0.031 C 
ATOM     44  C   UNL A   1      39.352  26.595  27.986  1.00  0.00     0.029 A 
ATOM     45  N   UNL A   1      41.411  27.170  28.631  1.00  0.00    -0.354 N 
ATOM     46  C   UNL A   1      42.183  31.059  30.356  1.00  0.00     0.074 A 
ATOM     47  C   UNL A   1      40.965  31.828  30.464  1.00  0.00     0.031 C 
ATOM     48  C   UNL A   1      40.180  25.579  27.667  1.00  0.00     0.029 A 
ATOM     49  C   UNL A   1      41.551  25.934  28.034  1.00  0.00     0.049 A 
ATOM     50  H   UNL A   1      42.165  27.655  29.039  1.00  0.00     0.167 HD
ATOM     51  C   UNL A   1      43.392  31.510  30.753  1.00  0.00     0.037 A 
ATOM     52  C   UNL A   1      42.660  25.194  27.797  1.00  0.00     0.037 A 
ATOM     53  C   UNL A   1      44.605  30.757  30.643  1.00  0.00     0.049 A 
ATOM     54  C   UNL A   1      44.015  25.742  28.213  1.00  0.00     0.074 A 
ATOM     55  C   UNL A   1      45.875  31.110  31.055  1.00  0.00     0.029 A 
ATOM     56  N   UNL A   1      44.697  29.499  30.067  1.00  0.00    -0.354 N 
ATOM     57  N   UNL A   1      44.306  26.869  28.819  1.00  0.00    -0.248 NA
ATOM     58  C   UNL A   1      45.198  24.916  27.909  1.00  0.00     0.031 C 
ATOM     59  C   UNL A   1      46.749  30.087  30.678  1.00  0.00     0.029 A 
ATOM     60  C   UNL A   1      46.012  29.072  30.085  1.00  0.00     0.049 A 
ATOM     61  H   UNL A   1      43.940  28.987  29.700  1.00  0.00     0.167 HD
ATOM     62  C   UNL A   1      45.686  26.867  28.999  1.00  0.00     0.074 A 
ATOM     63  C   UNL A   1      46.179  25.624  28.452  1.00  0.00     0.031 C 
ATOM     64  C   UNL A   1      46.475  27.813  29.565  1.00  0.00     0.037 A 
BRANCH  51  65
ATOM     65  C   UNL A   1      43.437  32.897  31.312  1.00  0.00     0.064 A 
ATOM     66  C   UNL A   1      43.290  33.139  32.688  1.00  0.00     0.173 A 
ATOM     67  C   UNL A   1      43.572  33.999  30.458  1.00  0.00     0.173 A 
ATOM     68  F   UNL A   1      43.121  32.114  33.538  1.00  0.00    -0.203 F 
ATOM     69  C   UNL A   1      43.228  34.437  33.180  1.00  0.00     0.198 A 
ATOM     70  C   UNL A   1      43.549  35.296  30.960  1.00  0.00     0.198 A 
ATOM     71  F   UNL A   1      43.705  33.820  29.135  1.00  0.00    -0.203 F 
ATOM     72  F   UNL A   1      43.002  34.645  34.484  1.00  0.00    -0.200 F 
ATOM     73  C   UNL A   1      43.364  35.514  32.318  1.00  0.00     0.200 A 
ATOM     74  F   UNL A   1      43.684  36.337  30.127  1.00  0.00    -0.200 F 
ATOM     75  F   UNL A   1      43.298  36.765  32.794  1.00  0.00    -0.200 F 
ENDBRANCH  51  65
BRANCH  52  76
ATOM     76  C   UNL A   1      42.593  23.860  27.119  1.00  0.00     0.064 A 
ATOM     77  C   UNL A   1      42.247  22.701  27.837  1.00  0.00     0.173 A 
ATOM     78  C   UNL A   1      42.980  23.690  25.781  1.00  0.00     0.173 A 
ATOM     79  F   UNL A   1      41.911  22.792  29.131  1.00  0.00    -0.203 F 
ATOM     80  C   UNL A   1      42.330  21.432  27.259  1.00  0.00     0.198 A 
ATOM     81  C   UNL A   1      43.032  22.422  25.194  1.00  0.00     0.198 A 
ATOM     82  F   UNL A   1      43.341  24.752  25.046  1.00  0.00    -0.203 F 
ATOM     83  F   UNL A   1      42.076  20.343  27.997  1.00  0.00    -0.200 F 
ATOM     84  C   UNL A   1      42.720  21.294  25.936  1.00  0.00     0.200 A 
ATOM     85  F   UNL A   1      43.412  22.293  23.915  1.00  0.00    -0.200 F 
ATOM     86  F   UNL A   1      42.821  20.075  25.387  1.00  0.00    -0.200 F 
ENDBRANCH  52  76
BRANCH  64  87
ATOM     87  C   UNL A   1      47.948  27.538  29.674  1.00  0.00     0.064 A 
ATOM     88  C   UNL A   1      48.872  28.107  28.788  1.00  0.00     0.173 A 
ATOM     89  C   UNL A   1      48.446  26.796  30.758  1.00  0.00     0.173 A 
ATOM     90  F   UNL A   1      48.448  28.816  27.731  1.00  0.00    -0.203 F 
ATOM     91  C   UNL A   1      50.242  27.941  28.980  1.00  0.00     0.198 A 
ATOM     92  C   UNL A   1      49.816  26.660  30.965  1.00  0.00     0.198 A 
ATOM     93  F   UNL A   1      47.603  26.241  31.642  1.00  0.00    -0.203 F 
ATOM     94  F   UNL A   1      51.108  28.475  28.109  1.00  0.00    -0.200 F 
ATOM     95  C   UNL A   1      50.712  27.231  30.076  1.00  0.00     0.200 A 
ATOM     96  F   UNL A   1      50.266  25.995  32.038  1.00  0.00    -0.200 F 
ATOM     97  F   UNL A   1      52.030  27.102  30.277  1.00  0.00    -0.200 F 
ENDBRANCH  64  87
ENDBRANCH  38  39
ENDBRANCH  31  33
ENDBRANCH  30  31
ENDBRANCH  29  30
ENDBRANCH   1  29
TORSDOF 15
ENDMDL
