MODEL 1
REMARK VINA RESULT:     -17.1      0.000      0.000
REMARK SMILES Cc1ccc(NC(=O)C[C@@H](C(=O)OCCOC(=O)c2ccc(-c3c4nc(c(-c5c(F)c(F)c(F)c(F)c5F)c5ccc([nH]5)c(-c5c(F)c(F)c(F)c(F)c5F)c5nc(c(-c6c(F)c(F)c(F)c(F)c6F)c6ccc3[nH]6)C=C5)C=C4)cc2)[NH+]2CCOCC2)cc1
REMARK SMILES IDX 14 1 13 2 11 3 12 4 10 5 9 6 7 7 6 8 8 10 5 11 1 12 2 13
REMARK SMILES IDX 3 14 89 15 4 16 88 17 82 18 83 19 87 20 84 22 86 23 85 24
REMARK SMILES IDX 15 25 16 26 17 27 18 28 19 29 20 30 81 31 21 32 80 33 22 34
REMARK SMILES IDX 23 35 24 36 74 37 25 38 79 39 73 40 75 41 26 42 78 43 72 44
REMARK SMILES IDX 71 45 27 47 59 48 39 49 58 50 40 51 43 52 57 53 76 54 41 55
REMARK SMILES IDX 42 56 56 58 77 59 44 60 28 61 29 62 37 63 30 64 31 65 35 66
REMARK SMILES IDX 38 67 32 68 33 69 36 70 34 71 60 72 61 73 69 74 62 75 63 76
REMARK SMILES IDX 67 77 70 78 64 79 65 80 68 81 66 82 45 83 46 84 54 85 47 86
REMARK SMILES IDX 48 87 52 88 55 89 49 90 50 91 53 92 51 93
REMARK H PARENT 6 9 82 21 75 46 43 57
REMARK Flexibility Score: inf
ROOT
ATOM      1  C   UNL A   1      35.903  29.488  27.933  1.00  0.00     0.274 C 
ENDROOT
BRANCH   1   2
ATOM      2  O   UNL A   1      34.629  29.285  26.592  1.00  0.00    -0.458 OA
BRANCH   2   3
ATOM      3  C   UNL A   1      33.627  28.283  26.343  1.00  0.00     0.365 C 
ATOM      4  O   UNL A   1      33.743  28.521  25.139  1.00  0.00    -0.245 OA
BRANCH   3   5
ATOM      5  C   UNL A   1      32.919  26.844  25.615  1.00  0.00     0.304 C 
BRANCH   5   6
ATOM      6  C   UNL A   1      31.606  26.799  26.695  1.00  0.00     0.177 C 
BRANCH   6   7
ATOM      7  C   UNL A   1      30.357  25.834  26.059  1.00  0.00     0.231 C 
ATOM      8  N   UNL A   1      29.509  25.908  24.887  1.00  0.00    -0.326 N 
ATOM      9  H   UNL A   1      28.804  25.221  24.898  1.00  0.00     0.169 HD
ATOM     10  O   UNL A   1      30.311  24.712  26.616  1.00  0.00    -0.274 OA
BRANCH   8  11
ATOM     11  C   UNL A   1      29.436  26.757  23.677  1.00  0.00     0.041 A 
ATOM     12  C   UNL A   1      28.031  30.898  21.015  1.00  0.00     0.044 C 
ATOM     13  C   UNL A   1      28.788  30.133  22.139  1.00  0.00    -0.051 A 
ATOM     14  C   UNL A   1      27.641  29.206  22.861  1.00  0.00     0.005 A 
ATOM     15  C   UNL A   1      30.339  29.419  22.151  1.00  0.00     0.005 A 
ATOM     16  C   UNL A   1      27.899  27.444  23.581  1.00  0.00     0.026 A 
ATOM     17  C   UNL A   1      30.700  27.792  22.900  1.00  0.00     0.026 A 
ENDBRANCH   8  11
ENDBRANCH   6   7
ENDBRANCH   5   6
BRANCH   5  18
ATOM     18  N   UNL A   1      33.830  25.327  24.937  1.00  0.00    -0.319 N 
ATOM     19  C   UNL A   1      34.752  24.130  25.774  1.00  0.00     0.291 C 
ATOM     20  C   UNL A   1      33.282  24.138  24.082  1.00  0.00     0.291 C 
ATOM     21  H   UNL A   1      34.219  26.186  24.550  1.00  0.00     0.348 HD
ATOM     22  C   UNL A   1      36.104  23.956  25.257  1.00  0.00     0.221 C 
ATOM     23  C   UNL A   1      34.669  23.391  23.429  1.00  0.00     0.221 C 
ATOM     24  O   UNL A   1      35.843  23.005  24.247  1.00  0.00    -0.370 OA
ENDBRANCH   5  18
ENDBRANCH   3   5
ENDBRANCH   2   3
ENDBRANCH   1   2
BRANCH   1  25
ATOM     25  C   UNL A   1      36.115  31.012  29.535  1.00  0.00     0.275 C 
BRANCH  25  26
ATOM     26  O   UNL A   1      37.157  30.361  30.998  1.00  0.00    -0.458 OA
BRANCH  26  27
ATOM     27  C   UNL A   1      38.831  30.169  31.017  1.00  0.00     0.338 C 
ATOM     28  O   UNL A   1      39.372  30.418  32.098  1.00  0.00    -0.246 OA
BRANCH  27  29
ATOM     29  C   UNL A   1      39.791  29.390  29.642  1.00  0.00     0.060 A 
ATOM     30  C   UNL A   1      39.346  29.508  28.424  1.00  0.00     0.016 A 
ATOM     31  C   UNL A   1      41.133  29.099  29.317  1.00  0.00     0.016 A 
ATOM     32  C   UNL A   1      40.325  29.401  27.094  1.00  0.00     0.010 A 
ATOM     33  C   UNL A   1      41.789  29.577  28.147  1.00  0.00     0.010 A 
ATOM     34  C   UNL A   1      41.561  28.934  27.049  1.00  0.00    -0.014 A 
BRANCH  34  35
ATOM     35  C   UNL A   1      42.944  28.408  27.038  1.00  0.00     0.031 A 
ATOM     36  C   UNL A   1      42.183  26.804  27.014  1.00  0.00     0.074 A 
ATOM     37  C   UNL A   1      44.228  29.269  26.950  1.00  0.00     0.049 A 
ATOM     38  N   UNL A   1      41.858  26.055  28.046  1.00  0.00    -0.248 NA
ATOM     39  C   UNL A   1      41.070  26.239  25.988  1.00  0.00     0.031 C 
ATOM     40  C   UNL A   1      45.872  29.103  27.158  1.00  0.00     0.029 A 
ATOM     41  N   UNL A   1      44.381  30.742  26.845  1.00  0.00    -0.354 N 
ATOM     42  C   UNL A   1      41.711  24.767  27.485  1.00  0.00     0.074 A 
ATOM     43  C   UNL A   1      40.901  24.936  26.327  1.00  0.00     0.031 C 
ATOM     44  C   UNL A   1      46.421  30.210  27.775  1.00  0.00     0.029 A 
ATOM     45  C   UNL A   1      45.410  31.221  27.719  1.00  0.00     0.049 A 
ATOM     46  H   UNL A   1      43.844  31.315  26.252  1.00  0.00     0.167 HD
ATOM     47  C   UNL A   1      42.770  23.912  27.586  1.00  0.00     0.037 A 
ATOM     48  C   UNL A   1      45.059  31.862  28.839  1.00  0.00     0.037 A 
ATOM     49  C   UNL A   1      43.902  24.719  28.049  1.00  0.00     0.049 A 
ATOM     50  C   UNL A   1      44.793  30.690  29.781  1.00  0.00     0.074 A 
ATOM     51  C   UNL A   1      44.972  25.270  27.379  1.00  0.00     0.029 A 
ATOM     52  N   UNL A   1      43.750  25.478  29.205  1.00  0.00    -0.354 N 
ATOM     53  N   UNL A   1      44.478  29.444  29.502  1.00  0.00    -0.248 NA
ATOM     54  C   UNL A   1      45.086  30.933  31.145  1.00  0.00     0.031 C 
ATOM     55  C   UNL A   1      45.520  26.275  28.237  1.00  0.00     0.029 A 
ATOM     56  C   UNL A   1      44.708  26.460  29.356  1.00  0.00     0.049 A 
ATOM     57  H   UNL A   1      43.026  25.328  29.855  1.00  0.00     0.167 HD
ATOM     58  C   UNL A   1      44.723  28.648  30.584  1.00  0.00     0.074 A 
ATOM     59  C   UNL A   1      45.062  29.673  31.562  1.00  0.00     0.031 C 
ATOM     60  C   UNL A   1      44.705  27.261  30.615  1.00  0.00     0.037 A 
BRANCH  47  61
ATOM     61  C   UNL A   1      42.952  22.512  27.038  1.00  0.00     0.064 A 
ATOM     62  C   UNL A   1      42.103  21.512  27.561  1.00  0.00     0.173 A 
ATOM     63  C   UNL A   1      43.758  22.095  25.955  1.00  0.00     0.173 A 
ATOM     64  F   UNL A   1      41.240  21.768  28.552  1.00  0.00    -0.203 F 
ATOM     65  C   UNL A   1      42.045  20.216  27.071  1.00  0.00     0.198 A 
ATOM     66  C   UNL A   1      43.709  20.771  25.466  1.00  0.00     0.198 A 
ATOM     67  F   UNL A   1      44.566  22.952  25.310  1.00  0.00    -0.203 F 
ATOM     68  F   UNL A   1      41.169  19.357  27.612  1.00  0.00    -0.200 F 
ATOM     69  C   UNL A   1      42.845  19.839  26.022  1.00  0.00     0.200 A 
ATOM     70  F   UNL A   1      44.472  20.402  24.426  1.00  0.00    -0.200 F 
ATOM     71  F   UNL A   1      42.758  18.595  25.534  1.00  0.00    -0.200 F 
ENDBRANCH  47  61
BRANCH  48  72
ATOM     72  C   UNL A   1      44.069  32.860  28.448  1.00  0.00     0.064 A 
ATOM     73  C   UNL A   1      42.821  33.011  29.137  1.00  0.00     0.173 A 
ATOM     74  C   UNL A   1      44.606  33.943  27.804  1.00  0.00     0.173 A 
ATOM     75  F   UNL A   1      42.466  32.144  30.101  1.00  0.00    -0.203 F 
ATOM     76  C   UNL A   1      42.114  34.196  29.088  1.00  0.00     0.198 A 
ATOM     77  C   UNL A   1      43.888  35.091  27.773  1.00  0.00     0.198 A 
ATOM     78  F   UNL A   1      45.916  34.034  27.523  1.00  0.00    -0.203 F 
ATOM     79  F   UNL A   1      41.036  34.415  29.856  1.00  0.00    -0.200 F 
ATOM     80  C   UNL A   1      42.657  35.232  28.389  1.00  0.00     0.200 A 
ATOM     81  F   UNL A   1      44.544  36.141  27.325  1.00  0.00    -0.200 F 
ATOM     82  F   UNL A   1      42.073  36.424  28.469  1.00  0.00    -0.200 F 
ENDBRANCH  48  72
BRANCH  60  83
ATOM     83  C   UNL A   1      44.712  26.476  31.948  1.00  0.00     0.064 A 
ATOM     84  C   UNL A   1      45.732  25.607  32.361  1.00  0.00     0.173 A 
ATOM     85  C   UNL A   1      43.693  26.574  32.931  1.00  0.00     0.173 A 
ATOM     86  F   UNL A   1      46.839  25.346  31.707  1.00  0.00    -0.203 F 
ATOM     87  C   UNL A   1      45.761  24.896  33.539  1.00  0.00     0.198 A 
ATOM     88  C   UNL A   1      43.736  25.888  34.151  1.00  0.00     0.198 A 
ATOM     89  F   UNL A   1      42.594  27.323  32.802  1.00  0.00    -0.203 F 
ATOM     90  F   UNL A   1      46.803  24.079  33.749  1.00  0.00    -0.200 F 
ATOM     91  C   UNL A   1      44.766  25.034  34.447  1.00  0.00     0.200 A 
ATOM     92  F   UNL A   1      42.748  26.063  35.036  1.00  0.00    -0.200 F 
ATOM     93  F   UNL A   1      44.809  24.340  35.584  1.00  0.00    -0.200 F 
ENDBRANCH  60  83
ENDBRANCH  34  35
ENDBRANCH  27  29
ENDBRANCH  26  27
ENDBRANCH  25  26
ENDBRANCH   1  25
TORSDOF 15
ENDMDL
MODEL 2
REMARK VINA RESULT:     -16.9      3.305      9.417
REMARK SMILES Cc1ccc(NC(=O)C[C@@H](C(=O)OCCOC(=O)c2ccc(-c3c4nc(c(-c5c(F)c(F)c(F)c(F)c5F)c5ccc([nH]5)c(-c5c(F)c(F)c(F)c(F)c5F)c5nc(c(-c6c(F)c(F)c(F)c(F)c6F)c6ccc3[nH]6)C=C5)C=C4)cc2)[NH+]2CCOCC2)cc1
REMARK SMILES IDX 14 1 13 2 11 3 12 4 10 5 9 6 7 7 6 8 8 10 5 11 1 12 2 13
REMARK SMILES IDX 3 14 89 15 4 16 88 17 82 18 83 19 87 20 84 22 86 23 85 24
REMARK SMILES IDX 15 25 16 26 17 27 18 28 19 29 20 30 81 31 21 32 80 33 22 34
REMARK SMILES IDX 23 35 24 36 74 37 25 38 79 39 73 40 75 41 26 42 78 43 72 44
REMARK SMILES IDX 71 45 27 47 59 48 39 49 58 50 40 51 43 52 57 53 76 54 41 55
REMARK SMILES IDX 42 56 56 58 77 59 44 60 28 61 29 62 37 63 30 64 31 65 35 66
REMARK SMILES IDX 38 67 32 68 33 69 36 70 34 71 60 72 61 73 69 74 62 75 63 76
REMARK SMILES IDX 67 77 70 78 64 79 65 80 68 81 66 82 45 83 46 84 54 85 47 86
REMARK SMILES IDX 48 87 52 88 55 89 49 90 50 91 53 92 51 93
REMARK H PARENT 6 9 82 21 75 46 43 57
REMARK Flexibility Score: inf
ROOT
ATOM      1  C   UNL A   1      39.453  23.766  26.566  1.00  0.00     0.274 C 
ENDROOT
BRANCH   1   2
ATOM      2  O   UNL A   1      38.403  22.390  25.884  1.00  0.00    -0.458 OA
BRANCH   2   3
ATOM      3  C   UNL A   1      37.220  22.380  25.066  1.00  0.00     0.365 C 
ATOM      4  O   UNL A   1      36.894  21.327  25.617  1.00  0.00    -0.245 OA
BRANCH   3   5
ATOM      5  C   UNL A   1      35.498  22.296  24.707  1.00  0.00     0.304 C 
BRANCH   5   6
ATOM      6  C   UNL A   1      35.629  23.213  23.280  1.00  0.00     0.177 C 
BRANCH   6   7
ATOM      7  C   UNL A   1      34.097  23.781  22.806  1.00  0.00     0.231 C 
ATOM      8  N   UNL A   1      33.280  24.923  23.159  1.00  0.00    -0.326 N 
ATOM      9  H   UNL A   1      32.381  24.870  22.762  1.00  0.00     0.169 HD
ATOM     10  O   UNL A   1      33.687  23.196  21.775  1.00  0.00    -0.274 OA
BRANCH   8  11
ATOM     11  C   UNL A   1      33.457  26.149  23.969  1.00  0.00     0.041 A 
ATOM     12  C   UNL A   1      31.845  30.371  26.374  1.00  0.00     0.044 C 
ATOM     13  C   UNL A   1      31.939  28.838  26.126  1.00  0.00    -0.051 A 
ATOM     14  C   UNL A   1      31.639  28.654  24.522  1.00  0.00     0.005 A 
ATOM     15  C   UNL A   1      33.021  27.672  26.747  1.00  0.00     0.005 A 
ATOM     16  C   UNL A   1      32.451  27.358  23.359  1.00  0.00     0.026 A 
ATOM     17  C   UNL A   1      33.768  26.343  25.741  1.00  0.00     0.026 A 
ENDBRANCH   8  11
ENDBRANCH   6   7
ENDBRANCH   5   6
BRANCH   5  18
ATOM     18  N   UNL A   1      34.058  22.387  25.936  1.00  0.00    -0.319 N 
ATOM     19  C   UNL A   1      32.361  22.213  25.660  1.00  0.00     0.291 C 
ATOM     20  C   UNL A   1      33.811  21.563  27.242  1.00  0.00     0.291 C 
ATOM     21  H   UNL A   1      34.559  23.274  25.899  1.00  0.00     0.348 HD
ATOM     22  C   UNL A   1      31.565  23.333  26.146  1.00  0.00     0.221 C 
ATOM     23  C   UNL A   1      32.623  22.440  28.096  1.00  0.00     0.221 C 
ATOM     24  O   UNL A   1      31.361  22.910  27.477  1.00  0.00    -0.370 OA
ENDBRANCH   5  18
ENDBRANCH   3   5
ENDBRANCH   2   3
ENDBRANCH   1   2
BRANCH   1  25
ATOM     25  C   UNL A   1      41.465  23.745  27.508  1.00  0.00     0.275 C 
BRANCH  25  26
ATOM     26  O   UNL A   1      42.569  25.161  26.853  1.00  0.00    -0.458 OA
BRANCH  26  27
ATOM     27  C   UNL A   1      42.452  26.787  27.275  1.00  0.00     0.338 C 
ATOM     28  O   UNL A   1      43.143  27.552  26.598  1.00  0.00    -0.246 OA
BRANCH  27  29
ATOM     29  C   UNL A   1      41.202  27.453  28.464  1.00  0.00     0.060 A 
ATOM     30  C   UNL A   1      40.169  26.718  28.761  1.00  0.00     0.016 A 
ATOM     31  C   UNL A   1      41.157  28.295  29.596  1.00  0.00     0.016 A 
ATOM     32  C   UNL A   1      39.319  26.889  30.171  1.00  0.00     0.010 A 
ATOM     33  C   UNL A   1      40.658  27.892  30.867  1.00  0.00     0.010 A 
ATOM     34  C   UNL A   1      39.374  27.903  31.018  1.00  0.00    -0.014 A 
BRANCH  34  35
ATOM     35  C   UNL A   1      39.466  29.053  31.944  1.00  0.00     0.031 A 
ATOM     36  C   UNL A   1      38.304  29.841  30.856  1.00  0.00     0.074 A 
ATOM     37  C   UNL A   1      40.266  29.072  33.269  1.00  0.00     0.049 A 
ATOM     38  N   UNL A   1      38.569  30.601  29.816  1.00  0.00    -0.248 NA
ATOM     39  C   UNL A   1      36.872  29.290  30.353  1.00  0.00     0.031 C 
ATOM     40  C   UNL A   1      40.808  30.171  34.398  1.00  0.00     0.029 A 
ATOM     41  N   UNL A   1      41.077  28.005  33.908  1.00  0.00    -0.354 N 
ATOM     42  C   UNL A   1      37.357  31.292  29.595  1.00  0.00     0.074 A 
ATOM     43  C   UNL A   1      36.333  30.305  29.631  1.00  0.00     0.031 C 
ATOM     44  C   UNL A   1      42.076  29.857  34.846  1.00  0.00     0.029 A 
ATOM     45  C   UNL A   1      42.320  28.520  34.400  1.00  0.00     0.049 A 
ATOM     46  H   UNL A   1      40.796  27.065  33.983  1.00  0.00     0.167 HD
ATOM     47  C   UNL A   1      37.251  32.554  30.104  1.00  0.00     0.037 A 
ATOM     48  C   UNL A   1      43.443  28.246  33.727  1.00  0.00     0.037 A 
ATOM     49  C   UNL A   1      38.398  32.730  30.999  1.00  0.00     0.049 A 
ATOM     50  C   UNL A   1      43.414  29.326  32.647  1.00  0.00     0.074 A 
ATOM     51  C   UNL A   1      38.514  32.657  32.370  1.00  0.00     0.029 A 
ATOM     52  N   UNL A   1      39.675  32.489  30.500  1.00  0.00    -0.354 N 
ATOM     53  N   UNL A   1      42.392  29.995  32.158  1.00  0.00    -0.248 NA
ATOM     54  C   UNL A   1      44.682  29.793  32.225  1.00  0.00     0.031 C 
ATOM     55  C   UNL A   1      39.907  32.505  32.657  1.00  0.00     0.029 A 
ATOM     56  C   UNL A   1      40.633  32.324  31.480  1.00  0.00     0.049 A 
ATOM     57  H   UNL A   1      39.875  32.440  29.538  1.00  0.00     0.167 HD
ATOM     58  C   UNL A   1      42.834  31.120  31.523  1.00  0.00     0.074 A 
ATOM     59  C   UNL A   1      44.270  30.883  31.589  1.00  0.00     0.031 C 
ATOM     60  C   UNL A   1      42.055  32.170  31.057  1.00  0.00     0.037 A 
BRANCH  47  61
ATOM     61  C   UNL A   1      36.081  33.515  30.101  1.00  0.00     0.064 A 
ATOM     62  C   UNL A   1      35.648  33.981  28.840  1.00  0.00     0.173 A 
ATOM     63  C   UNL A   1      35.256  33.892  31.185  1.00  0.00     0.173 A 
ATOM     64  F   UNL A   1      36.292  33.659  27.711  1.00  0.00    -0.203 F 
ATOM     65  C   UNL A   1      34.510  34.751  28.651  1.00  0.00     0.198 A 
ATOM     66  C   UNL A   1      34.105  34.689  30.993  1.00  0.00     0.198 A 
ATOM     67  F   UNL A   1      35.502  33.469  32.434  1.00  0.00    -0.203 F 
ATOM     68  F   UNL A   1      34.165  35.102  27.405  1.00  0.00    -0.200 F 
ATOM     69  C   UNL A   1      33.733  35.107  29.725  1.00  0.00     0.200 A 
ATOM     70  F   UNL A   1      33.329  35.022  32.036  1.00  0.00    -0.200 F 
ATOM     71  F   UNL A   1      32.618  35.822  29.529  1.00  0.00    -0.200 F 
ENDBRANCH  47  61
BRANCH  48  72
ATOM     72  C   UNL A   1      43.429  26.810  33.471  1.00  0.00     0.064 A 
ATOM     73  C   UNL A   1      43.724  26.259  32.182  1.00  0.00     0.173 A 
ATOM     74  C   UNL A   1      43.670  26.051  34.587  1.00  0.00     0.173 A 
ATOM     75  F   UNL A   1      43.904  27.066  31.122  1.00  0.00    -0.203 F 
ATOM     76  C   UNL A   1      44.159  24.956  32.040  1.00  0.00     0.198 A 
ATOM     77  C   UNL A   1      44.094  24.777  34.416  1.00  0.00     0.198 A 
ATOM     78  F   UNL A   1      43.847  26.597  35.801  1.00  0.00    -0.203 F 
ATOM     79  F   UNL A   1      44.598  24.474  30.868  1.00  0.00    -0.200 F 
ATOM     80  C   UNL A   1      44.331  24.217  33.173  1.00  0.00     0.200 A 
ATOM     81  F   UNL A   1      44.502  24.178  35.515  1.00  0.00    -0.200 F 
ATOM     82  F   UNL A   1      44.903  23.022  33.067  1.00  0.00    -0.200 F 
ENDBRANCH  48  72
BRANCH  60  83
ATOM     83  C   UNL A   1      42.626  33.247  30.105  1.00  0.00     0.064 A 
ATOM     84  C   UNL A   1      42.645  34.624  30.371  1.00  0.00     0.173 A 
ATOM     85  C   UNL A   1      43.235  32.958  28.855  1.00  0.00     0.173 A 
ATOM     86  F   UNL A   1      42.214  35.207  31.464  1.00  0.00    -0.203 F 
ATOM     87  C   UNL A   1      43.144  35.601  29.540  1.00  0.00     0.198 A 
ATOM     88  C   UNL A   1      43.785  33.942  28.024  1.00  0.00     0.198 A 
ATOM     89  F   UNL A   1      43.350  31.730  28.342  1.00  0.00    -0.203 F 
ATOM     90  F   UNL A   1      43.040  36.875  29.943  1.00  0.00    -0.200 F 
ATOM     91  C   UNL A   1      43.723  35.269  28.362  1.00  0.00     0.200 A 
ATOM     92  F   UNL A   1      44.369  33.579  26.877  1.00  0.00    -0.200 F 
ATOM     93  F   UNL A   1      44.203  36.226  27.569  1.00  0.00    -0.200 F 
ENDBRANCH  60  83
ENDBRANCH  34  35
ENDBRANCH  27  29
ENDBRANCH  26  27
ENDBRANCH  25  26
ENDBRANCH   1  25
TORSDOF 15
ENDMDL
MODEL 3
REMARK VINA RESULT:     -16.8      2.963      4.736
REMARK SMILES Cc1ccc(NC(=O)C[C@@H](C(=O)OCCOC(=O)c2ccc(-c3c4nc(c(-c5c(F)c(F)c(F)c(F)c5F)c5ccc([nH]5)c(-c5c(F)c(F)c(F)c(F)c5F)c5nc(c(-c6c(F)c(F)c(F)c(F)c6F)c6ccc3[nH]6)C=C5)C=C4)cc2)[NH+]2CCOCC2)cc1
REMARK SMILES IDX 14 1 13 2 11 3 12 4 10 5 9 6 7 7 6 8 8 10 5 11 1 12 2 13
REMARK SMILES IDX 3 14 89 15 4 16 88 17 82 18 83 19 87 20 84 22 86 23 85 24
REMARK SMILES IDX 15 25 16 26 17 27 18 28 19 29 20 30 81 31 21 32 80 33 22 34
REMARK SMILES IDX 23 35 24 36 74 37 25 38 79 39 73 40 75 41 26 42 78 43 72 44
REMARK SMILES IDX 71 45 27 47 59 48 39 49 58 50 40 51 43 52 57 53 76 54 41 55
REMARK SMILES IDX 42 56 56 58 77 59 44 60 28 61 29 62 37 63 30 64 31 65 35 66
REMARK SMILES IDX 38 67 32 68 33 69 36 70 34 71 60 72 61 73 69 74 62 75 63 76
REMARK SMILES IDX 67 77 70 78 64 79 65 80 68 81 66 82 45 83 46 84 54 85 47 86
REMARK SMILES IDX 48 87 52 88 55 89 49 90 50 91 53 92 51 93
REMARK H PARENT 6 9 82 21 75 46 43 57
REMARK Flexibility Score: inf
ROOT
ATOM      1  C   UNL A   1      33.515  28.737  25.222  1.00  0.00     0.274 C 
ENDROOT
BRANCH   1   2
ATOM      2  O   UNL A   1      34.085  27.130  24.480  1.00  0.00    -0.458 OA
BRANCH   2   3
ATOM      3  C   UNL A   1      33.774  25.756  24.772  1.00  0.00     0.365 C 
ATOM      4  O   UNL A   1      34.568  25.428  23.888  1.00  0.00    -0.245 OA
BRANCH   3   5
ATOM      5  C   UNL A   1      34.094  24.071  25.173  1.00  0.00     0.304 C 
BRANCH   5   6
ATOM      6  C   UNL A   1      32.869  23.995  26.351  1.00  0.00     0.177 C 
BRANCH   6   7
ATOM      7  C   UNL A   1      31.486  23.240  25.709  1.00  0.00     0.231 C 
ATOM      8  N   UNL A   1      30.520  23.584  24.686  1.00  0.00    -0.326 N 
ATOM      9  H   UNL A   1      29.769  22.948  24.659  1.00  0.00     0.169 HD
ATOM     10  O   UNL A   1      31.416  22.037  26.052  1.00  0.00    -0.274 OA
BRANCH   8  11
ATOM     11  C   UNL A   1      30.378  24.652  23.672  1.00  0.00     0.041 A 
ATOM     12  C   UNL A   1      30.414  29.501  22.030  1.00  0.00     0.044 C 
ATOM     13  C   UNL A   1      31.047  28.203  22.609  1.00  0.00    -0.051 A 
ATOM     14  C   UNL A   1      30.063  27.776  23.852  1.00  0.00     0.005 A 
ATOM     15  C   UNL A   1      31.763  26.866  21.825  1.00  0.00     0.005 A 
ATOM     16  C   UNL A   1      29.619  25.982  24.379  1.00  0.00     0.026 A 
ATOM     17  C   UNL A   1      31.478  25.130  22.317  1.00  0.00     0.026 A 
ENDBRANCH   8  11
ENDBRANCH   6   7
ENDBRANCH   5   6
BRANCH   5  18
ATOM     18  N   UNL A   1      35.779  23.214  25.292  1.00  0.00    -0.319 N 
ATOM     19  C   UNL A   1      36.505  22.057  24.234  1.00  0.00     0.291 C 
ATOM     20  C   UNL A   1      37.209  23.839  25.398  1.00  0.00     0.291 C 
ATOM     21  H   UNL A   1      35.194  22.974  26.092  1.00  0.00     0.348 HD
ATOM     22  C   UNL A   1      36.929  20.830  24.899  1.00  0.00     0.221 C 
ATOM     23  C   UNL A   1      38.207  22.565  25.937  1.00  0.00     0.221 C 
ATOM     24  O   UNL A   1      38.222  21.224  25.306  1.00  0.00    -0.370 OA
ENDBRANCH   5  18
ENDBRANCH   3   5
ENDBRANCH   2   3
ENDBRANCH   1   2
BRANCH   1  25
ATOM     25  C   UNL A   1      33.404  29.418  27.334  1.00  0.00     0.275 C 
BRANCH  25  26
ATOM     26  O   UNL A   1      33.638  31.309  27.481  1.00  0.00    -0.458 OA
BRANCH  26  27
ATOM     27  C   UNL A   1      35.066  32.103  27.890  1.00  0.00     0.338 C 
ATOM     28  O   UNL A   1      35.041  33.329  27.745  1.00  0.00    -0.246 OA
BRANCH  27  29
ATOM     29  C   UNL A   1      36.487  31.287  28.746  1.00  0.00     0.060 A 
ATOM     30  C   UNL A   1      36.388  30.027  29.058  1.00  0.00     0.016 A 
ATOM     31  C   UNL A   1      37.896  31.372  28.782  1.00  0.00     0.016 A 
ATOM     32  C   UNL A   1      37.704  29.046  29.270  1.00  0.00     0.010 A 
ATOM     33  C   UNL A   1      38.765  30.286  28.482  1.00  0.00     0.010 A 
ATOM     34  C   UNL A   1      38.963  29.423  29.424  1.00  0.00    -0.014 A 
BRANCH  34  35
ATOM     35  C   UNL A   1      40.360  29.881  29.589  1.00  0.00     0.031 A 
ATOM     36  C   UNL A   1      40.802  28.382  28.745  1.00  0.00     0.074 A 
ATOM     37  C   UNL A   1      40.790  31.241  30.190  1.00  0.00     0.049 A 
ATOM     38  N   UNL A   1      41.076  27.212  29.281  1.00  0.00    -0.248 NA
ATOM     39  C   UNL A   1      40.267  27.840  27.321  1.00  0.00     0.031 C 
ATOM     40  C   UNL A   1      42.166  31.990  30.757  1.00  0.00     0.029 A 
ATOM     41  N   UNL A   1      39.960  32.360  30.704  1.00  0.00    -0.354 N 
ATOM     42  C   UNL A   1      41.764  26.532  28.251  1.00  0.00     0.074 A 
ATOM     43  C   UNL A   1      40.986  26.716  27.074  1.00  0.00     0.031 C 
ATOM     44  C   UNL A   1      41.905  32.756  31.876  1.00  0.00     0.029 A 
ATOM     45  C   UNL A   1      40.480  32.868  31.939  1.00  0.00     0.049 A 
ATOM     46  H   UNL A   1      39.156  32.707  30.255  1.00  0.00     0.167 HD
ATOM     47  C   UNL A   1      43.128  26.530  28.300  1.00  0.00     0.037 A 
ATOM     48  C   UNL A   1      39.847  32.566  33.079  1.00  0.00     0.037 A 
ATOM     49  C   UNL A   1      43.500  27.509  29.326  1.00  0.00     0.049 A 
ATOM     50  C   UNL A   1      40.432  31.190  33.388  1.00  0.00     0.074 A 
ATOM     51  C   UNL A   1      43.938  28.811  29.238  1.00  0.00     0.029 A 
ATOM     52  N   UNL A   1      42.945  27.384  30.596  1.00  0.00    -0.354 N 
ATOM     53  N   UNL A   1      40.977  30.308  32.578  1.00  0.00    -0.248 NA
ATOM     54  C   UNL A   1      40.559  30.883  34.765  1.00  0.00     0.031 C 
ATOM     55  C   UNL A   1      43.752  29.397  30.529  1.00  0.00     0.029 A 
ATOM     56  C   UNL A   1      43.058  28.524  31.367  1.00  0.00     0.049 A 
ATOM     57  H   UNL A   1      42.513  26.559  30.916  1.00  0.00     0.167 HD
ATOM     58  C   UNL A   1      41.719  29.414  33.294  1.00  0.00     0.074 A 
ATOM     59  C   UNL A   1      41.365  29.836  34.642  1.00  0.00     0.031 C 
ATOM     60  C   UNL A   1      42.595  28.466  32.784  1.00  0.00     0.037 A 
BRANCH  47  61
ATOM     61  C   UNL A   1      44.141  25.962  27.329  1.00  0.00     0.064 A 
ATOM     62  C   UNL A   1      44.280  24.556  27.311  1.00  0.00     0.173 A 
ATOM     63  C   UNL A   1      44.862  26.640  26.321  1.00  0.00     0.173 A 
ATOM     64  F   UNL A   1      43.615  23.771  28.167  1.00  0.00    -0.203 F 
ATOM     65  C   UNL A   1      45.057  23.870  26.390  1.00  0.00     0.198 A 
ATOM     66  C   UNL A   1      45.665  25.940  25.392  1.00  0.00     0.198 A 
ATOM     67  F   UNL A   1      44.775  27.970  26.169  1.00  0.00    -0.203 F 
ATOM     68  F   UNL A   1      45.084  22.531  26.434  1.00  0.00    -0.200 F 
ATOM     69  C   UNL A   1      45.751  24.557  25.426  1.00  0.00     0.200 A 
ATOM     70  F   UNL A   1      46.328  26.605  24.433  1.00  0.00    -0.200 F 
ATOM     71  F   UNL A   1      46.473  23.884  24.520  1.00  0.00    -0.200 F 
ENDBRANCH  47  61
BRANCH  48  72
ATOM     72  C   UNL A   1      38.432  32.837  32.847  1.00  0.00     0.064 A 
ATOM     73  C   UNL A   1      37.515  31.819  32.428  1.00  0.00     0.173 A 
ATOM     74  C   UNL A   1      37.955  33.907  33.559  1.00  0.00     0.173 A 
ATOM     75  F   UNL A   1      37.961  30.591  32.111  1.00  0.00    -0.203 F 
ATOM     76  C   UNL A   1      36.157  31.939  32.651  1.00  0.00     0.198 A 
ATOM     77  C   UNL A   1      36.619  33.998  33.759  1.00  0.00     0.198 A 
ATOM     78  F   UNL A   1      38.743  34.653  34.348  1.00  0.00    -0.203 F 
ATOM     79  F   UNL A   1      35.305  30.930  32.420  1.00  0.00    -0.200 F 
ATOM     80  C   UNL A   1      35.718  33.047  33.313  1.00  0.00     0.200 A 
ATOM     81  F   UNL A   1      36.251  34.926  34.618  1.00  0.00    -0.200 F 
ATOM     82  F   UNL A   1      34.441  33.099  33.679  1.00  0.00    -0.200 F 
ENDBRANCH  48  72
BRANCH  60  83
ATOM     83  C   UNL A   1      43.159  27.324  33.661  1.00  0.00     0.064 A 
ATOM     84  C   UNL A   1      44.521  27.026  33.812  1.00  0.00     0.173 A 
ATOM     85  C   UNL A   1      42.356  26.459  34.451  1.00  0.00     0.173 A 
ATOM     86  F   UNL A   1      45.520  27.676  33.264  1.00  0.00    -0.203 F 
ATOM     87  C   UNL A   1      45.048  26.015  34.583  1.00  0.00     0.198 A 
ATOM     88  C   UNL A   1      42.886  25.457  35.272  1.00  0.00     0.198 A 
ATOM     89  F   UNL A   1      41.021  26.508  34.496  1.00  0.00    -0.203 F 
ATOM     90  F   UNL A   1      46.378  25.853  34.575  1.00  0.00    -0.200 F 
ATOM     91  C   UNL A   1      44.236  25.224  35.324  1.00  0.00     0.200 A 
ATOM     92  F   UNL A   1      42.057  24.707  36.008  1.00  0.00    -0.200 F 
ATOM     93  F   UNL A   1      44.760  24.251  36.067  1.00  0.00    -0.200 F 
ENDBRANCH  60  83
ENDBRANCH  34  35
ENDBRANCH  27  29
ENDBRANCH  26  27
ENDBRANCH  25  26
ENDBRANCH   1  25
TORSDOF 15
ENDMDL
