MODEL 1
REMARK VINA RESULT:     -11.1      0.000      0.000
REMARK SMILES C[C@H](CCc1ccco1)NC(=O)c1cccn1CC(=O)OCCOC(=O)c1ccc(-c2c3nc(c(-c4c(F)c(F)c(F)c(F)c4F)c4ccc([nH]4)c(-c4c(F)c(F)c(F)c(F)c4F)c4nc(c(-c5c(F)c(F)c(F)c(F)c5F)c5ccc2[nH]5)C=C4)C=C3)cc1
REMARK SMILES IDX 19 1 20 2 18 3 17 4 13 5 14 6 15 7 16 8 11 9 10 10 12 12
REMARK SMILES IDX 2 13 1 14 3 15 4 16 5 17 6 18 9 19 7 20 8 21 21 22 22 23
REMARK SMILES IDX 23 24 24 25 25 26 26 27 27 28 28 29 89 30 29 31 88 32 30 33
REMARK SMILES IDX 31 34 32 35 82 36 33 37 87 38 81 39 83 40 34 41 86 42 80 43
REMARK SMILES IDX 79 44 35 46 67 47 47 48 66 49 48 50 51 51 65 52 84 53 49 54
REMARK SMILES IDX 50 55 64 57 85 58 52 59 36 60 37 61 45 62 38 63 39 64 43 65
REMARK SMILES IDX 46 66 40 67 41 68 44 69 42 70 68 71 69 72 77 73 70 74 71 75
REMARK SMILES IDX 75 76 78 77 72 78 73 79 76 80 74 81 53 82 54 83 62 84 55 85
REMARK SMILES IDX 56 86 60 87 63 88 57 89 58 90 61 91 59 92
REMARK H PARENT 10 11 83 45 51 56
REMARK Flexibility Score: inf
ROOT
ATOM      1  C   UNL A   1      36.862  22.581  25.123  1.00  0.00     0.326 C 
ATOM      2  O   UNL A   1      36.856  23.181  26.188  1.00  0.00    -0.250 OA
ENDROOT
BRANCH   1   3
ATOM      3  C   UNL A   1      35.652  22.538  24.223  1.00  0.00     0.244 C 
BRANCH   3   4
ATOM      4  N   UNL A   1      34.661  21.490  24.453  1.00  0.00    -0.332 N 
ATOM      5  C   UNL A   1      33.360  21.466  23.976  1.00  0.00     0.107 A 
ATOM      6  C   UNL A   1      32.903  20.162  24.141  1.00  0.00     0.033 A 
ATOM      7  C   UNL A   1      33.887  19.416  24.810  1.00  0.00     0.020 A 
ATOM      8  C   UNL A   1      34.957  20.255  24.972  1.00  0.00     0.087 A 
BRANCH   5   9
ATOM      9  C   UNL A   1      32.677  22.579  23.352  1.00  0.00     0.268 C 
ATOM     10  N   UNL A   1      31.925  23.423  24.134  1.00  0.00    -0.348 N 
ATOM     11  H   UNL A   1      31.355  24.058  23.644  1.00  0.00     0.164 HD
ATOM     12  O   UNL A   1      32.739  22.815  22.147  1.00  0.00    -0.268 OA
BRANCH  10  13
ATOM     13  C   UNL A   1      31.854  23.510  25.591  1.00  0.00     0.079 C 
ATOM     14  C   UNL A   1      30.637  22.735  26.083  1.00  0.00     0.031 C 
BRANCH  13  15
ATOM     15  C   UNL A   1      31.839  24.982  26.038  1.00  0.00     0.032 C 
BRANCH  15  16
ATOM     16  C   UNL A   1      30.512  25.693  25.733  1.00  0.00     0.077 C 
BRANCH  16  17
ATOM     17  C   UNL A   1      30.732  26.995  25.053  1.00  0.00     0.103 A 
ATOM     18  C   UNL A   1      30.242  27.563  23.894  1.00  0.00     0.045 A 
ATOM     19  O   UNL A   1      31.535  27.878  25.706  1.00  0.00    -0.469 OA
ATOM     20  C   UNL A   1      30.738  28.887  23.864  1.00  0.00     0.042 A 
ATOM     21  C   UNL A   1      31.527  29.019  24.980  1.00  0.00     0.195 A 
ENDBRANCH  16  17
ENDBRANCH  15  16
ENDBRANCH  13  15
ENDBRANCH  10  13
ENDBRANCH   5   9
ENDBRANCH   3   4
ENDBRANCH   1   3
BRANCH   1  22
ATOM     22  O   UNL A   1      37.884  21.780  24.708  1.00  0.00    -0.461 OA
BRANCH  22  23
ATOM     23  C   UNL A   1      38.809  21.372  25.738  1.00  0.00     0.274 C 
BRANCH  23  24
ATOM     24  C   UNL A   1      39.466  19.992  25.561  1.00  0.00     0.275 C 
BRANCH  24  25
ATOM     25  O   UNL A   1      40.346  19.582  26.619  1.00  0.00    -0.458 OA
BRANCH  25  26
ATOM     26  C   UNL A   1      41.616  19.449  26.190  1.00  0.00     0.338 C 
ATOM     27  O   UNL A   1      42.134  18.447  25.726  1.00  0.00    -0.246 OA
BRANCH  26  28
ATOM     28  C   UNL A   1      42.455  20.615  26.418  1.00  0.00     0.060 A 
ATOM     29  C   UNL A   1      42.344  21.246  27.660  1.00  0.00     0.016 A 
ATOM     30  C   UNL A   1      42.941  21.286  25.296  1.00  0.00     0.016 A 
ATOM     31  C   UNL A   1      42.583  22.606  27.756  1.00  0.00     0.010 A 
ATOM     32  C   UNL A   1      43.258  22.633  25.408  1.00  0.00     0.010 A 
ATOM     33  C   UNL A   1      43.047  23.296  26.630  1.00  0.00    -0.014 A 
BRANCH  33  34
ATOM     34  C   UNL A   1      43.604  24.649  26.836  1.00  0.00     0.031 A 
ATOM     35  C   UNL A   1      42.489  25.700  26.916  1.00  0.00     0.074 A 
ATOM     36  C   UNL A   1      44.956  24.777  26.962  1.00  0.00     0.049 A 
ATOM     37  N   UNL A   1      42.564  26.994  26.979  1.00  0.00    -0.248 NA
ATOM     38  C   UNL A   1      41.067  25.241  26.915  1.00  0.00     0.031 C 
ATOM     39  C   UNL A   1      45.921  23.668  26.835  1.00  0.00     0.029 A 
ATOM     40  N   UNL A   1      45.790  25.848  27.225  1.00  0.00    -0.354 N 
ATOM     41  C   UNL A   1      41.265  27.458  27.266  1.00  0.00     0.074 A 
ATOM     42  C   UNL A   1      40.371  26.361  27.081  1.00  0.00     0.031 C 
ATOM     43  C   UNL A   1      47.188  24.118  26.970  1.00  0.00     0.029 A 
ATOM     44  C   UNL A   1      47.177  25.546  27.233  1.00  0.00     0.049 A 
ATOM     45  H   UNL A   1      45.447  26.755  27.393  1.00  0.00     0.167 HD
ATOM     46  C   UNL A   1      41.009  28.674  27.816  1.00  0.00     0.037 A 
ATOM     47  C   UNL A   1      48.243  26.377  27.450  1.00  0.00     0.037 A 
ATOM     48  C   UNL A   1      42.189  29.461  27.889  1.00  0.00     0.049 A 
ATOM     49  C   UNL A   1      47.671  27.622  27.979  1.00  0.00     0.074 A 
ATOM     50  C   UNL A   1      42.922  30.116  26.939  1.00  0.00     0.029 A 
ATOM     51  N   UNL A   1      42.914  29.401  29.052  1.00  0.00    -0.354 N 
ATOM     52  N   UNL A   1      47.199  27.735  29.184  1.00  0.00    -0.248 NA
ATOM     53  C   UNL A   1      47.634  28.825  27.144  1.00  0.00     0.031 C 
ATOM     54  C   UNL A   1      44.233  30.133  27.453  1.00  0.00     0.029 A 
ATOM     55  C   UNL A   1      44.239  29.553  28.725  1.00  0.00     0.049 A 
ATOM     56  H   UNL A   1      42.550  29.273  29.958  1.00  0.00     0.167 HD
ATOM     57  C   UNL A   1      46.499  28.915  29.117  1.00  0.00     0.074 A 
ATOM     58  C   UNL A   1      47.052  29.656  28.007  1.00  0.00     0.031 C 
ATOM     59  C   UNL A   1      45.225  28.936  29.583  1.00  0.00     0.037 A 
BRANCH  46  60
ATOM     60  C   UNL A   1      39.787  29.170  28.529  1.00  0.00     0.064 A 
ATOM     61  C   UNL A   1      39.650  28.878  29.905  1.00  0.00     0.173 A 
ATOM     62  C   UNL A   1      38.628  29.590  27.860  1.00  0.00     0.173 A 
ATOM     63  F   UNL A   1      40.710  28.490  30.632  1.00  0.00    -0.203 F 
ATOM     64  C   UNL A   1      38.412  28.895  30.540  1.00  0.00     0.198 A 
ATOM     65  C   UNL A   1      37.396  29.653  28.515  1.00  0.00     0.198 A 
ATOM     66  F   UNL A   1      38.638  29.846  26.545  1.00  0.00    -0.203 F 
ATOM     67  F   UNL A   1      38.309  28.482  31.811  1.00  0.00    -0.200 F 
ATOM     68  C   UNL A   1      37.281  29.270  29.840  1.00  0.00     0.200 A 
ATOM     69  F   UNL A   1      36.301  30.017  27.830  1.00  0.00    -0.200 F 
ATOM     70  F   UNL A   1      36.079  29.224  30.429  1.00  0.00    -0.200 F 
ENDBRANCH  46  60
BRANCH  47  71
ATOM     71  C   UNL A   1      49.756  26.355  27.365  1.00  0.00     0.064 A 
ATOM     72  C   UNL A   1      50.637  26.442  28.449  1.00  0.00     0.173 A 
ATOM     73  C   UNL A   1      50.395  26.091  26.115  1.00  0.00     0.173 A 
ATOM     74  F   UNL A   1      50.198  26.723  29.679  1.00  0.00    -0.203 F 
ATOM     75  C   UNL A   1      52.020  26.212  28.308  1.00  0.00     0.198 A 
ATOM     76  C   UNL A   1      51.756  25.808  25.986  1.00  0.00     0.198 A 
ATOM     77  F   UNL A   1      49.714  26.073  24.962  1.00  0.00    -0.203 F 
ATOM     78  F   UNL A   1      52.818  26.305  29.381  1.00  0.00    -0.200 F 
ATOM     79  C   UNL A   1      52.571  25.860  27.089  1.00  0.00     0.200 A 
ATOM     80  F   UNL A   1      52.252  25.459  24.790  1.00  0.00    -0.200 F 
ATOM     81  F   UNL A   1      53.873  25.568  26.978  1.00  0.00    -0.200 F 
ENDBRANCH  47  71
BRANCH  59  82
ATOM     82  C   UNL A   1      44.980  27.879  30.650  1.00  0.00     0.064 A 
ATOM     83  C   UNL A   1      45.532  28.037  31.932  1.00  0.00     0.173 A 
ATOM     84  C   UNL A   1      44.384  26.635  30.386  1.00  0.00     0.173 A 
ATOM     85  F   UNL A   1      46.105  29.202  32.275  1.00  0.00    -0.203 F 
ATOM     86  C   UNL A   1      45.525  26.999  32.869  1.00  0.00     0.198 A 
ATOM     87  C   UNL A   1      44.371  25.597  31.320  1.00  0.00     0.198 A 
ATOM     88  F   UNL A   1      43.797  26.398  29.217  1.00  0.00    -0.203 F 
ATOM     89  F   UNL A   1      46.082  27.182  34.074  1.00  0.00    -0.200 F 
ATOM     90  C   UNL A   1      44.953  25.776  32.559  1.00  0.00     0.200 A 
ATOM     91  F   UNL A   1      43.795  24.425  31.011  1.00  0.00    -0.200 F 
ATOM     92  F   UNL A   1      44.950  24.778  33.455  1.00  0.00    -0.200 F 
ENDBRANCH  59  82
ENDBRANCH  33  34
ENDBRANCH  26  28
ENDBRANCH  25  26
ENDBRANCH  24  25
ENDBRANCH  23  24
ENDBRANCH  22  23
ENDBRANCH   1  22
TORSDOF 17
ENDMDL
MODEL 2
REMARK VINA RESULT:     -11.0      1.603      3.634
REMARK SMILES C[C@H](CCc1ccco1)NC(=O)c1cccn1CC(=O)OCCOC(=O)c1ccc(-c2c3nc(c(-c4c(F)c(F)c(F)c(F)c4F)c4ccc([nH]4)c(-c4c(F)c(F)c(F)c(F)c4F)c4nc(c(-c5c(F)c(F)c(F)c(F)c5F)c5ccc2[nH]5)C=C4)C=C3)cc1
REMARK SMILES IDX 19 1 20 2 18 3 17 4 13 5 14 6 15 7 16 8 11 9 10 10 12 12
REMARK SMILES IDX 2 13 1 14 3 15 4 16 5 17 6 18 9 19 7 20 8 21 21 22 22 23
REMARK SMILES IDX 23 24 24 25 25 26 26 27 27 28 28 29 89 30 29 31 88 32 30 33
REMARK SMILES IDX 31 34 32 35 82 36 33 37 87 38 81 39 83 40 34 41 86 42 80 43
REMARK SMILES IDX 79 44 35 46 67 47 47 48 66 49 48 50 51 51 65 52 84 53 49 54
REMARK SMILES IDX 50 55 64 57 85 58 52 59 36 60 37 61 45 62 38 63 39 64 43 65
REMARK SMILES IDX 46 66 40 67 41 68 44 69 42 70 68 71 69 72 77 73 70 74 71 75
REMARK SMILES IDX 75 76 78 77 72 78 73 79 76 80 74 81 53 82 54 83 62 84 55 85
REMARK SMILES IDX 56 86 60 87 63 88 57 89 58 90 61 91 59 92
REMARK H PARENT 10 11 83 45 51 56
REMARK Flexibility Score: inf
ROOT
ATOM      1  C   UNL A   1      36.664  22.137  25.160  1.00  0.00     0.326 C 
ATOM      2  O   UNL A   1      36.224  21.449  24.251  1.00  0.00    -0.250 OA
ENDROOT
BRANCH   1   3
ATOM      3  C   UNL A   1      35.776  22.684  26.250  1.00  0.00     0.244 C 
BRANCH   3   4
ATOM      4  N   UNL A   1      34.796  23.706  25.891  1.00  0.00    -0.332 N 
ATOM      5  C   UNL A   1      33.453  23.718  26.235  1.00  0.00     0.107 A 
ATOM      6  C   UNL A   1      32.993  25.007  25.985  1.00  0.00     0.033 A 
ATOM      7  C   UNL A   1      34.027  25.753  25.396  1.00  0.00     0.020 A 
ATOM      8  C   UNL A   1      35.122  24.931  25.366  1.00  0.00     0.087 A 
BRANCH   5   9
ATOM      9  C   UNL A   1      32.730  22.611  26.822  1.00  0.00     0.268 C 
ATOM     10  N   UNL A   1      32.312  21.582  26.011  1.00  0.00    -0.348 N 
ATOM     11  H   UNL A   1      31.689  20.943  26.425  1.00  0.00     0.164 HD
ATOM     12  O   UNL A   1      32.470  22.537  28.021  1.00  0.00    -0.268 OA
BRANCH  10  13
ATOM     13  C   UNL A   1      32.664  21.305  24.620  1.00  0.00     0.079 C 
ATOM     14  C   UNL A   1      31.800  22.162  23.701  1.00  0.00     0.031 C 
BRANCH  13  15
ATOM     15  C   UNL A   1      32.531  19.800  24.325  1.00  0.00     0.032 C 
BRANCH  15  16
ATOM     16  C   UNL A   1      33.814  19.011  24.622  1.00  0.00     0.077 C 
BRANCH  16  17
ATOM     17  C   UNL A   1      33.524  17.584  24.915  1.00  0.00     0.103 A 
ATOM     18  C   UNL A   1      34.259  16.419  24.816  1.00  0.00     0.045 A 
ATOM     19  O   UNL A   1      32.303  17.326  25.456  1.00  0.00    -0.469 OA
ATOM     20  C   UNL A   1      33.455  15.398  25.376  1.00  0.00     0.042 A 
ATOM     21  C   UNL A   1      32.276  16.002  25.735  1.00  0.00     0.195 A 
ENDBRANCH  16  17
ENDBRANCH  15  16
ENDBRANCH  13  15
ENDBRANCH  10  13
ENDBRANCH   5   9
ENDBRANCH   3   4
ENDBRANCH   1   3
BRANCH   1  22
ATOM     22  O   UNL A   1      37.944  22.603  25.210  1.00  0.00    -0.461 OA
BRANCH  22  23
ATOM     23  C   UNL A   1      38.820  21.912  26.126  1.00  0.00     0.274 C 
BRANCH  23  24
ATOM     24  C   UNL A   1      39.279  20.506  25.705  1.00  0.00     0.275 C 
BRANCH  24  25
ATOM     25  O   UNL A   1      40.165  19.841  26.619  1.00  0.00    -0.458 OA
BRANCH  25  26
ATOM     26  C   UNL A   1      41.415  19.747  26.126  1.00  0.00     0.338 C 
ATOM     27  O   UNL A   1      41.903  18.799  25.535  1.00  0.00    -0.246 OA
BRANCH  26  28
ATOM     28  C   UNL A   1      42.275  20.876  26.446  1.00  0.00     0.060 A 
ATOM     29  C   UNL A   1      42.305  21.296  27.778  1.00  0.00     0.016 A 
ATOM     30  C   UNL A   1      42.631  21.727  25.400  1.00  0.00     0.016 A 
ATOM     31  C   UNL A   1      42.555  22.626  28.067  1.00  0.00     0.010 A 
ATOM     32  C   UNL A   1      42.959  23.045  25.694  1.00  0.00     0.010 A 
ATOM     33  C   UNL A   1      42.889  23.497  27.023  1.00  0.00    -0.014 A 
BRANCH  33  34
ATOM     34  C   UNL A   1      43.466  24.809  27.383  1.00  0.00     0.031 A 
ATOM     35  C   UNL A   1      42.365  25.834  27.686  1.00  0.00     0.074 A 
ATOM     36  C   UNL A   1      44.825  24.922  27.436  1.00  0.00     0.049 A 
ATOM     37  N   UNL A   1      42.452  27.106  27.928  1.00  0.00    -0.248 NA
ATOM     38  C   UNL A   1      40.944  25.374  27.715  1.00  0.00     0.031 C 
ATOM     39  C   UNL A   1      45.772  23.847  27.088  1.00  0.00     0.029 A 
ATOM     40  N   UNL A   1      45.681  25.948  27.793  1.00  0.00    -0.354 N 
ATOM     41  C   UNL A   1      41.178  27.519  28.365  1.00  0.00     0.074 A 
ATOM     42  C   UNL A   1      40.267  26.457  28.085  1.00  0.00     0.031 C 
ATOM     43  C   UNL A   1      47.048  24.277  27.201  1.00  0.00     0.029 A 
ATOM     44  C   UNL A   1      47.063  25.653  27.666  1.00  0.00     0.049 A 
ATOM     45  H   UNL A   1      45.355  26.820  28.111  1.00  0.00     0.167 HD
ATOM     46  C   UNL A   1      40.967  28.643  29.099  1.00  0.00     0.037 A 
ATOM     47  C   UNL A   1      48.146  26.448  27.928  1.00  0.00     0.037 A 
ATOM     48  C   UNL A   1      42.153  29.416  29.205  1.00  0.00     0.049 A 
ATOM     49  C   UNL A   1      47.618  27.602  28.666  1.00  0.00     0.074 A 
ATOM     50  C   UNL A   1      42.826  30.203  28.311  1.00  0.00     0.029 A 
ATOM     51  N   UNL A   1      42.953  29.193  30.297  1.00  0.00    -0.354 N 
ATOM     52  N   UNL A   1      47.227  27.540  29.903  1.00  0.00    -0.248 NA
ATOM     53  C   UNL A   1      47.532  28.913  28.016  1.00  0.00     0.031 C 
ATOM     54  C   UNL A   1      44.168  30.150  28.734  1.00  0.00     0.029 A 
ATOM     55  C   UNL A   1      44.255  29.394  29.907  1.00  0.00     0.049 A 
ATOM     56  H   UNL A   1      42.649  28.935  31.197  1.00  0.00     0.167 HD
ATOM     57  C   UNL A   1      46.532  28.715  30.052  1.00  0.00     0.074 A 
ATOM     58  C   UNL A   1      47.014  29.610  29.025  1.00  0.00     0.031 C 
ATOM     59  C   UNL A   1      45.292  28.664  30.600  1.00  0.00     0.037 A 
BRANCH  46  60
ATOM     60  C   UNL A   1      39.798  29.028  29.954  1.00  0.00     0.064 A 
ATOM     61  C   UNL A   1      38.858  29.945  29.431  1.00  0.00     0.173 A 
ATOM     62  C   UNL A   1      39.759  28.816  31.340  1.00  0.00     0.173 A 
ATOM     63  F   UNL A   1      38.805  30.194  28.113  1.00  0.00    -0.203 F 
ATOM     64  C   UNL A   1      38.016  30.686  30.255  1.00  0.00     0.198 A 
ATOM     65  C   UNL A   1      38.878  29.526  32.159  1.00  0.00     0.198 A 
ATOM     66  F   UNL A   1      40.637  28.003  31.944  1.00  0.00    -0.203 F 
ATOM     67  F   UNL A   1      37.236  31.639  29.728  1.00  0.00    -0.200 F 
ATOM     68  C   UNL A   1      38.036  30.485  31.623  1.00  0.00     0.200 A 
ATOM     69  F   UNL A   1      38.902  29.329  33.485  1.00  0.00    -0.200 F 
ATOM     70  F   UNL A   1      37.276  31.241  32.425  1.00  0.00    -0.200 F 
ENDBRANCH  46  60
BRANCH  47  71
ATOM     71  C   UNL A   1      49.650  26.443  27.740  1.00  0.00     0.064 A 
ATOM     72  C   UNL A   1      50.602  26.541  28.762  1.00  0.00     0.173 A 
ATOM     73  C   UNL A   1      50.206  26.186  26.450  1.00  0.00     0.173 A 
ATOM     74  F   UNL A   1      50.244  26.817  30.019  1.00  0.00    -0.203 F 
ATOM     75  C   UNL A   1      51.974  26.328  28.527  1.00  0.00     0.198 A 
ATOM     76  C   UNL A   1      51.558  25.919  26.228  1.00  0.00     0.198 A 
ATOM     77  F   UNL A   1      49.448  26.160  25.345  1.00  0.00    -0.203 F 
ATOM     78  F   UNL A   1      52.842  26.431  29.543  1.00  0.00    -0.200 F 
ATOM     79  C   UNL A   1      52.445  25.981  27.273  1.00  0.00     0.200 A 
ATOM     80  F   UNL A   1      51.975  25.575  25.001  1.00  0.00    -0.200 F 
ATOM     81  F   UNL A   1      53.740  25.704  27.074  1.00  0.00    -0.200 F 
ENDBRANCH  47  71
BRANCH  59  82
ATOM     82  C   UNL A   1      45.112  27.465  31.519  1.00  0.00     0.064 A 
ATOM     83  C   UNL A   1      45.755  27.437  32.768  1.00  0.00     0.173 A 
ATOM     84  C   UNL A   1      44.485  26.272  31.123  1.00  0.00     0.173 A 
ATOM     85  F   UNL A   1      46.363  28.540  33.233  1.00  0.00    -0.203 F 
ATOM     86  C   UNL A   1      45.803  26.275  33.544  1.00  0.00     0.198 A 
ATOM     87  C   UNL A   1      44.528  25.110  31.897  1.00  0.00     0.198 A 
ATOM     88  F   UNL A   1      43.814  26.206  29.977  1.00  0.00    -0.203 F 
ATOM     89  F   UNL A   1      46.445  26.282  34.720  1.00  0.00    -0.200 F 
ATOM     90  C   UNL A   1      45.198  25.109  33.104  1.00  0.00     0.200 A 
ATOM     91  F   UNL A   1      43.918  23.996  31.464  1.00  0.00    -0.200 F 
ATOM     92  F   UNL A   1      45.247  23.993  33.845  1.00  0.00    -0.200 F 
ENDBRANCH  59  82
ENDBRANCH  33  34
ENDBRANCH  26  28
ENDBRANCH  25  26
ENDBRANCH  24  25
ENDBRANCH  23  24
ENDBRANCH  22  23
ENDBRANCH   1  22
TORSDOF 17
ENDMDL
MODEL 3
REMARK VINA RESULT:     -11.0      1.228      2.105
REMARK SMILES C[C@H](CCc1ccco1)NC(=O)c1cccn1CC(=O)OCCOC(=O)c1ccc(-c2c3nc(c(-c4c(F)c(F)c(F)c(F)c4F)c4ccc([nH]4)c(-c4c(F)c(F)c(F)c(F)c4F)c4nc(c(-c5c(F)c(F)c(F)c(F)c5F)c5ccc2[nH]5)C=C4)C=C3)cc1
REMARK SMILES IDX 19 1 20 2 18 3 17 4 13 5 14 6 15 7 16 8 11 9 10 10 12 12
REMARK SMILES IDX 2 13 1 14 3 15 4 16 5 17 6 18 9 19 7 20 8 21 21 22 22 23
REMARK SMILES IDX 23 24 24 25 25 26 26 27 27 28 28 29 89 30 29 31 88 32 30 33
REMARK SMILES IDX 31 34 32 35 82 36 33 37 87 38 81 39 83 40 34 41 86 42 80 43
REMARK SMILES IDX 79 44 35 46 67 47 47 48 66 49 48 50 51 51 65 52 84 53 49 54
REMARK SMILES IDX 50 55 64 57 85 58 52 59 36 60 37 61 45 62 38 63 39 64 43 65
REMARK SMILES IDX 46 66 40 67 41 68 44 69 42 70 68 71 69 72 77 73 70 74 71 75
REMARK SMILES IDX 75 76 78 77 72 78 73 79 76 80 74 81 53 82 54 83 62 84 55 85
REMARK SMILES IDX 56 86 60 87 63 88 57 89 58 90 61 91 59 92
REMARK H PARENT 10 11 83 45 51 56
REMARK Flexibility Score: inf
ROOT
ATOM      1  C   UNL A   1      36.997  21.992  25.521  1.00  0.00     0.326 C 
ATOM      2  O   UNL A   1      37.418  23.017  26.037  1.00  0.00    -0.250 OA
ENDROOT
BRANCH   1   3
ATOM      3  C   UNL A   1      35.528  21.652  25.501  1.00  0.00     0.244 C 
BRANCH   3   4
ATOM      4  N   UNL A   1      34.754  22.014  24.317  1.00  0.00    -0.332 N 
ATOM      5  C   UNL A   1      33.407  21.767  24.105  1.00  0.00     0.107 A 
ATOM      6  C   UNL A   1      33.023  22.564  23.031  1.00  0.00     0.033 A 
ATOM      7  C   UNL A   1      34.157  23.220  22.523  1.00  0.00     0.020 A 
ATOM      8  C   UNL A   1      35.198  22.873  23.343  1.00  0.00     0.087 A 
BRANCH   5   9
ATOM      9  C   UNL A   1      32.574  20.910  24.921  1.00  0.00     0.268 C 
ATOM     10  N   UNL A   1      32.199  21.339  26.172  1.00  0.00    -0.348 N 
ATOM     11  H   UNL A   1      31.776  20.658  26.744  1.00  0.00     0.164 HD
ATOM     12  O   UNL A   1      32.176  19.808  24.549  1.00  0.00    -0.268 OA
BRANCH  10  13
ATOM     13  C   UNL A   1      32.340  22.664  26.772  1.00  0.00     0.079 C 
ATOM     14  C   UNL A   1      32.975  22.527  28.152  1.00  0.00     0.031 C 
BRANCH  13  15
ATOM     15  C   UNL A   1      30.978  23.379  26.815  1.00  0.00     0.032 C 
BRANCH  15  16
ATOM     16  C   UNL A   1      30.727  24.273  25.592  1.00  0.00     0.077 C 
BRANCH  16  17
ATOM     17  C   UNL A   1      31.858  25.205  25.354  1.00  0.00     0.103 A 
ATOM     18  C   UNL A   1      32.875  25.697  26.148  1.00  0.00     0.045 A 
ATOM     19  O   UNL A   1      32.000  25.651  24.077  1.00  0.00    -0.469 OA
ATOM     20  C   UNL A   1      33.715  26.448  25.292  1.00  0.00     0.042 A 
ATOM     21  C   UNL A   1      33.129  26.397  24.051  1.00  0.00     0.195 A 
ENDBRANCH  16  17
ENDBRANCH  15  16
ENDBRANCH  13  15
ENDBRANCH  10  13
ENDBRANCH   5   9
ENDBRANCH   3   4
ENDBRANCH   1   3
BRANCH   1  22
ATOM     22  O   UNL A   1      37.798  20.994  25.052  1.00  0.00    -0.461 OA
BRANCH  22  23
ATOM     23  C   UNL A   1      39.033  20.798  25.774  1.00  0.00     0.274 C 
BRANCH  23  24
ATOM     24  C   UNL A   1      39.835  19.532  25.429  1.00  0.00     0.275 C 
BRANCH  24  25
ATOM     25  O   UNL A   1      40.637  18.995  26.492  1.00  0.00    -0.458 OA
BRANCH  25  26
ATOM     26  C   UNL A   1      41.944  18.973  26.170  1.00  0.00     0.338 C 
ATOM     27  O   UNL A   1      42.591  18.013  25.784  1.00  0.00    -0.246 OA
BRANCH  26  28
ATOM     28  C   UNL A   1      42.649  20.220  26.423  1.00  0.00     0.060 A 
ATOM     29  C   UNL A   1      42.369  20.877  27.624  1.00  0.00     0.016 A 
ATOM     30  C   UNL A   1      43.170  20.898  25.321  1.00  0.00     0.016 A 
ATOM     31  C   UNL A   1      42.472  22.255  27.686  1.00  0.00     0.010 A 
ATOM     32  C   UNL A   1      43.349  22.273  25.406  1.00  0.00     0.010 A 
ATOM     33  C   UNL A   1      42.970  22.951  26.578  1.00  0.00    -0.014 A 
BRANCH  33  34
ATOM     34  C   UNL A   1      43.379  24.357  26.777  1.00  0.00     0.031 A 
ATOM     35  C   UNL A   1      42.157  25.282  26.854  1.00  0.00     0.074 A 
ATOM     36  C   UNL A   1      44.710  24.629  26.901  1.00  0.00     0.049 A 
ATOM     37  N   UNL A   1      42.094  26.577  26.911  1.00  0.00    -0.248 NA
ATOM     38  C   UNL A   1      40.793  24.674  26.857  1.00  0.00     0.031 C 
ATOM     39  C   UNL A   1      45.787  23.629  26.778  1.00  0.00     0.029 A 
ATOM     40  N   UNL A   1      45.424  25.784  27.157  1.00  0.00    -0.354 N 
ATOM     41  C   UNL A   1      40.753  26.901  27.198  1.00  0.00     0.074 A 
ATOM     42  C   UNL A   1      39.982  25.714  27.018  1.00  0.00     0.031 C 
ATOM     43  C   UNL A   1      46.999  24.212  26.909  1.00  0.00     0.029 A 
ATOM     44  C   UNL A   1      46.835  25.632  27.165  1.00  0.00     0.049 A 
ATOM     45  H   UNL A   1      44.987  26.650  27.322  1.00  0.00     0.167 HD
ATOM     46  C   UNL A   1      40.369  28.086  27.742  1.00  0.00     0.037 A 
ATOM     47  C   UNL A   1      47.807  26.574  27.377  1.00  0.00     0.037 A 
ATOM     48  C   UNL A   1      41.458  28.994  27.810  1.00  0.00     0.049 A 
ATOM     49  C   UNL A   1      47.105  27.752  27.901  1.00  0.00     0.074 A 
ATOM     50  C   UNL A   1      42.116  29.720  26.855  1.00  0.00     0.029 A 
ATOM     51  N   UNL A   1      42.186  29.018  28.972  1.00  0.00    -0.354 N 
ATOM     52  N   UNL A   1      46.624  27.821  29.106  1.00  0.00    -0.248 NA
ATOM     53  C   UNL A   1      46.939  28.941  27.060  1.00  0.00     0.031 C 
ATOM     54  C   UNL A   1      43.418  29.879  27.368  1.00  0.00     0.029 A 
ATOM     55  C   UNL A   1      43.487  29.309  28.643  1.00  0.00     0.049 A 
ATOM     56  H   UNL A   1      41.838  28.856  29.879  1.00  0.00     0.167 HD
ATOM     57  C   UNL A   1      45.803  28.919  29.034  1.00  0.00     0.074 A 
ATOM     58  C   UNL A   1      46.272  29.709  27.920  1.00  0.00     0.031 C 
ATOM     59  C   UNL A   1      44.534  28.805  29.502  1.00  0.00     0.037 A 
BRANCH  46  60
ATOM     60  C   UNL A   1      39.102  28.451  28.454  1.00  0.00     0.064 A 
ATOM     61  C   UNL A   1      38.319  29.504  27.929  1.00  0.00     0.173 A 
ATOM     62  C   UNL A   1      38.824  28.062  29.773  1.00  0.00     0.173 A 
ATOM     63  F   UNL A   1      38.498  29.928  26.668  1.00  0.00    -0.203 F 
ATOM     64  C   UNL A   1      37.401  30.198  28.712  1.00  0.00     0.198 A 
ATOM     65  C   UNL A   1      37.866  28.730  30.539  1.00  0.00     0.198 A 
ATOM     66  F   UNL A   1      39.538  27.107  30.382  1.00  0.00    -0.203 F 
ATOM     67  F   UNL A   1      36.778  31.275  28.213  1.00  0.00    -0.200 F 
ATOM     68  C   UNL A   1      37.185  29.819  30.023  1.00  0.00     0.200 A 
ATOM     69  F   UNL A   1      37.661  28.359  31.811  1.00  0.00    -0.200 F 
ATOM     70  F   UNL A   1      36.351  30.524  30.799  1.00  0.00    -0.200 F 
ENDBRANCH  46  60
BRANCH  47  71
ATOM     71  C   UNL A   1      49.313  26.713  27.290  1.00  0.00     0.064 A 
ATOM     72  C   UNL A   1      50.019  27.329  26.249  1.00  0.00     0.173 A 
ATOM     73  C   UNL A   1      50.129  26.323  28.396  1.00  0.00     0.173 A 
ATOM     74  F   UNL A   1      49.404  27.716  25.129  1.00  0.00    -0.203 F 
ATOM     75  C   UNL A   1      51.399  27.596  26.339  1.00  0.00     0.198 A 
ATOM     76  C   UNL A   1      51.484  26.639  28.507  1.00  0.00     0.198 A 
ATOM     77  F   UNL A   1      49.634  25.635  29.433  1.00  0.00    -0.203 F 
ATOM     78  F   UNL A   1      52.025  28.191  25.313  1.00  0.00    -0.200 F 
ATOM     79  C   UNL A   1      52.121  27.286  27.479  1.00  0.00     0.200 A 
ATOM     80  F   UNL A   1      52.147  26.333  29.632  1.00  0.00    -0.200 F 
ATOM     81  F   UNL A   1      53.415  27.613  27.586  1.00  0.00    -0.200 F 
ENDBRANCH  47  71
BRANCH  59  82
ATOM     82  C   UNL A   1      44.405  27.733  30.574  1.00  0.00     0.064 A 
ATOM     83  C   UNL A   1      44.888  27.977  31.871  1.00  0.00     0.173 A 
ATOM     84  C   UNL A   1      43.996  26.416  30.308  1.00  0.00     0.173 A 
ATOM     85  F   UNL A   1      45.282  29.213  32.216  1.00  0.00    -0.203 F 
ATOM     86  C   UNL A   1      44.995  26.956  32.820  1.00  0.00     0.198 A 
ATOM     87  C   UNL A   1      44.098  25.394  31.254  1.00  0.00     0.198 A 
ATOM     88  F   UNL A   1      43.485  26.090  29.124  1.00  0.00    -0.203 F 
ATOM     89  F   UNL A   1      45.482  27.224  34.039  1.00  0.00    -0.200 F 
ATOM     90  C   UNL A   1      44.609  25.663  32.508  1.00  0.00     0.200 A 
ATOM     91  F   UNL A   1      43.700  24.151  30.942  1.00  0.00    -0.200 F 
ATOM     92  F   UNL A   1      44.716  24.682  33.416  1.00  0.00    -0.200 F 
ENDBRANCH  59  82
ENDBRANCH  33  34
ENDBRANCH  26  28
ENDBRANCH  25  26
ENDBRANCH  24  25
ENDBRANCH  23  24
ENDBRANCH  22  23
ENDBRANCH   1  22
TORSDOF 17
ENDMDL
