MODEL 1
REMARK VINA RESULT:     -12.8      0.000      0.000
REMARK SMILES [NH3+][C@@]1(C(=O)OCCOC(=O)c2ccc(-c3c4nc(c(-c5c(F)c(F)c(F)c(F)c5F)c5ccc([nH]5)c(-c5c(F)c(F)c(F)c(F)c5F)c5nc(c(-c6c(F)c(F)c(F)c(F)c6F)c6ccc3[nH]6)C=C5)C=C4)cc2)CCC[C@@H]1CCOC1CCCCC1
REMARK SMILES IDX 6 1 5 2 3 3 4 4 2 5 74 6 77 7 75 8 76 9 1 10 78 14 79 15
REMARK SMILES IDX 80 16 81 17 82 18 86 19 83 20 85 21 84 22 7 23 8 24 9 25
REMARK SMILES IDX 10 26 11 27 12 28 73 29 13 30 72 31 14 32 15 33 16 34 66 35
REMARK SMILES IDX 17 36 71 37 65 38 67 39 18 40 70 41 64 42 63 43 19 45 51 46
REMARK SMILES IDX 31 47 50 48 32 49 35 50 49 51 68 52 33 53 34 54 48 56 69 57
REMARK SMILES IDX 36 58 20 59 21 60 29 61 22 62 23 63 27 64 30 65 24 66 25 67
REMARK SMILES IDX 28 68 26 69 52 70 53 71 61 72 54 73 55 74 59 75 62 76 56 77
REMARK SMILES IDX 57 78 60 79 58 80 37 81 38 82 46 83 39 84 40 85 44 86 47 87
REMARK SMILES IDX 41 88 42 89 45 90 43 91
REMARK H PARENT 1 11 1 12 1 13 67 44 35 55
REMARK Flexibility Score: inf
ROOT
ATOM      1  C   UNL A   1      33.469  27.940  24.584  1.00  0.00     0.274 C 
ENDROOT
BRANCH   1   2
ATOM      2  O   UNL A   1      33.801  27.922  23.168  1.00  0.00    -0.457 OA
BRANCH   2   3
ATOM      3  C   UNL A   1      33.330  26.896  22.428  1.00  0.00     0.368 C 
ATOM      4  O   UNL A   1      34.059  25.972  22.066  1.00  0.00    -0.245 OA
BRANCH   3   5
ATOM      5  C   UNL A   1      31.628  26.905  22.069  1.00  0.00     0.195 C 
ATOM      6  C   UNL A   1      30.279  28.586  22.347  1.00  0.00     0.081 C 
ATOM      7  C   UNL A   1      30.695  25.454  23.078  1.00  0.00     0.065 C 
ATOM      8  C   UNL A   1      28.792  27.983  23.492  1.00  0.00     0.008 C 
ATOM      9  C   UNL A   1      29.113  26.170  23.894  1.00  0.00     0.011 C 
BRANCH   5  10
ATOM     10  N   UNL A   1      31.855  26.025  20.788  1.00  0.00    -0.343 N 
ATOM     11  H   UNL A   1      31.053  25.407  20.655  1.00  0.00     0.345 HD
ATOM     12  H   UNL A   1      32.699  25.466  20.904  1.00  0.00     0.345 HD
ATOM     13  H   UNL A   1      31.956  26.630  19.974  1.00  0.00     0.345 HD
ENDBRANCH   5  10
BRANCH   7  14
ATOM     14  C   UNL A   1      31.400  24.582  24.056  1.00  0.00     0.039 C 
BRANCH  14  15
ATOM     15  C   UNL A   1      31.331  23.226  23.485  1.00  0.00     0.161 C 
BRANCH  15  16
ATOM     16  O   UNL A   1      32.458  22.448  23.830  1.00  0.00    -0.378 OA
BRANCH  16  17
ATOM     17  C   UNL A   1      33.601  22.730  24.730  1.00  0.00     0.118 C 
ATOM     18  C   UNL A   1      34.399  20.971  24.763  1.00  0.00     0.032 C 
ATOM     19  C   UNL A   1      35.075  24.324  25.060  1.00  0.00     0.032 C 
ATOM     20  C   UNL A   1      36.150  20.853  25.041  1.00  0.00     0.003 C 
ATOM     21  C   UNL A   1      36.875  23.801  25.308  1.00  0.00     0.003 C 
ATOM     22  C   UNL A   1      37.256  22.149  25.126  1.00  0.00     0.000 C 
ENDBRANCH  16  17
ENDBRANCH  15  16
ENDBRANCH  14  15
ENDBRANCH   7  14
ENDBRANCH   3   5
ENDBRANCH   2   3
ENDBRANCH   1   2
BRANCH   1  23
ATOM     23  C   UNL A   1      32.876  29.283  24.992  1.00  0.00     0.275 C 
BRANCH  23  24
ATOM     24  O   UNL A   1      32.934  29.375  26.421  1.00  0.00    -0.458 OA
BRANCH  24  25
ATOM     25  C   UNL A   1      33.267  30.589  26.907  1.00  0.00     0.338 C 
ATOM     26  O   UNL A   1      32.539  31.540  27.131  1.00  0.00    -0.246 OA
BRANCH  25  27
ATOM     27  C   UNL A   1      34.663  30.539  27.350  1.00  0.00     0.060 A 
ATOM     28  C   UNL A   1      35.178  29.278  27.622  1.00  0.00     0.016 A 
ATOM     29  C   UNL A   1      35.377  31.676  27.692  1.00  0.00     0.016 A 
ATOM     30  C   UNL A   1      36.354  29.121  28.323  1.00  0.00     0.010 A 
ATOM     31  C   UNL A   1      36.625  31.523  28.304  1.00  0.00     0.010 A 
ATOM     32  C   UNL A   1      37.104  30.244  28.656  1.00  0.00    -0.014 A 
BRANCH  32  33
ATOM     33  C   UNL A   1      38.330  30.074  29.469  1.00  0.00     0.031 A 
ATOM     34  C   UNL A   1      39.459  29.272  28.899  1.00  0.00     0.074 A 
ATOM     35  C   UNL A   1      38.448  30.671  30.671  1.00  0.00     0.049 A 
ATOM     36  N   UNL A   1      40.463  28.705  29.509  1.00  0.00    -0.248 NA
ATOM     37  C   UNL A   1      39.435  29.052  27.443  1.00  0.00     0.031 C 
ATOM     38  C   UNL A   1      37.470  31.585  31.270  1.00  0.00     0.029 A 
ATOM     39  N   UNL A   1      39.449  30.608  31.604  1.00  0.00    -0.354 N 
ATOM     40  C   UNL A   1      41.130  27.979  28.532  1.00  0.00     0.074 A 
ATOM     41  C   UNL A   1      40.435  28.197  27.284  1.00  0.00     0.031 C 
ATOM     42  C   UNL A   1      37.939  32.028  32.446  1.00  0.00     0.029 A 
ATOM     43  C   UNL A   1      39.172  31.318  32.747  1.00  0.00     0.049 A 
ATOM     44  H   UNL A   1      40.285  30.104  31.468  1.00  0.00     0.167 HD
ATOM     45  C   UNL A   1      42.213  27.183  28.693  1.00  0.00     0.037 A 
ATOM     46  C   UNL A   1      39.796  31.321  33.938  1.00  0.00     0.037 A 
ATOM     47  C   UNL A   1      42.906  27.054  29.949  1.00  0.00     0.049 A 
ATOM     48  C   UNL A   1      40.974  30.405  34.108  1.00  0.00     0.074 A 
ATOM     49  C   UNL A   1      43.993  26.264  30.268  1.00  0.00     0.029 A 
ATOM     50  N   UNL A   1      42.580  27.771  31.096  1.00  0.00    -0.354 N 
ATOM     51  N   UNL A   1      41.524  29.596  33.233  1.00  0.00    -0.248 NA
ATOM     52  C   UNL A   1      41.596  30.374  35.435  1.00  0.00     0.031 C 
ATOM     53  C   UNL A   1      44.303  26.479  31.617  1.00  0.00     0.029 A 
ATOM     54  C   UNL A   1      43.444  27.442  32.125  1.00  0.00     0.049 A 
ATOM     55  H   UNL A   1      41.840  28.417  31.165  1.00  0.00     0.167 HD
ATOM     56  C   UNL A   1      42.564  28.966  33.897  1.00  0.00     0.074 A 
ATOM     57  C   UNL A   1      42.581  29.510  35.243  1.00  0.00     0.031 C 
ATOM     58  C   UNL A   1      43.424  28.019  33.446  1.00  0.00     0.037 A 
BRANCH  45  59
ATOM     59  C   UNL A   1      42.646  26.351  27.519  1.00  0.00     0.064 A 
ATOM     60  C   UNL A   1      42.100  25.088  27.246  1.00  0.00     0.173 A 
ATOM     61  C   UNL A   1      43.650  26.827  26.662  1.00  0.00     0.173 A 
ATOM     62  F   UNL A   1      41.156  24.573  28.047  1.00  0.00    -0.203 F 
ATOM     63  C   UNL A   1      42.568  24.320  26.181  1.00  0.00     0.198 A 
ATOM     64  C   UNL A   1      44.093  26.071  25.579  1.00  0.00     0.198 A 
ATOM     65  F   UNL A   1      44.213  28.027  26.876  1.00  0.00    -0.203 F 
ATOM     66  F   UNL A   1      42.076  23.089  25.978  1.00  0.00    -0.200 F 
ATOM     67  C   UNL A   1      43.558  24.814  25.345  1.00  0.00     0.200 A 
ATOM     68  F   UNL A   1      45.045  26.554  24.769  1.00  0.00    -0.200 F 
ATOM     69  F   UNL A   1      44.008  24.072  24.323  1.00  0.00    -0.200 F 
ENDBRANCH  45  59
BRANCH  46  70
ATOM     70  C   UNL A   1      39.268  32.144  35.060  1.00  0.00     0.064 A 
ATOM     71  C   UNL A   1      38.523  31.562  36.093  1.00  0.00     0.173 A 
ATOM     72  C   UNL A   1      39.511  33.525  35.135  1.00  0.00     0.173 A 
ATOM     73  F   UNL A   1      38.241  30.251  36.059  1.00  0.00    -0.203 F 
ATOM     74  C   UNL A   1      38.035  32.328  37.152  1.00  0.00     0.198 A 
ATOM     75  C   UNL A   1      39.057  34.284  36.212  1.00  0.00     0.198 A 
ATOM     76  F   UNL A   1      40.219  34.138  34.174  1.00  0.00    -0.203 F 
ATOM     77  F   UNL A   1      37.290  31.752  38.105  1.00  0.00    -0.200 F 
ATOM     78  C   UNL A   1      38.312  33.686  37.215  1.00  0.00     0.200 A 
ATOM     79  F   UNL A   1      39.344  35.591  36.277  1.00  0.00    -0.200 F 
ATOM     80  F   UNL A   1      37.855  34.419  38.240  1.00  0.00    -0.200 F 
ENDBRANCH  46  70
BRANCH  58  81
ATOM     81  C   UNL A   1      44.475  27.565  34.412  1.00  0.00     0.064 A 
ATOM     82  C   UNL A   1      44.283  26.450  35.240  1.00  0.00     0.173 A 
ATOM     83  C   UNL A   1      45.691  28.257  34.501  1.00  0.00     0.173 A 
ATOM     84  F   UNL A   1      43.127  25.770  35.202  1.00  0.00    -0.203 F 
ATOM     85  C   UNL A   1      45.261  26.065  36.152  1.00  0.00     0.198 A 
ATOM     86  C   UNL A   1      46.679  27.850  35.391  1.00  0.00     0.198 A 
ATOM     87  F   UNL A   1      45.919  29.328  33.726  1.00  0.00    -0.203 F 
ATOM     88  F   UNL A   1      45.034  25.036  36.979  1.00  0.00    -0.200 F 
ATOM     89  C   UNL A   1      46.459  26.762  36.223  1.00  0.00     0.200 A 
ATOM     90  F   UNL A   1      47.840  28.515  35.449  1.00  0.00    -0.200 F 
ATOM     91  F   UNL A   1      47.399  26.390  37.102  1.00  0.00    -0.200 F 
ENDBRANCH  58  81
ENDBRANCH  32  33
ENDBRANCH  25  27
ENDBRANCH  24  25
ENDBRANCH  23  24
ENDBRANCH   1  23
TORSDOF 16
ENDMDL
MODEL 2
REMARK VINA RESULT:     -12.8      1.221      3.717
REMARK SMILES [NH3+][C@@]1(C(=O)OCCOC(=O)c2ccc(-c3c4nc(c(-c5c(F)c(F)c(F)c(F)c5F)c5ccc([nH]5)c(-c5c(F)c(F)c(F)c(F)c5F)c5nc(c(-c6c(F)c(F)c(F)c(F)c6F)c6ccc3[nH]6)C=C5)C=C4)cc2)CCC[C@@H]1CCOC1CCCCC1
REMARK SMILES IDX 6 1 5 2 3 3 4 4 2 5 74 6 77 7 75 8 76 9 1 10 78 14 79 15
REMARK SMILES IDX 80 16 81 17 82 18 86 19 83 20 85 21 84 22 7 23 8 24 9 25
REMARK SMILES IDX 10 26 11 27 12 28 73 29 13 30 72 31 14 32 15 33 16 34 66 35
REMARK SMILES IDX 17 36 71 37 65 38 67 39 18 40 70 41 64 42 63 43 19 45 51 46
REMARK SMILES IDX 31 47 50 48 32 49 35 50 49 51 68 52 33 53 34 54 48 56 69 57
REMARK SMILES IDX 36 58 20 59 21 60 29 61 22 62 23 63 27 64 30 65 24 66 25 67
REMARK SMILES IDX 28 68 26 69 52 70 53 71 61 72 54 73 55 74 59 75 62 76 56 77
REMARK SMILES IDX 57 78 60 79 58 80 37 81 38 82 46 83 39 84 40 85 44 86 47 87
REMARK SMILES IDX 41 88 42 89 45 90 43 91
REMARK H PARENT 1 11 1 12 1 13 67 44 35 55
REMARK Flexibility Score: inf
ROOT
ATOM      1  C   UNL A   1      31.986  28.058  27.178  1.00  0.00     0.274 C 
ENDROOT
BRANCH   1   2
ATOM      2  O   UNL A   1      32.240  27.000  26.212  1.00  0.00    -0.457 OA
BRANCH   2   3
ATOM      3  C   UNL A   1      31.398  25.947  26.200  1.00  0.00     0.368 C 
ATOM      4  O   UNL A   1      30.195  26.077  26.431  1.00  0.00    -0.245 OA
BRANCH   3   5
ATOM      5  C   UNL A   1      32.078  24.404  25.770  1.00  0.00     0.195 C 
ATOM      6  C   UNL A   1      33.534  23.288  26.935  1.00  0.00     0.081 C 
ATOM      7  C   UNL A   1      32.968  24.508  23.984  1.00  0.00     0.065 C 
ATOM      8  C   UNL A   1      35.084  22.924  25.773  1.00  0.00     0.008 C 
ATOM      9  C   UNL A   1      34.696  23.680  24.090  1.00  0.00     0.011 C 
BRANCH   5  10
ATOM     10  N   UNL A   1      30.703  23.919  25.184  1.00  0.00    -0.343 N 
ATOM     11  H   UNL A   1      30.398  23.084  25.684  1.00  0.00     0.345 HD
ATOM     12  H   UNL A   1      30.813  23.702  24.194  1.00  0.00     0.345 HD
ATOM     13  H   UNL A   1      30.008  24.656  25.296  1.00  0.00     0.345 HD
ENDBRANCH   5  10
BRANCH   7  14
ATOM     14  C   UNL A   1      33.080  25.781  23.221  1.00  0.00     0.039 C 
BRANCH  14  15
ATOM     15  C   UNL A   1      32.064  25.687  22.160  1.00  0.00     0.161 C 
BRANCH  15  16
ATOM     16  O   UNL A   1      31.348  26.894  22.003  1.00  0.00    -0.378 OA
BRANCH  16  17
ATOM     17  C   UNL A   1      30.326  27.540  22.858  1.00  0.00     0.118 C 
ATOM     18  C   UNL A   1      30.543  29.365  22.262  1.00  0.00     0.032 C 
ATOM     19  C   UNL A   1      28.290  27.132  23.577  1.00  0.00     0.032 C 
ATOM     20  C   UNL A   1      29.138  30.448  22.356  1.00  0.00     0.003 C 
ATOM     21  C   UNL A   1      27.047  28.555  23.508  1.00  0.00     0.003 C 
ATOM     22  C   UNL A   1      27.543  30.011  22.773  1.00  0.00     0.000 C 
ENDBRANCH  16  17
ENDBRANCH  15  16
ENDBRANCH  14  15
ENDBRANCH   7  14
ENDBRANCH   3   5
ENDBRANCH   2   3
ENDBRANCH   1   2
BRANCH   1  23
ATOM     23  C   UNL A   1      31.910  29.418  26.496  1.00  0.00     0.275 C 
BRANCH  23  24
ATOM     24  O   UNL A   1      33.248  29.907  26.338  1.00  0.00    -0.458 OA
BRANCH  24  25
ATOM     25  C   UNL A   1      33.562  30.981  27.093  1.00  0.00     0.338 C 
ATOM     26  O   UNL A   1      32.822  31.855  27.510  1.00  0.00    -0.246 OA
BRANCH  25  27
ATOM     27  C   UNL A   1      34.948  30.836  27.543  1.00  0.00     0.060 A 
ATOM     28  C   UNL A   1      35.358  29.549  27.870  1.00  0.00     0.016 A 
ATOM     29  C   UNL A   1      35.753  31.924  27.841  1.00  0.00     0.016 A 
ATOM     30  C   UNL A   1      36.517  29.326  28.582  1.00  0.00     0.010 A 
ATOM     31  C   UNL A   1      36.984  31.696  28.464  1.00  0.00     0.010 A 
ATOM     32  C   UNL A   1      37.356  30.397  28.871  1.00  0.00    -0.014 A 
BRANCH  32  33
ATOM     33  C   UNL A   1      38.563  30.162  29.696  1.00  0.00     0.031 A 
ATOM     34  C   UNL A   1      39.670  29.332  29.121  1.00  0.00     0.074 A 
ATOM     35  C   UNL A   1      38.686  30.726  30.913  1.00  0.00     0.049 A 
ATOM     36  N   UNL A   1      40.643  28.714  29.731  1.00  0.00    -0.248 NA
ATOM     37  C   UNL A   1      39.658  29.148  27.660  1.00  0.00     0.031 C 
ATOM     38  C   UNL A   1      37.735  31.661  31.522  1.00  0.00     0.029 A 
ATOM     39  N   UNL A   1      39.672  30.602  31.858  1.00  0.00    -0.354 N 
ATOM     40  C   UNL A   1      41.297  27.986  28.745  1.00  0.00     0.074 A 
ATOM     41  C   UNL A   1      40.627  28.260  27.493  1.00  0.00     0.031 C 
ATOM     42  C   UNL A   1      38.203  32.057  32.714  1.00  0.00     0.029 A 
ATOM     43  C   UNL A   1      39.404  31.294  33.014  1.00  0.00     0.049 A 
ATOM     44  H   UNL A   1      40.489  30.071  31.721  1.00  0.00     0.167 HD
ATOM     45  C   UNL A   1      42.346  27.147  28.901  1.00  0.00     0.037 A 
ATOM     46  C   UNL A   1      40.012  31.246  34.213  1.00  0.00     0.037 A 
ATOM     47  C   UNL A   1      43.016  26.962  30.162  1.00  0.00     0.049 A 
ATOM     48  C   UNL A   1      41.152  30.283  34.375  1.00  0.00     0.074 A 
ATOM     49  C   UNL A   1      44.069  26.124  30.476  1.00  0.00     0.029 A 
ATOM     50  N   UNL A   1      42.701  27.663  31.322  1.00  0.00    -0.354 N 
ATOM     51  N   UNL A   1      41.684  29.475  33.489  1.00  0.00    -0.248 NA
ATOM     52  C   UNL A   1      41.754  30.197  35.709  1.00  0.00     0.031 C 
ATOM     53  C   UNL A   1      44.368  26.295  31.834  1.00  0.00     0.029 A 
ATOM     54  C   UNL A   1      43.538  27.277  32.353  1.00  0.00     0.049 A 
ATOM     55  H   UNL A   1      41.985  28.335  31.397  1.00  0.00     0.167 HD
ATOM     56  C   UNL A   1      42.690  28.790  34.151  1.00  0.00     0.074 A 
ATOM     57  C   UNL A   1      42.709  29.301  35.510  1.00  0.00     0.031 C 
ATOM     58  C   UNL A   1      43.520  27.823  33.688  1.00  0.00     0.037 A 
BRANCH  45  59
ATOM     59  C   UNL A   1      42.764  26.328  27.713  1.00  0.00     0.064 A 
ATOM     60  C   UNL A   1      43.768  26.742  26.826  1.00  0.00     0.173 A 
ATOM     61  C   UNL A   1      42.122  25.107  27.448  1.00  0.00     0.173 A 
ATOM     62  F   UNL A   1      44.397  27.911  27.015  1.00  0.00    -0.203 F 
ATOM     63  C   UNL A   1      44.089  25.983  25.701  1.00  0.00     0.198 A 
ATOM     64  C   UNL A   1      42.469  24.335  26.341  1.00  0.00     0.198 A 
ATOM     65  F   UNL A   1      41.150  24.662  28.259  1.00  0.00    -0.203 F 
ATOM     66  F   UNL A   1      45.008  26.431  24.833  1.00  0.00    -0.200 F 
ATOM     67  C   UNL A   1      43.445  24.779  25.463  1.00  0.00     0.200 A 
ATOM     68  F   UNL A   1      41.848  23.168  26.118  1.00  0.00    -0.200 F 
ATOM     69  F   UNL A   1      43.754  24.052  24.379  1.00  0.00    -0.200 F 
ENDBRANCH  45  59
BRANCH  46  70
ATOM     70  C   UNL A   1      39.499  32.061  35.347  1.00  0.00     0.064 A 
ATOM     71  C   UNL A   1      38.589  31.525  36.268  1.00  0.00     0.173 A 
ATOM     72  C   UNL A   1      39.920  33.386  35.549  1.00  0.00     0.173 A 
ATOM     73  F   UNL A   1      38.136  30.273  36.110  1.00  0.00    -0.203 F 
ATOM     74  C   UNL A   1      38.115  32.283  37.338  1.00  0.00     0.198 A 
ATOM     75  C   UNL A   1      39.475  34.130  36.640  1.00  0.00     0.198 A 
ATOM     76  F   UNL A   1      40.790  33.953  34.700  1.00  0.00    -0.203 F 
ATOM     77  F   UNL A   1      37.213  31.758  38.180  1.00  0.00    -0.200 F 
ATOM     78  C   UNL A   1      38.566  33.581  37.529  1.00  0.00     0.200 A 
ATOM     79  F   UNL A   1      39.930  35.376  36.829  1.00  0.00    -0.200 F 
ATOM     80  F   UNL A   1      38.121  34.303  38.566  1.00  0.00    -0.200 F 
ENDBRANCH  46  70
BRANCH  58  81
ATOM     81  C   UNL A   1      44.540  27.307  34.656  1.00  0.00     0.064 A 
ATOM     82  C   UNL A   1      45.783  27.935  34.824  1.00  0.00     0.173 A 
ATOM     83  C   UNL A   1      44.262  26.169  35.428  1.00  0.00     0.173 A 
ATOM     84  F   UNL A   1      46.098  29.014  34.091  1.00  0.00    -0.203 F 
ATOM     85  C   UNL A   1      46.726  27.420  35.706  1.00  0.00     0.198 A 
ATOM     86  C   UNL A   1      45.196  25.677  36.333  1.00  0.00     0.198 A 
ATOM     87  F   UNL A   1      43.086  25.538  35.303  1.00  0.00    -0.203 F 
ATOM     88  F   UNL A   1      47.931  27.997  35.806  1.00  0.00    -0.200 F 
ATOM     89  C   UNL A   1      46.431  26.295  36.463  1.00  0.00     0.200 A 
ATOM     90  F   UNL A   1      44.904  24.598  37.072  1.00  0.00    -0.200 F 
ATOM     91  F   UNL A   1      47.341  25.801  37.312  1.00  0.00    -0.200 F 
ENDBRANCH  58  81
ENDBRANCH  32  33
ENDBRANCH  25  27
ENDBRANCH  24  25
ENDBRANCH  23  24
ENDBRANCH   1  23
TORSDOF 16
ENDMDL
MODEL 3
REMARK VINA RESULT:     -12.8      1.388      3.657
REMARK SMILES [NH3+][C@@]1(C(=O)OCCOC(=O)c2ccc(-c3c4nc(c(-c5c(F)c(F)c(F)c(F)c5F)c5ccc([nH]5)c(-c5c(F)c(F)c(F)c(F)c5F)c5nc(c(-c6c(F)c(F)c(F)c(F)c6F)c6ccc3[nH]6)C=C5)C=C4)cc2)CCC[C@@H]1CCOC1CCCCC1
REMARK SMILES IDX 6 1 5 2 3 3 4 4 2 5 74 6 77 7 75 8 76 9 1 10 78 14 79 15
REMARK SMILES IDX 80 16 81 17 82 18 86 19 83 20 85 21 84 22 7 23 8 24 9 25
REMARK SMILES IDX 10 26 11 27 12 28 73 29 13 30 72 31 14 32 15 33 16 34 66 35
REMARK SMILES IDX 17 36 71 37 65 38 67 39 18 40 70 41 64 42 63 43 19 45 51 46
REMARK SMILES IDX 31 47 50 48 32 49 35 50 49 51 68 52 33 53 34 54 48 56 69 57
REMARK SMILES IDX 36 58 20 59 21 60 29 61 22 62 23 63 27 64 30 65 24 66 25 67
REMARK SMILES IDX 28 68 26 69 52 70 53 71 61 72 54 73 55 74 59 75 62 76 56 77
REMARK SMILES IDX 57 78 60 79 58 80 37 81 38 82 46 83 39 84 40 85 44 86 47 87
REMARK SMILES IDX 41 88 42 89 45 90 43 91
REMARK H PARENT 1 11 1 12 1 13 67 44 35 55
REMARK Flexibility Score: inf
ROOT
ATOM      1  C   UNL A   1      31.923  28.137  27.617  1.00  0.00     0.274 C 
ENDROOT
BRANCH   1   2
ATOM      2  O   UNL A   1      31.371  27.030  26.853  1.00  0.00    -0.457 OA
BRANCH   2   3
ATOM      3  C   UNL A   1      32.237  26.162  26.291  1.00  0.00     0.368 C 
ATOM      4  O   UNL A   1      33.368  26.508  25.946  1.00  0.00    -0.245 OA
BRANCH   3   5
ATOM      5  C   UNL A   1      31.708  24.510  26.145  1.00  0.00     0.195 C 
ATOM      6  C   UNL A   1      32.392  22.844  27.361  1.00  0.00     0.081 C 
ATOM      7  C   UNL A   1      32.036  23.834  24.293  1.00  0.00     0.065 C 
ATOM      8  C   UNL A   1      33.075  21.452  26.145  1.00  0.00     0.008 C 
ATOM      9  C   UNL A   1      32.859  22.104  24.390  1.00  0.00     0.011 C 
BRANCH   5  10
ATOM     10  N   UNL A   1      30.237  24.970  25.839  1.00  0.00    -0.343 N 
ATOM     11  H   UNL A   1      30.203  25.988  25.793  1.00  0.00     0.345 HD
ATOM     12  H   UNL A   1      29.618  24.641  26.579  1.00  0.00     0.345 HD
ATOM     13  H   UNL A   1      29.938  24.579  24.946  1.00  0.00     0.345 HD
ENDBRANCH   5  10
BRANCH   7  14
ATOM     14  C   UNL A   1      32.726  24.649  23.257  1.00  0.00     0.039 C 
BRANCH  14  15
ATOM     15  C   UNL A   1      31.648  25.307  22.500  1.00  0.00     0.161 C 
BRANCH  15  16
ATOM     16  O   UNL A   1      31.560  26.686  22.791  1.00  0.00    -0.378 OA
BRANCH  16  17
ATOM     17  C   UNL A   1      30.436  27.507  23.297  1.00  0.00     0.118 C 
ATOM     18  C   UNL A   1      30.841  29.164  22.391  1.00  0.00     0.032 C 
ATOM     19  C   UNL A   1      28.289  27.278  23.701  1.00  0.00     0.032 C 
ATOM     20  C   UNL A   1      29.494  30.257  22.006  1.00  0.00     0.003 C 
ATOM     21  C   UNL A   1      27.146  28.667  23.119  1.00  0.00     0.003 C 
ATOM     22  C   UNL A   1      27.832  29.933  22.206  1.00  0.00     0.000 C 
ENDBRANCH  16  17
ENDBRANCH  15  16
ENDBRANCH  14  15
ENDBRANCH   7  14
ENDBRANCH   3   5
ENDBRANCH   2   3
ENDBRANCH   1   2
BRANCH   1  23
ATOM     23  C   UNL A   1      31.844  29.440  26.832  1.00  0.00     0.275 C 
BRANCH  23  24
ATOM     24  O   UNL A   1      33.183  29.869  26.554  1.00  0.00    -0.458 OA
BRANCH  24  25
ATOM     25  C   UNL A   1      33.560  31.012  27.165  1.00  0.00     0.338 C 
ATOM     26  O   UNL A   1      32.869  31.964  27.483  1.00  0.00    -0.246 OA
BRANCH  25  27
ATOM     27  C   UNL A   1      34.948  30.858  27.608  1.00  0.00     0.060 A 
ATOM     28  C   UNL A   1      35.352  29.569  27.932  1.00  0.00     0.016 A 
ATOM     29  C   UNL A   1      35.761  31.941  27.902  1.00  0.00     0.016 A 
ATOM     30  C   UNL A   1      36.513  29.339  28.638  1.00  0.00     0.010 A 
ATOM     31  C   UNL A   1      36.994  31.705  28.518  1.00  0.00     0.010 A 
ATOM     32  C   UNL A   1      37.361  30.404  28.923  1.00  0.00    -0.014 A 
BRANCH  32  33
ATOM     33  C   UNL A   1      38.570  30.161  29.741  1.00  0.00     0.031 A 
ATOM     34  C   UNL A   1      39.673  29.332  29.156  1.00  0.00     0.074 A 
ATOM     35  C   UNL A   1      38.701  30.718  30.960  1.00  0.00     0.049 A 
ATOM     36  N   UNL A   1      40.648  28.708  29.758  1.00  0.00    -0.248 NA
ATOM     37  C   UNL A   1      39.654  29.156  27.694  1.00  0.00     0.031 C 
ATOM     38  C   UNL A   1      37.754  31.652  31.579  1.00  0.00     0.029 A 
ATOM     39  N   UNL A   1      39.690  30.587  31.900  1.00  0.00    -0.354 N 
ATOM     40  C   UNL A   1      41.295  27.985  28.765  1.00  0.00     0.074 A 
ATOM     41  C   UNL A   1      40.620  28.268  27.518  1.00  0.00     0.031 C 
ATOM     42  C   UNL A   1      38.229  32.040  32.771  1.00  0.00     0.029 A 
ATOM     43  C   UNL A   1      39.429  31.272  33.062  1.00  0.00     0.049 A 
ATOM     44  H   UNL A   1      40.506  30.054  31.756  1.00  0.00     0.167 HD
ATOM     45  C   UNL A   1      42.343  27.142  28.911  1.00  0.00     0.037 A 
ATOM     46  C   UNL A   1      40.042  31.216  34.258  1.00  0.00     0.037 A 
ATOM     47  C   UNL A   1      43.018  26.948  30.169  1.00  0.00     0.049 A 
ATOM     48  C   UNL A   1      41.181  30.249  34.409  1.00  0.00     0.074 A 
ATOM     49  C   UNL A   1      44.070  26.106  30.472  1.00  0.00     0.029 A 
ATOM     50  N   UNL A   1      42.710  27.643  31.333  1.00  0.00    -0.354 N 
ATOM     51  N   UNL A   1      41.707  29.445  33.515  1.00  0.00    -0.248 NA
ATOM     52  C   UNL A   1      41.788  30.153  35.740  1.00  0.00     0.031 C 
ATOM     53  C   UNL A   1      44.376  26.269  31.830  1.00  0.00     0.029 A 
ATOM     54  C   UNL A   1      43.550  27.250  32.359  1.00  0.00     0.049 A 
ATOM     55  H   UNL A   1      41.996  28.316  31.416  1.00  0.00     0.167 HD
ATOM     56  C   UNL A   1      42.714  28.754  34.169  1.00  0.00     0.074 A 
ATOM     57  C   UNL A   1      42.740  29.256  35.531  1.00  0.00     0.031 C 
ATOM     58  C   UNL A   1      43.540  27.787  33.697  1.00  0.00     0.037 A 
BRANCH  45  59
ATOM     59  C   UNL A   1      42.754  26.329  27.717  1.00  0.00     0.064 A 
ATOM     60  C   UNL A   1      43.757  26.744  26.829  1.00  0.00     0.173 A 
ATOM     61  C   UNL A   1      42.106  25.113  27.446  1.00  0.00     0.173 A 
ATOM     62  F   UNL A   1      44.392  27.910  27.025  1.00  0.00    -0.203 F 
ATOM     63  C   UNL A   1      44.072  25.991  25.699  1.00  0.00     0.198 A 
ATOM     64  C   UNL A   1      42.445  24.347  26.333  1.00  0.00     0.198 A 
ATOM     65  F   UNL A   1      41.134  24.667  28.257  1.00  0.00    -0.203 F 
ATOM     66  F   UNL A   1      44.990  26.441  24.831  1.00  0.00    -0.200 F 
ATOM     67  C   UNL A   1      43.421  24.792  25.455  1.00  0.00     0.200 A 
ATOM     68  F   UNL A   1      41.819  23.184  26.104  1.00  0.00    -0.200 F 
ATOM     69  F   UNL A   1      43.723  24.071  24.365  1.00  0.00    -0.200 F 
ENDBRANCH  45  59
BRANCH  46  70
ATOM     70  C   UNL A   1      39.536  32.025  35.399  1.00  0.00     0.064 A 
ATOM     71  C   UNL A   1      39.977  33.340  35.603  1.00  0.00     0.173 A 
ATOM     72  C   UNL A   1      38.589  31.512  36.300  1.00  0.00     0.173 A 
ATOM     73  F   UNL A   1      40.898  33.871  34.787  1.00  0.00    -0.203 F 
ATOM     74  C   UNL A   1      39.497  34.104  36.666  1.00  0.00     0.198 A 
ATOM     75  C   UNL A   1      38.082  32.289  37.340  1.00  0.00     0.198 A 
ATOM     76  F   UNL A   1      38.131  30.260  36.155  1.00  0.00    -0.203 F 
ATOM     77  F   UNL A   1      39.967  35.345  36.862  1.00  0.00    -0.200 F 
ATOM     78  C   UNL A   1      38.542  33.582  37.527  1.00  0.00     0.200 A 
ATOM     79  F   UNL A   1      37.145  31.786  38.155  1.00  0.00    -0.200 F 
ATOM     80  F   UNL A   1      38.071  34.324  38.539  1.00  0.00    -0.200 F 
ENDBRANCH  46  70
BRANCH  58  81
ATOM     81  C   UNL A   1      44.563  27.263  34.658  1.00  0.00     0.064 A 
ATOM     82  C   UNL A   1      44.314  26.140  35.460  1.00  0.00     0.173 A 
ATOM     83  C   UNL A   1      45.810  27.896  34.769  1.00  0.00     0.173 A 
ATOM     84  F   UNL A   1      43.128  25.516  35.401  1.00  0.00    -0.203 F 
ATOM     85  C   UNL A   1      45.268  25.690  36.367  1.00  0.00     0.198 A 
ATOM     86  C   UNL A   1      46.772  27.423  35.654  1.00  0.00     0.198 A 
ATOM     87  F   UNL A   1      46.092  28.971  34.019  1.00  0.00    -0.203 F 
ATOM     88  F   UNL A   1      44.988  24.654  37.170  1.00  0.00    -0.200 F 
ATOM     89  C   UNL A   1      46.497  26.328  36.460  1.00  0.00     0.200 A 
ATOM     90  F   UNL A   1      47.962  28.032  35.733  1.00  0.00    -0.200 F 
ATOM     91  F   UNL A   1      47.412  25.893  37.335  1.00  0.00    -0.200 F 
ENDBRANCH  58  81
ENDBRANCH  32  33
ENDBRANCH  25  27
ENDBRANCH  24  25
ENDBRANCH  23  24
ENDBRANCH   1  23
TORSDOF 16
ENDMDL
