MODEL 1
REMARK VINA RESULT:     -11.4      0.000      0.000
REMARK SMILES CC[C@H](C)[C@@H](NC(=O)/C=C/c1csc(C)n1)C(=O)OCCOC(=O)c1ccc(-c2c3nc(c(-c4c(F)c(F)c(F)c(F)c4F)c4ccc([nH]4)c(-c4c(F)c(F)c(F)c(F)c4F)c4nc(c(-c5c(F)c(F)c(F)c(F)c5F)c5ccc2[nH]5)C=C4)C=C3)cc1
REMARK SMILES IDX 20 1 19 2 17 3 18 4 5 5 3 6 4 7 2 8 1 9 6 10 7 11 8 13 9 14
REMARK SMILES IDX 10 15 11 16 12 17 16 18 13 19 14 20 15 21 21 22 22 23 23 24
REMARK SMILES IDX 24 25 25 26 26 27 87 28 27 29 86 30 28 31 29 32 30 33 80 34
REMARK SMILES IDX 31 35 85 36 79 37 81 38 32 39 84 40 78 41 77 42 33 44 65 45
REMARK SMILES IDX 45 46 64 47 46 48 49 49 63 50 82 51 47 52 48 53 62 55 83 56
REMARK SMILES IDX 50 57 34 58 35 59 43 60 36 61 37 62 41 63 44 64 38 65 39 66
REMARK SMILES IDX 42 67 40 68 66 69 67 70 75 71 68 72 69 73 73 74 76 75 70 76
REMARK SMILES IDX 71 77 74 78 72 79 51 80 52 81 60 82 53 83 54 84 58 85 61 86
REMARK SMILES IDX 55 87 56 88 59 89 57 90
REMARK H PARENT 6 12 81 43 49 54
REMARK Flexibility Score: inf
ROOT
ATOM      1  C   UNL A   1      31.670  28.964  26.975  1.00  0.00     0.274 C 
ENDROOT
BRANCH   1   2
ATOM      2  O   UNL A   1      32.362  28.168  25.996  1.00  0.00    -0.461 OA
BRANCH   2   3
ATOM      3  C   UNL A   1      31.875  26.913  25.816  1.00  0.00     0.329 C 
ATOM      4  O   UNL A   1      30.992  26.400  26.497  1.00  0.00    -0.250 OA
BRANCH   3   5
ATOM      5  C   UNL A   1      32.615  26.102  24.743  1.00  0.00     0.195 C 
BRANCH   5   6
ATOM      6  C   UNL A   1      33.325  24.841  25.331  1.00  0.00     0.019 C 
ATOM      7  C   UNL A   1      32.483  23.570  25.159  1.00  0.00     0.010 C 
BRANCH   6   8
ATOM      8  C   UNL A   1      34.762  24.630  24.774  1.00  0.00     0.002 C 
ATOM      9  C   UNL A   1      35.774  23.958  25.696  1.00  0.00     0.004 C 
ENDBRANCH   6   8
ENDBRANCH   5   6
BRANCH   5  10
ATOM     10  N   UNL A   1      31.758  25.787  23.568  1.00  0.00    -0.339 N 
ATOM     11  C   UNL A   1      31.663  26.510  22.403  1.00  0.00     0.244 C 
ATOM     12  H   UNL A   1      31.201  24.977  23.633  1.00  0.00     0.164 HD
ATOM     13  O   UNL A   1      31.759  25.965  21.311  1.00  0.00    -0.270 OA
BRANCH  11  14
ATOM     14  C   UNL A   1      31.280  27.927  22.534  1.00  0.00     0.073 C 
ATOM     15  C   UNL A   1      30.000  28.283  22.734  1.00  0.00     0.035 C 
BRANCH  15  16
ATOM     16  C   UNL A   1      29.537  29.629  22.586  1.00  0.00     0.074 A 
ATOM     17  C   UNL A   1      29.291  30.480  23.643  1.00  0.00     0.095 A 
ATOM     18  N   UNL A   1      29.134  30.089  21.345  1.00  0.00    -0.242 NA
ATOM     19  S   UNL A   1      28.538  31.911  23.070  1.00  0.00    -0.127 S 
ATOM     20  C   UNL A   1      28.590  31.282  21.470  1.00  0.00     0.090 A 
ATOM     21  C   UNL A   1      27.988  32.054  20.349  1.00  0.00     0.079 C 
ENDBRANCH  15  16
ENDBRANCH  11  14
ENDBRANCH   5  10
ENDBRANCH   3   5
ENDBRANCH   2   3
ENDBRANCH   1   2
BRANCH   1  22
ATOM     22  C   UNL A   1      31.775  30.483  26.796  1.00  0.00     0.275 C 
BRANCH  22  23
ATOM     23  O   UNL A   1      33.108  30.921  26.475  1.00  0.00    -0.458 OA
BRANCH  23  24
ATOM     24  C   UNL A   1      33.650  31.794  27.356  1.00  0.00     0.338 C 
ATOM     25  O   UNL A   1      33.110  32.763  27.862  1.00  0.00    -0.246 OA
BRANCH  24  26
ATOM     26  C   UNL A   1      35.007  31.377  27.746  1.00  0.00     0.060 A 
ATOM     27  C   UNL A   1      35.220  30.039  28.098  1.00  0.00     0.016 A 
ATOM     28  C   UNL A   1      36.007  32.325  27.954  1.00  0.00     0.016 A 
ATOM     29  C   UNL A   1      36.416  29.642  28.687  1.00  0.00     0.010 A 
ATOM     30  C   UNL A   1      37.208  31.930  28.555  1.00  0.00     0.010 A 
ATOM     31  C   UNL A   1      37.401  30.595  28.956  1.00  0.00    -0.014 A 
BRANCH  31  32
ATOM     32  C   UNL A   1      38.564  30.223  29.795  1.00  0.00     0.031 A 
ATOM     33  C   UNL A   1      39.581  29.266  29.243  1.00  0.00     0.074 A 
ATOM     34  C   UNL A   1      38.734  30.761  31.015  1.00  0.00     0.049 A 
ATOM     35  N   UNL A   1      40.600  28.701  29.837  1.00  0.00    -0.248 NA
ATOM     36  C   UNL A   1      39.430  28.899  27.826  1.00  0.00     0.031 C 
ATOM     37  C   UNL A   1      37.866  31.768  31.622  1.00  0.00     0.029 A 
ATOM     38  N   UNL A   1      39.694  30.523  31.966  1.00  0.00    -0.354 N 
ATOM     39  C   UNL A   1      41.197  27.895  28.877  1.00  0.00     0.074 A 
ATOM     40  C   UNL A   1      40.421  28.035  27.663  1.00  0.00     0.031 C 
ATOM     41  C   UNL A   1      38.321  32.047  32.855  1.00  0.00     0.029 A 
ATOM     42  C   UNL A   1      39.479  31.201  33.139  1.00  0.00     0.049 A 
ATOM     43  H   UNL A   1      40.462  29.924  31.821  1.00  0.00     0.167 HD
ATOM     44  C   UNL A   1      42.292  27.109  28.999  1.00  0.00     0.037 A 
ATOM     45  C   UNL A   1      40.119  31.114  34.321  1.00  0.00     0.037 A 
ATOM     46  C   UNL A   1      43.064  26.980  30.208  1.00  0.00     0.049 A 
ATOM     47  C   UNL A   1      41.281  30.165  34.461  1.00  0.00     0.074 A 
ATOM     48  C   UNL A   1      44.183  26.201  30.441  1.00  0.00     0.029 A 
ATOM     49  N   UNL A   1      42.793  27.655  31.390  1.00  0.00    -0.354 N 
ATOM     50  N   UNL A   1      41.820  29.377  33.563  1.00  0.00    -0.248 NA
ATOM     51  C   UNL A   1      41.917  30.088  35.784  1.00  0.00     0.031 C 
ATOM     52  C   UNL A   1      44.564  26.371  31.776  1.00  0.00     0.029 A 
ATOM     53  C   UNL A   1      43.713  27.294  32.361  1.00  0.00     0.049 A 
ATOM     54  H   UNL A   1      42.056  28.294  31.519  1.00  0.00     0.167 HD
ATOM     55  C   UNL A   1      42.871  28.730  34.201  1.00  0.00     0.074 A 
ATOM     56  C   UNL A   1      42.901  29.228  35.560  1.00  0.00     0.031 C 
ATOM     57  C   UNL A   1      43.732  27.808  33.707  1.00  0.00     0.037 A 
BRANCH  44  58
ATOM     58  C   UNL A   1      42.696  26.294  27.807  1.00  0.00     0.064 A 
ATOM     59  C   UNL A   1      42.132  25.038  27.545  1.00  0.00     0.173 A 
ATOM     60  C   UNL A   1      43.646  26.791  26.901  1.00  0.00     0.173 A 
ATOM     61  F   UNL A   1      41.233  24.511  28.389  1.00  0.00    -0.203 F 
ATOM     62  C   UNL A   1      42.521  24.298  26.429  1.00  0.00     0.198 A 
ATOM     63  C   UNL A   1      44.012  26.061  25.774  1.00  0.00     0.198 A 
ATOM     64  F   UNL A   1      44.215  27.989  27.107  1.00  0.00    -0.203 F 
ATOM     65  F   UNL A   1      42.002  23.080  26.221  1.00  0.00    -0.200 F 
ATOM     66  C   UNL A   1      43.455  24.813  25.543  1.00  0.00     0.200 A 
ATOM     67  F   UNL A   1      44.907  26.564  24.913  1.00  0.00    -0.200 F 
ATOM     68  F   UNL A   1      43.824  24.102  24.468  1.00  0.00    -0.200 F 
ENDBRANCH  44  58
BRANCH  45  69
ATOM     69  C   UNL A   1      39.648  31.916  35.480  1.00  0.00     0.064 A 
ATOM     70  C   UNL A   1      38.640  31.441  36.329  1.00  0.00     0.173 A 
ATOM     71  C   UNL A   1      40.185  33.185  35.748  1.00  0.00     0.173 A 
ATOM     72  F   UNL A   1      38.076  30.247  36.096  1.00  0.00    -0.203 F 
ATOM     73  C   UNL A   1      38.178  32.210  37.395  1.00  0.00     0.198 A 
ATOM     74  C   UNL A   1      39.742  33.940  36.832  1.00  0.00     0.198 A 
ATOM     75  F   UNL A   1      41.147  33.688  34.962  1.00  0.00    -0.203 F 
ATOM     76  F   UNL A   1      37.180  31.752  38.165  1.00  0.00    -0.200 F 
ATOM     77  C   UNL A   1      38.733  33.455  37.650  1.00  0.00     0.200 A 
ATOM     78  F   UNL A   1      40.288  35.137  37.079  1.00  0.00    -0.200 F 
ATOM     79  F   UNL A   1      38.288  34.192  38.677  1.00  0.00    -0.200 F 
ENDBRANCH  45  69
BRANCH  57  80
ATOM     80  C   UNL A   1      44.803  27.303  34.629  1.00  0.00     0.064 A 
ATOM     81  C   UNL A   1      46.031  27.966  34.763  1.00  0.00     0.173 A 
ATOM     82  C   UNL A   1      44.580  26.166  35.421  1.00  0.00     0.173 A 
ATOM     83  F   UNL A   1      46.300  29.049  34.018  1.00  0.00    -0.203 F 
ATOM     84  C   UNL A   1      47.007  27.495  35.639  1.00  0.00     0.198 A 
ATOM     85  C   UNL A   1      45.545  25.714  36.316  1.00  0.00     0.198 A 
ATOM     86  F   UNL A   1      43.417  25.500  35.336  1.00  0.00    -0.203 F 
ATOM     87  F   UNL A   1      48.191  28.117  35.718  1.00  0.00    -0.200 F 
ATOM     88  C   UNL A   1      46.760  26.374  36.419  1.00  0.00     0.200 A 
ATOM     89  F   UNL A   1      45.300  24.640  37.078  1.00  0.00    -0.200 F 
ATOM     90  F   UNL A   1      47.697  25.926  37.266  1.00  0.00    -0.200 F 
ENDBRANCH  57  80
ENDBRANCH  31  32
ENDBRANCH  24  26
ENDBRANCH  23  24
ENDBRANCH  22  23
ENDBRANCH   1  22
TORSDOF 16
ENDMDL
MODEL 2
REMARK VINA RESULT:     -11.4      4.587      9.654
REMARK SMILES CC[C@H](C)[C@@H](NC(=O)/C=C/c1csc(C)n1)C(=O)OCCOC(=O)c1ccc(-c2c3nc(c(-c4c(F)c(F)c(F)c(F)c4F)c4ccc([nH]4)c(-c4c(F)c(F)c(F)c(F)c4F)c4nc(c(-c5c(F)c(F)c(F)c(F)c5F)c5ccc2[nH]5)C=C4)C=C3)cc1
REMARK SMILES IDX 20 1 19 2 17 3 18 4 5 5 3 6 4 7 2 8 1 9 6 10 7 11 8 13 9 14
REMARK SMILES IDX 10 15 11 16 12 17 16 18 13 19 14 20 15 21 21 22 22 23 23 24
REMARK SMILES IDX 24 25 25 26 26 27 87 28 27 29 86 30 28 31 29 32 30 33 80 34
REMARK SMILES IDX 31 35 85 36 79 37 81 38 32 39 84 40 78 41 77 42 33 44 65 45
REMARK SMILES IDX 45 46 64 47 46 48 49 49 63 50 82 51 47 52 48 53 62 55 83 56
REMARK SMILES IDX 50 57 34 58 35 59 43 60 36 61 37 62 41 63 44 64 38 65 39 66
REMARK SMILES IDX 42 67 40 68 66 69 67 70 75 71 68 72 69 73 73 74 76 75 70 76
REMARK SMILES IDX 71 77 74 78 72 79 51 80 52 81 60 82 53 83 54 84 58 85 61 86
REMARK SMILES IDX 55 87 56 88 59 89 57 90
REMARK H PARENT 6 12 81 43 49 54
REMARK Flexibility Score: inf
ROOT
ATOM      1  C   UNL A   1      35.862  20.610  25.103  1.00  0.00     0.274 C 
ENDROOT
BRANCH   1   2
ATOM      2  O   UNL A   1      35.307  21.914  25.354  1.00  0.00    -0.461 OA
BRANCH   2   3
ATOM      3  C   UNL A   1      34.313  21.957  26.279  1.00  0.00     0.329 C 
ATOM      4  O   UNL A   1      34.363  21.427  27.384  1.00  0.00    -0.250 OA
BRANCH   3   5
ATOM      5  C   UNL A   1      33.026  22.631  25.784  1.00  0.00     0.195 C 
BRANCH   5   6
ATOM      6  C   UNL A   1      32.286  21.784  24.702  1.00  0.00     0.019 C 
ATOM      7  C   UNL A   1      32.797  22.078  23.285  1.00  0.00     0.010 C 
BRANCH   6   8
ATOM      8  C   UNL A   1      32.315  20.256  24.991  1.00  0.00     0.002 C 
ATOM      9  C   UNL A   1      32.594  19.329  23.814  1.00  0.00     0.004 C 
ENDBRANCH   6   8
ENDBRANCH   5   6
BRANCH   5  10
ATOM     10  N   UNL A   1      32.133  23.051  26.899  1.00  0.00    -0.339 N 
ATOM     11  C   UNL A   1      30.926  23.697  26.785  1.00  0.00     0.244 C 
ATOM     12  H   UNL A   1      32.440  22.844  27.812  1.00  0.00     0.164 HD
ATOM     13  O   UNL A   1      29.933  23.291  27.375  1.00  0.00    -0.270 OA
BRANCH  11  14
ATOM     14  C   UNL A   1      30.929  24.981  26.060  1.00  0.00     0.073 C 
ATOM     15  C   UNL A   1      30.487  25.062  24.795  1.00  0.00     0.035 C 
BRANCH  15  16
ATOM     16  C   UNL A   1      30.727  26.200  23.961  1.00  0.00     0.074 A 
ATOM     17  C   UNL A   1      31.982  26.696  23.675  1.00  0.00     0.095 A 
ATOM     18  N   UNL A   1      29.668  26.982  23.537  1.00  0.00    -0.242 NA
ATOM     19  S   UNL A   1      31.839  28.187  22.839  1.00  0.00    -0.127 S 
ATOM     20  C   UNL A   1      30.126  28.060  22.933  1.00  0.00     0.090 A 
ATOM     21  C   UNL A   1      29.270  29.156  22.404  1.00  0.00     0.079 C 
ENDBRANCH  15  16
ENDBRANCH  11  14
ENDBRANCH   5  10
ENDBRANCH   3   5
ENDBRANCH   2   3
ENDBRANCH   1   2
BRANCH   1  22
ATOM     22  C   UNL A   1      37.375  20.562  24.864  1.00  0.00     0.275 C 
BRANCH  22  23
ATOM     23  O   UNL A   1      38.061  21.724  25.366  1.00  0.00    -0.458 OA
BRANCH  23  24
ATOM     24  C   UNL A   1      39.184  21.463  26.073  1.00  0.00     0.338 C 
ATOM     25  O   UNL A   1      39.809  20.417  26.105  1.00  0.00    -0.246 OA
BRANCH  24  26
ATOM     26  C   UNL A   1      39.666  22.670  26.765  1.00  0.00     0.060 A 
ATOM     27  C   UNL A   1      39.135  23.911  26.392  1.00  0.00     0.016 A 
ATOM     28  C   UNL A   1      40.762  22.605  27.623  1.00  0.00     0.016 A 
ATOM     29  C   UNL A   1      39.709  25.093  26.846  1.00  0.00     0.010 A 
ATOM     30  C   UNL A   1      41.348  23.794  28.074  1.00  0.00     0.010 A 
ATOM     31  C   UNL A   1      40.845  25.041  27.657  1.00  0.00    -0.014 A 
BRANCH  31  32
ATOM     32  C   UNL A   1      41.596  26.286  27.940  1.00  0.00     0.031 A 
ATOM     33  C   UNL A   1      40.922  27.380  28.718  1.00  0.00     0.074 A 
ATOM     34  C   UNL A   1      42.874  26.425  27.546  1.00  0.00     0.049 A 
ATOM     35  N   UNL A   1      41.331  28.596  28.969  1.00  0.00    -0.248 NA
ATOM     36  C   UNL A   1      39.607  27.056  29.293  1.00  0.00     0.031 C 
ATOM     37  C   UNL A   1      43.663  25.401  26.866  1.00  0.00     0.029 A 
ATOM     38  N   UNL A   1      43.726  27.495  27.655  1.00  0.00    -0.354 N 
ATOM     39  C   UNL A   1      40.318  29.190  29.709  1.00  0.00     0.074 A 
ATOM     40  C   UNL A   1      39.268  28.205  29.859  1.00  0.00     0.031 C 
ATOM     41  C   UNL A   1      44.882  25.899  26.598  1.00  0.00     0.029 A 
ATOM     42  C   UNL A   1      44.936  27.291  27.041  1.00  0.00     0.049 A 
ATOM     43  H   UNL A   1      43.492  28.327  28.126  1.00  0.00     0.167 HD
ATOM     44  C   UNL A   1      40.269  30.444  30.216  1.00  0.00     0.037 A 
ATOM     45  C   UNL A   1      45.953  28.148  26.824  1.00  0.00     0.037 A 
ATOM     46  C   UNL A   1      41.321  31.416  30.071  1.00  0.00     0.049 A 
ATOM     47  C   UNL A   1      45.840  29.566  27.319  1.00  0.00     0.074 A 
ATOM     48  C   UNL A   1      41.366  32.719  30.535  1.00  0.00     0.029 A 
ATOM     49  N   UNL A   1      42.519  31.187  29.409  1.00  0.00    -0.354 N 
ATOM     50  N   UNL A   1      44.866  30.136  27.987  1.00  0.00    -0.248 NA
ATOM     51  C   UNL A   1      46.966  30.463  27.023  1.00  0.00     0.031 C 
ATOM     52  C   UNL A   1      42.572  33.291  30.117  1.00  0.00     0.029 A 
ATOM     53  C   UNL A   1      43.301  32.330  29.436  1.00  0.00     0.049 A 
ATOM     54  H   UNL A   1      42.775  30.337  28.982  1.00  0.00     0.167 HD
ATOM     55  C   UNL A   1      45.269  31.446  28.211  1.00  0.00     0.074 A 
ATOM     56  C   UNL A   1      46.584  31.583  27.619  1.00  0.00     0.031 C 
ATOM     57  C   UNL A   1      44.611  32.445  28.848  1.00  0.00     0.037 A 
BRANCH  44  58
ATOM     58  C   UNL A   1      39.020  30.850  30.940  1.00  0.00     0.064 A 
ATOM     59  C   UNL A   1      38.893  30.712  32.330  1.00  0.00     0.173 A 
ATOM     60  C   UNL A   1      37.944  31.407  30.233  1.00  0.00     0.173 A 
ATOM     61  F   UNL A   1      39.887  30.169  33.049  1.00  0.00    -0.203 F 
ATOM     62  C   UNL A   1      37.724  31.098  32.982  1.00  0.00     0.198 A 
ATOM     63  C   UNL A   1      36.788  31.816  30.893  1.00  0.00     0.198 A 
ATOM     64  F   UNL A   1      38.016  31.561  28.902  1.00  0.00    -0.203 F 
ATOM     65  F   UNL A   1      37.606  30.917  34.306  1.00  0.00    -0.200 F 
ATOM     66  C   UNL A   1      36.676  31.655  32.265  1.00  0.00     0.200 A 
ATOM     67  F   UNL A   1      35.781  32.364  30.199  1.00  0.00    -0.200 F 
ATOM     68  F   UNL A   1      35.554  32.030  32.895  1.00  0.00    -0.200 F 
ENDBRANCH  44  58
BRANCH  45  69
ATOM     69  C   UNL A   1      47.149  27.700  26.065  1.00  0.00     0.064 A 
ATOM     70  C   UNL A   1      48.299  27.246  26.724  1.00  0.00     0.173 A 
ATOM     71  C   UNL A   1      47.172  27.736  24.662  1.00  0.00     0.173 A 
ATOM     72  F   UNL A   1      48.336  27.221  28.064  1.00  0.00    -0.203 F 
ATOM     73  C   UNL A   1      49.431  26.857  26.010  1.00  0.00     0.198 A 
ATOM     74  C   UNL A   1      48.293  27.320  23.949  1.00  0.00     0.198 A 
ATOM     75  F   UNL A   1      46.099  28.167  23.984  1.00  0.00    -0.203 F 
ATOM     76  F   UNL A   1      50.534  26.471  26.666  1.00  0.00    -0.200 F 
ATOM     77  C   UNL A   1      49.424  26.888  24.623  1.00  0.00     0.200 A 
ATOM     78  F   UNL A   1      48.279  27.342  22.609  1.00  0.00    -0.200 F 
ATOM     79  F   UNL A   1      50.514  26.512  23.938  1.00  0.00    -0.200 F 
ENDBRANCH  45  69
BRANCH  57  80
ATOM     80  C   UNL A   1      45.316  33.764  28.972  1.00  0.00     0.064 A 
ATOM     81  C   UNL A   1      46.170  34.044  30.048  1.00  0.00     0.173 A 
ATOM     82  C   UNL A   1      45.169  34.743  27.977  1.00  0.00     0.173 A 
ATOM     83  F   UNL A   1      46.333  33.148  31.032  1.00  0.00    -0.203 F 
ATOM     84  C   UNL A   1      46.832  35.267  30.137  1.00  0.00     0.198 A 
ATOM     85  C   UNL A   1      45.853  35.952  28.054  1.00  0.00     0.198 A 
ATOM     86  F   UNL A   1      44.368  34.520  26.922  1.00  0.00    -0.203 F 
ATOM     87  F   UNL A   1      47.608  35.532  31.196  1.00  0.00    -0.200 F 
ATOM     88  C   UNL A   1      46.679  36.216  29.136  1.00  0.00     0.200 A 
ATOM     89  F   UNL A   1      45.714  36.862  27.080  1.00  0.00    -0.200 F 
ATOM     90  F   UNL A   1      47.321  37.389  29.219  1.00  0.00    -0.200 F 
ENDBRANCH  57  80
ENDBRANCH  31  32
ENDBRANCH  24  26
ENDBRANCH  23  24
ENDBRANCH  22  23
ENDBRANCH   1  22
TORSDOF 16
ENDMDL
MODEL 3
REMARK VINA RESULT:     -11.3      0.996      2.307
REMARK SMILES CC[C@H](C)[C@@H](NC(=O)/C=C/c1csc(C)n1)C(=O)OCCOC(=O)c1ccc(-c2c3nc(c(-c4c(F)c(F)c(F)c(F)c4F)c4ccc([nH]4)c(-c4c(F)c(F)c(F)c(F)c4F)c4nc(c(-c5c(F)c(F)c(F)c(F)c5F)c5ccc2[nH]5)C=C4)C=C3)cc1
REMARK SMILES IDX 20 1 19 2 17 3 18 4 5 5 3 6 4 7 2 8 1 9 6 10 7 11 8 13 9 14
REMARK SMILES IDX 10 15 11 16 12 17 16 18 13 19 14 20 15 21 21 22 22 23 23 24
REMARK SMILES IDX 24 25 25 26 26 27 87 28 27 29 86 30 28 31 29 32 30 33 80 34
REMARK SMILES IDX 31 35 85 36 79 37 81 38 32 39 84 40 78 41 77 42 33 44 65 45
REMARK SMILES IDX 45 46 64 47 46 48 49 49 63 50 82 51 47 52 48 53 62 55 83 56
REMARK SMILES IDX 50 57 34 58 35 59 43 60 36 61 37 62 41 63 44 64 38 65 39 66
REMARK SMILES IDX 42 67 40 68 66 69 67 70 75 71 68 72 69 73 73 74 76 75 70 76
REMARK SMILES IDX 71 77 74 78 72 79 51 80 52 81 60 82 53 83 54 84 58 85 61 86
REMARK SMILES IDX 55 87 56 88 59 89 57 90
REMARK H PARENT 6 12 81 43 49 54
REMARK Flexibility Score: inf
ROOT
ATOM      1  C   UNL A   1      32.918  29.703  24.807  1.00  0.00     0.274 C 
ENDROOT
BRANCH   1   2
ATOM      2  O   UNL A   1      33.290  28.312  24.814  1.00  0.00    -0.461 OA
BRANCH   2   3
ATOM      3  C   UNL A   1      33.573  27.778  23.598  1.00  0.00     0.329 C 
ATOM      4  O   UNL A   1      34.214  28.343  22.718  1.00  0.00    -0.250 OA
BRANCH   3   5
ATOM      5  C   UNL A   1      32.908  26.419  23.341  1.00  0.00     0.195 C 
BRANCH   5   6
ATOM      6  C   UNL A   1      33.888  25.223  23.560  1.00  0.00     0.019 C 
ATOM      7  C   UNL A   1      34.082  24.898  25.048  1.00  0.00     0.010 C 
BRANCH   6   8
ATOM      8  C   UNL A   1      33.489  23.948  22.764  1.00  0.00     0.002 C 
ATOM      9  C   UNL A   1      33.623  22.609  23.481  1.00  0.00     0.004 C 
ENDBRANCH   6   8
ENDBRANCH   5   6
BRANCH   5  10
ATOM     10  N   UNL A   1      31.626  26.258  24.082  1.00  0.00    -0.339 N 
ATOM     11  C   UNL A   1      30.360  26.324  23.554  1.00  0.00     0.244 C 
ATOM     12  H   UNL A   1      31.695  26.087  25.049  1.00  0.00     0.164 HD
ATOM     13  O   UNL A   1      29.531  25.453  23.786  1.00  0.00    -0.270 OA
BRANCH  11  14
ATOM     14  C   UNL A   1      30.004  27.565  22.842  1.00  0.00     0.073 C 
ATOM     15  C   UNL A   1      29.841  28.722  23.505  1.00  0.00     0.035 C 
BRANCH  15  16
ATOM     16  C   UNL A   1      29.229  29.874  22.917  1.00  0.00     0.074 A 
ATOM     17  C   UNL A   1      28.722  29.907  21.634  1.00  0.00     0.095 A 
ATOM     18  N   UNL A   1      29.281  31.093  23.568  1.00  0.00    -0.242 NA
ATOM     19  S   UNL A   1      28.286  31.515  21.226  1.00  0.00    -0.127 S 
ATOM     20  C   UNL A   1      28.813  32.038  22.778  1.00  0.00     0.090 A 
ATOM     21  C   UNL A   1      28.776  33.484  23.126  1.00  0.00     0.079 C 
ENDBRANCH  15  16
ENDBRANCH  11  14
ENDBRANCH   5  10
ENDBRANCH   3   5
ENDBRANCH   2   3
ENDBRANCH   1   2
BRANCH   1  22
ATOM     22  C   UNL A   1      31.994  30.154  25.943  1.00  0.00     0.275 C 
BRANCH  22  23
ATOM     23  O   UNL A   1      32.667  30.250  27.212  1.00  0.00    -0.458 OA
BRANCH  23  24
ATOM     24  C   UNL A   1      33.419  31.362  27.376  1.00  0.00     0.338 C 
ATOM     25  O   UNL A   1      33.045  32.521  27.321  1.00  0.00    -0.246 OA
BRANCH  24  26
ATOM     26  C   UNL A   1      34.801  31.015  27.750  1.00  0.00     0.060 A 
ATOM     27  C   UNL A   1      35.099  29.678  28.038  1.00  0.00     0.016 A 
ATOM     28  C   UNL A   1      35.737  32.015  28.007  1.00  0.00     0.016 A 
ATOM     29  C   UNL A   1      36.318  29.331  28.611  1.00  0.00     0.010 A 
ATOM     30  C   UNL A   1      36.961  31.670  28.592  1.00  0.00     0.010 A 
ATOM     31  C   UNL A   1      37.240  30.331  28.928  1.00  0.00    -0.014 A 
BRANCH  31  32
ATOM     32  C   UNL A   1      38.424  29.996  29.753  1.00  0.00     0.031 A 
ATOM     33  C   UNL A   1      39.452  29.053  29.196  1.00  0.00     0.074 A 
ATOM     34  C   UNL A   1      38.603  30.554  30.963  1.00  0.00     0.049 A 
ATOM     35  N   UNL A   1      40.493  28.517  29.780  1.00  0.00    -0.248 NA
ATOM     36  C   UNL A   1      39.285  28.664  27.786  1.00  0.00     0.031 C 
ATOM     37  C   UNL A   1      37.724  31.549  31.571  1.00  0.00     0.029 A 
ATOM     38  N   UNL A   1      39.584  30.348  31.900  1.00  0.00    -0.354 N 
ATOM     39  C   UNL A   1      41.090  27.711  28.820  1.00  0.00     0.074 A 
ATOM     40  C   UNL A   1      40.292  27.819  27.618  1.00  0.00     0.031 C 
ATOM     41  C   UNL A   1      38.193  31.854  32.792  1.00  0.00     0.029 A 
ATOM     42  C   UNL A   1      39.374  31.037  33.068  1.00  0.00     0.049 A 
ATOM     43  H   UNL A   1      40.361  29.763  31.750  1.00  0.00     0.167 HD
ATOM     44  C   UNL A   1      42.204  26.950  28.934  1.00  0.00     0.037 A 
ATOM     45  C   UNL A   1      40.035  30.979  34.240  1.00  0.00     0.037 A 
ATOM     46  C   UNL A   1      42.998  26.854  30.130  1.00  0.00     0.049 A 
ATOM     47  C   UNL A   1      41.219  30.056  34.373  1.00  0.00     0.074 A 
ATOM     48  C   UNL A   1      44.137  26.102  30.355  1.00  0.00     0.029 A 
ATOM     49  N   UNL A   1      42.733  27.538  31.309  1.00  0.00    -0.354 N 
ATOM     50  N   UNL A   1      41.760  29.268  33.475  1.00  0.00    -0.248 NA
ATOM     51  C   UNL A   1      41.879  30.011  35.685  1.00  0.00     0.031 C 
ATOM     52  C   UNL A   1      44.537  26.297  31.681  1.00  0.00     0.029 A 
ATOM     53  C   UNL A   1      43.676  27.210  32.269  1.00  0.00     0.049 A 
ATOM     54  H   UNL A   1      41.984  28.164  31.442  1.00  0.00     0.167 HD
ATOM     55  C   UNL A   1      42.835  28.652  34.104  1.00  0.00     0.074 A 
ATOM     56  C   UNL A   1      42.877  29.169  35.456  1.00  0.00     0.031 C 
ATOM     57  C   UNL A   1      43.707  27.741  33.607  1.00  0.00     0.037 A 
BRANCH  44  58
ATOM     58  C   UNL A   1      42.605  26.128  27.745  1.00  0.00     0.064 A 
ATOM     59  C   UNL A   1      43.571  26.573  26.832  1.00  0.00     0.173 A 
ATOM     60  C   UNL A   1      42.030  24.866  27.532  1.00  0.00     0.173 A 
ATOM     61  F   UNL A   1      44.138  27.779  26.981  1.00  0.00    -0.203 F 
ATOM     62  C   UNL A   1      43.930  25.792  25.735  1.00  0.00     0.198 A 
ATOM     63  C   UNL A   1      42.411  24.078  26.451  1.00  0.00     0.198 A 
ATOM     64  F   UNL A   1      41.101  24.395  28.379  1.00  0.00    -0.203 F 
ATOM     65  F   UNL A   1      44.824  26.255  24.849  1.00  0.00    -0.200 F 
ATOM     66  C   UNL A   1      43.356  24.544  25.549  1.00  0.00     0.200 A 
ATOM     67  F   UNL A   1      41.862  22.868  26.279  1.00  0.00    -0.200 F 
ATOM     68  F   UNL A   1      43.706  23.792  24.496  1.00  0.00    -0.200 F 
ENDBRANCH  44  58
BRANCH  45  69
ATOM     69  C   UNL A   1      39.566  31.786  35.396  1.00  0.00     0.064 A 
ATOM     70  C   UNL A   1      40.095  33.057  35.655  1.00  0.00     0.173 A 
ATOM     71  C   UNL A   1      38.591  31.292  36.276  1.00  0.00     0.173 A 
ATOM     72  F   UNL A   1      41.050  33.560  34.859  1.00  0.00    -0.203 F 
ATOM     73  C   UNL A   1      39.677  33.798  36.758  1.00  0.00     0.198 A 
ATOM     74  C   UNL A   1      38.153  32.046  37.362  1.00  0.00     0.198 A 
ATOM     75  F   UNL A   1      38.057  30.079  36.075  1.00  0.00    -0.203 F 
ATOM     76  F   UNL A   1      40.233  34.992  37.010  1.00  0.00    -0.200 F 
ATOM     77  C   UNL A   1      38.702  33.296  37.607  1.00  0.00     0.200 A 
ATOM     78  F   UNL A   1      37.204  31.561  38.173  1.00  0.00    -0.200 F 
ATOM     79  F   UNL A   1      38.300  34.011  38.667  1.00  0.00    -0.200 F 
ENDBRANCH  45  69
BRANCH  57  80
ATOM     80  C   UNL A   1      44.804  27.272  34.517  1.00  0.00     0.064 A 
ATOM     81  C   UNL A   1      44.660  26.125  35.312  1.00  0.00     0.173 A 
ATOM     82  C   UNL A   1      46.029  27.953  34.562  1.00  0.00     0.173 A 
ATOM     83  F   UNL A   1      43.503  25.446  35.317  1.00  0.00    -0.203 F 
ATOM     84  C   UNL A   1      45.697  25.692  36.136  1.00  0.00     0.198 A 
ATOM     85  C   UNL A   1      47.073  27.502  35.365  1.00  0.00     0.198 A 
ATOM     86  F   UNL A   1      46.219  29.052  33.814  1.00  0.00    -0.203 F 
ATOM     87  F   UNL A   1      45.523  24.620  36.921  1.00  0.00    -0.200 F 
ATOM     88  C   UNL A   1      46.904  26.376  36.156  1.00  0.00     0.200 A 
ATOM     89  F   UNL A   1      48.241  28.157  35.372  1.00  0.00    -0.200 F 
ATOM     90  F   UNL A   1      47.902  25.955  36.944  1.00  0.00    -0.200 F 
ENDBRANCH  57  80
ENDBRANCH  31  32
ENDBRANCH  24  26
ENDBRANCH  23  24
ENDBRANCH  22  23
ENDBRANCH   1  22
TORSDOF 16
ENDMDL
