MODEL 1
REMARK VINA RESULT:     -11.8      0.000      0.000
REMARK SMILES O=C(OCCOC(=O)c1cc2ncc(Cl)cn2n1)c1ccc(-c2c3nc(c(-c4c(F)c(F)c(F)c(F)c4F)c4ccc([nH]4)c(-c4c(F)c(F)c(F)c(F)c4F)c4nc(c(-c5c(F)c(F)c(F)c(F)c5F)c5ccc2[nH]5)C=C4)C=C3)cc1
REMARK SMILES IDX 4 1 3 2 2 3 1 4 19 5 20 6 81 7 21 8 80 9 22 10 23 11 24 12
REMARK SMILES IDX 74 13 25 14 79 15 73 16 75 17 26 18 78 19 72 20 71 21 27 23
REMARK SMILES IDX 59 24 39 25 58 26 40 27 43 28 57 29 76 30 41 31 42 32 56 34
REMARK SMILES IDX 77 35 44 36 28 37 29 38 37 39 30 40 31 41 35 42 38 43 32 44
REMARK SMILES IDX 33 45 36 46 34 47 60 48 61 49 69 50 62 51 63 52 67 53 70 54
REMARK SMILES IDX 64 55 65 56 68 57 66 58 45 59 46 60 54 61 47 62 48 63 52 64
REMARK SMILES IDX 55 65 49 66 50 67 53 68 51 69 5 70 6 71 7 72 8 73 9 74 10 75
REMARK SMILES IDX 18 76 11 77 17 78 12 79 16 80 13 81 14 82 15 83
REMARK H PARENT 75 22 43 33
REMARK Flexibility Score: inf
ROOT
ATOM      1  C   UNL A   1      43.820  18.653  25.116  1.00  0.00     0.275 C 
ENDROOT
BRANCH   1   2
ATOM      2  O   UNL A   1      44.233  19.781  24.313  1.00  0.00    -0.458 OA
BRANCH   2   3
ATOM      3  C   UNL A   1      45.306  20.517  24.675  1.00  0.00     0.338 C 
ATOM      4  O   UNL A   1      46.457  20.245  24.378  1.00  0.00    -0.246 OA
BRANCH   3   5
ATOM      5  C   UNL A   1      44.932  21.827  25.256  1.00  0.00     0.060 A 
ATOM      6  C   UNL A   1      45.539  22.335  26.405  1.00  0.00     0.016 A 
ATOM      7  C   UNL A   1      43.948  22.579  24.596  1.00  0.00     0.016 A 
ATOM      8  C   UNL A   1      45.110  23.545  26.930  1.00  0.00     0.010 A 
ATOM      9  C   UNL A   1      43.534  23.803  25.108  1.00  0.00     0.010 A 
ATOM     10  C   UNL A   1      44.086  24.267  26.299  1.00  0.00    -0.014 A 
BRANCH  10  11
ATOM     11  C   UNL A   1      43.702  25.547  26.890  1.00  0.00     0.031 A 
ATOM     12  C   UNL A   1      44.627  26.673  26.589  1.00  0.00     0.074 A 
ATOM     13  C   UNL A   1      42.596  25.755  27.633  1.00  0.00     0.049 A 
ATOM     14  N   UNL A   1      45.433  27.265  27.409  1.00  0.00    -0.248 NA
ATOM     15  C   UNL A   1      44.761  27.115  25.195  1.00  0.00     0.031 C 
ATOM     16  C   UNL A   1      41.450  24.872  27.845  1.00  0.00     0.029 A 
ATOM     17  N   UNL A   1      42.256  26.872  28.344  1.00  0.00    -0.354 N 
ATOM     18  C   UNL A   1      46.066  28.270  26.683  1.00  0.00     0.074 A 
ATOM     19  C   UNL A   1      45.706  28.053  25.304  1.00  0.00     0.031 C 
ATOM     20  C   UNL A   1      40.459  25.554  28.467  1.00  0.00     0.029 A 
ATOM     21  C   UNL A   1      40.960  26.866  28.843  1.00  0.00     0.049 A 
ATOM     22  H   UNL A   1      42.879  27.619  28.492  1.00  0.00     0.167 HD
ATOM     23  C   UNL A   1      46.671  29.312  27.320  1.00  0.00     0.037 A 
ATOM     24  C   UNL A   1      40.344  27.869  29.518  1.00  0.00     0.037 A 
ATOM     25  C   UNL A   1      46.964  28.975  28.692  1.00  0.00     0.049 A 
ATOM     26  C   UNL A   1      41.407  28.704  30.123  1.00  0.00     0.074 A 
ATOM     27  C   UNL A   1      47.748  28.026  29.319  1.00  0.00     0.029 A 
ATOM     28  N   UNL A   1      46.129  29.459  29.667  1.00  0.00    -0.354 N 
ATOM     29  N   UNL A   1      42.190  28.301  31.083  1.00  0.00    -0.248 NA
ATOM     30  C   UNL A   1      41.873  29.859  29.373  1.00  0.00     0.031 C 
ATOM     31  C   UNL A   1      47.012  27.647  30.482  1.00  0.00     0.029 A 
ATOM     32  C   UNL A   1      45.857  28.428  30.524  1.00  0.00     0.049 A 
ATOM     33  H   UNL A   1      45.788  30.380  29.737  1.00  0.00     0.167 HD
ATOM     34  C   UNL A   1      43.423  28.857  30.782  1.00  0.00     0.074 A 
ATOM     35  C   UNL A   1      43.143  29.883  29.780  1.00  0.00     0.031 C 
ATOM     36  C   UNL A   1      44.579  28.245  31.169  1.00  0.00     0.037 A 
BRANCH  23  37
ATOM     37  C   UNL A   1      46.635  30.751  26.843  1.00  0.00     0.064 A 
ATOM     38  C   UNL A   1      47.825  31.511  26.889  1.00  0.00     0.173 A 
ATOM     39  C   UNL A   1      45.453  31.499  26.667  1.00  0.00     0.173 A 
ATOM     40  F   UNL A   1      49.017  30.914  27.040  1.00  0.00    -0.203 F 
ATOM     41  C   UNL A   1      47.815  32.909  26.896  1.00  0.00     0.198 A 
ATOM     42  C   UNL A   1      45.450  32.893  26.627  1.00  0.00     0.198 A 
ATOM     43  F   UNL A   1      44.244  30.931  26.630  1.00  0.00    -0.203 F 
ATOM     44  F   UNL A   1      48.956  33.582  27.096  1.00  0.00    -0.200 F 
ATOM     45  C   UNL A   1      46.624  33.599  26.782  1.00  0.00     0.200 A 
ATOM     46  F   UNL A   1      44.284  33.545  26.523  1.00  0.00    -0.200 F 
ATOM     47  F   UNL A   1      46.599  34.935  26.867  1.00  0.00    -0.200 F 
ENDBRANCH  23  37
BRANCH  24  48
ATOM     48  C   UNL A   1      38.942  28.342  29.408  1.00  0.00     0.064 A 
ATOM     49  C   UNL A   1      38.146  28.508  30.556  1.00  0.00     0.173 A 
ATOM     50  C   UNL A   1      38.465  28.943  28.228  1.00  0.00     0.173 A 
ATOM     51  F   UNL A   1      38.543  28.000  31.733  1.00  0.00    -0.203 F 
ATOM     52  C   UNL A   1      36.972  29.270  30.536  1.00  0.00     0.198 A 
ATOM     53  C   UNL A   1      37.292  29.700  28.208  1.00  0.00     0.198 A 
ATOM     54  F   UNL A   1      39.182  28.897  27.097  1.00  0.00    -0.203 F 
ATOM     55  F   UNL A   1      36.284  29.470  31.668  1.00  0.00    -0.200 F 
ATOM     56  C   UNL A   1      36.556  29.879  29.364  1.00  0.00     0.200 A 
ATOM     57  F   UNL A   1      36.918  30.315  27.077  1.00  0.00    -0.200 F 
ATOM     58  F   UNL A   1      35.475  30.672  29.360  1.00  0.00    -0.200 F 
ENDBRANCH  24  48
BRANCH  36  59
ATOM     59  C   UNL A   1      44.486  27.125  32.166  1.00  0.00     0.064 A 
ATOM     60  C   UNL A   1      44.347  25.771  31.817  1.00  0.00     0.173 A 
ATOM     61  C   UNL A   1      44.726  27.423  33.514  1.00  0.00     0.173 A 
ATOM     62  F   UNL A   1      44.199  25.399  30.539  1.00  0.00    -0.203 F 
ATOM     63  C   UNL A   1      44.426  24.766  32.779  1.00  0.00     0.198 A 
ATOM     64  C   UNL A   1      44.841  26.416  34.468  1.00  0.00     0.198 A 
ATOM     65  F   UNL A   1      44.915  28.696  33.897  1.00  0.00    -0.203 F 
ATOM     66  F   UNL A   1      44.295  23.479  32.422  1.00  0.00    -0.200 F 
ATOM     67  C   UNL A   1      44.686  25.089  34.101  1.00  0.00     0.200 A 
ATOM     68  F   UNL A   1      45.140  26.731  35.735  1.00  0.00    -0.200 F 
ATOM     69  F   UNL A   1      44.821  24.119  35.017  1.00  0.00    -0.200 F 
ENDBRANCH  36  59
ENDBRANCH  10  11
ENDBRANCH   3   5
ENDBRANCH   2   3
ENDBRANCH   1   2
BRANCH   1  70
ATOM     70  C   UNL A   1      42.697  18.867  26.132  1.00  0.00     0.275 C 
BRANCH  70  71
ATOM     71  O   UNL A   1      41.711  19.766  25.601  1.00  0.00    -0.457 OA
BRANCH  71  72
ATOM     72  C   UNL A   1      41.317  20.782  26.437  1.00  0.00     0.359 C 
ATOM     73  O   UNL A   1      42.013  21.314  27.277  1.00  0.00    -0.244 OA
BRANCH  72  74
ATOM     74  C   UNL A   1      39.952  21.215  26.125  1.00  0.00     0.173 A 
ATOM     75  C   UNL A   1      39.383  22.471  26.437  1.00  0.00     0.087 A 
ATOM     76  N   UNL A   1      39.085  20.430  25.463  1.00  0.00    -0.159 NA
ATOM     77  C   UNL A   1      38.121  22.450  25.897  1.00  0.00     0.155 A 
ATOM     78  N   UNL A   1      37.942  21.150  25.410  1.00  0.00    -0.220 N 
ATOM     79  N   UNL A   1      37.135  23.398  25.835  1.00  0.00    -0.235 NA
ATOM     80  C   UNL A   1      36.700  20.732  24.954  1.00  0.00     0.137 A 
ATOM     81  C   UNL A   1      35.986  22.980  25.386  1.00  0.00     0.135 A 
ATOM     82  C   UNL A   1      35.678  21.591  24.940  1.00  0.00     0.077 A 
ATOM     83  Cl  UNL A   1      34.098  21.202  24.438  1.00  0.00    -0.081 Cl
ENDBRANCH  72  74
ENDBRANCH  71  72
ENDBRANCH  70  71
ENDBRANCH   1  70
TORSDOF 11
ENDMDL
MODEL 2
REMARK VINA RESULT:     -11.7      2.953      4.858
REMARK SMILES O=C(OCCOC(=O)c1cc2ncc(Cl)cn2n1)c1ccc(-c2c3nc(c(-c4c(F)c(F)c(F)c(F)c4F)c4ccc([nH]4)c(-c4c(F)c(F)c(F)c(F)c4F)c4nc(c(-c5c(F)c(F)c(F)c(F)c5F)c5ccc2[nH]5)C=C4)C=C3)cc1
REMARK SMILES IDX 4 1 3 2 2 3 1 4 19 5 20 6 81 7 21 8 80 9 22 10 23 11 24 12
REMARK SMILES IDX 74 13 25 14 79 15 73 16 75 17 26 18 78 19 72 20 71 21 27 23
REMARK SMILES IDX 59 24 39 25 58 26 40 27 43 28 57 29 76 30 41 31 42 32 56 34
REMARK SMILES IDX 77 35 44 36 28 37 29 38 37 39 30 40 31 41 35 42 38 43 32 44
REMARK SMILES IDX 33 45 36 46 34 47 60 48 61 49 69 50 62 51 63 52 67 53 70 54
REMARK SMILES IDX 64 55 65 56 68 57 66 58 45 59 46 60 54 61 47 62 48 63 52 64
REMARK SMILES IDX 55 65 49 66 50 67 53 68 51 69 5 70 6 71 7 72 8 73 9 74 10 75
REMARK SMILES IDX 18 76 11 77 17 78 12 79 16 80 13 81 14 82 15 83
REMARK H PARENT 75 22 43 33
REMARK Flexibility Score: inf
ROOT
ATOM      1  C   UNL A   1      41.046  20.342  27.444  1.00  0.00     0.275 C 
ENDROOT
BRANCH   1   2
ATOM      2  O   UNL A   1      41.191  21.768  27.256  1.00  0.00    -0.458 OA
BRANCH   2   3
ATOM      3  C   UNL A   1      40.127  22.519  26.900  1.00  0.00     0.338 C 
ATOM      4  O   UNL A   1      39.074  22.065  26.482  1.00  0.00    -0.246 OA
BRANCH   3   5
ATOM      5  C   UNL A   1      40.267  23.937  27.303  1.00  0.00     0.060 A 
ATOM      6  C   UNL A   1      41.378  24.409  28.004  1.00  0.00     0.016 A 
ATOM      7  C   UNL A   1      39.248  24.826  26.932  1.00  0.00     0.016 A 
ATOM      8  C   UNL A   1      41.428  25.738  28.398  1.00  0.00     0.010 A 
ATOM      9  C   UNL A   1      39.308  26.164  27.305  1.00  0.00     0.010 A 
ATOM     10  C   UNL A   1      40.378  26.611  28.074  1.00  0.00    -0.014 A 
BRANCH  10  11
ATOM     11  C   UNL A   1      40.508  28.004  28.495  1.00  0.00     0.031 A 
ATOM     12  C   UNL A   1      41.706  28.707  27.960  1.00  0.00     0.074 A 
ATOM     13  C   UNL A   1      39.630  28.660  29.282  1.00  0.00     0.049 A 
ATOM     14  N   UNL A   1      42.755  29.079  28.618  1.00  0.00    -0.248 NA
ATOM     15  C   UNL A   1      41.805  28.913  26.509  1.00  0.00     0.031 C 
ATOM     16  C   UNL A   1      38.293  28.248  29.710  1.00  0.00     0.029 A 
ATOM     17  N   UNL A   1      39.763  29.899  29.842  1.00  0.00    -0.354 N 
ATOM     18  C   UNL A   1      43.587  29.719  27.704  1.00  0.00     0.074 A 
ATOM     19  C   UNL A   1      43.010  29.480  26.405  1.00  0.00     0.031 C 
ATOM     20  C   UNL A   1      37.663  29.293  30.297  1.00  0.00     0.029 A 
ATOM     21  C   UNL A   1      38.606  30.391  30.434  1.00  0.00     0.049 A 
ATOM     22  H   UNL A   1      40.608  30.402  29.829  1.00  0.00     0.167 HD
ATOM     23  C   UNL A   1      44.571  30.559  28.130  1.00  0.00     0.037 A 
ATOM     24  C   UNL A   1      38.438  31.614  30.997  1.00  0.00     0.037 A 
ATOM     25  C   UNL A   1      44.904  30.302  29.511  1.00  0.00     0.049 A 
ATOM     26  C   UNL A   1      39.782  32.102  31.387  1.00  0.00     0.074 A 
ATOM     27  C   UNL A   1      45.406  29.223  30.210  1.00  0.00     0.029 A 
ATOM     28  N   UNL A   1      44.399  31.150  30.464  1.00  0.00    -0.354 N 
ATOM     29  N   UNL A   1      40.501  31.571  32.335  1.00  0.00    -0.248 NA
ATOM     30  C   UNL A   1      40.503  32.935  30.441  1.00  0.00     0.031 C 
ATOM     31  C   UNL A   1      44.734  29.253  31.470  1.00  0.00     0.029 A 
ATOM     32  C   UNL A   1      43.911  30.379  31.483  1.00  0.00     0.049 A 
ATOM     33  H   UNL A   1      44.388  32.134  30.422  1.00  0.00     0.167 HD
ATOM     34  C   UNL A   1      41.801  31.636  31.860  1.00  0.00     0.074 A 
ATOM     35  C   UNL A   1      41.752  32.573  30.741  1.00  0.00     0.031 C 
ATOM     36  C   UNL A   1      42.732  30.716  32.245  1.00  0.00     0.037 A 
BRANCH  23  37
ATOM     37  C   UNL A   1      44.949  31.860  27.449  1.00  0.00     0.064 A 
ATOM     38  C   UNL A   1      46.216  31.960  26.830  1.00  0.00     0.173 A 
ATOM     39  C   UNL A   1      44.287  33.087  27.659  1.00  0.00     0.173 A 
ATOM     40  F   UNL A   1      46.940  30.862  26.564  1.00  0.00    -0.203 F 
ATOM     41  C   UNL A   1      46.822  33.193  26.572  1.00  0.00     0.198 A 
ATOM     42  C   UNL A   1      44.876  34.315  27.357  1.00  0.00     0.198 A 
ATOM     43  F   UNL A   1      43.094  33.165  28.257  1.00  0.00    -0.203 F 
ATOM     44  F   UNL A   1      48.085  33.232  26.127  1.00  0.00    -0.200 F 
ATOM     45  C   UNL A   1      46.157  34.370  26.852  1.00  0.00     0.200 A 
ATOM     46  F   UNL A   1      44.217  35.447  27.642  1.00  0.00    -0.200 F 
ATOM     47  F   UNL A   1      46.762  35.552  26.680  1.00  0.00    -0.200 F 
ENDBRANCH  23  37
BRANCH  24  48
ATOM     48  C   UNL A   1      37.265  32.520  30.925  1.00  0.00     0.064 A 
ATOM     49  C   UNL A   1      36.967  33.220  29.742  1.00  0.00     0.173 A 
ATOM     50  C   UNL A   1      36.244  32.469  31.893  1.00  0.00     0.173 A 
ATOM     51  F   UNL A   1      37.868  33.286  28.751  1.00  0.00    -0.203 F 
ATOM     52  C   UNL A   1      35.708  33.789  29.520  1.00  0.00     0.198 A 
ATOM     53  C   UNL A   1      34.990  33.042  31.672  1.00  0.00     0.198 A 
ATOM     54  F   UNL A   1      36.407  31.774  33.027  1.00  0.00    -0.203 F 
ATOM     55  F   UNL A   1      35.437  34.378  28.347  1.00  0.00    -0.200 F 
ATOM     56  C   UNL A   1      34.716  33.685  30.479  1.00  0.00     0.200 A 
ATOM     57  F   UNL A   1      34.025  32.902  32.593  1.00  0.00    -0.200 F 
ATOM     58  F   UNL A   1      33.487  34.162  30.238  1.00  0.00    -0.200 F 
ENDBRANCH  24  48
BRANCH  36  59
ATOM     59  C   UNL A   1      42.402  29.816  33.401  1.00  0.00     0.064 A 
ATOM     60  C   UNL A   1      41.759  28.573  33.272  1.00  0.00     0.173 A 
ATOM     61  C   UNL A   1      42.916  30.150  34.661  1.00  0.00     0.173 A 
ATOM     62  F   UNL A   1      41.315  28.146  32.083  1.00  0.00    -0.203 F 
ATOM     63  C   UNL A   1      41.623  27.715  34.362  1.00  0.00     0.198 A 
ATOM     64  C   UNL A   1      42.811  29.276  35.740  1.00  0.00     0.198 A 
ATOM     65  F   UNL A   1      43.582  31.304  34.831  1.00  0.00    -0.203 F 
ATOM     66  F   UNL A   1      41.010  26.531  34.215  1.00  0.00    -0.200 F 
ATOM     67  C   UNL A   1      42.161  28.061  35.591  1.00  0.00     0.200 A 
ATOM     68  F   UNL A   1      43.375  29.595  36.912  1.00  0.00    -0.200 F 
ATOM     69  F   UNL A   1      42.082  27.212  36.624  1.00  0.00    -0.200 F 
ENDBRANCH  36  59
ENDBRANCH  10  11
ENDBRANCH   3   5
ENDBRANCH   2   3
ENDBRANCH   1   2
BRANCH   1  70
ATOM     70  C   UNL A   1      42.197  19.438  26.999  1.00  0.00     0.275 C 
BRANCH  70  71
ATOM     71  O   UNL A   1      42.330  19.471  25.570  1.00  0.00    -0.457 OA
BRANCH  71  72
ATOM     72  C   UNL A   1      43.615  19.433  25.088  1.00  0.00     0.359 C 
ATOM     73  O   UNL A   1      44.168  18.454  24.631  1.00  0.00    -0.244 OA
BRANCH  72  74
ATOM     74  C   UNL A   1      44.222  20.767  25.113  1.00  0.00     0.173 A 
ATOM     75  C   UNL A   1      45.580  21.062  25.376  1.00  0.00     0.087 A 
ATOM     76  N   UNL A   1      43.516  21.880  24.854  1.00  0.00    -0.159 NA
ATOM     77  C   UNL A   1      45.699  22.421  25.225  1.00  0.00     0.155 A 
ATOM     78  N   UNL A   1      44.397  22.892  25.017  1.00  0.00    -0.220 N 
ATOM     79  N   UNL A   1      46.778  23.260  25.300  1.00  0.00    -0.235 NA
ATOM     80  C   UNL A   1      44.133  24.254  25.002  1.00  0.00     0.137 A 
ATOM     81  C   UNL A   1      46.501  24.532  25.266  1.00  0.00     0.135 A 
ATOM     82  C   UNL A   1      45.137  25.122  25.146  1.00  0.00     0.077 A 
ATOM     83  Cl  UNL A   1      44.950  26.815  25.179  1.00  0.00    -0.081 Cl
ENDBRANCH  72  74
ENDBRANCH  71  72
ENDBRANCH  70  71
ENDBRANCH   1  70
TORSDOF 11
ENDMDL
MODEL 3
REMARK VINA RESULT:     -11.7      3.002      4.778
REMARK SMILES O=C(OCCOC(=O)c1cc2ncc(Cl)cn2n1)c1ccc(-c2c3nc(c(-c4c(F)c(F)c(F)c(F)c4F)c4ccc([nH]4)c(-c4c(F)c(F)c(F)c(F)c4F)c4nc(c(-c5c(F)c(F)c(F)c(F)c5F)c5ccc2[nH]5)C=C4)C=C3)cc1
REMARK SMILES IDX 4 1 3 2 2 3 1 4 19 5 20 6 81 7 21 8 80 9 22 10 23 11 24 12
REMARK SMILES IDX 74 13 25 14 79 15 73 16 75 17 26 18 78 19 72 20 71 21 27 23
REMARK SMILES IDX 59 24 39 25 58 26 40 27 43 28 57 29 76 30 41 31 42 32 56 34
REMARK SMILES IDX 77 35 44 36 28 37 29 38 37 39 30 40 31 41 35 42 38 43 32 44
REMARK SMILES IDX 33 45 36 46 34 47 60 48 61 49 69 50 62 51 63 52 67 53 70 54
REMARK SMILES IDX 64 55 65 56 68 57 66 58 45 59 46 60 54 61 47 62 48 63 52 64
REMARK SMILES IDX 55 65 49 66 50 67 53 68 51 69 5 70 6 71 7 72 8 73 9 74 10 75
REMARK SMILES IDX 18 76 11 77 17 78 12 79 16 80 13 81 14 82 15 83
REMARK H PARENT 75 22 43 33
REMARK Flexibility Score: inf
ROOT
ATOM      1  C   UNL A   1      41.151  20.230  27.663  1.00  0.00     0.275 C 
ENDROOT
BRANCH   1   2
ATOM      2  O   UNL A   1      41.328  21.663  27.597  1.00  0.00    -0.458 OA
BRANCH   2   3
ATOM      3  C   UNL A   1      40.440  22.428  26.927  1.00  0.00     0.338 C 
ATOM      4  O   UNL A   1      39.592  21.990  26.166  1.00  0.00    -0.246 OA
BRANCH   3   5
ATOM      5  C   UNL A   1      40.426  23.833  27.395  1.00  0.00     0.060 A 
ATOM      6  C   UNL A   1      39.319  24.665  27.228  1.00  0.00     0.016 A 
ATOM      7  C   UNL A   1      41.569  24.316  28.050  1.00  0.00     0.016 A 
ATOM      8  C   UNL A   1      39.385  25.988  27.642  1.00  0.00     0.010 A 
ATOM      9  C   UNL A   1      41.628  25.634  28.486  1.00  0.00     0.010 A 
ATOM     10  C   UNL A   1      40.552  26.482  28.245  1.00  0.00    -0.014 A 
BRANCH  10  11
ATOM     11  C   UNL A   1      40.544  27.876  28.682  1.00  0.00     0.031 A 
ATOM     12  C   UNL A   1      41.659  28.703  28.144  1.00  0.00     0.074 A 
ATOM     13  C   UNL A   1      39.613  28.430  29.486  1.00  0.00     0.049 A 
ATOM     14  N   UNL A   1      42.671  29.172  28.797  1.00  0.00    -0.248 NA
ATOM     15  C   UNL A   1      41.719  28.935  26.695  1.00  0.00     0.031 C 
ATOM     16  C   UNL A   1      38.330  27.880  29.923  1.00  0.00     0.029 A 
ATOM     17  N   UNL A   1      39.626  29.670  30.061  1.00  0.00    -0.354 N 
ATOM     18  C   UNL A   1      43.424  29.904  27.882  1.00  0.00     0.074 A 
ATOM     19  C   UNL A   1      42.859  29.623  26.586  1.00  0.00     0.031 C 
ATOM     20  C   UNL A   1      37.604  28.849  30.529  1.00  0.00     0.029 A 
ATOM     21  C   UNL A   1      38.432  30.035  30.670  1.00  0.00     0.049 A 
ATOM     22  H   UNL A   1      40.416  30.257  30.045  1.00  0.00     0.167 HD
ATOM     23  C   UNL A   1      44.323  30.835  28.309  1.00  0.00     0.037 A 
ATOM     24  C   UNL A   1      38.147  31.228  31.250  1.00  0.00     0.037 A 
ATOM     25  C   UNL A   1      44.696  30.597  29.683  1.00  0.00     0.049 A 
ATOM     26  C   UNL A   1      39.438  31.846  31.633  1.00  0.00     0.074 A 
ATOM     27  C   UNL A   1      45.312  29.566  30.363  1.00  0.00     0.029 A 
ATOM     28  N   UNL A   1      44.117  31.379  30.651  1.00  0.00    -0.354 N 
ATOM     29  N   UNL A   1      40.219  31.379  32.566  1.00  0.00    -0.248 NA
ATOM     30  C   UNL A   1      40.061  32.759  30.689  1.00  0.00     0.031 C 
ATOM     31  C   UNL A   1      44.655  29.514  31.630  1.00  0.00     0.029 A 
ATOM     32  C   UNL A   1      43.722  30.550  31.665  1.00  0.00     0.049 A 
ATOM     33  H   UNL A   1      44.006  32.356  30.621  1.00  0.00     0.167 HD
ATOM     34  C   UNL A   1      41.500  31.582  32.080  1.00  0.00     0.074 A 
ATOM     35  C   UNL A   1      41.343  32.522  30.972  1.00  0.00     0.031 C 
ATOM     36  C   UNL A   1      42.524  30.757  32.443  1.00  0.00     0.037 A 
BRANCH  23  37
ATOM     37  C   UNL A   1      44.559  32.175  27.640  1.00  0.00     0.064 A 
ATOM     38  C   UNL A   1      45.714  32.342  26.842  1.00  0.00     0.173 A 
ATOM     39  C   UNL A   1      43.905  33.370  28.004  1.00  0.00     0.173 A 
ATOM     40  F   UNL A   1      46.416  31.281  26.419  1.00  0.00    -0.203 F 
ATOM     41  C   UNL A   1      46.242  33.604  26.554  1.00  0.00     0.198 A 
ATOM     42  C   UNL A   1      44.409  34.628  27.675  1.00  0.00     0.198 A 
ATOM     43  F   UNL A   1      42.816  33.384  28.779  1.00  0.00    -0.203 F 
ATOM     44  F   UNL A   1      47.421  33.703  25.925  1.00  0.00    -0.200 F 
ATOM     45  C   UNL A   1      45.597  34.746  26.985  1.00  0.00     0.200 A 
ATOM     46  F   UNL A   1      43.773  35.725  28.109  1.00  0.00    -0.200 F 
ATOM     47  F   UNL A   1      46.139  35.953  26.780  1.00  0.00    -0.200 F 
ENDBRANCH  23  37
BRANCH  24  48
ATOM     48  C   UNL A   1      36.888  32.011  31.202  1.00  0.00     0.064 A 
ATOM     49  C   UNL A   1      36.136  32.239  32.369  1.00  0.00     0.173 A 
ATOM     50  C   UNL A   1      36.570  32.814  30.090  1.00  0.00     0.173 A 
ATOM     51  F   UNL A   1      36.397  31.545  33.487  1.00  0.00    -0.203 F 
ATOM     52  C   UNL A   1      35.163  33.242  32.435  1.00  0.00     0.198 A 
ATOM     53  C   UNL A   1      35.595  33.812  30.156  1.00  0.00     0.198 A 
ATOM     54  F   UNL A   1      37.270  32.718  28.951  1.00  0.00    -0.203 F 
ATOM     55  F   UNL A   1      34.524  33.481  33.589  1.00  0.00    -0.200 F 
ATOM     56  C   UNL A   1      34.905  34.038  31.332  1.00  0.00     0.200 A 
ATOM     57  F   UNL A   1      35.380  34.600  29.093  1.00  0.00    -0.200 F 
ATOM     58  F   UNL A   1      34.028  35.049  31.415  1.00  0.00    -0.200 F 
ENDBRANCH  24  48
BRANCH  36  59
ATOM     59  C   UNL A   1      42.300  29.815  33.592  1.00  0.00     0.064 A 
ATOM     60  C   UNL A   1      41.785  28.515  33.453  1.00  0.00     0.173 A 
ATOM     61  C   UNL A   1      42.792  30.185  34.850  1.00  0.00     0.173 A 
ATOM     62  F   UNL A   1      41.373  28.059  32.264  1.00  0.00    -0.203 F 
ATOM     63  C   UNL A   1      41.749  27.635  34.534  1.00  0.00     0.198 A 
ATOM     64  C   UNL A   1      42.788  29.292  35.919  1.00  0.00     0.198 A 
ATOM     65  F   UNL A   1      43.339  31.398  35.028  1.00  0.00    -0.203 F 
ATOM     66  F   UNL A   1      41.257  26.396  34.378  1.00  0.00    -0.200 F 
ATOM     67  C   UNL A   1      42.263  28.020  35.762  1.00  0.00     0.200 A 
ATOM     68  F   UNL A   1      43.330  29.654  37.089  1.00  0.00    -0.200 F 
ATOM     69  F   UNL A   1      42.282  27.155  36.785  1.00  0.00    -0.200 F 
ENDBRANCH  36  59
ENDBRANCH  10  11
ENDBRANCH   3   5
ENDBRANCH   2   3
ENDBRANCH   1   2
BRANCH   1  70
ATOM     70  C   UNL A   1      42.306  19.342  27.198  1.00  0.00     0.275 C 
BRANCH  70  71
ATOM     71  O   UNL A   1      42.391  19.348  25.765  1.00  0.00    -0.457 OA
BRANCH  71  72
ATOM     72  C   UNL A   1      43.661  19.368  25.242  1.00  0.00     0.359 C 
ATOM     73  O   UNL A   1      44.246  18.413  24.773  1.00  0.00    -0.244 OA
BRANCH  72  74
ATOM     74  C   UNL A   1      44.203  20.730  25.239  1.00  0.00     0.173 A 
ATOM     75  C   UNL A   1      45.547  21.094  25.486  1.00  0.00     0.087 A 
ATOM     76  N   UNL A   1      43.442  21.804  24.966  1.00  0.00    -0.159 NA
ATOM     77  C   UNL A   1      45.600  22.455  25.311  1.00  0.00     0.155 A 
ATOM     78  N   UNL A   1      44.276  22.859  25.104  1.00  0.00    -0.220 N 
ATOM     79  N   UNL A   1      46.638  23.345  25.362  1.00  0.00    -0.235 NA
ATOM     80  C   UNL A   1      43.946  24.206  25.067  1.00  0.00     0.137 A 
ATOM     81  C   UNL A   1      46.300  24.602  25.308  1.00  0.00     0.135 A 
ATOM     82  C   UNL A   1      44.909  25.124  25.188  1.00  0.00     0.077 A 
ATOM     83  Cl  UNL A   1      44.641  26.806  25.194  1.00  0.00    -0.081 Cl
ENDBRANCH  72  74
ENDBRANCH  71  72
ENDBRANCH  70  71
ENDBRANCH   1  70
TORSDOF 11
ENDMDL
