MODEL 1
REMARK VINA RESULT:     -13.1      0.000      0.000
REMARK SMILES Cc1ccc2oc(C(=O)N[C@@H]3C=C[C@H](C(=O)OCCOC(=O)c4ccc(-c5c6nc(c(-c7c(F)c(F)c(F)c(F)c7F)c7ccc([nH]7)c(-c7c(F)c(F)c(F)c(F)c7F)c7nc(c(-c8c(F)c(F)c(F)c(F)c8F)c8ccc5[nH]8)C=C7)C=C6)cc4)C3)cc2c1
REMARK SMILES IDX 18 1 17 2 15 3 16 4 14 5 11 6 12 7 86 8 13 9 10 10 8 11 9 12
REMARK SMILES IDX 7 14 1 15 2 16 3 17 89 18 4 19 88 20 5 21 87 22 6 23 19 24
REMARK SMILES IDX 20 25 21 26 22 27 23 28 24 29 85 30 25 31 84 32 26 33 27 34
REMARK SMILES IDX 28 35 78 36 29 37 83 38 77 39 79 40 30 41 82 42 76 43 75 44
REMARK SMILES IDX 31 46 63 47 43 48 62 49 44 50 47 51 61 52 80 53 45 54 46 55
REMARK SMILES IDX 60 57 81 58 48 59 32 60 33 61 41 62 34 63 35 64 39 65 42 66
REMARK SMILES IDX 36 67 37 68 40 69 38 70 64 71 65 72 73 73 66 74 67 75 71 76
REMARK SMILES IDX 74 77 68 78 69 79 72 80 70 81 49 82 50 83 58 84 51 85 52 86
REMARK SMILES IDX 56 87 59 88 53 89 54 90 57 91 55 92
REMARK H PARENT 10 13 79 45 47 56
REMARK Flexibility Score: inf
ROOT
ATOM      1  C   UNL A   1      32.547  29.414  25.050  1.00  0.00     0.274 C 
ENDROOT
BRANCH   1   2
ATOM      2  O   UNL A   1      32.720  28.152  25.746  1.00  0.00    -0.462 OA
BRANCH   2   3
ATOM      3  C   UNL A   1      31.611  27.363  25.736  1.00  0.00     0.312 C 
ATOM      4  O   UNL A   1      31.126  26.884  26.755  1.00  0.00    -0.252 OA
BRANCH   3   5
ATOM      5  C   UNL A   1      31.050  27.083  24.332  1.00  0.00     0.124 C 
ATOM      6  C   UNL A   1      30.110  24.802  24.431  1.00  0.00     0.106 C 
ATOM      7  C   UNL A   1      31.349  24.837  23.617  1.00  0.00    -0.006 C 
ATOM      8  C   UNL A   1      29.735  26.293  24.465  1.00  0.00     0.048 C 
ATOM      9  C   UNL A   1      31.831  26.091  23.502  1.00  0.00    -0.014 C 
BRANCH   6  10
ATOM     10  N   UNL A   1      30.150  24.109  25.728  1.00  0.00    -0.343 N 
ATOM     11  C   UNL A   1      30.980  23.395  26.575  1.00  0.00     0.287 C 
ATOM     12  O   UNL A   1      30.427  23.032  27.621  1.00  0.00    -0.266 OA
ATOM     13  H   UNL A   1      29.261  24.178  26.146  1.00  0.00     0.164 HD
BRANCH  11  14
ATOM     14  C   UNL A   1      32.362  23.062  26.281  1.00  0.00     0.192 A 
ATOM     15  C   UNL A   1      37.735  20.762  24.933  1.00  0.00     0.044 C 
ATOM     16  C   UNL A   1      36.640  21.740  25.234  1.00  0.00    -0.050 A 
ATOM     17  C   UNL A   1      36.844  23.122  25.384  1.00  0.00     0.007 A 
ATOM     18  C   UNL A   1      35.362  21.218  25.397  1.00  0.00     0.015 A 
ATOM     19  C   UNL A   1      35.790  24.012  25.708  1.00  0.00     0.048 A 
ATOM     20  C   UNL A   1      34.328  22.087  25.735  1.00  0.00     0.021 A 
ATOM     21  C   UNL A   1      34.532  23.442  25.886  1.00  0.00     0.135 A 
ATOM     22  C   UNL A   1      32.979  21.884  25.966  1.00  0.00     0.065 A 
ATOM     23  O   UNL A   1      33.341  24.055  26.217  1.00  0.00    -0.451 OA
ENDBRANCH  11  14
ENDBRANCH   6  10
ENDBRANCH   3   5
ENDBRANCH   2   3
ENDBRANCH   1   2
BRANCH   1  24
ATOM     24  C   UNL A   1      31.798  30.456  25.890  1.00  0.00     0.275 C 
BRANCH  24  25
ATOM     25  O   UNL A   1      32.379  30.592  27.200  1.00  0.00    -0.458 OA
BRANCH  25  26
ATOM     26  C   UNL A   1      33.148  31.690  27.387  1.00  0.00     0.338 C 
ATOM     27  O   UNL A   1      32.777  32.852  27.389  1.00  0.00    -0.246 OA
BRANCH  26  28
ATOM     28  C   UNL A   1      34.547  31.326  27.704  1.00  0.00     0.060 A 
ATOM     29  C   UNL A   1      34.877  30.006  27.971  1.00  0.00     0.016 A 
ATOM     30  C   UNL A   1      35.483  32.326  27.966  1.00  0.00     0.016 A 
ATOM     31  C   UNL A   1      36.030  29.705  28.691  1.00  0.00     0.010 A 
ATOM     32  C   UNL A   1      36.721  31.995  28.536  1.00  0.00     0.010 A 
ATOM     33  C   UNL A   1      36.986  30.686  28.977  1.00  0.00    -0.014 A 
BRANCH  33  34
ATOM     34  C   UNL A   1      38.208  30.356  29.775  1.00  0.00     0.031 A 
ATOM     35  C   UNL A   1      39.291  29.486  29.181  1.00  0.00     0.074 A 
ATOM     36  C   UNL A   1      38.388  30.850  31.019  1.00  0.00     0.049 A 
ATOM     37  N   UNL A   1      40.278  28.863  29.776  1.00  0.00    -0.248 NA
ATOM     38  C   UNL A   1      39.248  29.273  27.724  1.00  0.00     0.031 C 
ATOM     39  C   UNL A   1      37.482  31.766  31.716  1.00  0.00     0.029 A 
ATOM     40  N   UNL A   1      39.409  30.661  31.921  1.00  0.00    -0.354 N 
ATOM     41  C   UNL A   1      40.907  28.112  28.790  1.00  0.00     0.074 A 
ATOM     42  C   UNL A   1      40.206  28.373  27.551  1.00  0.00     0.031 C 
ATOM     43  C   UNL A   1      38.015  32.111  32.895  1.00  0.00     0.029 A 
ATOM     44  C   UNL A   1      39.226  31.331  33.108  1.00  0.00     0.049 A 
ATOM     45  H   UNL A   1      40.197  30.100  31.735  1.00  0.00     0.167 HD
ATOM     46  C   UNL A   1      41.966  27.275  28.913  1.00  0.00     0.037 A 
ATOM     47  C   UNL A   1      39.902  31.273  34.270  1.00  0.00     0.037 A 
ATOM     48  C   UNL A   1      42.713  27.092  30.131  1.00  0.00     0.049 A 
ATOM     49  C   UNL A   1      41.054  30.318  34.396  1.00  0.00     0.074 A 
ATOM     50  C   UNL A   1      43.808  26.274  30.360  1.00  0.00     0.029 A 
ATOM     51  N   UNL A   1      42.460  27.761  31.319  1.00  0.00    -0.354 N 
ATOM     52  N   UNL A   1      41.568  29.522  33.492  1.00  0.00    -0.248 NA
ATOM     53  C   UNL A   1      41.693  30.228  35.715  1.00  0.00     0.031 C 
ATOM     54  C   UNL A   1      44.197  26.427  31.696  1.00  0.00     0.029 A 
ATOM     55  C   UNL A   1      43.373  27.371  32.287  1.00  0.00     0.049 A 
ATOM     56  H   UNL A   1      41.739  28.417  31.455  1.00  0.00     0.167 HD
ATOM     57  C   UNL A   1      42.593  28.838  34.129  1.00  0.00     0.074 A 
ATOM     58  C   UNL A   1      42.644  29.332  35.489  1.00  0.00     0.031 C 
ATOM     59  C   UNL A   1      43.411  27.878  33.633  1.00  0.00     0.037 A 
BRANCH  46  60
ATOM     60  C   UNL A   1      42.353  26.450  27.717  1.00  0.00     0.064 A 
ATOM     61  C   UNL A   1      43.367  26.840  26.833  1.00  0.00     0.173 A 
ATOM     62  C   UNL A   1      41.715  25.221  27.481  1.00  0.00     0.173 A 
ATOM     63  F   UNL A   1      44.000  28.010  27.005  1.00  0.00    -0.203 F 
ATOM     64  C   UNL A   1      43.713  26.042  25.743  1.00  0.00     0.198 A 
ATOM     65  C   UNL A   1      42.082  24.413  26.407  1.00  0.00     0.198 A 
ATOM     66  F   UNL A   1      40.741  24.796  28.300  1.00  0.00    -0.203 F 
ATOM     67  F   UNL A   1      44.655  26.456  24.885  1.00  0.00    -0.200 F 
ATOM     68  C   UNL A   1      43.076  24.828  25.536  1.00  0.00     0.200 A 
ATOM     69  F   UNL A   1      41.473  23.234  26.219  1.00  0.00    -0.200 F 
ATOM     70  F   UNL A   1      43.415  24.060  24.491  1.00  0.00    -0.200 F 
ENDBRANCH  46  60
BRANCH  47  71
ATOM     71  C   UNL A   1      39.453  32.091  35.429  1.00  0.00     0.064 A 
ATOM     72  C   UNL A   1      38.584  31.563  36.392  1.00  0.00     0.173 A 
ATOM     73  C   UNL A   1      39.899  33.411  35.608  1.00  0.00     0.173 A 
ATOM     74  F   UNL A   1      38.105  30.317  36.249  1.00  0.00    -0.203 F 
ATOM     75  C   UNL A   1      38.176  32.322  37.487  1.00  0.00     0.198 A 
ATOM     76  C   UNL A   1      39.520  34.156  36.721  1.00  0.00     0.198 A 
ATOM     77  F   UNL A   1      40.729  33.966  34.712  1.00  0.00    -0.203 F 
ATOM     78  F   UNL A   1      37.313  31.806  38.372  1.00  0.00    -0.200 F 
ATOM     79  C   UNL A   1      38.654  33.613  37.657  1.00  0.00     0.200 A 
ATOM     80  F   UNL A   1      39.997  35.396  36.888  1.00  0.00    -0.200 F 
ATOM     81  F   UNL A   1      38.273  34.336  38.719  1.00  0.00    -0.200 F 
ENDBRANCH  47  71
BRANCH  59  82
ATOM     82  C   UNL A   1      44.453  27.330  34.560  1.00  0.00     0.064 A 
ATOM     83  C   UNL A   1      45.704  27.947  34.704  1.00  0.00     0.173 A 
ATOM     84  C   UNL A   1      44.188  26.185  35.327  1.00  0.00     0.173 A 
ATOM     85  F   UNL A   1      46.010  29.032  33.977  1.00  0.00    -0.203 F 
ATOM     86  C   UNL A   1      46.663  27.422  35.566  1.00  0.00     0.198 A 
ATOM     87  C   UNL A   1      45.140  25.679  36.206  1.00  0.00     0.198 A 
ATOM     88  F   UNL A   1      43.005  25.563  35.225  1.00  0.00    -0.203 F 
ATOM     89  F   UNL A   1      47.869  27.999  35.654  1.00  0.00    -0.200 F 
ATOM     90  C   UNL A   1      46.378  26.293  36.320  1.00  0.00     0.200 A 
ATOM     91  F   UNL A   1      44.861  24.594  36.941  1.00  0.00    -0.200 F 
ATOM     92  F   UNL A   1      47.303  25.790  37.150  1.00  0.00    -0.200 F 
ENDBRANCH  59  82
ENDBRANCH  33  34
ENDBRANCH  26  28
ENDBRANCH  25  26
ENDBRANCH  24  25
ENDBRANCH   1  24
TORSDOF 13
ENDMDL
MODEL 2
REMARK VINA RESULT:     -13.0      1.138      2.257
REMARK SMILES Cc1ccc2oc(C(=O)N[C@@H]3C=C[C@H](C(=O)OCCOC(=O)c4ccc(-c5c6nc(c(-c7c(F)c(F)c(F)c(F)c7F)c7ccc([nH]7)c(-c7c(F)c(F)c(F)c(F)c7F)c7nc(c(-c8c(F)c(F)c(F)c(F)c8F)c8ccc5[nH]8)C=C7)C=C6)cc4)C3)cc2c1
REMARK SMILES IDX 18 1 17 2 15 3 16 4 14 5 11 6 12 7 86 8 13 9 10 10 8 11 9 12
REMARK SMILES IDX 7 14 1 15 2 16 3 17 89 18 4 19 88 20 5 21 87 22 6 23 19 24
REMARK SMILES IDX 20 25 21 26 22 27 23 28 24 29 85 30 25 31 84 32 26 33 27 34
REMARK SMILES IDX 28 35 78 36 29 37 83 38 77 39 79 40 30 41 82 42 76 43 75 44
REMARK SMILES IDX 31 46 63 47 43 48 62 49 44 50 47 51 61 52 80 53 45 54 46 55
REMARK SMILES IDX 60 57 81 58 48 59 32 60 33 61 41 62 34 63 35 64 39 65 42 66
REMARK SMILES IDX 36 67 37 68 40 69 38 70 64 71 65 72 73 73 66 74 67 75 71 76
REMARK SMILES IDX 74 77 68 78 69 79 72 80 70 81 49 82 50 83 58 84 51 85 52 86
REMARK SMILES IDX 56 87 59 88 53 89 54 90 57 91 55 92
REMARK H PARENT 10 13 79 45 47 56
REMARK Flexibility Score: inf
ROOT
ATOM      1  C   UNL A   1      32.673  29.392  24.936  1.00  0.00     0.274 C 
ENDROOT
BRANCH   1   2
ATOM      2  O   UNL A   1      32.027  28.120  24.675  1.00  0.00    -0.462 OA
BRANCH   2   3
ATOM      3  C   UNL A   1      32.779  27.040  25.025  1.00  0.00     0.312 C 
ATOM      4  O   UNL A   1      33.870  26.797  24.521  1.00  0.00    -0.252 OA
BRANCH   3   5
ATOM      5  C   UNL A   1      32.119  26.126  26.071  1.00  0.00     0.124 C 
ATOM      6  C   UNL A   1      32.242  23.844  25.136  1.00  0.00     0.106 C 
ATOM      7  C   UNL A   1      30.851  24.356  25.123  1.00  0.00    -0.006 C 
ATOM      8  C   UNL A   1      32.901  24.802  26.144  1.00  0.00     0.048 C 
ATOM      9  C   UNL A   1      30.765  25.574  25.694  1.00  0.00    -0.014 C 
BRANCH   6  10
ATOM     10  N   UNL A   1      32.933  23.677  23.848  1.00  0.00    -0.343 N 
ATOM     11  C   UNL A   1      34.159  23.369  23.283  1.00  0.00     0.287 C 
ATOM     12  O   UNL A   1      34.149  23.374  22.045  1.00  0.00    -0.266 OA
ATOM     13  H   UNL A   1      32.288  23.846  23.123  1.00  0.00     0.164 HD
BRANCH  11  14
ATOM     14  C   UNL A   1      35.365  23.090  24.041  1.00  0.00     0.192 A 
ATOM     15  C   UNL A   1      40.321  21.050  26.735  1.00  0.00     0.044 C 
ATOM     16  C   UNL A   1      39.232  21.964  26.259  1.00  0.00    -0.050 A 
ATOM     17  C   UNL A   1      39.106  23.305  26.659  1.00  0.00     0.007 A 
ATOM     18  C   UNL A   1      38.290  21.419  25.393  1.00  0.00     0.015 A 
ATOM     19  C   UNL A   1      38.040  24.129  26.219  1.00  0.00     0.048 A 
ATOM     20  C   UNL A   1      37.232  22.221  24.975  1.00  0.00     0.021 A 
ATOM     21  C   UNL A   1      37.108  23.535  25.374  1.00  0.00     0.135 A 
ATOM     22  C   UNL A   1      36.155  21.980  24.140  1.00  0.00     0.065 A 
ATOM     23  O   UNL A   1      35.974  24.083  24.809  1.00  0.00    -0.451 OA
ENDBRANCH  11  14
ENDBRANCH   6  10
ENDBRANCH   3   5
ENDBRANCH   2   3
ENDBRANCH   1   2
BRANCH   1  24
ATOM     24  C   UNL A   1      31.854  30.292  25.870  1.00  0.00     0.275 C 
BRANCH  24  25
ATOM     25  O   UNL A   1      32.480  30.419  27.160  1.00  0.00    -0.458 OA
BRANCH  25  26
ATOM     26  C   UNL A   1      33.215  31.541  27.344  1.00  0.00     0.338 C 
ATOM     27  O   UNL A   1      32.812  32.692  27.326  1.00  0.00    -0.246 OA
BRANCH  26  28
ATOM     28  C   UNL A   1      34.619  31.220  27.687  1.00  0.00     0.060 A 
ATOM     29  C   UNL A   1      34.985  29.910  27.957  1.00  0.00     0.016 A 
ATOM     30  C   UNL A   1      35.517  32.248  27.969  1.00  0.00     0.016 A 
ATOM     31  C   UNL A   1      36.134  29.644  28.699  1.00  0.00     0.010 A 
ATOM     32  C   UNL A   1      36.754  31.955  28.561  1.00  0.00     0.010 A 
ATOM     33  C   UNL A   1      37.052  30.654  29.004  1.00  0.00    -0.014 A 
BRANCH  33  34
ATOM     34  C   UNL A   1      38.269  30.360  29.825  1.00  0.00     0.031 A 
ATOM     35  C   UNL A   1      39.411  29.567  29.232  1.00  0.00     0.074 A 
ATOM     36  C   UNL A   1      38.390  30.820  31.088  1.00  0.00     0.049 A 
ATOM     37  N   UNL A   1      40.413  28.976  29.834  1.00  0.00    -0.248 NA
ATOM     38  C   UNL A   1      39.417  29.401  27.769  1.00  0.00     0.031 C 
ATOM     39  C   UNL A   1      37.421  31.664  31.789  1.00  0.00     0.029 A 
ATOM     40  N   UNL A   1      39.397  30.653  32.011  1.00  0.00    -0.354 N 
ATOM     41  C   UNL A   1      41.106  28.292  28.841  1.00  0.00     0.074 A 
ATOM     42  C   UNL A   1      40.425  28.558  27.593  1.00  0.00     0.031 C 
ATOM     43  C   UNL A   1      37.905  31.996  32.993  1.00  0.00     0.029 A 
ATOM     44  C   UNL A   1      39.149  31.272  33.214  1.00  0.00     0.049 A 
ATOM     45  H   UNL A   1      40.217  30.140  31.829  1.00  0.00     0.167 HD
ATOM     46  C   UNL A   1      42.203  27.506  28.967  1.00  0.00     0.037 A 
ATOM     47  C   UNL A   1      39.797  31.210  34.391  1.00  0.00     0.037 A 
ATOM     48  C   UNL A   1      42.928  27.321  30.198  1.00  0.00     0.049 A 
ATOM     49  C   UNL A   1      40.993  30.312  34.518  1.00  0.00     0.074 A 
ATOM     50  C   UNL A   1      44.057  26.554  30.431  1.00  0.00     0.029 A 
ATOM     51  N   UNL A   1      42.609  27.936  31.400  1.00  0.00    -0.354 N 
ATOM     52  N   UNL A   1      41.571  29.574  33.603  1.00  0.00    -0.248 NA
ATOM     53  C   UNL A   1      41.602  30.209  35.850  1.00  0.00     0.031 C 
ATOM     54  C   UNL A   1      44.403  26.680  31.780  1.00  0.00     0.029 A 
ATOM     55  C   UNL A   1      43.517  27.561  32.379  1.00  0.00     0.049 A 
ATOM     56  H   UNL A   1      41.852  28.549  31.537  1.00  0.00     0.167 HD
ATOM     57  C   UNL A   1      42.614  28.922  34.246  1.00  0.00     0.074 A 
ATOM     58  C   UNL A   1      42.604  29.372  35.622  1.00  0.00     0.031 C 
ATOM     59  C   UNL A   1      43.493  28.023  33.741  1.00  0.00     0.037 A 
BRANCH  46  60
ATOM     60  C   UNL A   1      42.664  26.744  27.756  1.00  0.00     0.064 A 
ATOM     61  C   UNL A   1      43.540  27.293  26.811  1.00  0.00     0.173 A 
ATOM     62  C   UNL A   1      42.245  25.417  27.566  1.00  0.00     0.173 A 
ATOM     63  F   UNL A   1      43.960  28.561  26.936  1.00  0.00    -0.203 F 
ATOM     64  C   UNL A   1      43.961  26.552  25.707  1.00  0.00     0.198 A 
ATOM     65  C   UNL A   1      42.689  24.669  26.478  1.00  0.00     0.198 A 
ATOM     66  F   UNL A   1      41.412  24.838  28.444  1.00  0.00    -0.203 F 
ATOM     67  F   UNL A   1      44.763  27.113  24.792  1.00  0.00    -0.200 F 
ATOM     68  C   UNL A   1      43.541  25.240  25.546  1.00  0.00     0.200 A 
ATOM     69  F   UNL A   1      42.293  23.397  26.334  1.00  0.00    -0.200 F 
ATOM     70  F   UNL A   1      43.953  24.527  24.488  1.00  0.00    -0.200 F 
ENDBRANCH  46  60
BRANCH  47  71
ATOM     71  C   UNL A   1      39.276  31.964  35.564  1.00  0.00     0.064 A 
ATOM     72  C   UNL A   1      39.597  33.313  35.756  1.00  0.00     0.173 A 
ATOM     73  C   UNL A   1      38.430  31.355  36.506  1.00  0.00     0.173 A 
ATOM     74  F   UNL A   1      40.427  33.931  34.901  1.00  0.00    -0.203 F 
ATOM     75  C   UNL A   1      39.096  34.025  36.844  1.00  0.00     0.198 A 
ATOM     76  C   UNL A   1      37.901  32.076  37.573  1.00  0.00     0.198 A 
ATOM     77  F   UNL A   1      38.095  30.063  36.372  1.00  0.00    -0.203 F 
ATOM     78  F   UNL A   1      39.451  35.304  37.025  1.00  0.00    -0.200 F 
ATOM     79  C   UNL A   1      38.239  33.409  37.744  1.00  0.00     0.200 A 
ATOM     80  F   UNL A   1      37.061  31.481  38.430  1.00  0.00    -0.200 F 
ATOM     81  F   UNL A   1      37.746  34.099  38.782  1.00  0.00    -0.200 F 
ENDBRANCH  47  71
BRANCH  59  82
ATOM     82  C   UNL A   1      44.539  27.498  34.679  1.00  0.00     0.064 A 
ATOM     83  C   UNL A   1      44.344  26.315  35.405  1.00  0.00     0.173 A 
ATOM     84  C   UNL A   1      45.755  28.178  34.837  1.00  0.00     0.173 A 
ATOM     85  F   UNL A   1      43.189  25.640  35.302  1.00  0.00    -0.203 F 
ATOM     86  C   UNL A   1      45.323  25.843  36.276  1.00  0.00     0.198 A 
ATOM     87  C   UNL A   1      46.741  27.690  35.688  1.00  0.00     0.198 A 
ATOM     88  F   UNL A   1      45.987  29.314  34.161  1.00  0.00    -0.203 F 
ATOM     89  F   UNL A   1      45.099  24.736  36.996  1.00  0.00    -0.200 F 
ATOM     90  C   UNL A   1      46.521  26.528  36.412  1.00  0.00     0.200 A 
ATOM     91  F   UNL A   1      47.902  28.347  35.812  1.00  0.00    -0.200 F 
ATOM     92  F   UNL A   1      47.463  26.072  37.250  1.00  0.00    -0.200 F 
ENDBRANCH  59  82
ENDBRANCH  33  34
ENDBRANCH  26  28
ENDBRANCH  25  26
ENDBRANCH  24  25
ENDBRANCH   1  24
TORSDOF 13
ENDMDL
MODEL 3
REMARK VINA RESULT:     -13.0      4.180      9.782
REMARK SMILES Cc1ccc2oc(C(=O)N[C@@H]3C=C[C@H](C(=O)OCCOC(=O)c4ccc(-c5c6nc(c(-c7c(F)c(F)c(F)c(F)c7F)c7ccc([nH]7)c(-c7c(F)c(F)c(F)c(F)c7F)c7nc(c(-c8c(F)c(F)c(F)c(F)c8F)c8ccc5[nH]8)C=C7)C=C6)cc4)C3)cc2c1
REMARK SMILES IDX 18 1 17 2 15 3 16 4 14 5 11 6 12 7 86 8 13 9 10 10 8 11 9 12
REMARK SMILES IDX 7 14 1 15 2 16 3 17 89 18 4 19 88 20 5 21 87 22 6 23 19 24
REMARK SMILES IDX 20 25 21 26 22 27 23 28 24 29 85 30 25 31 84 32 26 33 27 34
REMARK SMILES IDX 28 35 78 36 29 37 83 38 77 39 79 40 30 41 82 42 76 43 75 44
REMARK SMILES IDX 31 46 63 47 43 48 62 49 44 50 47 51 61 52 80 53 45 54 46 55
REMARK SMILES IDX 60 57 81 58 48 59 32 60 33 61 41 62 34 63 35 64 39 65 42 66
REMARK SMILES IDX 36 67 37 68 40 69 38 70 64 71 65 72 73 73 66 74 67 75 71 76
REMARK SMILES IDX 74 77 68 78 69 79 72 80 70 81 49 82 50 83 58 84 51 85 52 86
REMARK SMILES IDX 56 87 59 88 53 89 54 90 57 91 55 92
REMARK H PARENT 10 13 79 45 47 56
REMARK Flexibility Score: inf
ROOT
ATOM      1  C   UNL A   1      35.528  21.218  25.789  1.00  0.00     0.274 C 
ENDROOT
BRANCH   1   2
ATOM      2  O   UNL A   1      35.151  22.546  25.344  1.00  0.00    -0.462 OA
BRANCH   2   3
ATOM      3  C   UNL A   1      34.340  22.550  24.251  1.00  0.00     0.312 C 
ATOM      4  O   UNL A   1      34.719  22.914  23.143  1.00  0.00    -0.252 OA
BRANCH   3   5
ATOM      5  C   UNL A   1      32.896  22.105  24.537  1.00  0.00     0.124 C 
ATOM      6  C   UNL A   1      31.482  23.375  22.961  1.00  0.00     0.106 C 
ATOM      7  C   UNL A   1      31.306  23.860  24.350  1.00  0.00    -0.006 C 
ATOM      8  C   UNL A   1      32.130  22.002  23.205  1.00  0.00     0.048 C 
ATOM      9  C   UNL A   1      32.022  23.127  25.226  1.00  0.00    -0.014 C 
BRANCH   6  10
ATOM     10  N   UNL A   1      32.163  24.256  21.999  1.00  0.00    -0.343 N 
ATOM     11  C   UNL A   1      32.728  25.512  21.858  1.00  0.00     0.287 C 
ATOM     12  O   UNL A   1      33.192  25.723  20.730  1.00  0.00    -0.266 OA
ATOM     13  H   UNL A   1      32.248  23.777  21.142  1.00  0.00     0.164 HD
BRANCH  11  14
ATOM     14  C   UNL A   1      32.761  26.520  22.903  1.00  0.00     0.192 A 
ATOM     15  C   UNL A   1      33.817  30.347  27.399  1.00  0.00     0.044 C 
ATOM     16  C   UNL A   1      33.172  29.669  26.227  1.00  0.00    -0.050 A 
ATOM     17  C   UNL A   1      31.910  30.019  25.717  1.00  0.00     0.007 A 
ATOM     18  C   UNL A   1      33.875  28.619  25.647  1.00  0.00     0.015 A 
ATOM     19  C   UNL A   1      31.315  29.330  24.632  1.00  0.00     0.048 A 
ATOM     20  C   UNL A   1      33.283  27.927  24.593  1.00  0.00     0.021 A 
ATOM     21  C   UNL A   1      32.042  28.269  24.099  1.00  0.00     0.135 A 
ATOM     22  C   UNL A   1      33.710  26.859  23.825  1.00  0.00     0.065 A 
ATOM     23  O   UNL A   1      31.708  27.421  23.063  1.00  0.00    -0.451 OA
ENDBRANCH  11  14
ENDBRANCH   6  10
ENDBRANCH   3   5
ENDBRANCH   2   3
ENDBRANCH   1   2
BRANCH   1  24
ATOM     24  C   UNL A   1      36.703  20.637  24.995  1.00  0.00     0.275 C 
BRANCH  24  25
ATOM     25  O   UNL A   1      37.806  21.560  24.937  1.00  0.00    -0.458 OA
BRANCH  25  26
ATOM     26  C   UNL A   1      38.851  21.273  25.748  1.00  0.00     0.338 C 
ATOM     27  O   UNL A   1      39.445  20.211  25.830  1.00  0.00    -0.246 OA
BRANCH  26  28
ATOM     28  C   UNL A   1      39.298  22.466  26.501  1.00  0.00     0.060 A 
ATOM     29  C   UNL A   1      38.802  23.720  26.174  1.00  0.00     0.016 A 
ATOM     30  C   UNL A   1      40.381  22.373  27.373  1.00  0.00     0.016 A 
ATOM     31  C   UNL A   1      39.507  24.867  26.529  1.00  0.00     0.010 A 
ATOM     32  C   UNL A   1      40.984  23.538  27.870  1.00  0.00     0.010 A 
ATOM     33  C   UNL A   1      40.603  24.806  27.397  1.00  0.00    -0.014 A 
BRANCH  33  34
ATOM     34  C   UNL A   1      41.369  26.042  27.750  1.00  0.00     0.031 A 
ATOM     35  C   UNL A   1      40.740  27.102  28.624  1.00  0.00     0.074 A 
ATOM     36  C   UNL A   1      42.640  26.223  27.331  1.00  0.00     0.049 A 
ATOM     37  N   UNL A   1      41.109  28.344  28.822  1.00  0.00    -0.248 NA
ATOM     38  C   UNL A   1      39.523  26.721  29.359  1.00  0.00     0.031 C 
ATOM     39  C   UNL A   1      43.427  25.269  26.546  1.00  0.00     0.029 A 
ATOM     40  N   UNL A   1      43.506  27.275  27.519  1.00  0.00    -0.354 N 
ATOM     41  C   UNL A   1      40.122  28.913  29.619  1.00  0.00     0.074 A 
ATOM     42  C   UNL A   1      39.148  27.878  29.887  1.00  0.00     0.031 C 
ATOM     43  C   UNL A   1      44.669  25.743  26.381  1.00  0.00     0.029 A 
ATOM     44  C   UNL A   1      44.729  27.096  26.917  1.00  0.00     0.049 A 
ATOM     45  H   UNL A   1      43.273  28.080  28.037  1.00  0.00     0.167 HD
ATOM     46  C   UNL A   1      40.035  30.187  30.072  1.00  0.00     0.037 A 
ATOM     47  C   UNL A   1      45.761  27.941  26.739  1.00  0.00     0.037 A 
ATOM     48  C   UNL A   1      41.055  31.186  29.876  1.00  0.00     0.049 A 
ATOM     49  C   UNL A   1      45.634  29.357  27.223  1.00  0.00     0.074 A 
ATOM     50  C   UNL A   1      41.069  32.504  30.302  1.00  0.00     0.029 A 
ATOM     51  N   UNL A   1      42.257  30.966  29.219  1.00  0.00    -0.354 N 
ATOM     52  N   UNL A   1      44.646  29.922  27.871  1.00  0.00    -0.248 NA
ATOM     53  C   UNL A   1      46.750  30.260  26.917  1.00  0.00     0.031 C 
ATOM     54  C   UNL A   1      42.267  33.089  29.877  1.00  0.00     0.029 A 
ATOM     55  C   UNL A   1      43.018  32.126  29.224  1.00  0.00     0.049 A 
ATOM     56  H   UNL A   1      42.530  30.113  28.812  1.00  0.00     0.167 HD
ATOM     57  C   UNL A   1      45.020  31.245  28.054  1.00  0.00     0.074 A 
ATOM     58  C   UNL A   1      46.338  31.391  27.471  1.00  0.00     0.031 C 
ATOM     59  C   UNL A   1      44.329  32.250  28.643  1.00  0.00     0.037 A 
BRANCH  46  60
ATOM     60  C   UNL A   1      38.776  30.596  30.784  1.00  0.00     0.064 A 
ATOM     61  C   UNL A   1      38.668  30.596  32.180  1.00  0.00     0.173 A 
ATOM     62  C   UNL A   1      37.667  31.036  30.042  1.00  0.00     0.173 A 
ATOM     63  F   UNL A   1      39.691  30.173  32.936  1.00  0.00    -0.203 F 
ATOM     64  C   UNL A   1      37.489  30.998  32.808  1.00  0.00     0.198 A 
ATOM     65  C   UNL A   1      36.501  31.464  30.672  1.00  0.00     0.198 A 
ATOM     66  F   UNL A   1      37.718  31.064  28.701  1.00  0.00    -0.203 F 
ATOM     67  F   UNL A   1      37.393  30.946  34.144  1.00  0.00    -0.200 F 
ATOM     68  C   UNL A   1      36.411  31.437  32.055  1.00  0.00     0.200 A 
ATOM     69  F   UNL A   1      35.466  31.901  29.941  1.00  0.00    -0.200 F 
ATOM     70  F   UNL A   1      35.282  31.830  32.661  1.00  0.00    -0.200 F 
ENDBRANCH  46  60
BRANCH  47  71
ATOM     71  C   UNL A   1      46.970  27.489  26.000  1.00  0.00     0.064 A 
ATOM     72  C   UNL A   1      47.062  27.629  24.610  1.00  0.00     0.173 A 
ATOM     73  C   UNL A   1      48.067  26.923  26.672  1.00  0.00     0.173 A 
ATOM     74  F   UNL A   1      46.028  28.134  23.919  1.00  0.00    -0.203 F 
ATOM     75  C   UNL A   1      48.201  27.222  23.919  1.00  0.00     0.198 A 
ATOM     76  C   UNL A   1      49.219  26.549  25.985  1.00  0.00     0.198 A 
ATOM     77  F   UNL A   1      48.028  26.762  28.003  1.00  0.00    -0.203 F 
ATOM     78  F   UNL A   1      48.247  27.331  22.585  1.00  0.00    -0.200 F 
ATOM     79  C   UNL A   1      49.283  26.693  24.609  1.00  0.00     0.200 A 
ATOM     80  F   UNL A   1      50.266  26.055  26.658  1.00  0.00    -0.200 F 
ATOM     81  F   UNL A   1      50.384  26.316  23.944  1.00  0.00    -0.200 F 
ENDBRANCH  47  71
BRANCH  59  82
ATOM     82  C   UNL A   1      45.005  33.586  28.717  1.00  0.00     0.064 A 
ATOM     83  C   UNL A   1      44.812  34.560  27.727  1.00  0.00     0.173 A 
ATOM     84  C   UNL A   1      45.839  33.900  29.800  1.00  0.00     0.173 A 
ATOM     85  F   UNL A   1      44.039  34.299  26.663  1.00  0.00    -0.203 F 
ATOM     86  C   UNL A   1      45.452  35.794  27.807  1.00  0.00     0.198 A 
ATOM     87  C   UNL A   1      46.456  35.143  29.890  1.00  0.00     0.198 A 
ATOM     88  F   UNL A   1      46.051  33.000  30.772  1.00  0.00    -0.203 F 
ATOM     89  F   UNL A   1      45.293  36.694  26.827  1.00  0.00    -0.200 F 
ATOM     90  C   UNL A   1      46.267  36.086  28.890  1.00  0.00     0.200 A 
ATOM     91  F   UNL A   1      47.236  35.428  30.941  1.00  0.00    -0.200 F 
ATOM     92  F   UNL A   1      46.882  37.275  28.966  1.00  0.00    -0.200 F 
ENDBRANCH  59  82
ENDBRANCH  33  34
ENDBRANCH  26  28
ENDBRANCH  25  26
ENDBRANCH  24  25
ENDBRANCH   1  24
TORSDOF 13
ENDMDL
