MODEL 1
REMARK VINA RESULT:     -12.5      0.000      0.000
REMARK SMILES Cc1cccc(NC(=O)C[C@H]([NH2+]C(C)C)C(=O)OCCOC(=O)c2ccc(-c3c4nc(c(-c5c(F)c(F)c(F)c(F)c5F)c5ccc([nH]5)c(-c5c(F)c(F)c(F)c(F)c5F)c5nc(c(-c6c(F)c(F)c(F)c(F)c6F)c6ccc3[nH]6)C=C5)C=C4)cc2)c1
REMARK SMILES IDX 19 1 18 2 16 3 17 4 11 5 10 6 8 7 7 8 9 10 6 11 1 12 2 13
REMARK SMILES IDX 3 14 87 15 4 16 5 17 12 18 13 21 14 22 15 23 20 24 21 25
REMARK SMILES IDX 22 26 23 27 24 28 25 29 86 30 26 31 85 32 27 33 28 34 29 35
REMARK SMILES IDX 79 36 30 37 84 38 78 39 80 40 31 41 83 42 77 43 76 44 32 46
REMARK SMILES IDX 64 47 44 48 63 49 45 50 48 51 62 52 81 53 46 54 47 55 61 57
REMARK SMILES IDX 82 58 49 59 33 60 34 61 42 62 35 63 36 64 40 65 43 66 37 67
REMARK SMILES IDX 38 68 41 69 39 70 65 71 66 72 74 73 67 74 68 75 72 76 75 77
REMARK SMILES IDX 69 78 70 79 73 80 71 81 50 82 51 83 59 84 52 85 53 86 57 87
REMARK SMILES IDX 60 88 54 89 55 90 58 91 56 92
REMARK H PARENT 7 9 12 19 12 20 80 45 48 56
REMARK Flexibility Score: inf
ROOT
ATOM      1  C   UNL A   1      31.728  29.975  25.428  1.00  0.00     0.274 C 
ENDROOT
BRANCH   1   2
ATOM      2  O   UNL A   1      32.963  29.416  24.951  1.00  0.00    -0.458 OA
BRANCH   2   3
ATOM      3  C   UNL A   1      33.116  28.080  25.001  1.00  0.00     0.365 C 
ATOM      4  O   UNL A   1      33.563  27.572  26.015  1.00  0.00    -0.245 OA
BRANCH   3   5
ATOM      5  C   UNL A   1      32.565  27.231  23.834  1.00  0.00     0.303 C 
BRANCH   5   6
ATOM      6  C   UNL A   1      33.513  26.131  23.282  1.00  0.00     0.177 C 
BRANCH   6   7
ATOM      7  C   UNL A   1      33.092  25.421  22.028  1.00  0.00     0.231 C 
ATOM      8  N   UNL A   1      32.347  24.284  22.089  1.00  0.00    -0.326 N 
ATOM      9  H   UNL A   1      31.913  24.067  21.231  1.00  0.00     0.169 HD
ATOM     10  O   UNL A   1      33.278  25.956  20.931  1.00  0.00    -0.274 OA
BRANCH   8  11
ATOM     11  C   UNL A   1      32.054  23.348  23.096  1.00  0.00     0.041 A 
ATOM     12  C   UNL A   1      30.277  23.446  26.492  1.00  0.00     0.044 C 
ATOM     13  C   UNL A   1      31.088  22.975  25.318  1.00  0.00    -0.049 A 
ATOM     14  C   UNL A   1      31.788  21.771  25.377  1.00  0.00     0.003 A 
ATOM     15  C   UNL A   1      31.237  23.763  24.175  1.00  0.00     0.029 A 
ATOM     16  C   UNL A   1      32.537  21.329  24.282  1.00  0.00     0.002 A 
ATOM     17  C   UNL A   1      32.640  22.098  23.127  1.00  0.00     0.026 A 
ENDBRANCH   8  11
ENDBRANCH   6   7
ENDBRANCH   5   6
BRANCH   5  18
ATOM     18  N   UNL A   1      32.059  27.915  22.618  1.00  0.00    -0.332 N 
ATOM     19  H   UNL A   1      32.485  27.450  21.815  1.00  0.00     0.347 HD
ATOM     20  H   UNL A   1      32.310  28.892  22.765  1.00  0.00     0.347 HD
BRANCH  18  21
ATOM     21  C   UNL A   1      30.627  27.954  22.378  1.00  0.00     0.176 C 
ATOM     22  C   UNL A   1      29.941  27.210  23.516  1.00  0.00     0.075 C 
ATOM     23  C   UNL A   1      30.077  29.378  22.279  1.00  0.00     0.075 C 
ENDBRANCH  18  21
ENDBRANCH   5  18
ENDBRANCH   3   5
ENDBRANCH   2   3
ENDBRANCH   1   2
BRANCH   1  24
ATOM     24  C   UNL A   1      31.992  30.772  26.714  1.00  0.00     0.275 C 
BRANCH  24  25
ATOM     25  O   UNL A   1      33.330  30.752  27.289  1.00  0.00    -0.458 OA
BRANCH  25  26
ATOM     26  C   UNL A   1      33.950  31.892  27.691  1.00  0.00     0.338 C 
ATOM     27  O   UNL A   1      33.390  32.963  27.885  1.00  0.00    -0.246 OA
BRANCH  26  28
ATOM     28  C   UNL A   1      35.407  31.654  27.874  1.00  0.00     0.060 A 
ATOM     29  C   UNL A   1      36.320  32.686  28.187  1.00  0.00     0.016 A 
ATOM     30  C   UNL A   1      35.786  30.330  28.033  1.00  0.00     0.016 A 
ATOM     31  C   UNL A   1      37.582  32.371  28.751  1.00  0.00     0.010 A 
ATOM     32  C   UNL A   1      36.880  30.056  28.815  1.00  0.00     0.010 A 
ATOM     33  C   UNL A   1      37.850  31.043  29.113  1.00  0.00    -0.014 A 
BRANCH  33  34
ATOM     34  C   UNL A   1      39.152  30.428  29.474  1.00  0.00     0.031 A 
ATOM     35  C   UNL A   1      39.716  29.140  28.961  1.00  0.00     0.074 A 
ATOM     36  C   UNL A   1      39.860  31.344  30.174  1.00  0.00     0.049 A 
ATOM     37  N   UNL A   1      39.995  28.055  29.631  1.00  0.00    -0.248 NA
ATOM     38  C   UNL A   1      40.004  28.970  27.529  1.00  0.00     0.031 C 
ATOM     39  C   UNL A   1      41.260  31.485  30.474  1.00  0.00     0.029 A 
ATOM     40  N   UNL A   1      39.283  32.450  30.841  1.00  0.00    -0.354 N 
ATOM     41  C   UNL A   1      40.685  27.239  28.718  1.00  0.00     0.074 A 
ATOM     42  C   UNL A   1      40.221  27.656  27.425  1.00  0.00     0.031 C 
ATOM     43  C   UNL A   1      41.376  32.319  31.530  1.00  0.00     0.029 A 
ATOM     44  C   UNL A   1      40.028  32.666  31.983  1.00  0.00     0.049 A 
ATOM     45  H   UNL A   1      38.499  32.967  30.546  1.00  0.00     0.167 HD
ATOM     46  C   UNL A   1      42.023  26.937  28.870  1.00  0.00     0.037 A 
ATOM     47  C   UNL A   1      39.400  32.341  33.148  1.00  0.00     0.037 A 
ATOM     48  C   UNL A   1      42.581  27.733  29.941  1.00  0.00     0.049 A 
ATOM     49  C   UNL A   1      40.087  31.153  33.752  1.00  0.00     0.074 A 
ATOM     50  C   UNL A   1      43.404  28.846  29.965  1.00  0.00     0.029 A 
ATOM     51  N   UNL A   1      42.032  27.624  31.199  1.00  0.00    -0.354 N 
ATOM     52  N   UNL A   1      40.692  30.223  33.068  1.00  0.00    -0.248 NA
ATOM     53  C   UNL A   1      40.258  31.014  35.184  1.00  0.00     0.031 C 
ATOM     54  C   UNL A   1      43.435  29.334  31.297  1.00  0.00     0.029 A 
ATOM     55  C   UNL A   1      42.581  28.549  32.050  1.00  0.00     0.049 A 
ATOM     56  H   UNL A   1      41.341  26.970  31.452  1.00  0.00     0.167 HD
ATOM     57  C   UNL A   1      41.431  29.442  33.923  1.00  0.00     0.074 A 
ATOM     58  C   UNL A   1      41.110  29.977  35.233  1.00  0.00     0.031 C 
ATOM     59  C   UNL A   1      42.256  28.454  33.458  1.00  0.00     0.037 A 
BRANCH  46  60
ATOM     60  C   UNL A   1      42.905  26.289  27.792  1.00  0.00     0.064 A 
ATOM     61  C   UNL A   1      43.547  27.054  26.789  1.00  0.00     0.173 A 
ATOM     62  C   UNL A   1      43.181  24.905  27.728  1.00  0.00     0.173 A 
ATOM     63  F   UNL A   1      43.492  28.390  26.775  1.00  0.00    -0.203 F 
ATOM     64  C   UNL A   1      44.297  26.482  25.754  1.00  0.00     0.198 A 
ATOM     65  C   UNL A   1      43.920  24.330  26.680  1.00  0.00     0.198 A 
ATOM     66  F   UNL A   1      42.752  24.075  28.690  1.00  0.00    -0.203 F 
ATOM     67  F   UNL A   1      44.852  27.273  24.823  1.00  0.00    -0.200 F 
ATOM     68  C   UNL A   1      44.467  25.118  25.685  1.00  0.00     0.200 A 
ATOM     69  F   UNL A   1      44.099  23.001  26.635  1.00  0.00    -0.200 F 
ATOM     70  F   UNL A   1      45.170  24.573  24.684  1.00  0.00    -0.200 F 
ENDBRANCH  46  60
BRANCH  47  71
ATOM     71  C   UNL A   1      37.918  32.633  33.148  1.00  0.00     0.064 A 
ATOM     72  C   UNL A   1      37.493  33.944  33.476  1.00  0.00     0.173 A 
ATOM     73  C   UNL A   1      36.951  31.797  32.570  1.00  0.00     0.173 A 
ATOM     74  F   UNL A   1      38.361  34.811  34.024  1.00  0.00    -0.203 F 
ATOM     75  C   UNL A   1      36.218  34.420  33.159  1.00  0.00     0.198 A 
ATOM     76  C   UNL A   1      35.660  32.270  32.275  1.00  0.00     0.198 A 
ATOM     77  F   UNL A   1      37.261  30.542  32.220  1.00  0.00    -0.203 F 
ATOM     78  F   UNL A   1      35.903  35.702  33.390  1.00  0.00    -0.200 F 
ATOM     79  C   UNL A   1      35.304  33.585  32.546  1.00  0.00     0.200 A 
ATOM     80  F   UNL A   1      34.775  31.470  31.663  1.00  0.00    -0.200 F 
ATOM     81  F   UNL A   1      34.102  34.055  32.180  1.00  0.00    -0.200 F 
ENDBRANCH  47  71
BRANCH  59  82
ATOM     82  C   UNL A   1      42.848  27.265  34.204  1.00  0.00     0.064 A 
ATOM     83  C   UNL A   1      42.110  26.213  34.752  1.00  0.00     0.173 A 
ATOM     84  C   UNL A   1      44.264  27.073  34.255  1.00  0.00     0.173 A 
ATOM     85  F   UNL A   1      40.777  26.202  34.757  1.00  0.00    -0.203 F 
ATOM     86  C   UNL A   1      42.715  25.076  35.294  1.00  0.00     0.198 A 
ATOM     87  C   UNL A   1      44.859  25.904  34.720  1.00  0.00     0.198 A 
ATOM     88  F   UNL A   1      45.141  27.996  33.838  1.00  0.00    -0.203 F 
ATOM     89  F   UNL A   1      41.944  24.125  35.836  1.00  0.00    -0.200 F 
ATOM     90  C   UNL A   1      44.083  24.907  35.252  1.00  0.00     0.200 A 
ATOM     91  F   UNL A   1      46.189  25.753  34.628  1.00  0.00    -0.200 F 
ATOM     92  F   UNL A   1      44.646  23.787  35.719  1.00  0.00    -0.200 F 
ENDBRANCH  59  82
ENDBRANCH  33  34
ENDBRANCH  26  28
ENDBRANCH  25  26
ENDBRANCH  24  25
ENDBRANCH   1  24
TORSDOF 16
ENDMDL
MODEL 2
REMARK VINA RESULT:     -12.4      1.374      1.846
REMARK SMILES Cc1cccc(NC(=O)C[C@H]([NH2+]C(C)C)C(=O)OCCOC(=O)c2ccc(-c3c4nc(c(-c5c(F)c(F)c(F)c(F)c5F)c5ccc([nH]5)c(-c5c(F)c(F)c(F)c(F)c5F)c5nc(c(-c6c(F)c(F)c(F)c(F)c6F)c6ccc3[nH]6)C=C5)C=C4)cc2)c1
REMARK SMILES IDX 19 1 18 2 16 3 17 4 11 5 10 6 8 7 7 8 9 10 6 11 1 12 2 13
REMARK SMILES IDX 3 14 87 15 4 16 5 17 12 18 13 21 14 22 15 23 20 24 21 25
REMARK SMILES IDX 22 26 23 27 24 28 25 29 86 30 26 31 85 32 27 33 28 34 29 35
REMARK SMILES IDX 79 36 30 37 84 38 78 39 80 40 31 41 83 42 77 43 76 44 32 46
REMARK SMILES IDX 64 47 44 48 63 49 45 50 48 51 62 52 81 53 46 54 47 55 61 57
REMARK SMILES IDX 82 58 49 59 33 60 34 61 42 62 35 63 36 64 40 65 43 66 37 67
REMARK SMILES IDX 38 68 41 69 39 70 65 71 66 72 74 73 67 74 68 75 72 76 75 77
REMARK SMILES IDX 69 78 70 79 73 80 71 81 50 82 51 83 59 84 52 85 53 86 57 87
REMARK SMILES IDX 60 88 54 89 55 90 58 91 56 92
REMARK H PARENT 7 9 12 19 12 20 80 45 48 56
REMARK Flexibility Score: inf
ROOT
ATOM      1  C   UNL A   1      31.860  29.782  25.419  1.00  0.00     0.274 C 
ENDROOT
BRANCH   1   2
ATOM      2  O   UNL A   1      33.188  29.520  24.936  1.00  0.00    -0.458 OA
BRANCH   2   3
ATOM      3  C   UNL A   1      33.434  28.323  24.372  1.00  0.00     0.365 C 
ATOM      4  O   UNL A   1      34.388  28.206  23.622  1.00  0.00    -0.245 OA
BRANCH   3   5
ATOM      5  C   UNL A   1      32.597  27.108  24.829  1.00  0.00     0.303 C 
BRANCH   5   6
ATOM      6  C   UNL A   1      33.170  26.293  26.021  1.00  0.00     0.177 C 
BRANCH   6   7
ATOM      7  C   UNL A   1      32.523  24.974  26.331  1.00  0.00     0.231 C 
ATOM      8  N   UNL A   1      33.209  23.809  26.171  1.00  0.00    -0.326 N 
ATOM      9  H   UNL A   1      32.793  23.055  26.649  1.00  0.00     0.169 HD
ATOM     10  O   UNL A   1      31.422  24.949  26.888  1.00  0.00    -0.274 OA
BRANCH   8  11
ATOM     11  C   UNL A   1      34.375  23.436  25.482  1.00  0.00     0.041 A 
ATOM     12  C   UNL A   1      38.144  23.702  26.133  1.00  0.00     0.044 C 
ATOM     13  C   UNL A   1      36.827  23.465  25.451  1.00  0.00    -0.049 A 
ATOM     14  C   UNL A   1      36.774  23.196  24.085  1.00  0.00     0.003 A 
ATOM     15  C   UNL A   1      35.618  23.594  26.140  1.00  0.00     0.029 A 
ATOM     16  C   UNL A   1      35.548  22.969  23.452  1.00  0.00     0.002 A 
ATOM     17  C   UNL A   1      34.351  23.051  24.156  1.00  0.00     0.026 A 
ENDBRANCH   8  11
ENDBRANCH   6   7
ENDBRANCH   5   6
BRANCH   5  18
ATOM     18  N   UNL A   1      32.221  26.074  23.833  1.00  0.00    -0.332 N 
ATOM     19  H   UNL A   1      32.408  25.166  24.260  1.00  0.00     0.347 HD
ATOM     20  H   UNL A   1      32.775  26.313  23.011  1.00  0.00     0.347 HD
BRANCH  18  21
ATOM     21  C   UNL A   1      30.856  26.039  23.337  1.00  0.00     0.176 C 
ATOM     22  C   UNL A   1      30.442  24.579  23.208  1.00  0.00     0.075 C 
ATOM     23  C   UNL A   1      29.872  26.782  24.242  1.00  0.00     0.075 C 
ENDBRANCH  18  21
ENDBRANCH   5  18
ENDBRANCH   3   5
ENDBRANCH   2   3
ENDBRANCH   1   2
BRANCH   1  24
ATOM     24  C   UNL A   1      31.939  30.628  26.698  1.00  0.00     0.275 C 
BRANCH  24  25
ATOM     25  O   UNL A   1      33.193  30.664  27.438  1.00  0.00    -0.458 OA
BRANCH  25  26
ATOM     26  C   UNL A   1      33.829  31.834  27.705  1.00  0.00     0.338 C 
ATOM     27  O   UNL A   1      33.281  32.925  27.796  1.00  0.00    -0.246 OA
BRANCH  26  28
ATOM     28  C   UNL A   1      35.288  31.603  27.882  1.00  0.00     0.060 A 
ATOM     29  C   UNL A   1      36.196  32.639  28.198  1.00  0.00     0.016 A 
ATOM     30  C   UNL A   1      35.675  30.280  28.031  1.00  0.00     0.016 A 
ATOM     31  C   UNL A   1      37.462  32.328  28.756  1.00  0.00     0.010 A 
ATOM     32  C   UNL A   1      36.773  30.008  28.808  1.00  0.00     0.010 A 
ATOM     33  C   UNL A   1      37.739  30.999  29.108  1.00  0.00    -0.014 A 
BRANCH  33  34
ATOM     34  C   UNL A   1      39.046  30.389  29.462  1.00  0.00     0.031 A 
ATOM     35  C   UNL A   1      39.603  29.095  28.959  1.00  0.00     0.074 A 
ATOM     36  C   UNL A   1      39.761  31.315  30.141  1.00  0.00     0.049 A 
ATOM     37  N   UNL A   1      39.892  28.019  29.639  1.00  0.00    -0.248 NA
ATOM     38  C   UNL A   1      39.873  28.906  27.525  1.00  0.00     0.031 C 
ATOM     39  C   UNL A   1      41.165  31.460  30.422  1.00  0.00     0.029 A 
ATOM     40  N   UNL A   1      39.192  32.429  30.801  1.00  0.00    -0.354 N 
ATOM     41  C   UNL A   1      40.570  27.191  28.729  1.00  0.00     0.074 A 
ATOM     42  C   UNL A   1      40.091  27.591  27.436  1.00  0.00     0.031 C 
ATOM     43  C   UNL A   1      41.293  32.308  31.466  1.00  0.00     0.029 A 
ATOM     44  C   UNL A   1      39.951  32.660  31.930  1.00  0.00     0.049 A 
ATOM     45  H   UNL A   1      38.404  32.942  30.508  1.00  0.00     0.167 HD
ATOM     46  C   UNL A   1      41.910  26.892  28.868  1.00  0.00     0.037 A 
ATOM     47  C   UNL A   1      39.338  32.350  33.107  1.00  0.00     0.037 A 
ATOM     48  C   UNL A   1      42.482  27.703  29.921  1.00  0.00     0.049 A 
ATOM     49  C   UNL A   1      40.032  31.171  33.718  1.00  0.00     0.074 A 
ATOM     50  C   UNL A   1      43.304  28.816  29.920  1.00  0.00     0.029 A 
ATOM     51  N   UNL A   1      41.948  27.609  31.187  1.00  0.00    -0.354 N 
ATOM     52  N   UNL A   1      40.630  30.231  33.039  1.00  0.00    -0.248 NA
ATOM     53  C   UNL A   1      40.222  31.050  35.150  1.00  0.00     0.031 C 
ATOM     54  C   UNL A   1      43.351  29.321  31.246  1.00  0.00     0.029 A 
ATOM     55  C   UNL A   1      42.507  28.545  32.020  1.00  0.00     0.049 A 
ATOM     56  H   UNL A   1      41.261  26.958  31.458  1.00  0.00     0.167 HD
ATOM     57  C   UNL A   1      41.379  29.463  33.895  1.00  0.00     0.074 A 
ATOM     58  C   UNL A   1      41.075  30.015  35.202  1.00  0.00     0.031 C 
ATOM     59  C   UNL A   1      42.199  28.469  33.433  1.00  0.00     0.037 A 
BRANCH  46  60
ATOM     60  C   UNL A   1      42.779  26.230  27.787  1.00  0.00     0.064 A 
ATOM     61  C   UNL A   1      43.427  26.985  26.780  1.00  0.00     0.173 A 
ATOM     62  C   UNL A   1      43.037  24.843  27.725  1.00  0.00     0.173 A 
ATOM     63  F   UNL A   1      43.389  28.322  26.763  1.00  0.00    -0.203 F 
ATOM     64  C   UNL A   1      44.165  26.401  25.743  1.00  0.00     0.198 A 
ATOM     65  C   UNL A   1      43.765  24.256  26.675  1.00  0.00     0.198 A 
ATOM     66  F   UNL A   1      42.601  24.020  28.691  1.00  0.00    -0.203 F 
ATOM     67  F   UNL A   1      44.727  27.182  24.809  1.00  0.00    -0.200 F 
ATOM     68  C   UNL A   1      44.317  25.035  25.677  1.00  0.00     0.200 A 
ATOM     69  F   UNL A   1      43.926  22.925  26.632  1.00  0.00    -0.200 F 
ATOM     70  F   UNL A   1      45.009  24.479  24.673  1.00  0.00    -0.200 F 
ENDBRANCH  46  60
BRANCH  47  71
ATOM     71  C   UNL A   1      37.855  32.641  33.122  1.00  0.00     0.064 A 
ATOM     72  C   UNL A   1      37.432  33.948  33.471  1.00  0.00     0.173 A 
ATOM     73  C   UNL A   1      36.885  31.814  32.538  1.00  0.00     0.173 A 
ATOM     74  F   UNL A   1      38.304  34.807  34.025  1.00  0.00    -0.203 F 
ATOM     75  C   UNL A   1      36.155  34.427  33.169  1.00  0.00     0.198 A 
ATOM     76  C   UNL A   1      35.592  32.290  32.260  1.00  0.00     0.198 A 
ATOM     77  F   UNL A   1      37.193  30.564  32.169  1.00  0.00    -0.203 F 
ATOM     78  F   UNL A   1      35.841  35.706  33.421  1.00  0.00    -0.200 F 
ATOM     79  C   UNL A   1      35.237  33.601  32.551  1.00  0.00     0.200 A 
ATOM     80  F   UNL A   1      34.702  31.498  31.643  1.00  0.00    -0.200 F 
ATOM     81  F   UNL A   1      34.033  34.076  32.201  1.00  0.00    -0.200 F 
ENDBRANCH  47  71
BRANCH  59  82
ATOM     82  C   UNL A   1      42.801  27.290  34.186  1.00  0.00     0.064 A 
ATOM     83  C   UNL A   1      42.071  26.240  34.748  1.00  0.00     0.173 A 
ATOM     84  C   UNL A   1      44.219  27.105  34.231  1.00  0.00     0.173 A 
ATOM     85  F   UNL A   1      40.739  26.222  34.761  1.00  0.00    -0.203 F 
ATOM     86  C   UNL A   1      42.684  25.111  35.298  1.00  0.00     0.198 A 
ATOM     87  C   UNL A   1      44.822  25.943  34.704  1.00  0.00     0.198 A 
ATOM     88  F   UNL A   1      45.089  28.028  33.800  1.00  0.00    -0.203 F 
ATOM     89  F   UNL A   1      41.922  24.161  35.854  1.00  0.00    -0.200 F 
ATOM     90  C   UNL A   1      44.053  24.948  35.250  1.00  0.00     0.200 A 
ATOM     91  F   UNL A   1      46.152  25.798  34.606  1.00  0.00    -0.200 F 
ATOM     92  F   UNL A   1      44.625  23.835  35.725  1.00  0.00    -0.200 F 
ENDBRANCH  59  82
ENDBRANCH  33  34
ENDBRANCH  26  28
ENDBRANCH  25  26
ENDBRANCH  24  25
ENDBRANCH   1  24
TORSDOF 16
ENDMDL
MODEL 3
REMARK VINA RESULT:     -12.4      1.057      1.887
REMARK SMILES Cc1cccc(NC(=O)C[C@H]([NH2+]C(C)C)C(=O)OCCOC(=O)c2ccc(-c3c4nc(c(-c5c(F)c(F)c(F)c(F)c5F)c5ccc([nH]5)c(-c5c(F)c(F)c(F)c(F)c5F)c5nc(c(-c6c(F)c(F)c(F)c(F)c6F)c6ccc3[nH]6)C=C5)C=C4)cc2)c1
REMARK SMILES IDX 19 1 18 2 16 3 17 4 11 5 10 6 8 7 7 8 9 10 6 11 1 12 2 13
REMARK SMILES IDX 3 14 87 15 4 16 5 17 12 18 13 21 14 22 15 23 20 24 21 25
REMARK SMILES IDX 22 26 23 27 24 28 25 29 86 30 26 31 85 32 27 33 28 34 29 35
REMARK SMILES IDX 79 36 30 37 84 38 78 39 80 40 31 41 83 42 77 43 76 44 32 46
REMARK SMILES IDX 64 47 44 48 63 49 45 50 48 51 62 52 81 53 46 54 47 55 61 57
REMARK SMILES IDX 82 58 49 59 33 60 34 61 42 62 35 63 36 64 40 65 43 66 37 67
REMARK SMILES IDX 38 68 41 69 39 70 65 71 66 72 74 73 67 74 68 75 72 76 75 77
REMARK SMILES IDX 69 78 70 79 73 80 71 81 50 82 51 83 59 84 52 85 53 86 57 87
REMARK SMILES IDX 60 88 54 89 55 90 58 91 56 92
REMARK H PARENT 7 9 12 19 12 20 80 45 48 56
REMARK Flexibility Score: inf
ROOT
ATOM      1  C   UNL A   1      31.644  30.061  25.367  1.00  0.00     0.274 C 
ENDROOT
BRANCH   1   2
ATOM      2  O   UNL A   1      32.803  29.225  25.219  1.00  0.00    -0.458 OA
BRANCH   2   3
ATOM      3  C   UNL A   1      32.916  28.491  24.096  1.00  0.00     0.365 C 
ATOM      4  O   UNL A   1      33.416  28.994  23.105  1.00  0.00    -0.245 OA
BRANCH   3   5
ATOM      5  C   UNL A   1      32.560  26.989  24.160  1.00  0.00     0.303 C 
BRANCH   5   6
ATOM      6  C   UNL A   1      33.742  25.998  23.971  1.00  0.00     0.177 C 
BRANCH   6   7
ATOM      7  C   UNL A   1      33.861  25.308  22.644  1.00  0.00     0.231 C 
ATOM      8  N   UNL A   1      33.962  23.953  22.570  1.00  0.00    -0.326 N 
ATOM      9  H   UNL A   1      33.764  23.605  21.670  1.00  0.00     0.169 HD
ATOM     10  O   UNL A   1      33.701  25.953  21.603  1.00  0.00    -0.274 OA
BRANCH   8  11
ATOM     11  C   UNL A   1      34.282  22.936  23.486  1.00  0.00     0.041 A 
ATOM     12  C   UNL A   1      37.520  21.431  24.884  1.00  0.00     0.044 C 
ATOM     13  C   UNL A   1      36.068  21.646  24.563  1.00  0.00    -0.049 A 
ATOM     14  C   UNL A   1      35.117  20.685  24.899  1.00  0.00     0.003 A 
ATOM     15  C   UNL A   1      35.641  22.766  23.845  1.00  0.00     0.029 A 
ATOM     16  C   UNL A   1      33.765  20.888  24.607  1.00  0.00     0.002 A 
ATOM     17  C   UNL A   1      33.341  22.030  23.934  1.00  0.00     0.026 A 
ENDBRANCH   8  11
ENDBRANCH   6   7
ENDBRANCH   5   6
BRANCH   5  18
ATOM     18  N   UNL A   1      31.499  26.458  23.268  1.00  0.00    -0.332 N 
ATOM     19  H   UNL A   1      31.946  25.794  22.635  1.00  0.00     0.347 HD
ATOM     20  H   UNL A   1      31.098  27.294  22.842  1.00  0.00     0.347 HD
BRANCH  18  21
ATOM     21  C   UNL A   1      30.357  25.784  23.858  1.00  0.00     0.176 C 
ATOM     22  C   UNL A   1      30.428  24.314  23.468  1.00  0.00     0.075 C 
ATOM     23  C   UNL A   1      30.306  25.917  25.382  1.00  0.00     0.075 C 
ENDBRANCH  18  21
ENDBRANCH   5  18
ENDBRANCH   3   5
ENDBRANCH   2   3
ENDBRANCH   1   2
BRANCH   1  24
ATOM     24  C   UNL A   1      31.799  30.931  26.622  1.00  0.00     0.275 C 
BRANCH  24  25
ATOM     25  O   UNL A   1      33.069  30.911  27.336  1.00  0.00    -0.458 OA
BRANCH  25  26
ATOM     26  C   UNL A   1      33.707  32.058  27.688  1.00  0.00     0.338 C 
ATOM     27  O   UNL A   1      33.160  33.140  27.858  1.00  0.00    -0.246 OA
BRANCH  26  28
ATOM     28  C   UNL A   1      35.165  31.812  27.850  1.00  0.00     0.060 A 
ATOM     29  C   UNL A   1      36.098  32.850  28.070  1.00  0.00     0.016 A 
ATOM     30  C   UNL A   1      35.532  30.496  28.086  1.00  0.00     0.016 A 
ATOM     31  C   UNL A   1      37.371  32.556  28.622  1.00  0.00     0.010 A 
ATOM     32  C   UNL A   1      36.643  30.260  28.857  1.00  0.00     0.010 A 
ATOM     33  C   UNL A   1      37.633  31.251  29.063  1.00  0.00    -0.014 A 
BRANCH  33  34
ATOM     34  C   UNL A   1      38.936  30.643  29.431  1.00  0.00     0.031 A 
ATOM     35  C   UNL A   1      39.504  29.352  28.930  1.00  0.00     0.074 A 
ATOM     36  C   UNL A   1      39.640  31.567  30.124  1.00  0.00     0.049 A 
ATOM     37  N   UNL A   1      39.786  28.274  29.609  1.00  0.00    -0.248 NA
ATOM     38  C   UNL A   1      39.794  29.171  27.499  1.00  0.00     0.031 C 
ATOM     39  C   UNL A   1      41.039  31.715  30.424  1.00  0.00     0.029 A 
ATOM     40  N   UNL A   1      39.059  32.676  30.781  1.00  0.00    -0.354 N 
ATOM     41  C   UNL A   1      40.480  27.452  28.704  1.00  0.00     0.074 A 
ATOM     42  C   UNL A   1      40.016  27.857  27.407  1.00  0.00     0.031 C 
ATOM     43  C   UNL A   1      41.151  32.558  31.474  1.00  0.00     0.029 A 
ATOM     44  C   UNL A   1      39.802  32.905  31.922  1.00  0.00     0.049 A 
ATOM     45  H   UNL A   1      38.274  33.189  30.481  1.00  0.00     0.167 HD
ATOM     46  C   UNL A   1      41.818  27.156  28.860  1.00  0.00     0.037 A 
ATOM     47  C   UNL A   1      39.174  32.588  33.089  1.00  0.00     0.037 A 
ATOM     48  C   UNL A   1      42.373  27.963  29.924  1.00  0.00     0.049 A 
ATOM     49  C   UNL A   1      39.863  31.407  33.704  1.00  0.00     0.074 A 
ATOM     50  C   UNL A   1      43.192  29.079  29.940  1.00  0.00     0.029 A 
ATOM     51  N   UNL A   1      41.823  27.862  31.183  1.00  0.00    -0.354 N 
ATOM     52  N   UNL A   1      40.473  30.473  33.028  1.00  0.00    -0.248 NA
ATOM     53  C   UNL A   1      40.034  31.281  35.137  1.00  0.00     0.031 C 
ATOM     54  C   UNL A   1      43.220  29.578  31.268  1.00  0.00     0.029 A 
ATOM     55  C   UNL A   1      42.368  28.796  32.027  1.00  0.00     0.049 A 
ATOM     56  H   UNL A   1      41.134  27.209  31.441  1.00  0.00     0.167 HD
ATOM     57  C   UNL A   1      41.213  29.702  33.891  1.00  0.00     0.074 A 
ATOM     58  C   UNL A   1      40.889  30.247  35.196  1.00  0.00     0.031 C 
ATOM     59  C   UNL A   1      42.042  28.713  33.435  1.00  0.00     0.037 A 
BRANCH  46  60
ATOM     60  C   UNL A   1      42.703  26.501  27.788  1.00  0.00     0.064 A 
ATOM     61  C   UNL A   1      43.351  27.261  26.784  1.00  0.00     0.173 A 
ATOM     62  C   UNL A   1      42.978  25.117  27.732  1.00  0.00     0.173 A 
ATOM     63  F   UNL A   1      43.297  28.597  26.763  1.00  0.00    -0.203 F 
ATOM     64  C   UNL A   1      44.103  26.683  25.755  1.00  0.00     0.198 A 
ATOM     65  C   UNL A   1      43.720  24.535  26.689  1.00  0.00     0.198 A 
ATOM     66  F   UNL A   1      42.544  24.292  28.697  1.00  0.00    -0.203 F 
ATOM     67  F   UNL A   1      44.664  27.468  24.823  1.00  0.00    -0.200 F 
ATOM     68  C   UNL A   1      44.272  25.319  25.693  1.00  0.00     0.200 A 
ATOM     69  F   UNL A   1      43.898  23.207  26.652  1.00  0.00    -0.200 F 
ATOM     70  F   UNL A   1      44.978  24.768  24.697  1.00  0.00    -0.200 F 
ENDBRANCH  46  60
BRANCH  47  71
ATOM     71  C   UNL A   1      37.691  32.875  33.085  1.00  0.00     0.064 A 
ATOM     72  C   UNL A   1      37.261  34.186  33.409  1.00  0.00     0.173 A 
ATOM     73  C   UNL A   1      36.728  32.035  32.506  1.00  0.00     0.173 A 
ATOM     74  F   UNL A   1      38.124  35.056  33.957  1.00  0.00    -0.203 F 
ATOM     75  C   UNL A   1      35.985  34.656  33.088  1.00  0.00     0.198 A 
ATOM     76  C   UNL A   1      35.436  32.503  32.208  1.00  0.00     0.198 A 
ATOM     77  F   UNL A   1      37.043  30.780  32.160  1.00  0.00    -0.203 F 
ATOM     78  F   UNL A   1      35.665  35.938  33.316  1.00  0.00    -0.200 F 
ATOM     79  C   UNL A   1      35.075  33.817  32.475  1.00  0.00     0.200 A 
ATOM     80  F   UNL A   1      34.555  31.699  31.595  1.00  0.00    -0.200 F 
ATOM     81  F   UNL A   1      33.873  34.283  32.105  1.00  0.00    -0.200 F 
ENDBRANCH  47  71
BRANCH  59  82
ATOM     82  C   UNL A   1      42.637  27.532  34.192  1.00  0.00     0.064 A 
ATOM     83  C   UNL A   1      43.980  27.408  34.555  1.00  0.00     0.173 A 
ATOM     84  C   UNL A   1      41.790  26.514  34.730  1.00  0.00     0.173 A 
ATOM     85  F   UNL A   1      44.907  28.287  34.177  1.00  0.00    -0.203 F 
ATOM     86  C   UNL A   1      44.441  26.376  35.376  1.00  0.00     0.198 A 
ATOM     87  C   UNL A   1      42.238  25.537  35.615  1.00  0.00     0.198 A 
ATOM     88  F   UNL A   1      40.483  26.426  34.446  1.00  0.00    -0.203 F 
ATOM     89  F   UNL A   1      45.750  26.297  35.651  1.00  0.00    -0.200 F 
ATOM     90  C   UNL A   1      43.570  25.461  35.929  1.00  0.00     0.200 A 
ATOM     91  F   UNL A   1      41.360  24.687  36.167  1.00  0.00    -0.200 F 
ATOM     92  F   UNL A   1      44.015  24.513  36.763  1.00  0.00    -0.200 F 
ENDBRANCH  59  82
ENDBRANCH  33  34
ENDBRANCH  26  28
ENDBRANCH  25  26
ENDBRANCH  24  25
ENDBRANCH   1  24
TORSDOF 16
ENDMDL
