MODEL 1
REMARK VINA RESULT:     -12.5      0.000      0.000
REMARK SMILES CS(=O)(=O)c1ccc(N2N=C(C(=O)OCCOC(=O)c3ccc(-c4c5nc(c(-c6c(F)c(F)c(F)c(F)c6F)c6ccc([nH]6)c(-c6c(F)c(F)c(F)c(F)c6F)c6nc(c(-c7c(F)c(F)c(F)c(F)c7F)c7ccc4[nH]7)C=C6)C=C5)cc3)C[C@H]2c2cccs2)cc1
REMARK SMILES IDX 15 1 14 2 12 3 13 4 11 5 9 6 10 7 84 8 83 9 8 10 5 11 6 12
REMARK SMILES IDX 91 13 7 14 90 15 2 16 1 17 3 18 4 19 85 20 86 21 89 22 87 23
REMARK SMILES IDX 88 24 16 25 17 26 18 27 19 28 20 29 21 30 82 31 22 32 81 33
REMARK SMILES IDX 23 34 24 35 25 36 75 37 26 38 80 39 74 40 76 41 27 42 79 43
REMARK SMILES IDX 73 44 72 45 28 47 60 48 40 49 59 50 41 51 44 52 58 53 77 54
REMARK SMILES IDX 42 55 43 56 57 58 78 59 45 60 29 61 30 62 38 63 31 64 32 65
REMARK SMILES IDX 36 66 39 67 33 68 34 69 37 70 35 71 61 72 62 73 70 74 63 75
REMARK SMILES IDX 64 76 68 77 71 78 65 79 66 80 69 81 67 82 46 83 47 84 55 85
REMARK SMILES IDX 48 86 49 87 53 88 56 89 50 90 51 91 54 92 52 93
REMARK H PARENT 76 46 44 57
REMARK Flexibility Score: inf
ROOT
ATOM      1  C   UNL A   1      35.234  21.800  24.594  1.00  0.00     0.275 C 
ENDROOT
BRANCH   1   2
ATOM      2  O   UNL A   1      35.056  23.226  24.625  1.00  0.00    -0.458 OA
BRANCH   2   3
ATOM      3  C   UNL A   1      34.418  23.765  23.568  1.00  0.00     0.354 C 
ATOM      4  O   UNL A   1      34.576  23.523  22.392  1.00  0.00    -0.245 OA
BRANCH   3   5
ATOM      5  C   UNL A   1      33.357  24.697  24.089  1.00  0.00     0.148 C 
ATOM      6  N   UNL A   1      31.805  26.122  24.149  1.00  0.00    -0.256 N 
ATOM      7  N   UNL A   1      32.699  25.513  23.322  1.00  0.00    -0.169 NA
ATOM      8  C   UNL A   1      32.113  25.937  25.570  1.00  0.00     0.154 C 
ATOM      9  C   UNL A   1      32.940  24.644  25.527  1.00  0.00     0.099 C 
BRANCH   6  10
ATOM     10  C   UNL A   1      30.915  27.069  23.674  1.00  0.00     0.060 A 
ATOM     11  C   UNL A   1      29.136  29.037  22.764  1.00  0.00     0.067 A 
ATOM     12  C   UNL A   1      30.513  29.202  22.572  1.00  0.00     0.022 A 
ATOM     13  C   UNL A   1      28.638  27.894  23.397  1.00  0.00     0.022 A 
ATOM     14  C   UNL A   1      31.393  28.214  23.016  1.00  0.00     0.029 A 
ATOM     15  C   UNL A   1      29.533  26.923  23.857  1.00  0.00     0.029 A 
BRANCH  11  16
ATOM     16  S   UNL A   1      28.056  30.320  22.176  1.00  0.00     0.175 S 
ATOM     17  C   UNL A   1      28.902  31.855  22.419  1.00  0.00     0.163 C 
ATOM     18  O   UNL A   1      26.905  30.334  23.062  1.00  0.00    -0.224 OA
ATOM     19  O   UNL A   1      27.903  30.112  20.750  1.00  0.00    -0.224 OA
ENDBRANCH  11  16
ENDBRANCH   6  10
BRANCH   8  20
ATOM     20  C   UNL A   1      32.836  27.109  26.219  1.00  0.00     0.030 A 
ATOM     21  C   UNL A   1      34.179  27.435  26.100  1.00  0.00     0.017 A 
ATOM     22  S   UNL A   1      32.047  28.185  27.307  1.00  0.00    -0.147 S 
ATOM     23  C   UNL A   1      34.541  28.574  26.875  1.00  0.00     0.012 A 
ATOM     24  C   UNL A   1      33.469  29.088  27.569  1.00  0.00     0.065 A 
ENDBRANCH   8  20
ENDBRANCH   3   5
ENDBRANCH   2   3
ENDBRANCH   1   2
BRANCH   1  25
ATOM     25  C   UNL A   1      36.733  21.493  24.573  1.00  0.00     0.275 C 
BRANCH  25  26
ATOM     26  O   UNL A   1      37.294  21.670  25.890  1.00  0.00    -0.458 OA
BRANCH  26  27
ATOM     27  C   UNL A   1      38.629  21.448  25.987  1.00  0.00     0.338 C 
ATOM     28  O   UNL A   1      39.235  20.462  25.598  1.00  0.00    -0.246 OA
BRANCH  27  29
ATOM     29  C   UNL A   1      39.301  22.649  26.530  1.00  0.00     0.060 A 
ATOM     30  C   UNL A   1      38.819  23.898  26.118  1.00  0.00     0.016 A 
ATOM     31  C   UNL A   1      40.387  22.564  27.415  1.00  0.00     0.016 A 
ATOM     32  C   UNL A   1      39.419  25.063  26.586  1.00  0.00     0.010 A 
ATOM     33  C   UNL A   1      40.999  23.734  27.874  1.00  0.00     0.010 A 
ATOM     34  C   UNL A   1      40.521  24.988  27.452  1.00  0.00    -0.014 A 
BRANCH  34  35
ATOM     35  C   UNL A   1      41.190  26.241  27.868  1.00  0.00     0.031 A 
ATOM     36  C   UNL A   1      42.611  26.496  27.463  1.00  0.00     0.074 A 
ATOM     37  C   UNL A   1      40.502  27.176  28.546  1.00  0.00     0.049 A 
ATOM     38  N   UNL A   1      43.341  27.570  27.626  1.00  0.00    -0.248 NA
ATOM     39  C   UNL A   1      43.305  25.394  26.779  1.00  0.00     0.031 C 
ATOM     40  C   UNL A   1      39.110  27.054  28.975  1.00  0.00     0.029 A 
ATOM     41  N   UNL A   1      40.879  28.425  28.971  1.00  0.00    -0.354 N 
ATOM     42  C   UNL A   1      44.566  27.285  27.045  1.00  0.00     0.074 A 
ATOM     43  C   UNL A   1      44.498  25.926  26.550  1.00  0.00     0.031 C 
ATOM     44  C   UNL A   1      38.742  28.193  29.585  1.00  0.00     0.029 A 
ATOM     45  C   UNL A   1      39.870  29.121  29.586  1.00  0.00     0.049 A 
ATOM     46  H   UNL A   1      41.787  28.786  28.846  1.00  0.00     0.167 HD
ATOM     47  C   UNL A   1      45.650  28.089  26.927  1.00  0.00     0.037 A 
ATOM     48  C   UNL A   1      39.856  30.374  30.075  1.00  0.00     0.037 A 
ATOM     49  C   UNL A   1      45.731  29.433  27.428  1.00  0.00     0.049 A 
ATOM     50  C   UNL A   1      41.084  31.232  29.962  1.00  0.00     0.074 A 
ATOM     51  C   UNL A   1      46.795  30.316  27.369  1.00  0.00     0.029 A 
ATOM     52  N   UNL A   1      44.700  30.089  28.082  1.00  0.00    -0.354 N 
ATOM     53  N   UNL A   1      42.238  30.956  29.405  1.00  0.00    -0.248 NA
ATOM     54  C   UNL A   1      41.007  32.577  30.550  1.00  0.00     0.031 C 
ATOM     55  C   UNL A   1      46.416  31.501  28.012  1.00  0.00     0.029 A 
ATOM     56  C   UNL A   1      45.111  31.360  28.453  1.00  0.00     0.049 A 
ATOM     57  H   UNL A   1      43.810  29.709  28.257  1.00  0.00     0.167 HD
ATOM     58  C   UNL A   1      43.018  32.092  29.562  1.00  0.00     0.074 A 
ATOM     59  C   UNL A   1      42.207  33.065  30.264  1.00  0.00     0.031 C 
ATOM     60  C   UNL A   1      44.293  32.308  29.159  1.00  0.00     0.037 A 
BRANCH  47  61
ATOM     61  C   UNL A   1      46.845  27.518  26.234  1.00  0.00     0.064 A 
ATOM     62  C   UNL A   1      46.990  27.619  24.843  1.00  0.00     0.173 A 
ATOM     63  C   UNL A   1      47.858  26.883  26.965  1.00  0.00     0.173 A 
ATOM     64  F   UNL A   1      46.035  28.203  24.103  1.00  0.00    -0.203 F 
ATOM     65  C   UNL A   1      48.109  27.095  24.205  1.00  0.00     0.198 A 
ATOM     66  C   UNL A   1      48.980  26.368  26.325  1.00  0.00     0.198 A 
ATOM     67  F   UNL A   1      47.755  26.758  28.297  1.00  0.00    -0.203 F 
ATOM     68  F   UNL A   1      48.222  27.180  22.871  1.00  0.00    -0.200 F 
ATOM     69  C   UNL A   1      49.104  26.473  24.946  1.00  0.00     0.200 A 
ATOM     70  F   UNL A   1      49.940  25.764  27.040  1.00  0.00    -0.200 F 
ATOM     71  F   UNL A   1      50.181  25.966  24.330  1.00  0.00    -0.200 F 
ENDBRANCH  47  61
BRANCH  48  72
ATOM     72  C   UNL A   1      38.620  30.904  30.694  1.00  0.00     0.064 A 
ATOM     73  C   UNL A   1      38.418  30.819  32.077  1.00  0.00     0.173 A 
ATOM     74  C   UNL A   1      37.625  31.507  29.913  1.00  0.00     0.173 A 
ATOM     75  F   UNL A   1      39.337  30.230  32.856  1.00  0.00    -0.203 F 
ATOM     76  C   UNL A   1      37.257  31.318  32.661  1.00  0.00     0.198 A 
ATOM     77  C   UNL A   1      36.469  32.014  30.500  1.00  0.00     0.198 A 
ATOM     78  F   UNL A   1      37.776  31.601  28.584  1.00  0.00    -0.203 F 
ATOM     79  F   UNL A   1      37.074  31.207  33.984  1.00  0.00    -0.200 F 
ATOM     80  C   UNL A   1      36.286  31.917  31.873  1.00  0.00     0.200 A 
ATOM     81  F   UNL A   1      35.529  32.591  29.737  1.00  0.00    -0.200 F 
ATOM     82  F   UNL A   1      35.166  32.393  32.436  1.00  0.00    -0.200 F 
ENDBRANCH  48  72
BRANCH  60  83
ATOM     83  C   UNL A   1      44.891  33.640  29.482  1.00  0.00     0.064 A 
ATOM     84  C   UNL A   1      45.601  33.840  30.674  1.00  0.00     0.173 A 
ATOM     85  C   UNL A   1      44.785  34.710  28.583  1.00  0.00     0.173 A 
ATOM     86  F   UNL A   1      45.715  32.845  31.568  1.00  0.00    -0.203 F 
ATOM     87  C   UNL A   1      46.182  35.072  30.959  1.00  0.00     0.198 A 
ATOM     88  C   UNL A   1      45.375  35.938  28.867  1.00  0.00     0.198 A 
ATOM     89  F   UNL A   1      44.111  34.564  27.432  1.00  0.00    -0.203 F 
ATOM     90  F   UNL A   1      46.841  35.249  32.113  1.00  0.00    -0.200 F 
ATOM     91  C   UNL A   1      46.071  36.118  30.054  1.00  0.00     0.200 A 
ATOM     92  F   UNL A   1      45.267  36.950  27.994  1.00  0.00    -0.200 F 
ATOM     93  F   UNL A   1      46.630  37.304  30.331  1.00  0.00    -0.200 F 
ENDBRANCH  60  83
ENDBRANCH  34  35
ENDBRANCH  27  29
ENDBRANCH  26  27
ENDBRANCH  25  26
ENDBRANCH   1  25
TORSDOF 14
ENDMDL
MODEL 2
REMARK VINA RESULT:     -12.2      4.567      9.837
REMARK SMILES CS(=O)(=O)c1ccc(N2N=C(C(=O)OCCOC(=O)c3ccc(-c4c5nc(c(-c6c(F)c(F)c(F)c(F)c6F)c6ccc([nH]6)c(-c6c(F)c(F)c(F)c(F)c6F)c6nc(c(-c7c(F)c(F)c(F)c(F)c7F)c7ccc4[nH]7)C=C6)C=C5)cc3)C[C@H]2c2cccs2)cc1
REMARK SMILES IDX 15 1 14 2 12 3 13 4 11 5 9 6 10 7 84 8 83 9 8 10 5 11 6 12
REMARK SMILES IDX 91 13 7 14 90 15 2 16 1 17 3 18 4 19 85 20 86 21 89 22 87 23
REMARK SMILES IDX 88 24 16 25 17 26 18 27 19 28 20 29 21 30 82 31 22 32 81 33
REMARK SMILES IDX 23 34 24 35 25 36 75 37 26 38 80 39 74 40 76 41 27 42 79 43
REMARK SMILES IDX 73 44 72 45 28 47 60 48 40 49 59 50 41 51 44 52 58 53 77 54
REMARK SMILES IDX 42 55 43 56 57 58 78 59 45 60 29 61 30 62 38 63 31 64 32 65
REMARK SMILES IDX 36 66 39 67 33 68 34 69 37 70 35 71 61 72 62 73 70 74 63 75
REMARK SMILES IDX 64 76 68 77 71 78 65 79 66 80 69 81 67 82 46 83 47 84 55 85
REMARK SMILES IDX 48 86 49 87 53 88 56 89 50 90 51 91 54 92 52 93
REMARK H PARENT 76 46 44 57
REMARK Flexibility Score: inf
ROOT
ATOM      1  C   UNL A   1      31.614  28.749  25.633  1.00  0.00     0.275 C 
ENDROOT
BRANCH   1   2
ATOM      2  O   UNL A   1      32.493  27.614  25.704  1.00  0.00    -0.458 OA
BRANCH   2   3
ATOM      3  C   UNL A   1      31.929  26.456  26.098  1.00  0.00     0.354 C 
ATOM      4  O   UNL A   1      31.016  26.291  26.876  1.00  0.00    -0.245 OA
BRANCH   3   5
ATOM      5  C   UNL A   1      32.571  25.337  25.323  1.00  0.00     0.148 C 
ATOM      6  N   UNL A   1      32.995  23.413  24.574  1.00  0.00    -0.256 N 
ATOM      7  N   UNL A   1      32.249  24.089  25.490  1.00  0.00    -0.169 NA
ATOM      8  C   UNL A   1      34.088  24.213  24.014  1.00  0.00     0.154 C 
ATOM      9  C   UNL A   1      33.555  25.636  24.233  1.00  0.00     0.099 C 
BRANCH   6  10
ATOM     10  C   UNL A   1      32.912  22.037  24.454  1.00  0.00     0.060 A 
ATOM     11  C   UNL A   1      32.819  19.244  24.214  1.00  0.00     0.067 A 
ATOM     12  C   UNL A   1      33.204  19.825  25.427  1.00  0.00     0.022 A 
ATOM     13  C   UNL A   1      32.470  20.044  23.121  1.00  0.00     0.022 A 
ATOM     14  C   UNL A   1      33.237  21.215  25.545  1.00  0.00     0.029 A 
ATOM     15  C   UNL A   1      32.531  21.435  23.246  1.00  0.00     0.029 A 
BRANCH  11  16
ATOM     16  S   UNL A   1      32.787  17.470  24.115  1.00  0.00     0.175 S 
ATOM     17  C   UNL A   1      34.361  16.895  24.686  1.00  0.00     0.163 C 
ATOM     18  O   UNL A   1      32.709  17.133  22.704  1.00  0.00    -0.224 OA
ATOM     19  O   UNL A   1      31.778  17.020  25.053  1.00  0.00    -0.224 OA
ENDBRANCH  11  16
ENDBRANCH   6  10
BRANCH   8  20
ATOM     20  C   UNL A   1      35.449  23.960  24.649  1.00  0.00     0.030 A 
ATOM     21  C   UNL A   1      35.927  24.484  25.841  1.00  0.00     0.017 A 
ATOM     22  S   UNL A   1      36.656  23.005  23.880  1.00  0.00    -0.147 S 
ATOM     23  C   UNL A   1      37.262  24.077  26.126  1.00  0.00     0.012 A 
ATOM     24  C   UNL A   1      37.772  23.257  25.145  1.00  0.00     0.065 A 
ENDBRANCH   8  20
ENDBRANCH   3   5
ENDBRANCH   2   3
ENDBRANCH   1   2
BRANCH   1  25
ATOM     25  C   UNL A   1      31.998  29.737  26.738  1.00  0.00     0.275 C 
BRANCH  25  26
ATOM     26  O   UNL A   1      33.227  30.409  26.397  1.00  0.00    -0.458 OA
BRANCH  26  27
ATOM     27  C   UNL A   1      33.595  31.408  27.239  1.00  0.00     0.338 C 
ATOM     28  O   UNL A   1      32.932  32.385  27.545  1.00  0.00    -0.246 OA
BRANCH  27  29
ATOM     29  C   UNL A   1      34.900  31.088  27.860  1.00  0.00     0.060 A 
ATOM     30  C   UNL A   1      35.096  29.775  28.305  1.00  0.00     0.016 A 
ATOM     31  C   UNL A   1      35.910  32.050  28.016  1.00  0.00     0.016 A 
ATOM     32  C   UNL A   1      36.299  29.418  28.908  1.00  0.00     0.010 A 
ATOM     33  C   UNL A   1      37.113  31.695  28.635  1.00  0.00     0.010 A 
ATOM     34  C   UNL A   1      37.306  30.379  29.091  1.00  0.00    -0.014 A 
BRANCH  34  35
ATOM     35  C   UNL A   1      38.541  29.990  29.808  1.00  0.00     0.031 A 
ATOM     36  C   UNL A   1      38.782  30.494  31.200  1.00  0.00     0.074 A 
ATOM     37  C   UNL A   1      39.407  29.134  29.239  1.00  0.00     0.049 A 
ATOM     38  N   UNL A   1      39.737  30.186  32.040  1.00  0.00    -0.248 NA
ATOM     39  C   UNL A   1      37.816  31.474  31.719  1.00  0.00     0.031 C 
ATOM     40  C   UNL A   1      39.270  28.559  27.903  1.00  0.00     0.029 A 
ATOM     41  N   UNL A   1      40.564  28.582  29.729  1.00  0.00    -0.354 N 
ATOM     42  C   UNL A   1      39.475  30.912  33.192  1.00  0.00     0.074 A 
ATOM     43  C   UNL A   1      38.288  31.701  32.937  1.00  0.00     0.031 C 
ATOM     44  C   UNL A   1      40.293  27.716  27.685  1.00  0.00     0.029 A 
ATOM     45  C   UNL A   1      41.152  27.693  28.867  1.00  0.00     0.049 A 
ATOM     46  H   UNL A   1      40.935  28.804  30.613  1.00  0.00     0.167 HD
ATOM     47  C   UNL A   1      40.159  30.913  34.360  1.00  0.00     0.037 A 
ATOM     48  C   UNL A   1      42.250  26.931  29.025  1.00  0.00     0.037 A 
ATOM     49  C   UNL A   1      41.345  30.144  34.616  1.00  0.00     0.049 A 
ATOM     50  C   UNL A   1      43.010  26.980  30.320  1.00  0.00     0.074 A 
ATOM     51  C   UNL A   1      42.115  30.097  35.766  1.00  0.00     0.029 A 
ATOM     52  N   UNL A   1      41.934  29.285  33.702  1.00  0.00    -0.354 N 
ATOM     53  N   UNL A   1      42.751  27.664  31.406  1.00  0.00    -0.248 NA
ATOM     54  C   UNL A   1      44.219  26.147  30.408  1.00  0.00     0.031 C 
ATOM     55  C   UNL A   1      43.187  29.225  35.538  1.00  0.00     0.029 A 
ATOM     56  C   UNL A   1      43.072  28.718  34.254  1.00  0.00     0.049 A 
ATOM     57  H   UNL A   1      41.595  29.105  32.796  1.00  0.00     0.167 HD
ATOM     58  C   UNL A   1      43.752  27.338  32.310  1.00  0.00     0.074 A 
ATOM     59  C   UNL A   1      44.624  26.391  31.647  1.00  0.00     0.031 C 
ATOM     60  C   UNL A   1      43.931  27.786  33.576  1.00  0.00     0.037 A 
BRANCH  47  61
ATOM     61  C   UNL A   1      39.636  31.793  35.451  1.00  0.00     0.064 A 
ATOM     62  C   UNL A   1      40.107  33.104  35.610  1.00  0.00     0.173 A 
ATOM     63  C   UNL A   1      38.646  31.329  36.328  1.00  0.00     0.173 A 
ATOM     64  F   UNL A   1      41.067  33.581  34.803  1.00  0.00    -0.203 F 
ATOM     65  C   UNL A   1      39.608  33.920  36.620  1.00  0.00     0.198 A 
ATOM     66  C   UNL A   1      38.143  32.151  37.331  1.00  0.00     0.198 A 
ATOM     67  F   UNL A   1      38.173  30.078  36.214  1.00  0.00    -0.203 F 
ATOM     68  F   UNL A   1      40.086  35.164  36.773  1.00  0.00    -0.200 F 
ATOM     69  C   UNL A   1      38.626  33.445  37.476  1.00  0.00     0.200 A 
ATOM     70  F   UNL A   1      37.197  31.691  38.161  1.00  0.00    -0.200 F 
ATOM     71  F   UNL A   1      38.149  34.231  38.451  1.00  0.00    -0.200 F 
ENDBRANCH  47  61
BRANCH  48  72
ATOM     72  C   UNL A   1      42.681  26.033  27.931  1.00  0.00     0.064 A 
ATOM     73  C   UNL A   1      43.590  26.471  26.959  1.00  0.00     0.173 A 
ATOM     74  C   UNL A   1      42.195  24.721  27.841  1.00  0.00     0.173 A 
ATOM     75  F   UNL A   1      44.062  27.725  26.997  1.00  0.00    -0.203 F 
ATOM     76  C   UNL A   1      43.997  25.627  25.929  1.00  0.00     0.198 A 
ATOM     77  C   UNL A   1      42.610  23.876  26.817  1.00  0.00     0.198 A 
ATOM     78  F   UNL A   1      41.317  24.265  28.746  1.00  0.00    -0.203 F 
ATOM     79  F   UNL A   1      44.851  26.073  24.998  1.00  0.00    -0.200 F 
ATOM     80  C   UNL A   1      43.509  24.330  25.861  1.00  0.00     0.200 A 
ATOM     81  F   UNL A   1      42.136  22.623  26.750  1.00  0.00    -0.200 F 
ATOM     82  F   UNL A   1      43.898  23.520  24.867  1.00  0.00    -0.200 F 
ENDBRANCH  48  72
BRANCH  60  83
ATOM     83  C   UNL A   1      45.121  27.267  34.317  1.00  0.00     0.064 A 
ATOM     84  C   UNL A   1      45.035  26.099  35.087  1.00  0.00     0.173 A 
ATOM     85  C   UNL A   1      46.360  27.916  34.229  1.00  0.00     0.173 A 
ATOM     86  F   UNL A   1      43.864  25.454  35.209  1.00  0.00    -0.203 F 
ATOM     87  C   UNL A   1      46.151  25.601  35.753  1.00  0.00     0.198 A 
ATOM     88  C   UNL A   1      47.476  27.410  34.889  1.00  0.00     0.198 A 
ATOM     89  F   UNL A   1      46.487  29.039  33.505  1.00  0.00    -0.203 F 
ATOM     90  F   UNL A   1      46.044  24.493  36.502  1.00  0.00    -0.200 F 
ATOM     91  C   UNL A   1      47.370  26.255  35.650  1.00  0.00     0.200 A 
ATOM     92  F   UNL A   1      48.655  28.042  34.790  1.00  0.00    -0.200 F 
ATOM     93  F   UNL A   1      48.444  25.774  36.293  1.00  0.00    -0.200 F 
ENDBRANCH  60  83
ENDBRANCH  34  35
ENDBRANCH  27  29
ENDBRANCH  26  27
ENDBRANCH  25  26
ENDBRANCH   1  25
TORSDOF 14
ENDMDL
MODEL 3
REMARK VINA RESULT:     -12.2      2.042      2.900
REMARK SMILES CS(=O)(=O)c1ccc(N2N=C(C(=O)OCCOC(=O)c3ccc(-c4c5nc(c(-c6c(F)c(F)c(F)c(F)c6F)c6ccc([nH]6)c(-c6c(F)c(F)c(F)c(F)c6F)c6nc(c(-c7c(F)c(F)c(F)c(F)c7F)c7ccc4[nH]7)C=C6)C=C5)cc3)C[C@H]2c2cccs2)cc1
REMARK SMILES IDX 15 1 14 2 12 3 13 4 11 5 9 6 10 7 84 8 83 9 8 10 5 11 6 12
REMARK SMILES IDX 91 13 7 14 90 15 2 16 1 17 3 18 4 19 85 20 86 21 89 22 87 23
REMARK SMILES IDX 88 24 16 25 17 26 18 27 19 28 20 29 21 30 82 31 22 32 81 33
REMARK SMILES IDX 23 34 24 35 25 36 75 37 26 38 80 39 74 40 76 41 27 42 79 43
REMARK SMILES IDX 73 44 72 45 28 47 60 48 40 49 59 50 41 51 44 52 58 53 77 54
REMARK SMILES IDX 42 55 43 56 57 58 78 59 45 60 29 61 30 62 38 63 31 64 32 65
REMARK SMILES IDX 36 66 39 67 33 68 34 69 37 70 35 71 61 72 62 73 70 74 63 75
REMARK SMILES IDX 64 76 68 77 71 78 65 79 66 80 69 81 67 82 46 83 47 84 55 85
REMARK SMILES IDX 48 86 49 87 53 88 56 89 50 90 51 91 54 92 52 93
REMARK H PARENT 76 46 44 57
REMARK Flexibility Score: inf
ROOT
ATOM      1  C   UNL A   1      35.474  22.289  25.142  1.00  0.00     0.275 C 
ENDROOT
BRANCH   1   2
ATOM      2  O   UNL A   1      35.430  23.699  24.868  1.00  0.00    -0.458 OA
BRANCH   2   3
ATOM      3  C   UNL A   1      34.698  24.070  23.800  1.00  0.00     0.354 C 
ATOM      4  O   UNL A   1      34.810  23.708  22.650  1.00  0.00    -0.245 OA
BRANCH   3   5
ATOM      5  C   UNL A   1      33.600  24.981  24.281  1.00  0.00     0.148 C 
ATOM      6  N   UNL A   1      31.995  26.346  24.281  1.00  0.00    -0.256 N 
ATOM      7  N   UNL A   1      32.913  25.738  23.480  1.00  0.00    -0.169 NA
ATOM      8  C   UNL A   1      32.307  26.232  25.708  1.00  0.00     0.154 C 
ATOM      9  C   UNL A   1      33.183  24.972  25.720  1.00  0.00     0.099 C 
BRANCH   6  10
ATOM     10  C   UNL A   1      31.069  27.237  23.767  1.00  0.00     0.060 A 
ATOM     11  C   UNL A   1      29.214  29.093  22.777  1.00  0.00     0.067 A 
ATOM     12  C   UNL A   1      30.585  29.340  22.640  1.00  0.00     0.022 A 
ATOM     13  C   UNL A   1      28.760  27.924  23.395  1.00  0.00     0.022 A 
ATOM     14  C   UNL A   1      31.504  28.407  23.123  1.00  0.00     0.029 A 
ATOM     15  C   UNL A   1      29.692  27.010  23.896  1.00  0.00     0.029 A 
BRANCH  11  16
ATOM     16  S   UNL A   1      28.083  30.308  22.141  1.00  0.00     0.175 S 
ATOM     17  C   UNL A   1      28.817  31.893  22.428  1.00  0.00     0.163 C 
ATOM     18  O   UNL A   1      26.893  30.244  22.971  1.00  0.00    -0.224 OA
ATOM     19  O   UNL A   1      28.013  30.098  20.709  1.00  0.00    -0.224 OA
ENDBRANCH  11  16
ENDBRANCH   6  10
BRANCH   8  20
ATOM     20  C   UNL A   1      32.982  27.458  26.309  1.00  0.00     0.030 A 
ATOM     21  C   UNL A   1      34.330  27.780  26.259  1.00  0.00     0.017 A 
ATOM     22  S   UNL A   1      32.118  28.615  27.245  1.00  0.00    -0.147 S 
ATOM     23  C   UNL A   1      34.637  28.981  26.961  1.00  0.00     0.012 A 
ATOM     24  C   UNL A   1      33.519  29.544  27.532  1.00  0.00     0.065 A 
ENDBRANCH   8  20
ENDBRANCH   3   5
ENDBRANCH   2   3
ENDBRANCH   1   2
BRANCH   1  25
ATOM     25  C   UNL A   1      36.844  21.944  25.730  1.00  0.00     0.275 C 
BRANCH  25  26
ATOM     26  O   UNL A   1      37.672  23.123  25.780  1.00  0.00    -0.458 OA
BRANCH  26  27
ATOM     27  C   UNL A   1      38.925  22.933  26.266  1.00  0.00     0.338 C 
ATOM     28  O   UNL A   1      39.595  21.916  26.177  1.00  0.00    -0.246 OA
BRANCH  27  29
ATOM     29  C   UNL A   1      39.447  24.199  26.826  1.00  0.00     0.060 A 
ATOM     30  C   UNL A   1      39.243  24.431  28.192  1.00  0.00     0.016 A 
ATOM     31  C   UNL A   1      40.112  25.149  26.036  1.00  0.00     0.016 A 
ATOM     32  C   UNL A   1      39.702  25.610  28.772  1.00  0.00     0.010 A 
ATOM     33  C   UNL A   1      40.560  26.340  26.616  1.00  0.00     0.010 A 
ATOM     34  C   UNL A   1      40.346  26.577  27.985  1.00  0.00    -0.014 A 
BRANCH  34  35
ATOM     35  C   UNL A   1      40.749  27.856  28.613  1.00  0.00     0.031 A 
ATOM     36  C   UNL A   1      42.199  28.129  28.880  1.00  0.00     0.074 A 
ATOM     37  C   UNL A   1      39.825  28.794  28.877  1.00  0.00     0.049 A 
ATOM     38  N   UNL A   1      42.772  29.223  29.315  1.00  0.00    -0.248 NA
ATOM     39  C   UNL A   1      43.133  27.023  28.619  1.00  0.00     0.031 C 
ATOM     40  C   UNL A   1      38.389  28.655  28.640  1.00  0.00     0.029 A 
ATOM     41  N   UNL A   1      39.964  30.063  29.382  1.00  0.00    -0.354 N 
ATOM     42  C   UNL A   1      44.130  28.947  29.356  1.00  0.00     0.074 A 
ATOM     43  C   UNL A   1      44.299  27.574  28.931  1.00  0.00     0.031 C 
ATOM     44  C   UNL A   1      37.779  29.803  28.980  1.00  0.00     0.029 A 
ATOM     45  C   UNL A   1      38.781  30.754  29.455  1.00  0.00     0.049 A 
ATOM     46  H   UNL A   1      40.828  30.439  29.665  1.00  0.00     0.167 HD
ATOM     47  C   UNL A   1      45.146  29.769  29.709  1.00  0.00     0.037 A 
ATOM     48  C   UNL A   1      38.542  32.021  29.841  1.00  0.00     0.037 A 
ATOM     49  C   UNL A   1      44.985  31.129  30.145  1.00  0.00     0.049 A 
ATOM     50  C   UNL A   1      39.684  32.900  30.262  1.00  0.00     0.074 A 
ATOM     51  C   UNL A   1      45.957  32.033  30.540  1.00  0.00     0.029 A 
ATOM     52  N   UNL A   1      43.766  31.781  30.244  1.00  0.00    -0.354 N 
ATOM     53  N   UNL A   1      40.967  32.633  30.291  1.00  0.00    -0.248 NA
ATOM     54  C   UNL A   1      39.343  34.260  30.705  1.00  0.00     0.031 C 
ATOM     55  C   UNL A   1      45.323  33.227  30.902  1.00  0.00     0.029 A 
ATOM     56  C   UNL A   1      43.959  33.070  30.716  1.00  0.00     0.049 A 
ATOM     57  H   UNL A   1      42.894  31.388  30.015  1.00  0.00     0.167 HD
ATOM     58  C   UNL A   1      41.587  33.790  30.741  1.00  0.00     0.074 A 
ATOM     59  C   UNL A   1      40.541  34.765  30.971  1.00  0.00     0.031 C 
ATOM     60  C   UNL A   1      42.905  34.021  30.947  1.00  0.00     0.037 A 
BRANCH  47  61
ATOM     61  C   UNL A   1      46.529  29.204  29.645  1.00  0.00     0.064 A 
ATOM     62  C   UNL A   1      47.304  29.320  28.483  1.00  0.00     0.173 A 
ATOM     63  C   UNL A   1      47.087  28.560  30.758  1.00  0.00     0.173 A 
ATOM     64  F   UNL A   1      46.800  29.914  27.390  1.00  0.00    -0.203 F 
ATOM     65  C   UNL A   1      48.593  28.802  28.434  1.00  0.00     0.198 A 
ATOM     66  C   UNL A   1      48.381  28.051  30.708  1.00  0.00     0.198 A 
ATOM     67  F   UNL A   1      46.376  28.421  31.887  1.00  0.00    -0.203 F 
ATOM     68  F   UNL A   1      49.314  28.902  27.307  1.00  0.00    -0.200 F 
ATOM     69  C   UNL A   1      49.131  28.171  29.547  1.00  0.00     0.200 A 
ATOM     70  F   UNL A   1      48.899  27.438  31.782  1.00  0.00    -0.200 F 
ATOM     71  F   UNL A   1      50.373  27.668  29.498  1.00  0.00    -0.200 F 
ENDBRANCH  47  61
BRANCH  48  72
ATOM     72  C   UNL A   1      37.156  32.542  29.821  1.00  0.00     0.064 A 
ATOM     73  C   UNL A   1      36.302  32.349  30.914  1.00  0.00     0.173 A 
ATOM     74  C   UNL A   1      36.666  33.244  28.712  1.00  0.00     0.173 A 
ATOM     75  F   UNL A   1      36.726  31.664  31.986  1.00  0.00    -0.203 F 
ATOM     76  C   UNL A   1      34.999  32.839  30.897  1.00  0.00     0.198 A 
ATOM     77  C   UNL A   1      35.367  33.741  28.700  1.00  0.00     0.198 A 
ATOM     78  F   UNL A   1      37.449  33.443  27.641  1.00  0.00    -0.203 F 
ATOM     79  F   UNL A   1      34.192  32.625  31.946  1.00  0.00    -0.200 F 
ATOM     80  C   UNL A   1      34.534  33.537  29.793  1.00  0.00     0.200 A 
ATOM     81  F   UNL A   1      34.917  34.413  27.631  1.00  0.00    -0.200 F 
ATOM     82  F   UNL A   1      33.278  34.005  29.776  1.00  0.00    -0.200 F 
ENDBRANCH  48  72
BRANCH  60  83
ATOM     83  C   UNL A   1      43.286  35.374  31.457  1.00  0.00     0.064 A 
ATOM     84  C   UNL A   1      43.664  36.395  30.574  1.00  0.00     0.173 A 
ATOM     85  C   UNL A   1      43.238  35.663  32.827  1.00  0.00     0.173 A 
ATOM     86  F   UNL A   1      43.736  36.157  29.255  1.00  0.00    -0.203 F 
ATOM     87  C   UNL A   1      43.989  37.662  31.048  1.00  0.00     0.198 A 
ATOM     88  C   UNL A   1      43.555  36.934  33.297  1.00  0.00     0.198 A 
ATOM     89  F   UNL A   1      42.884  34.714  33.708  1.00  0.00    -0.203 F 
ATOM     90  F   UNL A   1      44.368  38.621  30.190  1.00  0.00    -0.200 F 
ATOM     91  C   UNL A   1      43.931  37.931  32.408  1.00  0.00     0.200 A 
ATOM     92  F   UNL A   1      43.500  37.194  34.612  1.00  0.00    -0.200 F 
ATOM     93  F   UNL A   1      44.246  39.151  32.864  1.00  0.00    -0.200 F 
ENDBRANCH  60  83
ENDBRANCH  34  35
ENDBRANCH  27  29
ENDBRANCH  26  27
ENDBRANCH  25  26
ENDBRANCH   1  25
TORSDOF 14
ENDMDL
