MODEL 1
REMARK VINA RESULT:     -12.6      0.000      0.000
REMARK SMILES CCn1nc(C(=O)OCCOC(=O)c2ccc(-c3c4nc(c(-c5c(F)c(F)c(F)c(F)c5F)c5ccc([nH]5)c(-c5c(F)c(F)c(F)c(F)c5F)c5nc(c(-c6c(F)c(F)c(F)c(F)c6F)c6ccc3[nH]6)C=C5)C=C4)cc2)c2c1CC[C@H]([NH2+]Cc1nn(CC)c3ccccc13)C2
REMARK SMILES IDX 9 1 8 2 6 3 7 4 5 5 3 6 4 7 78 8 77 9 79 10 95 11 80 12
REMARK SMILES IDX 81 13 2 14 1 15 82 16 83 19 84 20 85 21 94 22 86 23 89 24
REMARK SMILES IDX 93 25 90 26 92 27 91 28 87 29 88 30 10 31 11 32 12 33 13 34
REMARK SMILES IDX 14 35 15 36 76 37 16 38 75 39 17 40 18 41 19 42 69 43 20 44
REMARK SMILES IDX 74 45 68 46 70 47 21 48 73 49 67 50 66 51 22 53 54 54 34 55
REMARK SMILES IDX 53 56 35 57 38 58 52 59 71 60 36 61 37 62 51 64 72 65 39 66
REMARK SMILES IDX 23 67 24 68 32 69 25 70 26 71 30 72 33 73 27 74 28 75 31 76
REMARK SMILES IDX 29 77 55 78 56 79 64 80 57 81 58 82 62 83 65 84 59 85 60 86
REMARK SMILES IDX 63 87 61 88 40 89 41 90 49 91 42 92 43 93 47 94 50 95 44 96
REMARK SMILES IDX 45 97 48 98 46 99
REMARK H PARENT 82 17 82 18 70 52 38 63
REMARK Flexibility Score: inf
ROOT
ATOM      1  C   UNL A   1      34.449  29.440  27.049  1.00  0.00     0.275 C 
ENDROOT
BRANCH   1   2
ATOM      2  O   UNL A   1      33.494  29.562  25.982  1.00  0.00    -0.457 OA
BRANCH   2   3
ATOM      3  C   UNL A   1      32.156  29.758  26.203  1.00  0.00     0.359 C 
ATOM      4  O   UNL A   1      31.687  30.262  27.212  1.00  0.00    -0.244 OA
BRANCH   3   5
ATOM      5  C   UNL A   1      31.381  29.163  25.106  1.00  0.00     0.174 A 
ATOM      6  N   UNL A   1      30.032  28.783  23.483  1.00  0.00    -0.269 N 
ATOM      7  N   UNL A   1      30.667  29.789  24.159  1.00  0.00    -0.165 NA
ATOM      8  C   UNL A   1      30.360  27.533  23.954  1.00  0.00     0.043 A 
ATOM      9  C   UNL A   1      31.186  27.778  25.007  1.00  0.00     0.014 A 
ATOM     10  C   UNL A   1      29.930  26.158  23.571  1.00  0.00     0.062 C 
ATOM     11  C   UNL A   1      31.567  26.797  26.007  1.00  0.00     0.105 C 
ATOM     12  C   UNL A   1      30.166  25.130  24.751  1.00  0.00     0.072 C 
ATOM     13  C   UNL A   1      31.450  25.348  25.623  1.00  0.00     0.187 C 
BRANCH   6  14
ATOM     14  C   UNL A   1      29.079  29.125  22.439  1.00  0.00     0.141 C 
ATOM     15  C   UNL A   1      27.730  29.630  22.949  1.00  0.00     0.029 C 
ENDBRANCH   6  14
BRANCH  13  16
ATOM     16  N   UNL A   1      31.493  24.547  26.891  1.00  0.00    -0.338 N 
ATOM     17  H   UNL A   1      30.854  24.980  27.558  1.00  0.00     0.346 HD
ATOM     18  H   UNL A   1      32.468  24.553  27.192  1.00  0.00     0.346 HD
BRANCH  16  19
ATOM     19  C   UNL A   1      31.111  23.094  26.758  1.00  0.00     0.320 C 
BRANCH  19  20
ATOM     20  C   UNL A   1      32.123  22.186  26.014  1.00  0.00     0.124 A 
ATOM     21  N   UNL A   1      31.766  21.014  25.445  1.00  0.00    -0.171 NA
ATOM     22  C   UNL A   1      33.549  22.381  25.897  1.00  0.00     0.029 A 
ATOM     23  N   UNL A   1      32.940  20.427  25.107  1.00  0.00    -0.265 N 
ATOM     24  C   UNL A   1      34.016  21.275  25.187  1.00  0.00     0.069 A 
ATOM     25  C   UNL A   1      34.511  23.299  26.378  1.00  0.00     0.012 A 
ATOM     26  C   UNL A   1      35.354  21.105  24.805  1.00  0.00     0.028 A 
ATOM     27  C   UNL A   1      35.876  23.059  26.132  1.00  0.00     0.001 A 
ATOM     28  C   UNL A   1      36.285  22.000  25.324  1.00  0.00     0.002 A 
BRANCH  23  29
ATOM     29  C   UNL A   1      33.023  19.008  24.781  1.00  0.00     0.141 C 
ATOM     30  C   UNL A   1      32.387  18.601  23.452  1.00  0.00     0.029 C 
ENDBRANCH  23  29
ENDBRANCH  19  20
ENDBRANCH  16  19
ENDBRANCH  13  16
ENDBRANCH   3   5
ENDBRANCH   2   3
ENDBRANCH   1   2
BRANCH   1  31
ATOM     31  C   UNL A   1      35.050  30.755  27.511  1.00  0.00     0.275 C 
BRANCH  31  32
ATOM     32  O   UNL A   1      36.012  30.439  28.491  1.00  0.00    -0.458 OA
BRANCH  32  33
ATOM     33  C   UNL A   1      36.623  31.563  28.938  1.00  0.00     0.338 C 
ATOM     34  O   UNL A   1      36.819  32.585  28.293  1.00  0.00    -0.246 OA
BRANCH  33  35
ATOM     35  C   UNL A   1      36.960  31.383  30.380  1.00  0.00     0.060 A 
ATOM     36  C   UNL A   1      38.121  32.096  30.654  1.00  0.00     0.016 A 
ATOM     37  C   UNL A   1      36.802  30.058  30.783  1.00  0.00     0.016 A 
ATOM     38  C   UNL A   1      39.264  31.357  30.567  1.00  0.00     0.010 A 
ATOM     39  C   UNL A   1      37.928  29.297  30.684  1.00  0.00     0.010 A 
ATOM     40  C   UNL A   1      39.125  29.968  30.440  1.00  0.00    -0.014 A 
BRANCH  40  41
ATOM     41  C   UNL A   1      40.319  29.203  30.241  1.00  0.00     0.031 A 
ATOM     42  C   UNL A   1      40.990  29.039  31.537  1.00  0.00     0.074 A 
ATOM     43  C   UNL A   1      40.665  28.678  29.057  1.00  0.00     0.049 A 
ATOM     44  N   UNL A   1      41.943  29.767  32.014  1.00  0.00    -0.248 NA
ATOM     45  C   UNL A   1      40.283  28.225  32.542  1.00  0.00     0.031 C 
ATOM     46  C   UNL A   1      39.885  28.572  27.824  1.00  0.00     0.029 A 
ATOM     47  N   UNL A   1      41.821  28.032  28.756  1.00  0.00    -0.354 N 
ATOM     48  C   UNL A   1      42.098  29.309  33.314  1.00  0.00     0.074 A 
ATOM     49  C   UNL A   1      40.873  28.651  33.659  1.00  0.00     0.031 C 
ATOM     50  C   UNL A   1      40.497  27.701  26.986  1.00  0.00     0.029 A 
ATOM     51  C   UNL A   1      41.770  27.313  27.568  1.00  0.00     0.049 A 
ATOM     52  H   UNL A   1      42.621  28.069  29.328  1.00  0.00     0.167 HD
ATOM     53  C   UNL A   1      43.345  29.127  33.821  1.00  0.00     0.037 A 
ATOM     54  C   UNL A   1      42.695  26.386  27.218  1.00  0.00     0.037 A 
ATOM     55  C   UNL A   1      44.318  29.845  33.031  1.00  0.00     0.049 A 
ATOM     56  C   UNL A   1      43.912  26.676  28.029  1.00  0.00     0.074 A 
ATOM     57  C   UNL A   1      44.602  31.170  32.778  1.00  0.00     0.029 A 
ATOM     58  N   UNL A   1      44.882  29.116  32.013  1.00  0.00    -0.354 N 
ATOM     59  N   UNL A   1      44.617  27.771  27.913  1.00  0.00    -0.248 NA
ATOM     60  C   UNL A   1      44.095  25.954  29.281  1.00  0.00     0.031 C 
ATOM     61  C   UNL A   1      45.079  31.213  31.431  1.00  0.00     0.029 A 
ATOM     62  C   UNL A   1      45.119  29.911  30.925  1.00  0.00     0.049 A 
ATOM     63  H   UNL A   1      45.087  28.154  32.060  1.00  0.00     0.167 HD
ATOM     64  C   UNL A   1      45.006  28.087  29.208  1.00  0.00     0.074 A 
ATOM     65  C   UNL A   1      44.768  26.871  29.979  1.00  0.00     0.031 C 
ATOM     66  C   UNL A   1      45.202  29.389  29.575  1.00  0.00     0.037 A 
BRANCH  53  67
ATOM     67  C   UNL A   1      43.721  27.919  34.658  1.00  0.00     0.064 A 
ATOM     68  C   UNL A   1      43.559  26.643  34.088  1.00  0.00     0.173 A 
ATOM     69  C   UNL A   1      43.952  27.925  36.056  1.00  0.00     0.173 A 
ATOM     70  F   UNL A   1      43.315  26.510  32.776  1.00  0.00    -0.203 F 
ATOM     71  C   UNL A   1      43.556  25.482  34.866  1.00  0.00     0.198 A 
ATOM     72  C   UNL A   1      44.001  26.763  36.819  1.00  0.00     0.198 A 
ATOM     73  F   UNL A   1      44.032  29.043  36.783  1.00  0.00    -0.203 F 
ATOM     74  F   UNL A   1      43.277  24.303  34.295  1.00  0.00    -0.200 F 
ATOM     75  C   UNL A   1      43.771  25.543  36.231  1.00  0.00     0.200 A 
ATOM     76  F   UNL A   1      44.190  26.856  38.143  1.00  0.00    -0.200 F 
ATOM     77  F   UNL A   1      43.709  24.440  36.986  1.00  0.00    -0.200 F 
ENDBRANCH  53  67
BRANCH  54  78
ATOM     78  C   UNL A   1      42.444  25.060  26.606  1.00  0.00     0.064 A 
ATOM     79  C   UNL A   1      43.144  24.645  25.461  1.00  0.00     0.173 A 
ATOM     80  C   UNL A   1      41.729  24.061  27.298  1.00  0.00     0.173 A 
ATOM     81  F   UNL A   1      43.895  25.523  24.780  1.00  0.00    -0.203 F 
ATOM     82  C   UNL A   1      43.140  23.310  25.042  1.00  0.00     0.198 A 
ATOM     83  C   UNL A   1      41.724  22.730  26.877  1.00  0.00     0.198 A 
ATOM     84  F   UNL A   1      41.103  24.337  28.451  1.00  0.00    -0.203 F 
ATOM     85  F   UNL A   1      43.867  22.940  23.978  1.00  0.00    -0.200 F 
ATOM     86  C   UNL A   1      42.439  22.352  25.757  1.00  0.00     0.200 A 
ATOM     87  F   UNL A   1      41.077  21.807  27.603  1.00  0.00    -0.200 F 
ATOM     88  F   UNL A   1      42.485  21.063  25.392  1.00  0.00    -0.200 F 
ENDBRANCH  54  78
BRANCH  66  89
ATOM     89  C   UNL A   1      45.354  30.398  28.468  1.00  0.00     0.064 A 
ATOM     90  C   UNL A   1      44.296  31.139  27.914  1.00  0.00     0.173 A 
ATOM     91  C   UNL A   1      46.651  30.710  28.042  1.00  0.00     0.173 A 
ATOM     92  F   UNL A   1      43.037  30.951  28.328  1.00  0.00    -0.203 F 
ATOM     93  C   UNL A   1      44.530  32.125  26.955  1.00  0.00     0.198 A 
ATOM     94  C   UNL A   1      46.886  31.719  27.112  1.00  0.00     0.198 A 
ATOM     95  F   UNL A   1      47.704  30.065  28.570  1.00  0.00    -0.203 F 
ATOM     96  F   UNL A   1      43.504  32.812  26.431  1.00  0.00    -0.200 F 
ATOM     97  C   UNL A   1      45.825  32.420  26.562  1.00  0.00     0.200 A 
ATOM     98  F   UNL A   1      48.144  32.028  26.770  1.00  0.00    -0.200 F 
ATOM     99  F   UNL A   1      46.056  33.396  25.672  1.00  0.00    -0.200 F 
ENDBRANCH  66  89
ENDBRANCH  40  41
ENDBRANCH  33  35
ENDBRANCH  32  33
ENDBRANCH  31  32
ENDBRANCH   1  31
TORSDOF 16
ENDMDL
MODEL 2
REMARK VINA RESULT:     -12.4      3.108      8.998
REMARK SMILES CCn1nc(C(=O)OCCOC(=O)c2ccc(-c3c4nc(c(-c5c(F)c(F)c(F)c(F)c5F)c5ccc([nH]5)c(-c5c(F)c(F)c(F)c(F)c5F)c5nc(c(-c6c(F)c(F)c(F)c(F)c6F)c6ccc3[nH]6)C=C5)C=C4)cc2)c2c1CC[C@H]([NH2+]Cc1nn(CC)c3ccccc13)C2
REMARK SMILES IDX 9 1 8 2 6 3 7 4 5 5 3 6 4 7 78 8 77 9 79 10 95 11 80 12
REMARK SMILES IDX 81 13 2 14 1 15 82 16 83 19 84 20 85 21 94 22 86 23 89 24
REMARK SMILES IDX 93 25 90 26 92 27 91 28 87 29 88 30 10 31 11 32 12 33 13 34
REMARK SMILES IDX 14 35 15 36 76 37 16 38 75 39 17 40 18 41 19 42 69 43 20 44
REMARK SMILES IDX 74 45 68 46 70 47 21 48 73 49 67 50 66 51 22 53 54 54 34 55
REMARK SMILES IDX 53 56 35 57 38 58 52 59 71 60 36 61 37 62 51 64 72 65 39 66
REMARK SMILES IDX 23 67 24 68 32 69 25 70 26 71 30 72 33 73 27 74 28 75 31 76
REMARK SMILES IDX 29 77 55 78 56 79 64 80 57 81 58 82 62 83 65 84 59 85 60 86
REMARK SMILES IDX 63 87 61 88 40 89 41 90 49 91 42 92 43 93 47 94 50 95 44 96
REMARK SMILES IDX 45 97 48 98 46 99
REMARK H PARENT 82 17 82 18 70 52 38 63
REMARK Flexibility Score: inf
ROOT
ATOM      1  C   UNL A   1      38.536  21.349  25.710  1.00  0.00     0.275 C 
ENDROOT
BRANCH   1   2
ATOM      2  O   UNL A   1      37.601  22.187  25.010  1.00  0.00    -0.457 OA
BRANCH   2   3
ATOM      3  C   UNL A   1      36.440  22.641  25.582  1.00  0.00     0.359 C 
ATOM      4  O   UNL A   1      36.371  23.585  26.353  1.00  0.00    -0.244 OA
BRANCH   3   5
ATOM      5  C   UNL A   1      35.330  21.748  25.221  1.00  0.00     0.174 A 
ATOM      6  N   UNL A   1      34.105  20.087  24.640  1.00  0.00    -0.269 N 
ATOM      7  N   UNL A   1      35.328  20.409  25.162  1.00  0.00    -0.165 NA
ATOM      8  C   UNL A   1      33.318  21.191  24.406  1.00  0.00     0.043 A 
ATOM      9  C   UNL A   1      34.110  22.245  24.741  1.00  0.00     0.014 A 
ATOM     10  C   UNL A   1      31.947  21.360  23.845  1.00  0.00     0.062 C 
ATOM     11  C   UNL A   1      33.837  23.629  24.398  1.00  0.00     0.105 C 
ATOM     12  C   UNL A   1      31.729  22.825  23.287  1.00  0.00     0.072 C 
ATOM     13  C   UNL A   1      32.409  23.988  24.089  1.00  0.00     0.187 C 
BRANCH   6  14
ATOM     14  C   UNL A   1      33.808  18.696  24.341  1.00  0.00     0.141 C 
ATOM     15  C   UNL A   1      32.859  18.019  25.329  1.00  0.00     0.029 C 
ENDBRANCH   6  14
BRANCH  13  16
ATOM     16  N   UNL A   1      32.426  25.313  23.386  1.00  0.00    -0.338 N 
ATOM     17  H   UNL A   1      32.842  25.173  22.464  1.00  0.00     0.346 HD
ATOM     18  H   UNL A   1      32.960  25.941  23.986  1.00  0.00     0.346 HD
BRANCH  16  19
ATOM     19  C   UNL A   1      31.081  25.967  23.194  1.00  0.00     0.320 C 
BRANCH  19  20
ATOM     20  C   UNL A   1      30.990  27.467  23.570  1.00  0.00     0.124 A 
ATOM     21  N   UNL A   1      31.957  28.101  24.269  1.00  0.00    -0.171 NA
ATOM     22  C   UNL A   1      29.880  28.362  23.335  1.00  0.00     0.029 A 
ATOM     23  N   UNL A   1      31.418  29.303  24.585  1.00  0.00    -0.265 N 
ATOM     24  C   UNL A   1      30.260  29.578  23.900  1.00  0.00     0.069 A 
ATOM     25  C   UNL A   1      28.573  28.271  22.802  1.00  0.00     0.012 A 
ATOM     26  C   UNL A   1      29.481  30.742  23.837  1.00  0.00     0.028 A 
ATOM     27  C   UNL A   1      27.723  29.390  22.871  1.00  0.00     0.001 A 
ATOM     28  C   UNL A   1      28.185  30.616  23.344  1.00  0.00     0.002 A 
BRANCH  23  29
ATOM     29  C   UNL A   1      31.992  30.155  25.620  1.00  0.00     0.141 C 
ATOM     30  C   UNL A   1      31.930  29.596  27.042  1.00  0.00     0.029 C 
ENDBRANCH  23  29
ENDBRANCH  19  20
ENDBRANCH  16  19
ENDBRANCH  13  16
ENDBRANCH   3   5
ENDBRANCH   2   3
ENDBRANCH   1   2
BRANCH   1  31
ATOM     31  C   UNL A   1      39.573  22.102  26.521  1.00  0.00     0.275 C 
BRANCH  31  32
ATOM     32  O   UNL A   1      39.518  23.447  26.102  1.00  0.00    -0.458 OA
BRANCH  32  33
ATOM     33  C   UNL A   1      39.892  24.275  27.107  1.00  0.00     0.338 C 
ATOM     34  O   UNL A   1      39.268  24.489  28.137  1.00  0.00    -0.246 OA
BRANCH  33  35
ATOM     35  C   UNL A   1      41.237  24.835  26.788  1.00  0.00     0.060 A 
ATOM     36  C   UNL A   1      41.980  24.892  27.961  1.00  0.00     0.016 A 
ATOM     37  C   UNL A   1      41.148  25.926  25.925  1.00  0.00     0.016 A 
ATOM     38  C   UNL A   1      41.921  26.096  28.602  1.00  0.00     0.010 A 
ATOM     39  C   UNL A   1      41.067  27.136  26.545  1.00  0.00     0.010 A 
ATOM     40  C   UNL A   1      41.328  27.163  27.914  1.00  0.00    -0.014 A 
BRANCH  40  41
ATOM     41  C   UNL A   1      41.169  28.397  28.624  1.00  0.00     0.031 A 
ATOM     42  C   UNL A   1      42.298  29.276  28.291  1.00  0.00     0.074 A 
ATOM     43  C   UNL A   1      40.101  28.674  29.383  1.00  0.00     0.049 A 
ATOM     44  N   UNL A   1      43.390  29.423  28.963  1.00  0.00    -0.248 NA
ATOM     45  C   UNL A   1      42.372  29.747  26.896  1.00  0.00     0.031 C 
ATOM     46  C   UNL A   1      38.834  27.951  29.504  1.00  0.00     0.029 A 
ATOM     47  N   UNL A   1      39.916  29.766  30.168  1.00  0.00    -0.354 N 
ATOM     48  C   UNL A   1      44.182  30.219  28.148  1.00  0.00     0.074 A 
ATOM     49  C   UNL A   1      43.659  30.083  26.820  1.00  0.00     0.031 C 
ATOM     50  C   UNL A   1      37.930  28.743  30.129  1.00  0.00     0.029 A 
ATOM     51  C   UNL A   1      38.600  29.953  30.572  1.00  0.00     0.049 A 
ATOM     52  H   UNL A   1      40.649  30.371  30.427  1.00  0.00     0.167 HD
ATOM     53  C   UNL A   1      44.899  31.237  28.690  1.00  0.00     0.037 A 
ATOM     54  C   UNL A   1      38.145  31.107  31.118  1.00  0.00     0.037 A 
ATOM     55  C   UNL A   1      45.028  31.056  30.117  1.00  0.00     0.049 A 
ATOM     56  C   UNL A   1      39.342  31.835  31.629  1.00  0.00     0.074 A 
ATOM     57  C   UNL A   1      45.661  30.154  30.946  1.00  0.00     0.029 A 
ATOM     58  N   UNL A   1      44.049  31.662  30.864  1.00  0.00    -0.354 N 
ATOM     59  N   UNL A   1      40.099  31.395  32.600  1.00  0.00    -0.248 NA
ATOM     60  C   UNL A   1      39.961  32.833  30.768  1.00  0.00     0.031 C 
ATOM     61  C   UNL A   1      44.825  30.035  32.099  1.00  0.00     0.029 A 
ATOM     62  C   UNL A   1      43.739  30.903  31.959  1.00  0.00     0.049 A 
ATOM     63  H   UNL A   1      43.627  32.524  30.641  1.00  0.00     0.167 HD
ATOM     64  C   UNL A   1      41.392  31.743  32.235  1.00  0.00     0.074 A 
ATOM     65  C   UNL A   1      41.230  32.732  31.175  1.00  0.00     0.031 C 
ATOM     66  C   UNL A   1      42.454  30.977  32.627  1.00  0.00     0.037 A 
BRANCH  53  67
ATOM     67  C   UNL A   1      45.003  32.604  28.040  1.00  0.00     0.064 A 
ATOM     68  C   UNL A   1      46.275  33.051  27.639  1.00  0.00     0.173 A 
ATOM     69  C   UNL A   1      43.994  33.599  28.051  1.00  0.00     0.173 A 
ATOM     70  F   UNL A   1      47.315  32.204  27.608  1.00  0.00    -0.203 F 
ATOM     71  C   UNL A   1      46.527  34.394  27.346  1.00  0.00     0.198 A 
ATOM     72  C   UNL A   1      44.238  34.925  27.708  1.00  0.00     0.198 A 
ATOM     73  F   UNL A   1      42.753  33.384  28.495  1.00  0.00    -0.203 F 
ATOM     74  F   UNL A   1      47.779  34.792  27.088  1.00  0.00    -0.200 F 
ATOM     75  C   UNL A   1      45.510  35.331  27.386  1.00  0.00     0.200 A 
ATOM     76  F   UNL A   1      43.237  35.814  27.776  1.00  0.00    -0.200 F 
ATOM     77  F   UNL A   1      45.761  36.627  27.165  1.00  0.00    -0.200 F 
ENDBRANCH  53  67
BRANCH  54  78
ATOM     78  C   UNL A   1      36.864  31.792  30.822  1.00  0.00     0.064 A 
ATOM     79  C   UNL A   1      35.906  32.005  31.826  1.00  0.00     0.173 A 
ATOM     80  C   UNL A   1      36.681  32.506  29.621  1.00  0.00     0.173 A 
ATOM     81  F   UNL A   1      36.041  31.407  33.020  1.00  0.00    -0.203 F 
ATOM     82  C   UNL A   1      34.838  32.890  31.646  1.00  0.00     0.198 A 
ATOM     83  C   UNL A   1      35.613  33.387  29.441  1.00  0.00     0.198 A 
ATOM     84  F   UNL A   1      37.588  32.442  28.637  1.00  0.00    -0.203 F 
ATOM     85  F   UNL A   1      33.975  33.112  32.647  1.00  0.00    -0.200 F 
ATOM     86  C   UNL A   1      34.698  33.588  30.457  1.00  0.00     0.200 A 
ATOM     87  F   UNL A   1      35.516  34.089  28.303  1.00  0.00    -0.200 F 
ATOM     88  F   UNL A   1      33.711  34.482  30.306  1.00  0.00    -0.200 F 
ENDBRANCH  54  78
BRANCH  66  89
ATOM     89  C   UNL A   1      42.218  30.000  33.748  1.00  0.00     0.064 A 
ATOM     90  C   UNL A   1      41.748  28.686  33.576  1.00  0.00     0.173 A 
ATOM     91  C   UNL A   1      42.606  30.381  35.039  1.00  0.00     0.173 A 
ATOM     92  F   UNL A   1      41.432  28.225  32.360  1.00  0.00    -0.203 F 
ATOM     93  C   UNL A   1      41.644  27.809  34.656  1.00  0.00     0.198 A 
ATOM     94  C   UNL A   1      42.536  29.493  36.109  1.00  0.00     0.198 A 
ATOM     95  F   UNL A   1      43.103  31.609  35.254  1.00  0.00    -0.203 F 
ATOM     96  F   UNL A   1      41.182  26.564  34.471  1.00  0.00    -0.200 F 
ATOM     97  C   UNL A   1      42.047  28.210  35.919  1.00  0.00     0.200 A 
ATOM     98  F   UNL A   1      42.968  29.874  37.318  1.00  0.00    -0.200 F 
ATOM     99  F   UNL A   1      41.989  27.356  36.951  1.00  0.00    -0.200 F 
ENDBRANCH  66  89
ENDBRANCH  40  41
ENDBRANCH  33  35
ENDBRANCH  32  33
ENDBRANCH  31  32
ENDBRANCH   1  31
TORSDOF 16
ENDMDL
MODEL 3
REMARK VINA RESULT:     -12.3      3.114      8.659
REMARK SMILES CCn1nc(C(=O)OCCOC(=O)c2ccc(-c3c4nc(c(-c5c(F)c(F)c(F)c(F)c5F)c5ccc([nH]5)c(-c5c(F)c(F)c(F)c(F)c5F)c5nc(c(-c6c(F)c(F)c(F)c(F)c6F)c6ccc3[nH]6)C=C5)C=C4)cc2)c2c1CC[C@H]([NH2+]Cc1nn(CC)c3ccccc13)C2
REMARK SMILES IDX 9 1 8 2 6 3 7 4 5 5 3 6 4 7 78 8 77 9 79 10 95 11 80 12
REMARK SMILES IDX 81 13 2 14 1 15 82 16 83 19 84 20 85 21 94 22 86 23 89 24
REMARK SMILES IDX 93 25 90 26 92 27 91 28 87 29 88 30 10 31 11 32 12 33 13 34
REMARK SMILES IDX 14 35 15 36 76 37 16 38 75 39 17 40 18 41 19 42 69 43 20 44
REMARK SMILES IDX 74 45 68 46 70 47 21 48 73 49 67 50 66 51 22 53 54 54 34 55
REMARK SMILES IDX 53 56 35 57 38 58 52 59 71 60 36 61 37 62 51 64 72 65 39 66
REMARK SMILES IDX 23 67 24 68 32 69 25 70 26 71 30 72 33 73 27 74 28 75 31 76
REMARK SMILES IDX 29 77 55 78 56 79 64 80 57 81 58 82 62 83 65 84 59 85 60 86
REMARK SMILES IDX 63 87 61 88 40 89 41 90 49 91 42 92 43 93 47 94 50 95 44 96
REMARK SMILES IDX 45 97 48 98 46 99
REMARK H PARENT 82 17 82 18 70 52 38 63
REMARK Flexibility Score: inf
ROOT
ATOM      1  C   UNL A   1      39.266  21.225  26.047  1.00  0.00     0.275 C 
ENDROOT
BRANCH   1   2
ATOM      2  O   UNL A   1      38.352  21.864  25.139  1.00  0.00    -0.457 OA
BRANCH   2   3
ATOM      3  C   UNL A   1      37.240  22.544  25.563  1.00  0.00     0.359 C 
ATOM      4  O   UNL A   1      37.266  23.578  26.213  1.00  0.00    -0.244 OA
BRANCH   3   5
ATOM      5  C   UNL A   1      36.033  21.779  25.222  1.00  0.00     0.174 A 
ATOM      6  N   UNL A   1      34.614  20.249  24.727  1.00  0.00    -0.269 N 
ATOM      7  N   UNL A   1      35.845  20.452  25.288  1.00  0.00    -0.165 NA
ATOM      8  C   UNL A   1      34.002  21.420  24.345  1.00  0.00     0.043 A 
ATOM      9  C   UNL A   1      34.919  22.385  24.625  1.00  0.00     0.014 A 
ATOM     10  C   UNL A   1      32.696  21.716  23.689  1.00  0.00     0.062 C 
ATOM     11  C   UNL A   1      34.859  23.751  24.139  1.00  0.00     0.105 C 
ATOM     12  C   UNL A   1      32.712  23.133  22.985  1.00  0.00     0.072 C 
ATOM     13  C   UNL A   1      33.512  24.268  23.715  1.00  0.00     0.187 C 
BRANCH   6  14
ATOM     14  C   UNL A   1      34.139  18.887  24.542  1.00  0.00     0.141 C 
ATOM     15  C   UNL A   1      32.900  18.528  25.361  1.00  0.00     0.029 C 
ENDBRANCH   6  14
BRANCH  13  16
ATOM     16  N   UNL A   1      33.747  25.500  22.892  1.00  0.00    -0.338 N 
ATOM     17  H   UNL A   1      34.248  25.223  22.048  1.00  0.00     0.346 HD
ATOM     18  H   UNL A   1      34.271  26.139  23.490  1.00  0.00     0.346 HD
BRANCH  16  19
ATOM     19  C   UNL A   1      32.508  26.251  22.472  1.00  0.00     0.320 C 
BRANCH  19  20
ATOM     20  C   UNL A   1      32.183  27.537  23.273  1.00  0.00     0.124 A 
ATOM     21  N   UNL A   1      32.939  27.957  24.311  1.00  0.00    -0.171 NA
ATOM     22  C   UNL A   1      31.033  28.397  23.116  1.00  0.00     0.029 A 
ATOM     23  N   UNL A   1      32.219  28.957  24.875  1.00  0.00    -0.265 N 
ATOM     24  C   UNL A   1      31.169  29.378  24.097  1.00  0.00     0.069 A 
ATOM     25  C   UNL A   1      29.853  28.415  22.336  1.00  0.00     0.012 A 
ATOM     26  C   UNL A   1      30.282  30.454  24.249  1.00  0.00     0.028 A 
ATOM     27  C   UNL A   1      28.880  29.401  22.582  1.00  0.00     0.001 A 
ATOM     28  C   UNL A   1      29.111  30.426  23.497  1.00  0.00     0.002 A 
BRANCH  23  29
ATOM     29  C   UNL A   1      32.508  29.451  26.216  1.00  0.00     0.141 C 
ATOM     30  C   UNL A   1      32.740  28.375  27.277  1.00  0.00     0.029 C 
ENDBRANCH  23  29
ENDBRANCH  19  20
ENDBRANCH  16  19
ENDBRANCH  13  16
ENDBRANCH   3   5
ENDBRANCH   2   3
ENDBRANCH   1   2
BRANCH   1  31
ATOM     31  C   UNL A   1      40.507  22.036  26.367  1.00  0.00     0.275 C 
BRANCH  31  32
ATOM     32  O   UNL A   1      41.468  21.710  25.388  1.00  0.00    -0.458 OA
BRANCH  32  33
ATOM     33  C   UNL A   1      42.622  21.305  25.970  1.00  0.00     0.338 C 
ATOM     34  O   UNL A   1      42.739  20.418  26.805  1.00  0.00    -0.246 OA
BRANCH  33  35
ATOM     35  C   UNL A   1      43.754  22.070  25.370  1.00  0.00     0.060 A 
ATOM     36  C   UNL A   1      44.743  22.222  26.334  1.00  0.00     0.016 A 
ATOM     37  C   UNL A   1      43.300  23.147  24.610  1.00  0.00     0.016 A 
ATOM     38  C   UNL A   1      44.668  23.392  27.031  1.00  0.00     0.010 A 
ATOM     39  C   UNL A   1      43.198  24.321  25.294  1.00  0.00     0.010 A 
ATOM     40  C   UNL A   1      43.778  24.367  26.561  1.00  0.00    -0.014 A 
BRANCH  40  41
ATOM     41  C   UNL A   1      43.620  25.550  27.351  1.00  0.00     0.031 A 
ATOM     42  C   UNL A   1      44.775  26.426  27.117  1.00  0.00     0.074 A 
ATOM     43  C   UNL A   1      42.532  25.796  28.095  1.00  0.00     0.049 A 
ATOM     44  N   UNL A   1      45.847  26.502  27.832  1.00  0.00    -0.248 NA
ATOM     45  C   UNL A   1      44.904  26.992  25.763  1.00  0.00     0.031 C 
ATOM     46  C   UNL A   1      41.248  25.094  28.124  1.00  0.00     0.029 A 
ATOM     47  N   UNL A   1      42.343  26.834  28.949  1.00  0.00    -0.354 N 
ATOM     48  C   UNL A   1      46.681  27.336  27.101  1.00  0.00     0.074 A 
ATOM     49  C   UNL A   1      46.199  27.305  25.750  1.00  0.00     0.031 C 
ATOM     50  C   UNL A   1      40.340  25.859  28.776  1.00  0.00     0.029 A 
ATOM     51  C   UNL A   1      41.018  27.020  29.324  1.00  0.00     0.049 A 
ATOM     52  H   UNL A   1      43.078  27.403  29.273  1.00  0.00     0.167 HD
ATOM     53  C   UNL A   1      47.399  28.298  27.735  1.00  0.00     0.037 A 
ATOM     54  C   UNL A   1      40.568  28.143  29.936  1.00  0.00     0.037 A 
ATOM     55  C   UNL A   1      47.478  28.014  29.150  1.00  0.00     0.049 A 
ATOM     56  C   UNL A   1      41.761  28.807  30.534  1.00  0.00     0.074 A 
ATOM     57  C   UNL A   1      48.066  27.043  29.932  1.00  0.00     0.029 A 
ATOM     58  N   UNL A   1      46.486  28.587  29.907  1.00  0.00    -0.354 N 
ATOM     59  N   UNL A   1      42.477  28.283  31.495  1.00  0.00    -0.248 NA
ATOM     60  C   UNL A   1      42.427  29.849  29.766  1.00  0.00     0.031 C 
ATOM     61  C   UNL A   1      47.190  26.860  31.046  1.00  0.00     0.029 A 
ATOM     62  C   UNL A   1      46.127  27.760  30.935  1.00  0.00     0.049 A 
ATOM     63  H   UNL A   1      46.089  29.471  29.733  1.00  0.00     0.167 HD
ATOM     64  C   UNL A   1      43.788  28.628  31.196  1.00  0.00     0.074 A 
ATOM     65  C   UNL A   1      43.680  29.693  30.204  1.00  0.00     0.031 C 
ATOM     66  C   UNL A   1      44.822  27.814  31.566  1.00  0.00     0.037 A 
BRANCH  53  67
ATOM     67  C   UNL A   1      47.550  29.705  27.188  1.00  0.00     0.064 A 
ATOM     68  C   UNL A   1      48.836  30.275  27.176  1.00  0.00     0.173 A 
ATOM     69  C   UNL A   1      46.489  30.613  26.950  1.00  0.00     0.173 A 
ATOM     70  F   UNL A   1      49.918  29.518  27.409  1.00  0.00    -0.203 F 
ATOM     71  C   UNL A   1      49.033  31.649  27.011  1.00  0.00     0.198 A 
ATOM     72  C   UNL A   1      46.693  31.972  26.734  1.00  0.00     0.198 A 
ATOM     73  F   UNL A   1      45.200  30.274  27.020  1.00  0.00    -0.203 F 
ATOM     74  F   UNL A   1      50.264  32.161  27.128  1.00  0.00    -0.200 F 
ATOM     75  C   UNL A   1      47.962  32.497  26.796  1.00  0.00     0.200 A 
ATOM     76  F   UNL A   1      45.634  32.773  26.549  1.00  0.00    -0.200 F 
ATOM     77  F   UNL A   1      48.141  33.820  26.699  1.00  0.00    -0.200 F 
ENDBRANCH  53  67
BRANCH  54  78
ATOM     78  C   UNL A   1      39.311  28.874  29.649  1.00  0.00     0.064 A 
ATOM     79  C   UNL A   1      38.992  29.284  28.345  1.00  0.00     0.173 A 
ATOM     80  C   UNL A   1      38.267  28.928  30.595  1.00  0.00     0.173 A 
ATOM     81  F   UNL A   1      39.913  29.208  27.373  1.00  0.00    -0.203 F 
ATOM     82  C   UNL A   1      37.702  29.707  28.003  1.00  0.00     0.198 A 
ATOM     83  C   UNL A   1      36.982  29.353  30.254  1.00  0.00     0.198 A 
ATOM     84  F   UNL A   1      38.446  28.474  31.844  1.00  0.00    -0.203 F 
ATOM     85  F   UNL A   1      37.419  30.035  26.735  1.00  0.00    -0.200 F 
ATOM     86  C   UNL A   1      36.696  29.732  28.956  1.00  0.00     0.200 A 
ATOM     87  F   UNL A   1      36.009  29.330  31.176  1.00  0.00    -0.200 F 
ATOM     88  F   UNL A   1      35.447  30.078  28.617  1.00  0.00    -0.200 F 
ENDBRANCH  54  78
BRANCH  66  89
ATOM     89  C   UNL A   1      44.531  26.766  32.607  1.00  0.00     0.064 A 
ATOM     90  C   UNL A   1      44.232  25.422  32.323  1.00  0.00     0.173 A 
ATOM     91  C   UNL A   1      44.685  27.121  33.953  1.00  0.00     0.173 A 
ATOM     92  F   UNL A   1      44.146  24.990  31.060  1.00  0.00    -0.203 F 
ATOM     93  C   UNL A   1      44.066  24.488  33.347  1.00  0.00     0.198 A 
ATOM     94  C   UNL A   1      44.555  26.181  34.970  1.00  0.00     0.198 A 
ATOM     95  F   UNL A   1      45.013  28.382  34.279  1.00  0.00    -0.203 F 
ATOM     96  F   UNL A   1      43.770  23.213  33.055  1.00  0.00    -0.200 F 
ATOM     97  C   UNL A   1      44.238  24.866  34.669  1.00  0.00     0.200 A 
ATOM     98  F   UNL A   1      44.765  26.545  36.242  1.00  0.00    -0.200 F 
ATOM     99  F   UNL A   1      44.121  23.962  35.651  1.00  0.00    -0.200 F 
ENDBRANCH  66  89
ENDBRANCH  40  41
ENDBRANCH  33  35
ENDBRANCH  32  33
ENDBRANCH  31  32
ENDBRANCH   1  31
TORSDOF 16
ENDMDL
