MODEL 1
REMARK VINA RESULT:     -11.8      0.000      0.000
REMARK SMILES C[NH+](C)[C@H]1CCN(C(=O)C(=O)c2ccccc2)C[C@H]1CCC(=O)OCCOC(=O)c1ccc(-c2c3nc(c(-c4c(F)c(F)c(F)c(F)c4F)c4ccc([nH]4)c(-c4c(F)c(F)c(F)c(F)c4F)c4nc(c(-c5c(F)c(F)c(F)c(F)c5F)c5ccc2[nH]5)C=C4)C=C3)cc1
REMARK SMILES IDX 24 1 22 2 23 3 21 4 20 5 19 6 4 7 5 8 6 9 18 10 7 11 2 12
REMARK SMILES IDX 1 13 3 14 8 16 9 17 10 18 11 19 12 20 13 21 17 22 14 23
REMARK SMILES IDX 16 24 15 25 25 26 26 27 27 28 28 29 29 30 30 31 31 32 92 33
REMARK SMILES IDX 32 34 91 35 33 36 34 37 35 38 85 39 36 40 90 41 84 42 86 43
REMARK SMILES IDX 37 44 89 45 83 46 82 47 38 49 70 50 50 51 69 52 51 53 54 54
REMARK SMILES IDX 68 55 87 56 52 57 53 58 67 60 88 61 55 62 39 63 40 64 48 65
REMARK SMILES IDX 41 66 42 67 46 68 49 69 43 70 44 71 47 72 45 73 71 74 72 75
REMARK SMILES IDX 80 76 73 77 74 78 78 79 81 80 75 81 76 82 79 83 77 84 56 85
REMARK SMILES IDX 57 86 65 87 58 88 59 89 63 90 66 91 60 92 61 93 64 94 62 95
REMARK H PARENT 2 15 86 48 54 59
REMARK Flexibility Score: inf
ROOT
ATOM      1  O   UNL A   1      31.287  28.037  25.222  1.00  0.00    -0.462 OA
ENDROOT
BRANCH   1   2
ATOM      2  C   UNL A   1      31.708  27.009  26.000  1.00  0.00     0.305 C 
ATOM      3  O   UNL A   1      31.056  26.517  26.915  1.00  0.00    -0.252 OA
BRANCH   2   4
ATOM      4  C   UNL A   1      33.075  26.480  25.615  1.00  0.00     0.123 C 
BRANCH   4   5
ATOM      5  C   UNL A   1      33.138  25.169  24.829  1.00  0.00     0.023 C 
BRANCH   5   6
ATOM      6  C   UNL A   1      31.869  24.694  24.067  1.00  0.00     0.067 C 
ATOM      7  C   UNL A   1      32.031  24.461  22.530  1.00  0.00     0.190 C 
ATOM      8  C   UNL A   1      32.948  23.239  22.304  1.00  0.00     0.087 C 
ATOM      9  C   UNL A   1      32.416  22.006  23.022  1.00  0.00     0.126 C 
ATOM     10  C   UNL A   1      31.357  23.403  24.754  1.00  0.00     0.129 C 
ATOM     11  N   UNL A   1      32.192  22.243  24.439  1.00  0.00    -0.335 N 
BRANCH   7  12
ATOM     12  N   UNL A   1      32.470  25.696  21.834  1.00  0.00    -0.337 N 
ATOM     13  C   UNL A   1      31.609  26.847  22.122  1.00  0.00     0.332 C 
ATOM     14  C   UNL A   1      32.638  25.576  20.386  1.00  0.00     0.332 C 
ATOM     15  H   UNL A   1      33.398  25.850  22.227  1.00  0.00     0.347 HD
ENDBRANCH   7  12
BRANCH  11  16
ATOM     16  C   UNL A   1      32.607  21.252  25.341  1.00  0.00     0.294 C 
ATOM     17  O   UNL A   1      32.097  20.134  25.370  1.00  0.00    -0.265 OA
BRANCH  16  18
ATOM     18  C   UNL A   1      33.697  21.555  26.379  1.00  0.00     0.250 C 
ATOM     19  O   UNL A   1      33.478  21.371  27.572  1.00  0.00    -0.283 OA
BRANCH  18  20
ATOM     20  C   UNL A   1      35.070  21.935  25.927  1.00  0.00     0.028 A 
ATOM     21  C   UNL A   1      35.820  20.976  25.229  1.00  0.00     0.012 A 
ATOM     22  C   UNL A   1      35.617  23.208  26.129  1.00  0.00     0.012 A 
ATOM     23  C   UNL A   1      37.074  21.297  24.704  1.00  0.00     0.001 A 
ATOM     24  C   UNL A   1      36.873  23.528  25.602  1.00  0.00     0.001 A 
ATOM     25  C   UNL A   1      37.596  22.577  24.882  1.00  0.00     0.000 A 
ENDBRANCH  18  20
ENDBRANCH  16  18
ENDBRANCH  11  16
ENDBRANCH   5   6
ENDBRANCH   4   5
ENDBRANCH   2   4
ENDBRANCH   1   2
BRANCH   1  26
ATOM     26  C   UNL A   1      32.202  29.132  25.014  1.00  0.00     0.274 C 
BRANCH  26  27
ATOM     27  C   UNL A   1      31.768  30.356  25.821  1.00  0.00     0.275 C 
BRANCH  27  28
ATOM     28  O   UNL A   1      32.487  30.415  27.065  1.00  0.00    -0.458 OA
BRANCH  28  29
ATOM     29  C   UNL A   1      33.169  31.564  27.262  1.00  0.00     0.338 C 
ATOM     30  O   UNL A   1      32.743  32.709  27.198  1.00  0.00    -0.246 OA
BRANCH  29  31
ATOM     31  C   UNL A   1      34.509  31.252  27.768  1.00  0.00     0.060 A 
ATOM     32  C   UNL A   1      34.763  29.926  28.119  1.00  0.00     0.016 A 
ATOM     33  C   UNL A   1      35.464  32.244  27.992  1.00  0.00     0.016 A 
ATOM     34  C   UNL A   1      35.963  29.576  28.720  1.00  0.00     0.010 A 
ATOM     35  C   UNL A   1      36.671  31.895  28.605  1.00  0.00     0.010 A 
ATOM     36  C   UNL A   1      36.913  30.565  28.995  1.00  0.00    -0.014 A 
BRANCH  36  37
ATOM     37  C   UNL A   1      38.084  30.215  29.831  1.00  0.00     0.031 A 
ATOM     38  C   UNL A   1      39.143  29.320  29.255  1.00  0.00     0.074 A 
ATOM     39  C   UNL A   1      38.231  30.747  31.057  1.00  0.00     0.049 A 
ATOM     40  N   UNL A   1      40.206  28.815  29.826  1.00  0.00    -0.248 NA
ATOM     41  C   UNL A   1      38.982  28.942  27.841  1.00  0.00     0.031 C 
ATOM     42  C   UNL A   1      37.305  31.686  31.686  1.00  0.00     0.029 A 
ATOM     43  N   UNL A   1      39.224  30.576  31.988  1.00  0.00    -0.354 N 
ATOM     44  C   UNL A   1      40.818  28.031  28.856  1.00  0.00     0.074 A 
ATOM     45  C   UNL A   1      40.009  28.124  27.660  1.00  0.00     0.031 C 
ATOM     46  C   UNL A   1      37.773  32.011  32.903  1.00  0.00     0.029 A 
ATOM     47  C   UNL A   1      39.007  31.269  33.153  1.00  0.00     0.049 A 
ATOM     48  H   UNL A   1      40.016  30.011  31.836  1.00  0.00     0.167 HD
ATOM     49  C   UNL A   1      41.951  27.298  28.961  1.00  0.00     0.037 A 
ATOM     50  C   UNL A   1      39.714  31.278  34.298  1.00  0.00     0.037 A 
ATOM     51  C   UNL A   1      42.766  27.239  30.144  1.00  0.00     0.049 A 
ATOM     52  C   UNL A   1      40.963  30.443  34.392  1.00  0.00     0.074 A 
ATOM     53  C   UNL A   1      43.923  26.512  30.365  1.00  0.00     0.029 A 
ATOM     54  N   UNL A   1      42.515  27.954  31.307  1.00  0.00    -0.354 N 
ATOM     55  N   UNL A   1      41.508  29.664  33.489  1.00  0.00    -0.248 NA
ATOM     56  C   UNL A   1      41.695  30.490  35.665  1.00  0.00     0.031 C 
ATOM     57  C   UNL A   1      44.358  26.768  31.671  1.00  0.00     0.029 A 
ATOM     58  C   UNL A   1      43.495  27.686  32.248  1.00  0.00     0.049 A 
ATOM     59  H   UNL A   1      41.751  28.562  31.442  1.00  0.00     0.167 HD
ATOM     60  C   UNL A   1      42.657  29.149  34.073  1.00  0.00     0.074 A 
ATOM     61  C   UNL A   1      42.740  29.715  35.404  1.00  0.00     0.031 C 
ATOM     62  C   UNL A   1      43.563  28.280  33.558  1.00  0.00     0.037 A 
BRANCH  49  63
ATOM     63  C   UNL A   1      42.350  26.472  27.775  1.00  0.00     0.064 A 
ATOM     64  C   UNL A   1      41.790  25.210  27.528  1.00  0.00     0.173 A 
ATOM     65  C   UNL A   1      43.297  26.960  26.862  1.00  0.00     0.173 A 
ATOM     66  F   UNL A   1      40.896  24.690  28.382  1.00  0.00    -0.203 F 
ATOM     67  C   UNL A   1      42.179  24.459  26.422  1.00  0.00     0.198 A 
ATOM     68  C   UNL A   1      43.665  26.218  25.743  1.00  0.00     0.198 A 
ATOM     69  F   UNL A   1      43.863  28.162  27.054  1.00  0.00    -0.203 F 
ATOM     70  F   UNL A   1      41.664  23.237  26.228  1.00  0.00    -0.200 F 
ATOM     71  C   UNL A   1      43.111  24.965  25.528  1.00  0.00     0.200 A 
ATOM     72  F   UNL A   1      44.559  26.713  24.877  1.00  0.00    -0.200 F 
ATOM     73  F   UNL A   1      43.481  24.243  24.462  1.00  0.00    -0.200 F 
ENDBRANCH  49  63
BRANCH  50  74
ATOM     74  C   UNL A   1      39.248  32.089  35.453  1.00  0.00     0.064 A 
ATOM     75  C   UNL A   1      39.611  33.436  35.587  1.00  0.00     0.173 A 
ATOM     76  C   UNL A   1      38.441  31.527  36.454  1.00  0.00     0.173 A 
ATOM     77  F   UNL A   1      40.403  34.010  34.670  1.00  0.00    -0.203 F 
ATOM     78  C   UNL A   1      39.200  34.184  36.688  1.00  0.00     0.198 A 
ATOM     79  C   UNL A   1      38.007  32.285  37.540  1.00  0.00     0.198 A 
ATOM     80  F   UNL A   1      38.068  30.241  36.374  1.00  0.00    -0.203 F 
ATOM     81  F   UNL A   1      39.601  35.456  36.817  1.00  0.00    -0.200 F 
ATOM     82  C   UNL A   1      38.394  33.611  37.660  1.00  0.00     0.200 A 
ATOM     83  F   UNL A   1      37.221  31.729  38.470  1.00  0.00    -0.200 F 
ATOM     84  F   UNL A   1      37.999  34.333  38.718  1.00  0.00    -0.200 F 
ENDBRANCH  50  74
BRANCH  62  85
ATOM     85  C   UNL A   1      44.741  27.934  34.418  1.00  0.00     0.064 A 
ATOM     86  C   UNL A   1      44.726  26.827  35.278  1.00  0.00     0.173 A 
ATOM     87  C   UNL A   1      45.908  28.711  34.362  1.00  0.00     0.173 A 
ATOM     88  F   UNL A   1      43.626  26.064  35.377  1.00  0.00    -0.203 F 
ATOM     89  C   UNL A   1      45.828  26.528  36.073  1.00  0.00     0.198 A 
ATOM     90  C   UNL A   1      47.017  28.392  35.139  1.00  0.00     0.198 A 
ATOM     91  F   UNL A   1      45.974  29.776  33.548  1.00  0.00    -0.203 F 
ATOM     92  F   UNL A   1      45.775  25.493  36.926  1.00  0.00    -0.200 F 
ATOM     93  C   UNL A   1      46.973  27.307  36.000  1.00  0.00     0.200 A 
ATOM     94  F   UNL A   1      48.127  29.139  35.059  1.00  0.00    -0.200 F 
ATOM     95  F   UNL A   1      48.033  27.016  36.768  1.00  0.00    -0.200 F 
ENDBRANCH  62  85
ENDBRANCH  36  37
ENDBRANCH  29  31
ENDBRANCH  28  29
ENDBRANCH  27  28
ENDBRANCH  26  27
ENDBRANCH   1  26
TORSDOF 17
ENDMDL
MODEL 2
REMARK VINA RESULT:     -11.7      4.167      6.852
REMARK SMILES C[NH+](C)[C@H]1CCN(C(=O)C(=O)c2ccccc2)C[C@H]1CCC(=O)OCCOC(=O)c1ccc(-c2c3nc(c(-c4c(F)c(F)c(F)c(F)c4F)c4ccc([nH]4)c(-c4c(F)c(F)c(F)c(F)c4F)c4nc(c(-c5c(F)c(F)c(F)c(F)c5F)c5ccc2[nH]5)C=C4)C=C3)cc1
REMARK SMILES IDX 24 1 22 2 23 3 21 4 20 5 19 6 4 7 5 8 6 9 18 10 7 11 2 12
REMARK SMILES IDX 1 13 3 14 8 16 9 17 10 18 11 19 12 20 13 21 17 22 14 23
REMARK SMILES IDX 16 24 15 25 25 26 26 27 27 28 28 29 29 30 30 31 31 32 92 33
REMARK SMILES IDX 32 34 91 35 33 36 34 37 35 38 85 39 36 40 90 41 84 42 86 43
REMARK SMILES IDX 37 44 89 45 83 46 82 47 38 49 70 50 50 51 69 52 51 53 54 54
REMARK SMILES IDX 68 55 87 56 52 57 53 58 67 60 88 61 55 62 39 63 40 64 48 65
REMARK SMILES IDX 41 66 42 67 46 68 49 69 43 70 44 71 47 72 45 73 71 74 72 75
REMARK SMILES IDX 80 76 73 77 74 78 78 79 81 80 75 81 76 82 79 83 77 84 56 85
REMARK SMILES IDX 57 86 65 87 58 88 59 89 63 90 66 91 60 92 61 93 64 94 62 95
REMARK H PARENT 2 15 86 48 54 59
REMARK Flexibility Score: inf
ROOT
ATOM      1  O   UNL A   1      37.166  22.204  24.169  1.00  0.00    -0.462 OA
ENDROOT
BRANCH   1   2
ATOM      2  C   UNL A   1      36.203  23.118  23.899  1.00  0.00     0.305 C 
ATOM      3  O   UNL A   1      35.659  23.254  22.808  1.00  0.00    -0.252 OA
BRANCH   2   4
ATOM      4  C   UNL A   1      35.818  23.963  25.097  1.00  0.00     0.123 C 
BRANCH   4   5
ATOM      5  C   UNL A   1      34.736  25.027  24.902  1.00  0.00     0.023 C 
BRANCH   5   6
ATOM      6  C   UNL A   1      33.472  24.981  25.806  1.00  0.00     0.067 C 
ATOM      7  C   UNL A   1      32.318  25.967  25.431  1.00  0.00     0.190 C 
ATOM      8  C   UNL A   1      31.699  25.523  24.088  1.00  0.00     0.087 C 
ATOM      9  C   UNL A   1      31.227  24.076  24.144  1.00  0.00     0.126 C 
ATOM     10  C   UNL A   1      32.949  23.523  25.818  1.00  0.00     0.129 C 
ATOM     11  N   UNL A   1      32.280  23.166  24.567  1.00  0.00    -0.335 N 
BRANCH   7  12
ATOM     12  N   UNL A   1      32.774  27.378  25.462  1.00  0.00    -0.337 N 
ATOM     13  C   UNL A   1      32.835  27.926  26.820  1.00  0.00     0.332 C 
ATOM     14  C   UNL A   1      32.024  28.300  24.609  1.00  0.00     0.332 C 
ATOM     15  H   UNL A   1      33.713  27.313  25.071  1.00  0.00     0.347 HD
ENDBRANCH   7  12
BRANCH  11  16
ATOM     16  C   UNL A   1      32.415  21.956  23.871  1.00  0.00     0.294 C 
ATOM     17  O   UNL A   1      32.621  21.913  22.659  1.00  0.00    -0.265 OA
BRANCH  16  18
ATOM     18  C   UNL A   1      32.252  20.617  24.604  1.00  0.00     0.250 C 
ATOM     19  O   UNL A   1      31.497  20.531  25.567  1.00  0.00    -0.283 OA
BRANCH  18  20
ATOM     20  C   UNL A   1      32.899  19.386  24.057  1.00  0.00     0.028 A 
ATOM     21  C   UNL A   1      34.082  18.940  24.667  1.00  0.00     0.012 A 
ATOM     22  C   UNL A   1      32.357  18.641  23.002  1.00  0.00     0.012 A 
ATOM     23  C   UNL A   1      34.687  17.748  24.260  1.00  0.00     0.001 A 
ATOM     24  C   UNL A   1      32.964  17.448  22.597  1.00  0.00     0.001 A 
ATOM     25  C   UNL A   1      34.122  16.997  23.231  1.00  0.00     0.000 A 
ENDBRANCH  18  20
ENDBRANCH  16  18
ENDBRANCH  11  16
ENDBRANCH   5   6
ENDBRANCH   4   5
ENDBRANCH   2   4
ENDBRANCH   1   2
BRANCH   1  26
ATOM     26  C   UNL A   1      36.790  21.051  24.950  1.00  0.00     0.274 C 
BRANCH  26  27
ATOM     27  C   UNL A   1      38.025  20.237  25.337  1.00  0.00     0.275 C 
BRANCH  27  28
ATOM     28  O   UNL A   1      39.182  21.089  25.407  1.00  0.00    -0.458 OA
BRANCH  28  29
ATOM     29  C   UNL A   1      39.935  20.919  26.515  1.00  0.00     0.338 C 
ATOM     30  O   UNL A   1      40.407  19.876  26.947  1.00  0.00    -0.246 OA
BRANCH  29  31
ATOM     31  C   UNL A   1      40.290  22.230  27.066  1.00  0.00     0.060 A 
ATOM     32  C   UNL A   1      39.659  23.344  26.513  1.00  0.00     0.016 A 
ATOM     33  C   UNL A   1      41.288  22.381  28.029  1.00  0.00     0.016 A 
ATOM     34  C   UNL A   1      40.032  24.625  26.895  1.00  0.00     0.010 A 
ATOM     35  C   UNL A   1      41.671  23.671  28.409  1.00  0.00     0.010 A 
ATOM     36  C   UNL A   1      41.063  24.796  27.823  1.00  0.00    -0.014 A 
BRANCH  36  37
ATOM     37  C   UNL A   1      41.596  26.159  28.052  1.00  0.00     0.031 A 
ATOM     38  C   UNL A   1      42.945  26.513  27.496  1.00  0.00     0.074 A 
ATOM     39  C   UNL A   1      40.853  27.084  28.684  1.00  0.00     0.049 A 
ATOM     40  N   UNL A   1      43.644  27.608  27.643  1.00  0.00    -0.248 NA
ATOM     41  C   UNL A   1      43.596  25.490  26.660  1.00  0.00     0.031 C 
ATOM     42  C   UNL A   1      39.501  26.875  29.198  1.00  0.00     0.029 A 
ATOM     43  N   UNL A   1      41.133  28.391  28.994  1.00  0.00    -0.354 N 
ATOM     44  C   UNL A   1      44.830  27.393  26.953  1.00  0.00     0.074 A 
ATOM     45  C   UNL A   1      44.759  26.063  26.388  1.00  0.00     0.031 C 
ATOM     46  C   UNL A   1      39.066  28.015  29.760  1.00  0.00     0.029 A 
ATOM     47  C   UNL A   1      40.126  29.018  29.684  1.00  0.00     0.049 A 
ATOM     48  H   UNL A   1      41.975  28.836  28.745  1.00  0.00     0.167 HD
ATOM     49  C   UNL A   1      45.882  28.233  26.810  1.00  0.00     0.037 A 
ATOM     50  C   UNL A   1      40.081  30.254  30.215  1.00  0.00     0.037 A 
ATOM     51  C   UNL A   1      45.928  29.566  27.347  1.00  0.00     0.049 A 
ATOM     52  C   UNL A   1      41.270  31.163  30.052  1.00  0.00     0.074 A 
ATOM     53  C   UNL A   1      46.953  30.493  27.279  1.00  0.00     0.029 A 
ATOM     54  N   UNL A   1      44.889  30.168  28.042  1.00  0.00    -0.354 N 
ATOM     55  N   UNL A   1      42.409  30.936  29.442  1.00  0.00    -0.248 NA
ATOM     56  C   UNL A   1      41.167  32.500  30.652  1.00  0.00     0.031 C 
ATOM     57  C   UNL A   1      46.543  31.648  27.955  1.00  0.00     0.029 A 
ATOM     58  C   UNL A   1      45.247  31.455  28.408  1.00  0.00     0.049 A 
ATOM     59  H   UNL A   1      44.024  29.742  28.246  1.00  0.00     0.167 HD
ATOM     60  C   UNL A   1      43.146  32.105  29.562  1.00  0.00     0.074 A 
ATOM     61  C   UNL A   1      42.321  33.047  30.291  1.00  0.00     0.031 C 
ATOM     62  C   UNL A   1      44.397  32.377  29.115  1.00  0.00     0.037 A 
BRANCH  49  63
ATOM     63  C   UNL A   1      47.082  27.716  26.075  1.00  0.00     0.064 A 
ATOM     64  C   UNL A   1      47.166  27.747  24.676  1.00  0.00     0.173 A 
ATOM     65  C   UNL A   1      48.174  27.197  26.786  1.00  0.00     0.173 A 
ATOM     66  F   UNL A   1      46.140  28.216  23.949  1.00  0.00    -0.203 F 
ATOM     67  C   UNL A   1      48.290  27.258  24.015  1.00  0.00     0.198 A 
ATOM     68  C   UNL A   1      49.307  26.732  26.124  1.00  0.00     0.198 A 
ATOM     69  F   UNL A   1      48.143  27.144  28.127  1.00  0.00    -0.203 F 
ATOM     70  F   UNL A   1      48.331  27.258  22.675  1.00  0.00    -0.200 F 
ATOM     71  C   UNL A   1      49.361  26.757  24.739  1.00  0.00     0.200 A 
ATOM     72  F   UNL A   1      50.344  26.256  26.827  1.00  0.00    -0.200 F 
ATOM     73  F   UNL A   1      50.444  26.291  24.102  1.00  0.00    -0.200 F 
ENDBRANCH  49  63
BRANCH  50  74
ATOM     74  C   UNL A   1      38.877  30.698  30.965  1.00  0.00     0.064 A 
ATOM     75  C   UNL A   1      37.792  31.293  30.307  1.00  0.00     0.173 A 
ATOM     76  C   UNL A   1      38.795  30.548  32.358  1.00  0.00     0.173 A 
ATOM     77  F   UNL A   1      37.834  31.482  28.980  1.00  0.00    -0.203 F 
ATOM     78  C   UNL A   1      36.678  31.738  31.017  1.00  0.00     0.198 A 
ATOM     79  C   UNL A   1      37.668  30.967  33.062  1.00  0.00     0.198 A 
ATOM     80  F   UNL A   1      39.808  29.986  33.034  1.00  0.00    -0.203 F 
ATOM     81  F   UNL A   1      35.675  32.347  30.371  1.00  0.00    -0.200 F 
ATOM     82  C   UNL A   1      36.614  31.569  32.392  1.00  0.00     0.200 A 
ATOM     83  F   UNL A   1      37.608  30.793  34.388  1.00  0.00    -0.200 F 
ATOM     84  F   UNL A   1      35.543  31.997  33.073  1.00  0.00    -0.200 F 
ENDBRANCH  50  74
BRANCH  62  85
ATOM     85  C   UNL A   1      44.922  33.760  29.358  1.00  0.00     0.064 A 
ATOM     86  C   UNL A   1      45.681  34.072  30.495  1.00  0.00     0.173 A 
ATOM     87  C   UNL A   1      44.678  34.782  28.426  1.00  0.00     0.173 A 
ATOM     88  F   UNL A   1      45.927  33.132  31.420  1.00  0.00    -0.203 F 
ATOM     89  C   UNL A   1      46.153  35.364  30.705  1.00  0.00     0.198 A 
ATOM     90  C   UNL A   1      45.175  36.065  28.628  1.00  0.00     0.198 A 
ATOM     91  F   UNL A   1      43.963  34.531  27.320  1.00  0.00    -0.203 F 
ATOM     92  F   UNL A   1      46.835  35.652  31.823  1.00  0.00    -0.200 F 
ATOM     93  C   UNL A   1      45.904  36.358  29.770  1.00  0.00     0.200 A 
ATOM     94  F   UNL A   1      44.942  37.022  27.718  1.00  0.00    -0.200 F 
ATOM     95  F   UNL A   1      46.359  37.602  29.975  1.00  0.00    -0.200 F 
ENDBRANCH  62  85
ENDBRANCH  36  37
ENDBRANCH  29  31
ENDBRANCH  28  29
ENDBRANCH  27  28
ENDBRANCH  26  27
ENDBRANCH   1  26
TORSDOF 17
ENDMDL
MODEL 3
REMARK VINA RESULT:     -11.7      1.537      3.423
REMARK SMILES C[NH+](C)[C@H]1CCN(C(=O)C(=O)c2ccccc2)C[C@H]1CCC(=O)OCCOC(=O)c1ccc(-c2c3nc(c(-c4c(F)c(F)c(F)c(F)c4F)c4ccc([nH]4)c(-c4c(F)c(F)c(F)c(F)c4F)c4nc(c(-c5c(F)c(F)c(F)c(F)c5F)c5ccc2[nH]5)C=C4)C=C3)cc1
REMARK SMILES IDX 24 1 22 2 23 3 21 4 20 5 19 6 4 7 5 8 6 9 18 10 7 11 2 12
REMARK SMILES IDX 1 13 3 14 8 16 9 17 10 18 11 19 12 20 13 21 17 22 14 23
REMARK SMILES IDX 16 24 15 25 25 26 26 27 27 28 28 29 29 30 30 31 31 32 92 33
REMARK SMILES IDX 32 34 91 35 33 36 34 37 35 38 85 39 36 40 90 41 84 42 86 43
REMARK SMILES IDX 37 44 89 45 83 46 82 47 38 49 70 50 50 51 69 52 51 53 54 54
REMARK SMILES IDX 68 55 87 56 52 57 53 58 67 60 88 61 55 62 39 63 40 64 48 65
REMARK SMILES IDX 41 66 42 67 46 68 49 69 43 70 44 71 47 72 45 73 71 74 72 75
REMARK SMILES IDX 80 76 73 77 74 78 78 79 81 80 75 81 76 82 79 83 77 84 56 85
REMARK SMILES IDX 57 86 65 87 58 88 59 89 63 90 66 91 60 92 61 93 64 94 62 95
REMARK H PARENT 2 15 86 48 54 59
REMARK Flexibility Score: inf
ROOT
ATOM      1  O   UNL A   1      31.366  28.927  25.963  1.00  0.00    -0.462 OA
ENDROOT
BRANCH   1   2
ATOM      2  C   UNL A   1      31.834  27.992  26.826  1.00  0.00     0.305 C 
ATOM      3  O   UNL A   1      31.401  27.814  27.960  1.00  0.00    -0.252 OA
BRANCH   2   4
ATOM      4  C   UNL A   1      32.945  27.139  26.249  1.00  0.00     0.123 C 
BRANCH   4   5
ATOM      5  C   UNL A   1      32.633  25.672  25.945  1.00  0.00     0.023 C 
BRANCH   5   6
ATOM      6  C   UNL A   1      33.780  24.754  25.436  1.00  0.00     0.067 C 
ATOM      7  C   UNL A   1      33.410  23.256  25.190  1.00  0.00     0.190 C 
ATOM      8  C   UNL A   1      32.448  23.170  23.985  1.00  0.00     0.087 C 
ATOM      9  C   UNL A   1      33.047  23.827  22.748  1.00  0.00     0.126 C 
ATOM     10  C   UNL A   1      34.354  25.385  24.141  1.00  0.00     0.129 C 
ATOM     11  N   UNL A   1      33.462  25.199  22.996  1.00  0.00    -0.335 N 
BRANCH   7  12
ATOM     12  N   UNL A   1      32.906  22.608  26.426  1.00  0.00    -0.337 N 
ATOM     13  C   UNL A   1      33.709  21.450  26.829  1.00  0.00     0.332 C 
ATOM     14  C   UNL A   1      31.495  22.226  26.405  1.00  0.00     0.332 C 
ATOM     15  H   UNL A   1      33.000  23.353  27.116  1.00  0.00     0.347 HD
ENDBRANCH   7  12
BRANCH  11  16
ATOM     16  C   UNL A   1      33.152  26.161  22.024  1.00  0.00     0.294 C 
ATOM     17  O   UNL A   1      33.278  25.943  20.820  1.00  0.00    -0.265 OA
BRANCH  16  18
ATOM     18  C   UNL A   1      32.687  27.563  22.440  1.00  0.00     0.250 C 
ATOM     19  O   UNL A   1      33.469  28.506  22.405  1.00  0.00    -0.283 OA
BRANCH  18  20
ATOM     20  C   UNL A   1      31.244  27.808  22.749  1.00  0.00     0.028 A 
ATOM     21  C   UNL A   1      30.702  29.056  22.404  1.00  0.00     0.012 A 
ATOM     22  C   UNL A   1      30.410  26.840  23.320  1.00  0.00     0.012 A 
ATOM     23  C   UNL A   1      29.341  29.315  22.586  1.00  0.00     0.001 A 
ATOM     24  C   UNL A   1      29.047  27.101  23.501  1.00  0.00     0.001 A 
ATOM     25  C   UNL A   1      28.512  28.333  23.125  1.00  0.00     0.000 A 
ENDBRANCH  18  20
ENDBRANCH  16  18
ENDBRANCH  11  16
ENDBRANCH   5   6
ENDBRANCH   4   5
ENDBRANCH   2   4
ENDBRANCH   1   2
BRANCH   1  26
ATOM     26  C   UNL A   1      32.242  30.023  25.630  1.00  0.00     0.274 C 
BRANCH  26  27
ATOM     27  C   UNL A   1      31.890  31.262  26.453  1.00  0.00     0.275 C 
BRANCH  27  28
ATOM     28  O   UNL A   1      32.736  31.345  27.614  1.00  0.00    -0.458 OA
BRANCH  28  29
ATOM     29  C   UNL A   1      33.626  32.361  27.585  1.00  0.00     0.338 C 
ATOM     30  O   UNL A   1      33.410  33.540  27.341  1.00  0.00    -0.246 OA
BRANCH  29  31
ATOM     31  C   UNL A   1      34.919  31.887  28.086  1.00  0.00     0.060 A 
ATOM     32  C   UNL A   1      34.988  30.560  28.512  1.00  0.00     0.016 A 
ATOM     33  C   UNL A   1      36.012  32.741  28.234  1.00  0.00     0.016 A 
ATOM     34  C   UNL A   1      36.141  30.074  29.112  1.00  0.00     0.010 A 
ATOM     35  C   UNL A   1      37.172  32.255  28.847  1.00  0.00     0.010 A 
ATOM     36  C   UNL A   1      37.229  30.928  29.312  1.00  0.00    -0.014 A 
BRANCH  36  37
ATOM     37  C   UNL A   1      38.359  30.459  30.147  1.00  0.00     0.031 A 
ATOM     38  C   UNL A   1      39.362  29.517  29.547  1.00  0.00     0.074 A 
ATOM     39  C   UNL A   1      38.522  30.925  31.397  1.00  0.00     0.049 A 
ATOM     40  N   UNL A   1      40.377  28.914  30.109  1.00  0.00    -0.248 NA
ATOM     41  C   UNL A   1      39.199  29.214  28.115  1.00  0.00     0.031 C 
ATOM     42  C   UNL A   1      37.653  31.899  32.056  1.00  0.00     0.029 A 
ATOM     43  N   UNL A   1      39.484  30.643  32.334  1.00  0.00    -0.354 N 
ATOM     44  C   UNL A   1      40.948  28.131  29.113  1.00  0.00     0.074 A 
ATOM     45  C   UNL A   1      40.168  28.335  27.912  1.00  0.00     0.031 C 
ATOM     46  C   UNL A   1      38.122  32.137  33.292  1.00  0.00     0.029 A 
ATOM     47  C   UNL A   1      39.296  31.298  33.526  1.00  0.00     0.049 A 
ATOM     48  H   UNL A   1      40.236  30.031  32.168  1.00  0.00     0.167 HD
ATOM     49  C   UNL A   1      42.025  27.317  29.201  1.00  0.00     0.037 A 
ATOM     50  C   UNL A   1      39.982  31.207  34.680  1.00  0.00     0.037 A 
ATOM     51  C   UNL A   1      42.814  27.148  30.392  1.00  0.00     0.049 A 
ATOM     52  C   UNL A   1      41.168  30.282  34.753  1.00  0.00     0.074 A 
ATOM     53  C   UNL A   1      43.913  26.331  30.595  1.00  0.00     0.029 A 
ATOM     54  N   UNL A   1      42.594  27.827  31.581  1.00  0.00    -0.354 N 
ATOM     55  N   UNL A   1      41.673  29.507  33.824  1.00  0.00    -0.248 NA
ATOM     56  C   UNL A   1      41.880  30.221  36.038  1.00  0.00     0.031 C 
ATOM     57  C   UNL A   1      44.342  26.498  31.917  1.00  0.00     0.029 A 
ATOM     58  C   UNL A   1      43.536  27.449  32.523  1.00  0.00     0.049 A 
ATOM     59  H   UNL A   1      41.872  28.481  31.733  1.00  0.00     0.167 HD
ATOM     60  C   UNL A   1      42.772  28.886  34.400  1.00  0.00     0.074 A 
ATOM     61  C   UNL A   1      42.871  29.386  35.756  1.00  0.00     0.031 C 
ATOM     62  C   UNL A   1      43.623  27.979  33.860  1.00  0.00     0.037 A 
BRANCH  49  63
ATOM     63  C   UNL A   1      42.386  26.517  27.985  1.00  0.00     0.064 A 
ATOM     64  C   UNL A   1      41.832  25.252  27.738  1.00  0.00     0.173 A 
ATOM     65  C   UNL A   1      43.287  27.034  27.042  1.00  0.00     0.173 A 
ATOM     66  F   UNL A   1      40.981  24.705  28.619  1.00  0.00    -0.203 F 
ATOM     67  C   UNL A   1      42.185  24.526  26.603  1.00  0.00     0.198 A 
ATOM     68  C   UNL A   1      43.618  26.317  25.896  1.00  0.00     0.198 A 
ATOM     69  F   UNL A   1      43.845  28.240  27.233  1.00  0.00    -0.203 F 
ATOM     70  F   UNL A   1      41.678  23.300  26.409  1.00  0.00    -0.200 F 
ATOM     71  C   UNL A   1      43.072  25.061  25.681  1.00  0.00     0.200 A 
ATOM     72  F   UNL A   1      44.468  26.840  25.002  1.00  0.00    -0.200 F 
ATOM     73  F   UNL A   1      43.407  24.363  24.587  1.00  0.00    -0.200 F 
ENDBRANCH  49  63
BRANCH  50  74
ATOM     74  C   UNL A   1      39.555  31.997  35.864  1.00  0.00     0.064 A 
ATOM     75  C   UNL A   1      38.497  31.569  36.678  1.00  0.00     0.173 A 
ATOM     76  C   UNL A   1      40.189  33.204  36.197  1.00  0.00     0.173 A 
ATOM     77  F   UNL A   1      37.844  30.436  36.386  1.00  0.00    -0.203 F 
ATOM     78  C   UNL A   1      38.078  32.329  37.768  1.00  0.00     0.198 A 
ATOM     79  C   UNL A   1      39.787  33.947  37.304  1.00  0.00     0.198 A 
ATOM     80  F   UNL A   1      41.205  33.658  35.448  1.00  0.00    -0.203 F 
ATOM     81  F   UNL A   1      37.033  31.922  38.502  1.00  0.00    -0.200 F 
ATOM     82  C   UNL A   1      38.726  33.513  38.085  1.00  0.00     0.200 A 
ATOM     83  F   UNL A   1      40.422  35.085  37.610  1.00  0.00    -0.200 F 
ATOM     84  F   UNL A   1      38.322  34.242  39.134  1.00  0.00    -0.200 F 
ENDBRANCH  50  74
BRANCH  62  85
ATOM     85  C   UNL A   1      44.759  27.513  34.719  1.00  0.00     0.064 A 
ATOM     86  C   UNL A   1      44.652  26.372  35.528  1.00  0.00     0.173 A 
ATOM     87  C   UNL A   1      45.979  28.207  34.716  1.00  0.00     0.173 A 
ATOM     88  F   UNL A   1      43.501  25.685  35.575  1.00  0.00    -0.203 F 
ATOM     89  C   UNL A   1      45.716  25.960  36.324  1.00  0.00     0.198 A 
ATOM     90  C   UNL A   1      47.048  27.776  35.493  1.00  0.00     0.198 A 
ATOM     91  F   UNL A   1      46.132  29.300  33.953  1.00  0.00    -0.203 F 
ATOM     92  F   UNL A   1      45.576  24.895  37.127  1.00  0.00    -0.200 F 
ATOM     93  C   UNL A   1      46.914  26.659  36.303  1.00  0.00     0.200 A 
ATOM     94  F   UNL A   1      48.209  28.447  35.464  1.00  0.00    -0.200 F 
ATOM     95  F   UNL A   1      47.937  26.260  37.071  1.00  0.00    -0.200 F 
ENDBRANCH  62  85
ENDBRANCH  36  37
ENDBRANCH  29  31
ENDBRANCH  28  29
ENDBRANCH  27  28
ENDBRANCH  26  27
ENDBRANCH   1  26
TORSDOF 17
ENDMDL
