MODEL 1
REMARK VINA RESULT:     -11.1      0.000      0.000
REMARK SMILES CC(C)c1ccc(C[N@@H+](CC(=O)OCCOC(=O)c2ccc(-c3c4nc(c(-c5c(F)c(F)c(F)c(F)c5F)c5ccc([nH]5)c(-c5c(F)c(F)c(F)c(F)c5F)c5nc(c(-c6c(F)c(F)c(F)c(F)c6F)c6ccc3[nH]6)C=C5)C=C4)cc2)CC(F)(F)F)cc1
REMARK SMILES IDX 14 1 13 2 11 3 12 4 10 5 9 6 8 8 7 9 4 10 5 11 88 12 6 13
REMARK SMILES IDX 87 14 2 15 1 16 3 17 82 18 83 19 84 20 85 21 86 22 15 23
REMARK SMILES IDX 16 24 17 25 18 26 19 27 20 28 81 29 21 30 80 31 22 32 23 33
REMARK SMILES IDX 24 34 74 35 25 36 79 37 73 38 75 39 26 40 78 41 72 42 71 43
REMARK SMILES IDX 27 45 59 46 39 47 58 48 40 49 43 50 57 51 76 52 41 53 42 54
REMARK SMILES IDX 56 56 77 57 44 58 28 59 29 60 37 61 30 62 31 63 35 64 38 65
REMARK SMILES IDX 32 66 33 67 36 68 34 69 60 70 61 71 69 72 62 73 63 74 67 75
REMARK SMILES IDX 70 76 64 77 65 78 68 79 66 80 45 81 46 82 54 83 47 84 48 85
REMARK SMILES IDX 52 86 55 87 49 88 50 89 53 90 51 91
REMARK H PARENT 9 7 75 44 43 55
REMARK Flexibility Score: inf
ROOT
ATOM      1  C   UNL A   1      36.077  20.654  24.673  1.00  0.00     0.274 C 
ENDROOT
BRANCH   1   2
ATOM      2  O   UNL A   1      35.593  22.013  24.722  1.00  0.00    -0.458 OA
BRANCH   2   3
ATOM      3  C   UNL A   1      35.488  22.658  23.534  1.00  0.00     0.361 C 
ATOM      4  O   UNL A   1      36.453  23.013  22.860  1.00  0.00    -0.245 OA
BRANCH   3   5
ATOM      5  C   UNL A   1      34.060  23.004  23.116  1.00  0.00     0.387 C 
BRANCH   5   6
ATOM      6  N   UNL A   1      32.946  22.452  23.904  1.00  0.00    -0.314 N 
ATOM      7  H   UNL A   1      33.382  21.802  24.559  1.00  0.00     0.349 HD
BRANCH   6   8
ATOM      8  C   UNL A   1      32.078  21.532  23.178  1.00  0.00     0.299 C 
BRANCH   8   9
ATOM      9  C   UNL A   1      32.318  20.084  23.542  1.00  0.00     0.006 A 
ATOM     10  C   UNL A   1      33.021  17.440  24.233  1.00  0.00    -0.045 A 
ATOM     11  C   UNL A   1      32.730  17.778  22.904  1.00  0.00     0.004 A 
ATOM     12  C   UNL A   1      32.904  18.430  25.217  1.00  0.00     0.004 A 
ATOM     13  C   UNL A   1      32.371  19.084  22.562  1.00  0.00     0.010 A 
ATOM     14  C   UNL A   1      32.542  19.734  24.878  1.00  0.00     0.010 A 
BRANCH  10  15
ATOM     15  C   UNL A   1      33.531  16.048  24.558  1.00  0.00     0.013 C 
ATOM     16  C   UNL A   1      34.951  16.129  25.127  1.00  0.00     0.012 C 
ATOM     17  C   UNL A   1      32.611  15.277  25.507  1.00  0.00     0.012 C 
ENDBRANCH  10  15
ENDBRANCH   8   9
ENDBRANCH   6   8
BRANCH   6  18
ATOM     18  C   UNL A   1      32.331  23.392  24.875  1.00  0.00     0.380 C 
BRANCH  18  19
ATOM     19  C   UNL A   1      32.997  23.878  26.190  1.00  0.00     0.438 C 
ATOM     20  F   UNL A   1      33.470  22.847  26.926  1.00  0.00    -0.165 F 
ATOM     21  F   UNL A   1      34.080  24.649  25.908  1.00  0.00    -0.165 F 
ATOM     22  F   UNL A   1      32.164  24.600  26.970  1.00  0.00    -0.165 F 
ENDBRANCH  18  19
ENDBRANCH   6  18
ENDBRANCH   5   6
ENDBRANCH   3   5
ENDBRANCH   2   3
ENDBRANCH   1   2
BRANCH   1  23
ATOM     23  C   UNL A   1      37.571  20.539  24.987  1.00  0.00     0.275 C 
BRANCH  23  24
ATOM     24  O   UNL A   1      37.982  21.475  26.002  1.00  0.00    -0.458 OA
BRANCH  24  25
ATOM     25  C   UNL A   1      39.287  21.379  26.331  1.00  0.00     0.338 C 
ATOM     26  O   UNL A   1      40.017  20.419  26.163  1.00  0.00    -0.246 OA
BRANCH  25  27
ATOM     27  C   UNL A   1      39.811  22.642  26.858  1.00  0.00     0.060 A 
ATOM     28  C   UNL A   1      39.411  23.829  26.240  1.00  0.00     0.016 A 
ATOM     29  C   UNL A   1      40.831  22.637  27.809  1.00  0.00     0.016 A 
ATOM     30  C   UNL A   1      40.054  25.020  26.552  1.00  0.00     0.010 A 
ATOM     31  C   UNL A   1      41.456  23.842  28.145  1.00  0.00     0.010 A 
ATOM     32  C   UNL A   1      41.082  25.034  27.506  1.00  0.00    -0.014 A 
BRANCH  32  33
ATOM     33  C   UNL A   1      41.721  26.326  27.846  1.00  0.00     0.031 A 
ATOM     34  C   UNL A   1      43.116  26.639  27.397  1.00  0.00     0.074 A 
ATOM     35  C   UNL A   1      40.998  27.235  28.523  1.00  0.00     0.049 A 
ATOM     36  N   UNL A   1      43.819  27.725  27.594  1.00  0.00    -0.248 NA
ATOM     37  C   UNL A   1      43.814  25.600  26.626  1.00  0.00     0.031 C 
ATOM     38  C   UNL A   1      39.624  27.036  28.985  1.00  0.00     0.029 A 
ATOM     39  N   UNL A   1      41.306  28.509  28.919  1.00  0.00    -0.354 N 
ATOM     40  C   UNL A   1      45.047  27.496  26.990  1.00  0.00     0.074 A 
ATOM     41  C   UNL A   1      44.997  26.165  26.421  1.00  0.00     0.031 C 
ATOM     42  C   UNL A   1      39.194  28.162  29.574  1.00  0.00     0.029 A 
ATOM     43  C   UNL A   1      40.274  29.144  29.562  1.00  0.00     0.049 A 
ATOM     44  H   UNL A   1      42.182  28.929  28.758  1.00  0.00     0.167 HD
ATOM     45  C   UNL A   1      46.117  28.325  26.924  1.00  0.00     0.037 A 
ATOM     46  C   UNL A   1      40.208  30.380  30.087  1.00  0.00     0.037 A 
ATOM     47  C   UNL A   1      46.155  29.652  27.483  1.00  0.00     0.049 A 
ATOM     48  C   UNL A   1      41.403  31.281  29.986  1.00  0.00     0.074 A 
ATOM     49  C   UNL A   1      47.197  30.564  27.484  1.00  0.00     0.029 A 
ATOM     50  N   UNL A   1      45.094  30.260  28.140  1.00  0.00    -0.354 N 
ATOM     51  N   UNL A   1      42.566  31.046  29.432  1.00  0.00    -0.248 NA
ATOM     52  C   UNL A   1      41.276  32.616  30.584  1.00  0.00     0.031 C 
ATOM     53  C   UNL A   1      46.774  31.715  28.160  1.00  0.00     0.029 A 
ATOM     54  C   UNL A   1      45.458  31.532  28.554  1.00  0.00     0.049 A 
ATOM     55  H   UNL A   1      44.213  29.848  28.290  1.00  0.00     0.167 HD
ATOM     56  C   UNL A   1      43.313  32.200  29.612  1.00  0.00     0.074 A 
ATOM     57  C   UNL A   1      42.459  33.145  30.303  1.00  0.00     0.031 C 
ATOM     58  C   UNL A   1      44.595  32.450  29.249  1.00  0.00     0.037 A 
BRANCH  45  59
ATOM     59  C   UNL A   1      47.350  27.810  26.243  1.00  0.00     0.064 A 
ATOM     60  C   UNL A   1      48.404  27.235  26.968  1.00  0.00     0.173 A 
ATOM     61  C   UNL A   1      47.458  27.853  24.845  1.00  0.00     0.173 A 
ATOM     62  F   UNL A   1      48.353  27.182  28.306  1.00  0.00    -0.203 F 
ATOM     63  C   UNL A   1      49.527  26.731  26.315  1.00  0.00     0.198 A 
ATOM     64  C   UNL A   1      48.573  27.332  24.196  1.00  0.00     0.198 A 
ATOM     65  F   UNL A   1      46.474  28.391  24.108  1.00  0.00    -0.203 F 
ATOM     66  F   UNL A   1      50.536  26.209  27.028  1.00  0.00    -0.200 F 
ATOM     67  C   UNL A   1      49.609  26.775  24.932  1.00  0.00     0.200 A 
ATOM     68  F   UNL A   1      48.647  27.368  22.859  1.00  0.00    -0.200 F 
ATOM     69  F   UNL A   1      50.688  26.283  24.306  1.00  0.00    -0.200 F 
ENDBRANCH  45  59
BRANCH  46  70
ATOM     70  C   UNL A   1      38.951  30.828  30.736  1.00  0.00     0.064 A 
ATOM     71  C   UNL A   1      37.906  31.371  29.978  1.00  0.00     0.173 A 
ATOM     72  C   UNL A   1      38.755  30.679  32.116  1.00  0.00     0.173 A 
ATOM     73  F   UNL A   1      38.058  31.548  28.657  1.00  0.00    -0.203 F 
ATOM     74  C   UNL A   1      36.708  31.749  30.579  1.00  0.00     0.198 A 
ATOM     75  C   UNL A   1      37.549  31.037  32.711  1.00  0.00     0.198 A 
ATOM     76  F   UNL A   1      39.727  30.159  32.880  1.00  0.00    -0.203 F 
ATOM     77  F   UNL A   1      35.729  32.287  29.837  1.00  0.00    -0.200 F 
ATOM     78  C   UNL A   1      36.527  31.573  31.943  1.00  0.00     0.200 A 
ATOM     79  F   UNL A   1      37.373  30.851  34.026  1.00  0.00    -0.200 F 
ATOM     80  F   UNL A   1      35.369  31.924  32.518  1.00  0.00    -0.200 F 
ENDBRANCH  46  70
BRANCH  58  81
ATOM     81  C   UNL A   1      45.137  33.801  29.598  1.00  0.00     0.064 A 
ATOM     82  C   UNL A   1      45.012  34.884  28.715  1.00  0.00     0.173 A 
ATOM     83  C   UNL A   1      45.786  34.017  30.822  1.00  0.00     0.173 A 
ATOM     84  F   UNL A   1      44.413  34.719  27.525  1.00  0.00    -0.203 F 
ATOM     85  C   UNL A   1      45.542  36.130  29.035  1.00  0.00     0.198 A 
ATOM     86  C   UNL A   1      46.298  35.269  31.147  1.00  0.00     0.198 A 
ATOM     87  F   UNL A   1      45.929  33.011  31.697  1.00  0.00    -0.203 F 
ATOM     88  F   UNL A   1      45.452  37.139  28.158  1.00  0.00    -0.200 F 
ATOM     89  C   UNL A   1      46.183  36.322  30.250  1.00  0.00     0.200 A 
ATOM     90  F   UNL A   1      46.915  35.456  32.321  1.00  0.00    -0.200 F 
ATOM     91  F   UNL A   1      46.700  37.520  30.554  1.00  0.00    -0.200 F 
ENDBRANCH  58  81
ENDBRANCH  32  33
ENDBRANCH  25  27
ENDBRANCH  24  25
ENDBRANCH  23  24
ENDBRANCH   1  23
TORSDOF 17
ENDMDL
MODEL 2
REMARK VINA RESULT:     -11.1      4.955     10.088
REMARK SMILES CC(C)c1ccc(C[N@@H+](CC(=O)OCCOC(=O)c2ccc(-c3c4nc(c(-c5c(F)c(F)c(F)c(F)c5F)c5ccc([nH]5)c(-c5c(F)c(F)c(F)c(F)c5F)c5nc(c(-c6c(F)c(F)c(F)c(F)c6F)c6ccc3[nH]6)C=C5)C=C4)cc2)CC(F)(F)F)cc1
REMARK SMILES IDX 14 1 13 2 11 3 12 4 10 5 9 6 8 8 7 9 4 10 5 11 88 12 6 13
REMARK SMILES IDX 87 14 2 15 1 16 3 17 82 18 83 19 84 20 85 21 86 22 15 23
REMARK SMILES IDX 16 24 17 25 18 26 19 27 20 28 81 29 21 30 80 31 22 32 23 33
REMARK SMILES IDX 24 34 74 35 25 36 79 37 73 38 75 39 26 40 78 41 72 42 71 43
REMARK SMILES IDX 27 45 59 46 39 47 58 48 40 49 43 50 57 51 76 52 41 53 42 54
REMARK SMILES IDX 56 56 77 57 44 58 28 59 29 60 37 61 30 62 31 63 35 64 38 65
REMARK SMILES IDX 32 66 33 67 36 68 34 69 60 70 61 71 69 72 62 73 63 74 67 75
REMARK SMILES IDX 70 76 64 77 65 78 68 79 66 80 45 81 46 82 54 83 47 84 48 85
REMARK SMILES IDX 52 86 55 87 49 88 50 89 53 90 51 91
REMARK H PARENT 9 7 75 44 43 55
REMARK Flexibility Score: inf
ROOT
ATOM      1  C   UNL A   1      31.477  28.907  25.887  1.00  0.00     0.274 C 
ENDROOT
BRANCH   1   2
ATOM      2  O   UNL A   1      31.354  27.663  26.609  1.00  0.00    -0.458 OA
BRANCH   2   3
ATOM      3  C   UNL A   1      32.253  26.697  26.300  1.00  0.00     0.361 C 
ATOM      4  O   UNL A   1      33.471  26.864  26.313  1.00  0.00    -0.245 OA
BRANCH   3   5
ATOM      5  C   UNL A   1      31.641  25.376  25.837  1.00  0.00     0.387 C 
BRANCH   5   6
ATOM      6  N   UNL A   1      31.720  25.029  24.409  1.00  0.00    -0.314 N 
ATOM      7  H   UNL A   1      32.122  25.852  23.959  1.00  0.00     0.349 HD
BRANCH   6   8
ATOM      8  C   UNL A   1      30.435  24.970  23.720  1.00  0.00     0.299 C 
BRANCH   8   9
ATOM      9  C   UNL A   1      29.832  26.336  23.481  1.00  0.00     0.006 A 
ATOM     10  C   UNL A   1      28.575  28.779  22.835  1.00  0.00    -0.045 A 
ATOM     11  C   UNL A   1      29.899  28.532  22.445  1.00  0.00     0.004 A 
ATOM     12  C   UNL A   1      27.909  27.810  23.597  1.00  0.00     0.004 A 
ATOM     13  C   UNL A   1      30.526  27.327  22.773  1.00  0.00     0.010 A 
ATOM     14  C   UNL A   1      28.535  26.608  23.929  1.00  0.00     0.010 A 
BRANCH  10  15
ATOM     15  C   UNL A   1      27.877  30.039  22.357  1.00  0.00     0.013 C 
ATOM     16  C   UNL A   1      27.549  30.941  23.551  1.00  0.00     0.012 C 
ATOM     17  C   UNL A   1      28.677  30.807  21.303  1.00  0.00     0.012 C 
ENDBRANCH  10  15
ENDBRANCH   8   9
ENDBRANCH   6   8
BRANCH   6  18
ATOM     18  C   UNL A   1      32.761  24.031  24.056  1.00  0.00     0.380 C 
BRANCH  18  19
ATOM     19  C   UNL A   1      34.202  24.373  23.589  1.00  0.00     0.438 C 
ATOM     20  F   UNL A   1      34.755  23.362  22.883  1.00  0.00    -0.165 F 
ATOM     21  F   UNL A   1      34.179  25.436  22.744  1.00  0.00    -0.165 F 
ATOM     22  F   UNL A   1      35.032  24.671  24.612  1.00  0.00    -0.165 F 
ENDBRANCH  18  19
ENDBRANCH   6  18
ENDBRANCH   5   6
ENDBRANCH   3   5
ENDBRANCH   2   3
ENDBRANCH   1   2
BRANCH   1  23
ATOM     23  C   UNL A   1      31.851  30.088  26.787  1.00  0.00     0.275 C 
BRANCH  23  24
ATOM     24  O   UNL A   1      33.006  30.795  26.296  1.00  0.00    -0.458 OA
BRANCH  24  25
ATOM     25  C   UNL A   1      33.488  31.711  27.162  1.00  0.00     0.338 C 
ATOM     26  O   UNL A   1      32.933  32.726  27.541  1.00  0.00    -0.246 OA
BRANCH  25  27
ATOM     27  C   UNL A   1      34.784  31.309  27.715  1.00  0.00     0.060 A 
ATOM     28  C   UNL A   1      34.910  30.013  28.221  1.00  0.00     0.016 A 
ATOM     29  C   UNL A   1      35.788  32.257  27.913  1.00  0.00     0.016 A 
ATOM     30  C   UNL A   1      36.036  29.666  28.957  1.00  0.00     0.010 A 
ATOM     31  C   UNL A   1      36.935  31.897  28.627  1.00  0.00     0.010 A 
ATOM     32  C   UNL A   1      37.055  30.606  29.166  1.00  0.00    -0.014 A 
BRANCH  32  33
ATOM     33  C   UNL A   1      38.260  30.195  29.921  1.00  0.00     0.031 A 
ATOM     34  C   UNL A   1      38.484  30.656  31.329  1.00  0.00     0.074 A 
ATOM     35  C   UNL A   1      39.125  29.350  29.330  1.00  0.00     0.049 A 
ATOM     36  N   UNL A   1      39.476  30.378  32.137  1.00  0.00    -0.248 NA
ATOM     37  C   UNL A   1      37.465  31.544  31.907  1.00  0.00     0.031 C 
ATOM     38  C   UNL A   1      38.984  28.825  27.972  1.00  0.00     0.029 A 
ATOM     39  N   UNL A   1      40.273  28.771  29.800  1.00  0.00    -0.354 N 
ATOM     40  C   UNL A   1      39.212  31.070  33.312  1.00  0.00     0.074 A 
ATOM     41  C   UNL A   1      37.968  31.784  33.111  1.00  0.00     0.031 C 
ATOM     42  C   UNL A   1      39.991  27.973  27.727  1.00  0.00     0.029 A 
ATOM     43  C   UNL A   1      40.862  27.922  28.897  1.00  0.00     0.049 A 
ATOM     44  H   UNL A   1      40.639  28.944  30.697  1.00  0.00     0.167 HD
ATOM     45  C   UNL A   1      39.948  31.103  34.449  1.00  0.00     0.037 A 
ATOM     46  C   UNL A   1      41.984  27.189  29.001  1.00  0.00     0.037 A 
ATOM     47  C   UNL A   1      41.179  30.380  34.644  1.00  0.00     0.049 A 
ATOM     48  C   UNL A   1      42.771  27.235  30.277  1.00  0.00     0.074 A 
ATOM     49  C   UNL A   1      42.008  30.361  35.753  1.00  0.00     0.029 A 
ATOM     50  N   UNL A   1      41.756  29.539  33.703  1.00  0.00    -0.354 N 
ATOM     51  N   UNL A   1      42.524  27.909  31.372  1.00  0.00    -0.248 NA
ATOM     52  C   UNL A   1      43.991  26.420  30.330  1.00  0.00     0.031 C 
ATOM     53  C   UNL A   1      43.097  29.527  35.474  1.00  0.00     0.029 A 
ATOM     54  C   UNL A   1      42.931  29.001  34.203  1.00  0.00     0.049 A 
ATOM     55  H   UNL A   1      41.384  29.352  32.810  1.00  0.00     0.167 HD
ATOM     56  C   UNL A   1      43.556  27.604  32.247  1.00  0.00     0.074 A 
ATOM     57  C   UNL A   1      44.416  26.659  31.563  1.00  0.00     0.031 C 
ATOM     58  C   UNL A   1      43.776  28.072  33.500  1.00  0.00     0.037 A 
BRANCH  45  59
ATOM     59  C   UNL A   1      39.456  31.973  35.566  1.00  0.00     0.064 A 
ATOM     60  C   UNL A   1      38.564  31.492  36.535  1.00  0.00     0.173 A 
ATOM     61  C   UNL A   1      39.919  33.292  35.693  1.00  0.00     0.173 A 
ATOM     62  F   UNL A   1      38.085  30.243  36.450  1.00  0.00    -0.203 F 
ATOM     63  C   UNL A   1      38.144  32.305  37.585  1.00  0.00     0.198 A 
ATOM     64  C   UNL A   1      39.511  34.095  36.754  1.00  0.00     0.198 A 
ATOM     65  F   UNL A   1      40.775  33.797  34.792  1.00  0.00    -0.203 F 
ATOM     66  F   UNL A   1      37.270  31.835  38.487  1.00  0.00    -0.200 F 
ATOM     67  C   UNL A   1      38.621  33.603  37.697  1.00  0.00     0.200 A 
ATOM     68  F   UNL A   1      39.979  35.346  36.864  1.00  0.00    -0.200 F 
ATOM     69  F   UNL A   1      38.221  34.381  38.713  1.00  0.00    -0.200 F 
ENDBRANCH  45  59
BRANCH  46  70
ATOM     70  C   UNL A   1      42.406  26.341  27.859  1.00  0.00     0.064 A 
ATOM     71  C   UNL A   1      41.860  25.065  27.673  1.00  0.00     0.173 A 
ATOM     72  C   UNL A   1      43.327  26.807  26.910  1.00  0.00     0.173 A 
ATOM     73  F   UNL A   1      40.989  24.572  28.566  1.00  0.00    -0.203 F 
ATOM     74  C   UNL A   1      42.220  24.285  26.576  1.00  0.00     0.198 A 
ATOM     75  C   UNL A   1      43.669  26.036  25.803  1.00  0.00     0.198 A 
ATOM     76  F   UNL A   1      43.872  28.025  27.047  1.00  0.00    -0.203 F 
ATOM     77  F   UNL A   1      41.700  23.059  26.429  1.00  0.00    -0.200 F 
ATOM     78  C   UNL A   1      43.117  24.775  25.638  1.00  0.00     0.200 A 
ATOM     79  F   UNL A   1      44.524  26.519  24.892  1.00  0.00    -0.200 F 
ATOM     80  F   UNL A   1      43.451  24.030  24.576  1.00  0.00    -0.200 F 
ENDBRANCH  46  70
BRANCH  58  81
ATOM     81  C   UNL A   1      44.998  27.562  34.199  1.00  0.00     0.064 A 
ATOM     82  C   UNL A   1      46.226  28.232  34.097  1.00  0.00     0.173 A 
ATOM     83  C   UNL A   1      44.942  26.398  34.978  1.00  0.00     0.173 A 
ATOM     84  F   UNL A   1      46.329  29.341  33.347  1.00  0.00    -0.203 F 
ATOM     85  C   UNL A   1      47.363  27.738  34.728  1.00  0.00     0.198 A 
ATOM     86  C   UNL A   1      46.077  25.917  35.624  1.00  0.00     0.198 A 
ATOM     87  F   UNL A   1      43.789  25.725  35.105  1.00  0.00    -0.203 F 
ATOM     88  F   UNL A   1      48.537  28.368  34.579  1.00  0.00    -0.200 F 
ATOM     89  C   UNL A   1      47.287  26.583  35.492  1.00  0.00     0.200 A 
ATOM     90  F   UNL A   1      46.004  24.803  36.364  1.00  0.00    -0.200 F 
ATOM     91  F   UNL A   1      48.385  26.103  36.093  1.00  0.00    -0.200 F 
ENDBRANCH  58  81
ENDBRANCH  32  33
ENDBRANCH  25  27
ENDBRANCH  24  25
ENDBRANCH  23  24
ENDBRANCH   1  23
TORSDOF 17
ENDMDL
MODEL 3
REMARK VINA RESULT:     -11.0      6.166     11.869
REMARK SMILES CC(C)c1ccc(C[N@@H+](CC(=O)OCCOC(=O)c2ccc(-c3c4nc(c(-c5c(F)c(F)c(F)c(F)c5F)c5ccc([nH]5)c(-c5c(F)c(F)c(F)c(F)c5F)c5nc(c(-c6c(F)c(F)c(F)c(F)c6F)c6ccc3[nH]6)C=C5)C=C4)cc2)CC(F)(F)F)cc1
REMARK SMILES IDX 14 1 13 2 11 3 12 4 10 5 9 6 8 8 7 9 4 10 5 11 88 12 6 13
REMARK SMILES IDX 87 14 2 15 1 16 3 17 82 18 83 19 84 20 85 21 86 22 15 23
REMARK SMILES IDX 16 24 17 25 18 26 19 27 20 28 81 29 21 30 80 31 22 32 23 33
REMARK SMILES IDX 24 34 74 35 25 36 79 37 73 38 75 39 26 40 78 41 72 42 71 43
REMARK SMILES IDX 27 45 59 46 39 47 58 48 40 49 43 50 57 51 76 52 41 53 42 54
REMARK SMILES IDX 56 56 77 57 44 58 28 59 29 60 37 61 30 62 31 63 35 64 38 65
REMARK SMILES IDX 32 66 33 67 36 68 34 69 60 70 61 71 69 72 62 73 63 74 67 75
REMARK SMILES IDX 70 76 64 77 65 78 68 79 66 80 45 81 46 82 54 83 47 84 48 85
REMARK SMILES IDX 52 86 55 87 49 88 50 89 53 90 51 91
REMARK H PARENT 9 7 75 44 43 55
REMARK Flexibility Score: inf
ROOT
ATOM      1  C   UNL A   1      33.890  34.268  27.912  1.00  0.00     0.274 C 
ENDROOT
BRANCH   1   2
ATOM      2  O   UNL A   1      32.839  35.139  28.383  1.00  0.00    -0.458 OA
BRANCH   2   3
ATOM      3  C   UNL A   1      33.091  35.823  29.527  1.00  0.00     0.361 C 
ATOM      4  O   UNL A   1      33.275  37.037  29.574  1.00  0.00    -0.245 OA
BRANCH   3   5
ATOM      5  C   UNL A   1      33.223  34.954  30.777  1.00  0.00     0.387 C 
BRANCH   5   6
ATOM      6  N   UNL A   1      34.508  34.948  31.494  1.00  0.00    -0.314 N 
ATOM      7  H   UNL A   1      35.103  35.595  30.976  1.00  0.00     0.349 HD
BRANCH   6   8
ATOM      8  C   UNL A   1      35.285  33.723  31.350  1.00  0.00     0.299 C 
BRANCH   8   9
ATOM      9  C   UNL A   1      36.707  33.976  30.903  1.00  0.00     0.006 A 
ATOM     10  C   UNL A   1      39.405  34.194  30.103  1.00  0.00    -0.045 A 
ATOM     11  C   UNL A   1      39.011  34.568  31.396  1.00  0.00     0.004 A 
ATOM     12  C   UNL A   1      38.424  33.760  29.202  1.00  0.00     0.004 A 
ATOM     13  C   UNL A   1      37.674  34.471  31.789  1.00  0.00     0.010 A 
ATOM     14  C   UNL A   1      37.088  33.666  29.593  1.00  0.00     0.010 A 
BRANCH  10  15
ATOM     15  C   UNL A   1      40.879  34.189  29.742  1.00  0.00     0.013 C 
ATOM     16  C   UNL A   1      41.184  35.330  28.766  1.00  0.00     0.012 C 
ATOM     17  C   UNL A   1      41.797  34.263  30.964  1.00  0.00     0.012 C 
ENDBRANCH  10  15
ENDBRANCH   8   9
ENDBRANCH   6   8
BRANCH   6  18
ATOM     18  C   UNL A   1      34.501  35.634  32.811  1.00  0.00     0.380 C 
BRANCH  18  19
ATOM     19  C   UNL A   1      33.818  36.997  33.103  1.00  0.00     0.438 C 
ATOM     20  F   UNL A   1      34.026  37.402  34.376  1.00  0.00    -0.165 F 
ATOM     21  F   UNL A   1      34.360  37.967  32.321  1.00  0.00    -0.165 F 
ATOM     22  F   UNL A   1      32.486  36.979  32.883  1.00  0.00    -0.165 F 
ENDBRANCH  18  19
ENDBRANCH   6  18
ENDBRANCH   5   6
ENDBRANCH   3   5
ENDBRANCH   2   3
ENDBRANCH   1   2
BRANCH   1  23
ATOM     23  C   UNL A   1      33.429  32.821  27.725  1.00  0.00     0.275 C 
BRANCH  23  24
ATOM     24  O   UNL A   1      34.271  31.891  28.433  1.00  0.00    -0.458 OA
BRANCH  24  25
ATOM     25  C   UNL A   1      34.532  30.762  27.742  1.00  0.00     0.338 C 
ATOM     26  O   UNL A   1      33.885  30.300  26.819  1.00  0.00    -0.246 OA
BRANCH  25  27
ATOM     27  C   UNL A   1      35.793  30.145  28.161  1.00  0.00     0.060 A 
ATOM     28  C   UNL A   1      35.903  29.703  29.481  1.00  0.00     0.016 A 
ATOM     29  C   UNL A   1      36.908  30.189  27.325  1.00  0.00     0.016 A 
ATOM     30  C   UNL A   1      37.142  29.327  29.983  1.00  0.00     0.010 A 
ATOM     31  C   UNL A   1      38.150  29.781  27.821  1.00  0.00     0.010 A 
ATOM     32  C   UNL A   1      38.275  29.365  29.157  1.00  0.00    -0.014 A 
BRANCH  32  33
ATOM     33  C   UNL A   1      39.575  28.921  29.708  1.00  0.00     0.031 A 
ATOM     34  C   UNL A   1      40.183  29.602  30.897  1.00  0.00     0.074 A 
ATOM     35  C   UNL A   1      40.173  27.853  29.149  1.00  0.00     0.049 A 
ATOM     36  N   UNL A   1      41.304  29.331  31.515  1.00  0.00    -0.248 NA
ATOM     37  C   UNL A   1      39.437  30.733  31.466  1.00  0.00     0.031 C 
ATOM     38  C   UNL A   1      39.651  27.107  28.004  1.00  0.00     0.029 A 
ATOM     39  N   UNL A   1      41.330  27.201  29.479  1.00  0.00    -0.354 N 
ATOM     40  C   UNL A   1      41.410  30.267  32.534  1.00  0.00     0.074 A 
ATOM     41  C   UNL A   1      40.240  31.117  32.451  1.00  0.00     0.031 C 
ATOM     42  C   UNL A   1      40.469  26.076  27.745  1.00  0.00     0.029 A 
ATOM     43  C   UNL A   1      41.587  26.113  28.682  1.00  0.00     0.049 A 
ATOM     44  H   UNL A   1      41.920  27.483  30.215  1.00  0.00     0.167 HD
ATOM     45  C   UNL A   1      42.399  30.401  33.450  1.00  0.00     0.037 A 
ATOM     46  C   UNL A   1      42.615  25.246  28.704  1.00  0.00     0.037 A 
ATOM     47  C   UNL A   1      43.554  29.544  33.533  1.00  0.00     0.049 A 
ATOM     48  C   UNL A   1      43.688  25.411  29.739  1.00  0.00     0.074 A 
ATOM     49  C   UNL A   1      44.620  29.608  34.414  1.00  0.00     0.029 A 
ATOM     50  N   UNL A   1      43.790  28.458  32.702  1.00  0.00    -0.354 N 
ATOM     51  N   UNL A   1      43.789  26.313  30.684  1.00  0.00    -0.248 NA
ATOM     52  C   UNL A   1      44.788  24.439  29.710  1.00  0.00     0.031 C 
ATOM     53  C   UNL A   1      45.512  28.574  34.102  1.00  0.00     0.029 A 
ATOM     54  C   UNL A   1      44.986  27.847  33.046  1.00  0.00     0.049 A 
ATOM     55  H   UNL A   1      43.195  28.165  31.974  1.00  0.00     0.167 HD
ATOM     56  C   UNL A   1      44.962  26.022  31.363  1.00  0.00     0.074 A 
ATOM     57  C   UNL A   1      45.523  24.840  30.739  1.00  0.00     0.031 C 
ATOM     58  C   UNL A   1      45.529  26.680  32.403  1.00  0.00     0.037 A 
BRANCH  45  59
ATOM     59  C   UNL A   1      42.291  31.536  34.424  1.00  0.00     0.064 A 
ATOM     60  C   UNL A   1      41.532  31.427  35.598  1.00  0.00     0.173 A 
ATOM     61  C   UNL A   1      42.991  32.731  34.201  1.00  0.00     0.173 A 
ATOM     62  F   UNL A   1      40.835  30.310  35.851  1.00  0.00    -0.203 F 
ATOM     63  C   UNL A   1      41.470  32.480  36.509  1.00  0.00     0.198 A 
ATOM     64  C   UNL A   1      42.941  33.773  35.122  1.00  0.00     0.198 A 
ATOM     65  F   UNL A   1      43.733  32.881  33.094  1.00  0.00    -0.203 F 
ATOM     66  F   UNL A   1      40.718  32.366  37.613  1.00  0.00    -0.200 F 
ATOM     67  C   UNL A   1      42.178  33.649  36.273  1.00  0.00     0.200 A 
ATOM     68  F   UNL A   1      43.633  34.899  34.896  1.00  0.00    -0.200 F 
ATOM     69  F   UNL A   1      42.123  34.658  37.154  1.00  0.00    -0.200 F 
ENDBRANCH  45  59
BRANCH  46  70
ATOM     70  C   UNL A   1      42.652  24.139  27.717  1.00  0.00     0.064 A 
ATOM     71  C   UNL A   1      43.120  24.355  26.415  1.00  0.00     0.173 A 
ATOM     72  C   UNL A   1      42.266  22.839  28.071  1.00  0.00     0.173 A 
ATOM     73  F   UNL A   1      43.483  25.586  26.029  1.00  0.00    -0.203 F 
ATOM     74  C   UNL A   1      43.200  23.307  25.501  1.00  0.00     0.198 A 
ATOM     75  C   UNL A   1      42.367  21.788  27.163  1.00  0.00     0.198 A 
ATOM     76  F   UNL A   1      41.816  22.586  29.309  1.00  0.00    -0.203 F 
ATOM     77  F   UNL A   1      43.630  23.540  24.253  1.00  0.00    -0.200 F 
ATOM     78  C   UNL A   1      42.832  22.023  25.879  1.00  0.00     0.200 A 
ATOM     79  F   UNL A   1      42.025  20.548  27.537  1.00  0.00    -0.200 F 
ATOM     80  F   UNL A   1      42.923  21.013  25.003  1.00  0.00    -0.200 F 
ENDBRANCH  46  70
BRANCH  58  81
ATOM     81  C   UNL A   1      46.821  26.127  32.920  1.00  0.00     0.064 A 
ATOM     82  C   UNL A   1      46.842  25.131  33.907  1.00  0.00     0.173 A 
ATOM     83  C   UNL A   1      48.047  26.595  32.425  1.00  0.00     0.173 A 
ATOM     84  F   UNL A   1      45.692  24.668  34.422  1.00  0.00    -0.203 F 
ATOM     85  C   UNL A   1      48.047  24.642  34.401  1.00  0.00     0.198 A 
ATOM     86  C   UNL A   1      49.250  26.089  32.908  1.00  0.00     0.198 A 
ATOM     87  F   UNL A   1      48.076  27.546  31.480  1.00  0.00    -0.203 F 
ATOM     88  F   UNL A   1      48.044  23.724  35.378  1.00  0.00    -0.200 F 
ATOM     89  C   UNL A   1      49.249  25.120  33.901  1.00  0.00     0.200 A 
ATOM     90  F   UNL A   1      50.411  26.548  32.423  1.00  0.00    -0.200 F 
ATOM     91  F   UNL A   1      50.409  24.653  34.383  1.00  0.00    -0.200 F 
ENDBRANCH  58  81
ENDBRANCH  32  33
ENDBRANCH  25  27
ENDBRANCH  24  25
ENDBRANCH  23  24
ENDBRANCH   1  23
TORSDOF 17
ENDMDL
