MODEL 1
REMARK VINA RESULT:     -10.6      0.000      0.000
REMARK SMILES O=C(OCCOC(=O)c1cccc(Cl)c1C(=O)c1ccccc1)c1ccc(-c2c3nc(c(-c4c(F)c(F)c(F)c(F)c4F)c4ccc([nH]4)c(-c4c(F)c(F)c(F)c(F)c4F)c4nc(c(-c5c(F)c(F)c(F)c(F)c5F)c5ccc2[nH]5)C=C4)C=C3)cc1
REMARK SMILES IDX 4 1 3 2 2 3 1 4 24 5 25 6 86 7 26 8 85 9 27 10 28 11 29 12
REMARK SMILES IDX 79 13 30 14 84 15 78 16 80 17 31 18 83 19 77 20 76 21 32 23
REMARK SMILES IDX 64 24 44 25 63 26 45 27 48 28 62 29 81 30 46 31 47 32 61 34
REMARK SMILES IDX 82 35 49 36 33 37 34 38 42 39 35 40 36 41 40 42 43 43 37 44
REMARK SMILES IDX 38 45 41 46 39 47 65 48 66 49 74 50 67 51 68 52 72 53 75 54
REMARK SMILES IDX 69 55 70 56 73 57 71 58 50 59 51 60 59 61 52 62 53 63 57 64
REMARK SMILES IDX 60 65 54 66 55 67 58 68 56 69 5 70 6 71 7 72 8 73 9 74 10 75
REMARK SMILES IDX 15 76 11 77 13 78 12 79 14 80 16 81 17 82 18 83 19 84 23 85
REMARK SMILES IDX 20 86 22 87 21 88
REMARK H PARENT 80 22 48 33
REMARK Flexibility Score: inf
ROOT
ATOM      1  C   UNL A   1      40.856  20.819  26.123  1.00  0.00     0.275 C 
ENDROOT
BRANCH   1   2
ATOM      2  O   UNL A   1      40.015  21.693  26.905  1.00  0.00    -0.458 OA
BRANCH   2   3
ATOM      3  C   UNL A   1      39.284  22.722  26.415  1.00  0.00     0.338 C 
ATOM      4  O   UNL A   1      38.306  22.519  25.707  1.00  0.00    -0.246 OA
BRANCH   3   5
ATOM      5  C   UNL A   1      39.578  24.097  26.916  1.00  0.00     0.060 A 
ATOM      6  C   UNL A   1      40.190  25.081  26.138  1.00  0.00     0.016 A 
ATOM      7  C   UNL A   1      39.244  24.397  28.246  1.00  0.00     0.016 A 
ATOM      8  C   UNL A   1      40.403  26.359  26.650  1.00  0.00     0.010 A 
ATOM      9  C   UNL A   1      39.441  25.681  28.761  1.00  0.00     0.010 A 
ATOM     10  C   UNL A   1      40.035  26.668  27.964  1.00  0.00    -0.014 A 
BRANCH  10  11
ATOM     11  C   UNL A   1      40.465  27.966  28.530  1.00  0.00     0.031 A 
ATOM     12  C   UNL A   1      41.932  28.198  28.731  1.00  0.00     0.074 A 
ATOM     13  C   UNL A   1      39.578  28.957  28.737  1.00  0.00     0.049 A 
ATOM     14  N   UNL A   1      42.556  29.300  29.053  1.00  0.00    -0.248 NA
ATOM     15  C   UNL A   1      42.821  27.048  28.499  1.00  0.00     0.031 C 
ATOM     16  C   UNL A   1      38.142  28.865  28.487  1.00  0.00     0.029 A 
ATOM     17  N   UNL A   1      39.752  30.241  29.189  1.00  0.00    -0.354 N 
ATOM     18  C   UNL A   1      43.906  28.985  29.013  1.00  0.00     0.074 A 
ATOM     19  C   UNL A   1      44.013  27.574  28.722  1.00  0.00     0.031 C 
ATOM     20  C   UNL A   1      37.555  30.023  28.829  1.00  0.00     0.029 A 
ATOM     21  C   UNL A   1      38.580  30.949  29.303  1.00  0.00     0.049 A 
ATOM     22  H   UNL A   1      40.633  30.619  29.410  1.00  0.00     0.167 HD
ATOM     23  C   UNL A   1      44.965  29.813  29.156  1.00  0.00     0.037 A 
ATOM     24  C   UNL A   1      38.363  32.207  29.731  1.00  0.00     0.037 A 
ATOM     25  C   UNL A   1      44.847  31.212  29.461  1.00  0.00     0.049 A 
ATOM     26  C   UNL A   1      39.557  33.075  30.028  1.00  0.00     0.074 A 
ATOM     27  C   UNL A   1      45.850  32.145  29.638  1.00  0.00     0.029 A 
ATOM     28  N   UNL A   1      43.641  31.872  29.654  1.00  0.00    -0.354 N 
ATOM     29  N   UNL A   1      40.832  32.783  29.930  1.00  0.00    -0.248 NA
ATOM     30  C   UNL A   1      39.288  34.455  30.450  1.00  0.00     0.031 C 
ATOM     31  C   UNL A   1      45.253  33.358  29.996  1.00  0.00     0.029 A 
ATOM     32  C   UNL A   1      43.875  33.196  29.982  1.00  0.00     0.049 A 
ATOM     33  H   UNL A   1      42.751  31.460  29.568  1.00  0.00     0.167 HD
ATOM     34  C   UNL A   1      41.517  33.952  30.230  1.00  0.00     0.074 A 
ATOM     35  C   UNL A   1      40.513  34.958  30.513  1.00  0.00     0.031 C 
ATOM     36  C   UNL A   1      42.854  34.177  30.253  1.00  0.00     0.037 A 
BRANCH  23  37
ATOM     37  C   UNL A   1      46.325  29.204  29.004  1.00  0.00     0.064 A 
ATOM     38  C   UNL A   1      46.990  28.605  30.087  1.00  0.00     0.173 A 
ATOM     39  C   UNL A   1      46.990  29.251  27.771  1.00  0.00     0.173 A 
ATOM     40  F   UNL A   1      46.407  28.559  31.295  1.00  0.00    -0.203 F 
ATOM     41  C   UNL A   1      48.283  28.110  29.948  1.00  0.00     0.198 A 
ATOM     42  C   UNL A   1      48.272  28.728  27.628  1.00  0.00     0.198 A 
ATOM     43  F   UNL A   1      46.401  29.818  26.707  1.00  0.00    -0.203 F 
ATOM     44  F   UNL A   1      48.922  27.602  31.011  1.00  0.00    -0.200 F 
ATOM     45  C   UNL A   1      48.921  28.168  28.719  1.00  0.00     0.200 A 
ATOM     46  F   UNL A   1      48.886  28.781  26.438  1.00  0.00    -0.200 F 
ATOM     47  F   UNL A   1      50.169  27.698  28.587  1.00  0.00    -0.200 F 
ENDBRANCH  23  37
BRANCH  24  48
ATOM     48  C   UNL A   1      36.975  32.720  29.882  1.00  0.00     0.064 A 
ATOM     49  C   UNL A   1      36.292  33.329  28.821  1.00  0.00     0.173 A 
ATOM     50  C   UNL A   1      36.310  32.628  31.115  1.00  0.00     0.173 A 
ATOM     51  F   UNL A   1      36.887  33.453  27.626  1.00  0.00    -0.203 F 
ATOM     52  C   UNL A   1      35.009  33.849  28.993  1.00  0.00     0.198 A 
ATOM     53  C   UNL A   1      35.019  33.127  31.279  1.00  0.00     0.198 A 
ATOM     54  F   UNL A   1      36.912  32.045  32.162  1.00  0.00    -0.203 F 
ATOM     55  F   UNL A   1      34.396  34.466  27.973  1.00  0.00    -0.200 F 
ATOM     56  C   UNL A   1      34.373  33.746  30.220  1.00  0.00     0.200 A 
ATOM     57  F   UNL A   1      34.404  33.011  32.465  1.00  0.00    -0.200 F 
ATOM     58  F   UNL A   1      33.141  34.248  30.385  1.00  0.00    -0.200 F 
ENDBRANCH  24  48
BRANCH  36  59
ATOM     59  C   UNL A   1      43.308  35.574  30.558  1.00  0.00     0.064 A 
ATOM     60  C   UNL A   1      43.583  35.990  31.869  1.00  0.00     0.173 A 
ATOM     61  C   UNL A   1      43.527  36.488  29.516  1.00  0.00     0.173 A 
ATOM     62  F   UNL A   1      43.374  35.156  32.899  1.00  0.00    -0.203 F 
ATOM     63  C   UNL A   1      44.037  37.279  32.127  1.00  0.00     0.198 A 
ATOM     64  C   UNL A   1      44.015  37.765  29.775  1.00  0.00     0.198 A 
ATOM     65  F   UNL A   1      43.286  36.135  28.245  1.00  0.00    -0.203 F 
ATOM     66  F   UNL A   1      44.248  37.672  33.391  1.00  0.00    -0.200 F 
ATOM     67  C   UNL A   1      44.263  38.161  31.080  1.00  0.00     0.200 A 
ATOM     68  F   UNL A   1      44.249  38.609  28.761  1.00  0.00    -0.200 F 
ATOM     69  F   UNL A   1      44.715  39.398  31.330  1.00  0.00    -0.200 F 
ENDBRANCH  36  59
ENDBRANCH  10  11
ENDBRANCH   3   5
ENDBRANCH   2   3
ENDBRANCH   1   2
BRANCH   1  70
ATOM     70  C   UNL A   1      42.275  20.528  26.629  1.00  0.00     0.275 C 
BRANCH  70  71
ATOM     71  O   UNL A   1      43.299  21.271  25.948  1.00  0.00    -0.458 OA
BRANCH  71  72
ATOM     72  C   UNL A   1      43.160  22.626  26.012  1.00  0.00     0.339 C 
ATOM     73  O   UNL A   1      42.854  23.378  25.106  1.00  0.00    -0.246 OA
BRANCH  72  74
ATOM     74  C   UNL A   1      43.684  23.104  27.309  1.00  0.00     0.072 A 
ATOM     75  C   UNL A   1      42.794  22.936  28.384  1.00  0.00     0.016 A 
ATOM     76  C   UNL A   1      44.978  23.646  27.504  1.00  0.00     0.056 A 
ATOM     77  C   UNL A   1      43.159  23.329  29.663  1.00  0.00     0.002 A 
ATOM     78  C   UNL A   1      45.280  24.135  28.792  1.00  0.00     0.053 A 
ATOM     79  C   UNL A   1      44.382  23.955  29.859  1.00  0.00     0.021 A 
ATOM     80  Cl  UNL A   1      46.659  25.102  29.193  1.00  0.00    -0.084 Cl
BRANCH  76  81
ATOM     81  C   UNL A   1      45.903  23.750  26.332  1.00  0.00     0.195 C 
ATOM     82  O   UNL A   1      46.403  22.729  25.871  1.00  0.00    -0.289 OA
BRANCH  81  83
ATOM     83  C   UNL A   1      46.242  25.012  25.640  1.00  0.00     0.023 A 
ATOM     84  C   UNL A   1      45.273  26.026  25.605  1.00  0.00     0.012 A 
ATOM     85  C   UNL A   1      47.471  25.197  25.000  1.00  0.00     0.012 A 
ATOM     86  C   UNL A   1      45.551  27.239  24.976  1.00  0.00     0.001 A 
ATOM     87  C   UNL A   1      47.741  26.414  24.366  1.00  0.00     0.001 A 
ATOM     88  C   UNL A   1      46.786  27.434  24.360  1.00  0.00     0.000 A 
ENDBRANCH  81  83
ENDBRANCH  76  81
ENDBRANCH  72  74
ENDBRANCH  71  72
ENDBRANCH  70  71
ENDBRANCH   1  70
TORSDOF 13
ENDMDL
MODEL 2
REMARK VINA RESULT:     -10.5      4.875     11.179
REMARK SMILES O=C(OCCOC(=O)c1cccc(Cl)c1C(=O)c1ccccc1)c1ccc(-c2c3nc(c(-c4c(F)c(F)c(F)c(F)c4F)c4ccc([nH]4)c(-c4c(F)c(F)c(F)c(F)c4F)c4nc(c(-c5c(F)c(F)c(F)c(F)c5F)c5ccc2[nH]5)C=C4)C=C3)cc1
REMARK SMILES IDX 4 1 3 2 2 3 1 4 24 5 25 6 86 7 26 8 85 9 27 10 28 11 29 12
REMARK SMILES IDX 79 13 30 14 84 15 78 16 80 17 31 18 83 19 77 20 76 21 32 23
REMARK SMILES IDX 64 24 44 25 63 26 45 27 48 28 62 29 81 30 46 31 47 32 61 34
REMARK SMILES IDX 82 35 49 36 33 37 34 38 42 39 35 40 36 41 40 42 43 43 37 44
REMARK SMILES IDX 38 45 41 46 39 47 65 48 66 49 74 50 67 51 68 52 72 53 75 54
REMARK SMILES IDX 69 55 70 56 73 57 71 58 50 59 51 60 59 61 52 62 53 63 57 64
REMARK SMILES IDX 60 65 54 66 55 67 58 68 56 69 5 70 6 71 7 72 8 73 9 74 10 75
REMARK SMILES IDX 15 76 11 77 13 78 12 79 14 80 16 81 17 82 18 83 19 84 23 85
REMARK SMILES IDX 20 86 22 87 21 88
REMARK H PARENT 80 22 48 33
REMARK Flexibility Score: inf
ROOT
ATOM      1  C   UNL A   1      33.694  33.246  28.449  1.00  0.00     0.275 C 
ENDROOT
BRANCH   1   2
ATOM      2  O   UNL A   1      34.519  32.314  27.720  1.00  0.00    -0.458 OA
BRANCH   2   3
ATOM      3  C   UNL A   1      34.561  30.977  27.926  1.00  0.00     0.338 C 
ATOM      4  O   UNL A   1      33.604  30.266  27.650  1.00  0.00    -0.246 OA
BRANCH   3   5
ATOM      5  C   UNL A   1      35.867  30.365  28.313  1.00  0.00     0.060 A 
ATOM      6  C   UNL A   1      36.082  29.730  29.538  1.00  0.00     0.016 A 
ATOM      7  C   UNL A   1      36.932  30.460  27.404  1.00  0.00     0.016 A 
ATOM      8  C   UNL A   1      37.313  29.143  29.825  1.00  0.00     0.010 A 
ATOM      9  C   UNL A   1      38.164  29.860  27.679  1.00  0.00     0.010 A 
ATOM     10  C   UNL A   1      38.362  29.207  28.902  1.00  0.00    -0.014 A 
BRANCH  10  11
ATOM     11  C   UNL A   1      39.706  28.753  29.329  1.00  0.00     0.031 A 
ATOM     12  C   UNL A   1      40.432  29.568  30.356  1.00  0.00     0.074 A 
ATOM     13  C   UNL A   1      40.205  27.578  28.906  1.00  0.00     0.049 A 
ATOM     14  N   UNL A   1      41.534  29.290  31.001  1.00  0.00    -0.248 NA
ATOM     15  C   UNL A   1      39.817  30.850  30.740  1.00  0.00     0.031 C 
ATOM     16  C   UNL A   1      39.539  26.667  27.979  1.00  0.00     0.029 A 
ATOM     17  N   UNL A   1      41.379  26.937  29.210  1.00  0.00    -0.354 N 
ATOM     18  C   UNL A   1      41.712  30.334  31.896  1.00  0.00     0.074 A 
ATOM     19  C   UNL A   1      40.659  31.294  31.656  1.00  0.00     0.031 C 
ATOM     20  C   UNL A   1      40.329  25.605  27.752  1.00  0.00     0.029 A 
ATOM     21  C   UNL A   1      41.551  25.751  28.537  1.00  0.00     0.049 A 
ATOM     22  H   UNL A   1      42.036  27.293  29.850  1.00  0.00     0.167 HD
ATOM     23  C   UNL A   1      42.644  30.456  32.867  1.00  0.00     0.037 A 
ATOM     24  C   UNL A   1      42.576  24.879  28.562  1.00  0.00     0.037 A 
ATOM     25  C   UNL A   1      43.696  29.503  33.087  1.00  0.00     0.049 A 
ATOM     26  C   UNL A   1      43.685  25.110  29.554  1.00  0.00     0.074 A 
ATOM     27  C   UNL A   1      44.701  29.527  34.034  1.00  0.00     0.029 A 
ATOM     28  N   UNL A   1      43.885  28.357  32.325  1.00  0.00    -0.354 N 
ATOM     29  N   UNL A   1      43.813  26.071  30.437  1.00  0.00    -0.248 NA
ATOM     30  C   UNL A   1      44.765  24.116  29.588  1.00  0.00     0.031 C 
ATOM     31  C   UNL A   1      45.534  28.426  33.809  1.00  0.00     0.029 A 
ATOM     32  C   UNL A   1      45.013  27.683  32.760  1.00  0.00     0.049 A 
ATOM     33  H   UNL A   1      43.303  28.066  31.587  1.00  0.00     0.167 HD
ATOM     34  C   UNL A   1      44.958  25.775  31.163  1.00  0.00     0.074 A 
ATOM     35  C   UNL A   1      45.487  24.542  30.615  1.00  0.00     0.031 C 
ATOM     36  C   UNL A   1      45.512  26.452  32.198  1.00  0.00     0.037 A 
BRANCH  23  37
ATOM     37  C   UNL A   1      42.562  31.675  33.735  1.00  0.00     0.064 A 
ATOM     38  C   UNL A   1      43.239  32.861  33.405  1.00  0.00     0.173 A 
ATOM     39  C   UNL A   1      41.828  31.649  34.928  1.00  0.00     0.173 A 
ATOM     40  F   UNL A   1      43.977  32.928  32.286  1.00  0.00    -0.203 F 
ATOM     41  C   UNL A   1      43.214  33.961  34.258  1.00  0.00     0.198 A 
ATOM     42  C   UNL A   1      41.780  32.761  35.764  1.00  0.00     0.198 A 
ATOM     43  F   UNL A   1      41.168  30.538  35.291  1.00  0.00    -0.203 F 
ATOM     44  F   UNL A   1      43.920  35.058  33.955  1.00  0.00    -0.200 F 
ATOM     45  C   UNL A   1      42.481  33.911  35.434  1.00  0.00     0.200 A 
ATOM     46  F   UNL A   1      41.068  32.713  36.898  1.00  0.00    -0.200 F 
ATOM     47  F   UNL A   1      42.462  34.968  36.258  1.00  0.00    -0.200 F 
ENDBRANCH  23  37
BRANCH  24  48
ATOM     48  C   UNL A   1      42.590  23.710  27.642  1.00  0.00     0.064 A 
ATOM     49  C   UNL A   1      42.133  22.448  28.043  1.00  0.00     0.173 A 
ATOM     50  C   UNL A   1      43.089  23.835  26.336  1.00  0.00     0.173 A 
ATOM     51  F   UNL A   1      41.658  22.272  29.285  1.00  0.00    -0.203 F 
ATOM     52  C   UNL A   1      42.199  21.350  27.185  1.00  0.00     0.198 A 
ATOM     53  C   UNL A   1      43.133  22.743  25.471  1.00  0.00     0.198 A 
ATOM     54  F   UNL A   1      43.530  25.023  25.895  1.00  0.00    -0.203 F 
ATOM     55  F   UNL A   1      41.796  20.145  27.610  1.00  0.00    -0.200 F 
ATOM     56  C   UNL A   1      42.696  21.499  25.899  1.00  0.00     0.200 A 
ATOM     57  F   UNL A   1      43.601  22.896  24.224  1.00  0.00    -0.200 F 
ATOM     58  F   UNL A   1      42.761  20.443  25.076  1.00  0.00    -0.200 F 
ENDBRANCH  24  48
BRANCH  36  59
ATOM     59  C   UNL A   1      46.734  25.855  32.832  1.00  0.00     0.064 A 
ATOM     60  C   UNL A   1      46.645  24.955  33.903  1.00  0.00     0.173 A 
ATOM     61  C   UNL A   1      48.008  26.145  32.319  1.00  0.00     0.173 A 
ATOM     62  F   UNL A   1      45.450  24.658  34.437  1.00  0.00    -0.203 F 
ATOM     63  C   UNL A   1      47.788  24.385  34.453  1.00  0.00     0.198 A 
ATOM     64  C   UNL A   1      49.146  25.547  32.849  1.00  0.00     0.198 A 
ATOM     65  F   UNL A   1      48.145  26.996  31.291  1.00  0.00    -0.203 F 
ATOM     66  F   UNL A   1      47.684  23.564  35.508  1.00  0.00    -0.200 F 
ATOM     67  C   UNL A   1      49.036  24.673  33.920  1.00  0.00     0.200 A 
ATOM     68  F   UNL A   1      50.348  25.814  32.321  1.00  0.00    -0.200 F 
ATOM     69  F   UNL A   1      50.135  24.112  34.442  1.00  0.00    -0.200 F 
ENDBRANCH  36  59
ENDBRANCH  10  11
ENDBRANCH   3   5
ENDBRANCH   2   3
ENDBRANCH   1   2
BRANCH   1  70
ATOM     70  C   UNL A   1      34.373  34.436  29.141  1.00  0.00     0.275 C 
BRANCH  70  71
ATOM     71  O   UNL A   1      34.549  34.263  30.556  1.00  0.00    -0.458 OA
BRANCH  71  72
ATOM     72  C   UNL A   1      35.382  33.242  30.907  1.00  0.00     0.339 C 
ATOM     73  O   UNL A   1      35.079  32.204  31.464  1.00  0.00    -0.246 OA
BRANCH  72  74
ATOM     74  C   UNL A   1      36.783  33.682  30.737  1.00  0.00     0.072 A 
ATOM     75  C   UNL A   1      37.240  33.636  29.409  1.00  0.00     0.016 A 
ATOM     76  C   UNL A   1      37.611  34.158  31.783  1.00  0.00     0.056 A 
ATOM     77  C   UNL A   1      38.533  34.032  29.099  1.00  0.00     0.002 A 
ATOM     78  C   UNL A   1      38.951  34.450  31.457  1.00  0.00     0.053 A 
ATOM     79  C   UNL A   1      39.393  34.405  30.123  1.00  0.00     0.021 A 
ATOM     80  Cl  UNL A   1      40.213  34.750  32.603  1.00  0.00    -0.084 Cl
BRANCH  76  81
ATOM     81  C   UNL A   1      37.051  34.235  33.169  1.00  0.00     0.195 C 
ATOM     82  O   UNL A   1      36.218  35.095  33.432  1.00  0.00    -0.289 OA
BRANCH  81  83
ATOM     83  C   UNL A   1      37.401  33.309  34.268  1.00  0.00     0.023 A 
ATOM     84  C   UNL A   1      37.706  31.980  33.939  1.00  0.00     0.012 A 
ATOM     85  C   UNL A   1      37.396  33.715  35.606  1.00  0.00     0.012 A 
ATOM     86  C   UNL A   1      38.055  31.073  34.939  1.00  0.00     0.001 A 
ATOM     87  C   UNL A   1      37.742  32.799  36.605  1.00  0.00     0.001 A 
ATOM     88  C   UNL A   1      38.076  31.484  36.272  1.00  0.00     0.000 A 
ENDBRANCH  81  83
ENDBRANCH  76  81
ENDBRANCH  72  74
ENDBRANCH  71  72
ENDBRANCH  70  71
ENDBRANCH   1  70
TORSDOF 13
ENDMDL
MODEL 3
REMARK VINA RESULT:     -10.4      6.079     11.557
REMARK SMILES O=C(OCCOC(=O)c1cccc(Cl)c1C(=O)c1ccccc1)c1ccc(-c2c3nc(c(-c4c(F)c(F)c(F)c(F)c4F)c4ccc([nH]4)c(-c4c(F)c(F)c(F)c(F)c4F)c4nc(c(-c5c(F)c(F)c(F)c(F)c5F)c5ccc2[nH]5)C=C4)C=C3)cc1
REMARK SMILES IDX 4 1 3 2 2 3 1 4 24 5 25 6 86 7 26 8 85 9 27 10 28 11 29 12
REMARK SMILES IDX 79 13 30 14 84 15 78 16 80 17 31 18 83 19 77 20 76 21 32 23
REMARK SMILES IDX 64 24 44 25 63 26 45 27 48 28 62 29 81 30 46 31 47 32 61 34
REMARK SMILES IDX 82 35 49 36 33 37 34 38 42 39 35 40 36 41 40 42 43 43 37 44
REMARK SMILES IDX 38 45 41 46 39 47 65 48 66 49 74 50 67 51 68 52 72 53 75 54
REMARK SMILES IDX 69 55 70 56 73 57 71 58 50 59 51 60 59 61 52 62 53 63 57 64
REMARK SMILES IDX 60 65 54 66 55 67 58 68 56 69 5 70 6 71 7 72 8 73 9 74 10 75
REMARK SMILES IDX 15 76 11 77 13 78 12 79 14 80 16 81 17 82 18 83 19 84 23 85
REMARK SMILES IDX 20 86 22 87 21 88
REMARK H PARENT 80 22 48 33
REMARK Flexibility Score: inf
ROOT
ATOM      1  C   UNL A   1      31.881  31.761  26.932  1.00  0.00     0.275 C 
ENDROOT
BRANCH   1   2
ATOM      2  O   UNL A   1      32.812  32.863  26.881  1.00  0.00    -0.458 OA
BRANCH   2   3
ATOM      3  C   UNL A   1      33.431  33.416  27.950  1.00  0.00     0.338 C 
ATOM      4  O   UNL A   1      32.914  34.336  28.571  1.00  0.00    -0.246 OA
BRANCH   3   5
ATOM      5  C   UNL A   1      34.661  32.752  28.474  1.00  0.00     0.060 A 
ATOM      6  C   UNL A   1      34.640  31.554  29.190  1.00  0.00     0.016 A 
ATOM      7  C   UNL A   1      35.894  33.386  28.253  1.00  0.00     0.016 A 
ATOM      8  C   UNL A   1      35.826  30.964  29.619  1.00  0.00     0.010 A 
ATOM      9  C   UNL A   1      37.089  32.792  28.667  1.00  0.00     0.010 A 
ATOM     10  C   UNL A   1      37.057  31.579  29.365  1.00  0.00    -0.014 A 
BRANCH  10  11
ATOM     11  C   UNL A   1      38.268  31.026  30.014  1.00  0.00     0.031 A 
ATOM     12  C   UNL A   1      38.569  31.446  31.421  1.00  0.00     0.074 A 
ATOM     13  C   UNL A   1      39.006  30.078  29.407  1.00  0.00     0.049 A 
ATOM     14  N   UNL A   1      39.468  30.979  32.247  1.00  0.00    -0.248 NA
ATOM     15  C   UNL A   1      37.720  32.505  31.992  1.00  0.00     0.031 C 
ATOM     16  C   UNL A   1      38.746  29.535  28.077  1.00  0.00     0.029 A 
ATOM     17  N   UNL A   1      40.114  29.390  29.833  1.00  0.00    -0.354 N 
ATOM     18  C   UNL A   1      39.256  31.650  33.442  1.00  0.00     0.074 A 
ATOM     19  C   UNL A   1      38.207  32.617  33.215  1.00  0.00     0.031 C 
ATOM     20  C   UNL A   1      39.690  28.631  27.772  1.00  0.00     0.029 A 
ATOM     21  C   UNL A   1      40.612  28.515  28.898  1.00  0.00     0.049 A 
ATOM     22  H   UNL A   1      40.514  29.513  30.724  1.00  0.00     0.167 HD
ATOM     23  C   UNL A   1      39.852  31.442  34.637  1.00  0.00     0.037 A 
ATOM     24  C   UNL A   1      41.685  27.704  28.953  1.00  0.00     0.037 A 
ATOM     25  C   UNL A   1      40.906  30.489  34.847  1.00  0.00     0.049 A 
ATOM     26  C   UNL A   1      42.430  27.594  30.257  1.00  0.00     0.074 A 
ATOM     27  C   UNL A   1      41.589  30.198  36.012  1.00  0.00     0.029 A 
ATOM     28  N   UNL A   1      41.440  29.681  33.852  1.00  0.00    -0.354 N 
ATOM     29  N   UNL A   1      42.185  28.191  31.398  1.00  0.00    -0.248 NA
ATOM     30  C   UNL A   1      43.568  26.667  30.297  1.00  0.00     0.031 C 
ATOM     31  C   UNL A   1      42.578  29.257  35.710  1.00  0.00     0.029 A 
ATOM     32  C   UNL A   1      42.471  28.916  34.369  1.00  0.00     0.049 A 
ATOM     33  H   UNL A   1      41.131  29.655  32.918  1.00  0.00     0.167 HD
ATOM     34  C   UNL A   1      43.103  27.680  32.304  1.00  0.00     0.074 A 
ATOM     35  C   UNL A   1      43.912  26.722  31.576  1.00  0.00     0.031 C 
ATOM     36  C   UNL A   1      43.255  27.964  33.621  1.00  0.00     0.037 A 
BRANCH  23  37
ATOM     37  C   UNL A   1      39.380  32.283  35.784  1.00  0.00     0.064 A 
ATOM     38  C   UNL A   1      39.926  33.551  36.041  1.00  0.00     0.173 A 
ATOM     39  C   UNL A   1      38.395  31.803  36.658  1.00  0.00     0.173 A 
ATOM     40  F   UNL A   1      40.890  34.045  35.248  1.00  0.00    -0.203 F 
ATOM     41  C   UNL A   1      39.531  34.290  37.153  1.00  0.00     0.198 A 
ATOM     42  C   UNL A   1      37.980  32.557  37.752  1.00  0.00     0.198 A 
ATOM     43  F   UNL A   1      37.846  30.595  36.460  1.00  0.00    -0.203 F 
ATOM     44  F   UNL A   1      40.112  35.468  37.414  1.00  0.00    -0.200 F 
ATOM     45  C   UNL A   1      38.555  33.794  38.004  1.00  0.00     0.200 A 
ATOM     46  F   UNL A   1      37.035  32.078  38.572  1.00  0.00    -0.200 F 
ATOM     47  F   UNL A   1      38.179  34.501  39.078  1.00  0.00    -0.200 F 
ENDBRANCH  23  37
BRANCH  24  48
ATOM     48  C   UNL A   1      42.101  26.927  27.755  1.00  0.00     0.064 A 
ATOM     49  C   UNL A   1      41.608  25.641  27.499  1.00  0.00     0.173 A 
ATOM     50  C   UNL A   1      43.030  27.458  26.846  1.00  0.00     0.173 A 
ATOM     51  F   UNL A   1      40.728  25.082  28.343  1.00  0.00    -0.203 F 
ATOM     52  C   UNL A   1      42.046  24.906  26.398  1.00  0.00     0.198 A 
ATOM     53  C   UNL A   1      43.449  26.732  25.732  1.00  0.00     0.198 A 
ATOM     54  F   UNL A   1      43.527  28.689  27.035  1.00  0.00    -0.203 F 
ATOM     55  F   UNL A   1      41.590  23.660  26.202  1.00  0.00    -0.200 F 
ATOM     56  C   UNL A   1      42.964  25.452  25.514  1.00  0.00     0.200 A 
ATOM     57  F   UNL A   1      44.326  27.272  24.874  1.00  0.00    -0.200 F 
ATOM     58  F   UNL A   1      43.385  24.744  24.457  1.00  0.00    -0.200 F 
ENDBRANCH  24  48
BRANCH  36  59
ATOM     59  C   UNL A   1      44.309  27.204  34.370  1.00  0.00     0.064 A 
ATOM     60  C   UNL A   1      44.043  25.959  34.958  1.00  0.00     0.173 A 
ATOM     61  C   UNL A   1      45.618  27.704  34.448  1.00  0.00     0.173 A 
ATOM     62  F   UNL A   1      42.803  25.446  34.921  1.00  0.00    -0.203 F 
ATOM     63  C   UNL A   1      45.045  25.253  35.617  1.00  0.00     0.198 A 
ATOM     64  C   UNL A   1      46.624  26.980  35.078  1.00  0.00     0.198 A 
ATOM     65  F   UNL A   1      45.923  28.888  33.896  1.00  0.00    -0.203 F 
ATOM     66  F   UNL A   1      44.758  24.088  36.213  1.00  0.00    -0.200 F 
ATOM     67  C   UNL A   1      46.335  25.759  35.668  1.00  0.00     0.200 A 
ATOM     68  F   UNL A   1      47.874  27.462  35.111  1.00  0.00    -0.200 F 
ATOM     69  F   UNL A   1      47.301  25.070  36.291  1.00  0.00    -0.200 F 
ENDBRANCH  36  59
ENDBRANCH  10  11
ENDBRANCH   3   5
ENDBRANCH   2   3
ENDBRANCH   1   2
BRANCH   1  70
ATOM     70  C   UNL A   1      32.427  30.336  26.775  1.00  0.00     0.275 C 
BRANCH  70  71
ATOM     71  O   UNL A   1      31.543  29.447  26.074  1.00  0.00    -0.458 OA
BRANCH  71  72
ATOM     72  C   UNL A   1      31.506  28.175  26.565  1.00  0.00     0.339 C 
ATOM     73  O   UNL A   1      31.166  27.826  27.680  1.00  0.00    -0.246 OA
BRANCH  72  74
ATOM     74  C   UNL A   1      32.186  27.271  25.614  1.00  0.00     0.072 A 
ATOM     75  C   UNL A   1      33.531  27.014  25.932  1.00  0.00     0.016 A 
ATOM     76  C   UNL A   1      31.565  26.661  24.498  1.00  0.00     0.056 A 
ATOM     77  C   UNL A   1      34.290  26.171  25.133  1.00  0.00     0.002 A 
ATOM     78  C   UNL A   1      32.388  25.897  23.644  1.00  0.00     0.053 A 
ATOM     79  C   UNL A   1      33.731  25.643  23.977  1.00  0.00     0.021 A 
ATOM     80  Cl  UNL A   1      31.933  25.315  22.079  1.00  0.00    -0.084 Cl
BRANCH  76  81
ATOM     81  C   UNL A   1      30.116  26.930  24.241  1.00  0.00     0.195 C 
ATOM     82  O   UNL A   1      29.270  26.224  24.781  1.00  0.00    -0.289 OA
BRANCH  81  83
ATOM     83  C   UNL A   1      29.603  28.031  23.397  1.00  0.00     0.023 A 
ATOM     84  C   UNL A   1      28.213  28.200  23.305  1.00  0.00     0.012 A 
ATOM     85  C   UNL A   1      30.458  28.868  22.675  1.00  0.00     0.012 A 
ATOM     86  C   UNL A   1      27.682  29.232  22.534  1.00  0.00     0.001 A 
ATOM     87  C   UNL A   1      29.918  29.899  21.898  1.00  0.00     0.001 A 
ATOM     88  C   UNL A   1      28.535  30.084  21.833  1.00  0.00     0.000 A 
ENDBRANCH  81  83
ENDBRANCH  76  81
ENDBRANCH  72  74
ENDBRANCH  71  72
ENDBRANCH  70  71
ENDBRANCH   1  70
TORSDOF 13
ENDMDL
