MODEL 1
REMARK VINA RESULT:     -11.4      0.000      0.000
REMARK SMILES CCCCCCNC(=O)Oc1cccc(-c2ccc(CC(=O)OCCOC(=O)c3ccc(-c4c5nc(c(-c6c(F)c(F)c(F)c(F)c6F)c6ccc([nH]6)c(-c6c(F)c(F)c(F)c(F)c6F)c6nc(c(-c7c(F)c(F)c(F)c(F)c7F)c7ccc4[nH]7)C=C6)C=C5)cc3)cc2F)c1
REMARK SMILES IDX 20 1 19 2 16 3 17 4 93 5 18 6 92 7 94 8 15 9 11 10 12 11
REMARK SMILES IDX 95 12 13 13 14 14 10 15 8 16 7 17 9 19 6 20 5 21 4 22 3 23
REMARK SMILES IDX 2 24 1 25 21 26 22 27 23 28 24 29 25 30 26 31 27 32 28 33
REMARK SMILES IDX 29 34 30 35 91 36 31 37 90 38 32 39 33 40 34 41 84 42 35 43
REMARK SMILES IDX 89 44 83 45 85 46 36 47 88 48 82 49 81 50 37 52 69 53 49 54
REMARK SMILES IDX 68 55 50 56 53 57 67 58 86 59 51 60 52 61 66 63 87 64 54 65
REMARK SMILES IDX 38 66 39 67 47 68 40 69 41 70 45 71 48 72 42 73 43 74 46 75
REMARK SMILES IDX 44 76 70 77 71 78 79 79 72 80 73 81 77 82 80 83 74 84 75 85
REMARK SMILES IDX 78 86 76 87 55 88 56 89 64 90 57 91 58 92 62 93 65 94 59 95
REMARK SMILES IDX 60 96 63 97 61 98
REMARK H PARENT 7 18 85 51 53 62
REMARK Flexibility Score: inf
ROOT
ATOM      1  C   UNL A   1      35.618  32.821  28.637  1.00  0.00     0.158 C 
ENDROOT
BRANCH   1   2
ATOM      2  C   UNL A   1      34.993  31.565  28.081  1.00  0.00    -0.034 A 
ATOM      3  C   UNL A   1      33.800  29.245  26.966  1.00  0.00     0.018 A 
ATOM      4  C   UNL A   1      35.142  29.238  27.370  1.00  0.00     0.012 A 
ATOM      5  C   UNL A   1      33.076  30.432  27.132  1.00  0.00     0.131 A 
ATOM      6  C   UNL A   1      35.731  30.385  27.916  1.00  0.00     0.005 A 
ATOM      7  C   UNL A   1      33.653  31.574  27.683  1.00  0.00     0.044 A 
ATOM      8  F   UNL A   1      31.787  30.497  26.763  1.00  0.00    -0.206 F 
BRANCH   3   9
ATOM      9  C   UNL A   1      33.175  28.054  26.379  1.00  0.00    -0.012 A 
ATOM     10  C   UNL A   1      32.819  26.581  24.486  1.00  0.00     0.133 A 
ATOM     11  C   UNL A   1      31.883  25.840  25.203  1.00  0.00     0.047 A 
ATOM     12  C   UNL A   1      33.453  27.685  25.055  1.00  0.00     0.056 A 
ATOM     13  C   UNL A   1      31.609  26.187  26.524  1.00  0.00     0.004 A 
ATOM     14  C   UNL A   1      32.254  27.283  27.109  1.00  0.00     0.009 A 
BRANCH  10  15
ATOM     15  O   UNL A   1      33.000  26.268  23.132  1.00  0.00    -0.410 OA
BRANCH  15  16
ATOM     16  C   UNL A   1      33.114  27.335  22.253  1.00  0.00     0.412 C 
ATOM     17  N   UNL A   1      31.909  27.900  21.936  1.00  0.00    -0.321 N 
ATOM     18  H   UNL A   1      31.930  28.646  21.294  1.00  0.00     0.167 HD
ATOM     19  O   UNL A   1      34.155  27.767  21.773  1.00  0.00    -0.224 OA
BRANCH  17  20
ATOM     20  C   UNL A   1      30.608  27.517  22.444  1.00  0.00     0.119 C 
BRANCH  20  21
ATOM     21  C   UNL A   1      29.925  28.664  23.191  1.00  0.00     0.021 C 
BRANCH  21  22
ATOM     22  C   UNL A   1      28.440  28.861  22.856  1.00  0.00     0.002 C 
BRANCH  22  23
ATOM     23  C   UNL A   1      28.136  29.918  21.789  1.00  0.00    -0.000 C 
BRANCH  23  24
ATOM     24  C   UNL A   1      28.031  31.358  22.299  1.00  0.00    -0.003 C 
ATOM     25  C   UNL A   1      27.564  31.453  23.743  1.00  0.00     0.004 C 
ENDBRANCH  23  24
ENDBRANCH  22  23
ENDBRANCH  21  22
ENDBRANCH  20  21
ENDBRANCH  17  20
ENDBRANCH  15  16
ENDBRANCH  10  15
ENDBRANCH   3   9
ENDBRANCH   1   2
BRANCH   1  26
ATOM     26  C   UNL A   1      34.925  34.125  28.323  1.00  0.00     0.310 C 
ATOM     27  O   UNL A   1      35.009  34.651  27.218  1.00  0.00    -0.252 OA
BRANCH  26  28
ATOM     28  O   UNL A   1      34.188  34.609  29.358  1.00  0.00    -0.462 OA
BRANCH  28  29
ATOM     29  C   UNL A   1      33.038  35.399  28.999  1.00  0.00     0.274 C 
BRANCH  29  30
ATOM     30  C   UNL A   1      32.690  36.383  30.114  1.00  0.00     0.275 C 
BRANCH  30  31
ATOM     31  O   UNL A   1      32.196  35.668  31.261  1.00  0.00    -0.458 OA
BRANCH  31  32
ATOM     32  C   UNL A   1      32.741  36.008  32.449  1.00  0.00     0.338 C 
ATOM     33  O   UNL A   1      32.365  36.862  33.233  1.00  0.00    -0.246 OA
BRANCH  32  34
ATOM     34  C   UNL A   1      33.917  35.165  32.698  1.00  0.00     0.060 A 
ATOM     35  C   UNL A   1      33.756  33.870  33.196  1.00  0.00     0.016 A 
ATOM     36  C   UNL A   1      35.191  35.707  32.531  1.00  0.00     0.016 A 
ATOM     37  C   UNL A   1      34.873  33.121  33.562  1.00  0.00     0.010 A 
ATOM     38  C   UNL A   1      36.311  34.935  32.846  1.00  0.00     0.010 A 
ATOM     39  C   UNL A   1      36.161  33.644  33.381  1.00  0.00    -0.014 A 
BRANCH  39  40
ATOM     40  C   UNL A   1      37.357  32.849  33.753  1.00  0.00     0.031 A 
ATOM     41  C   UNL A   1      38.058  33.107  35.057  1.00  0.00     0.074 A 
ATOM     42  C   UNL A   1      37.830  31.918  32.904  1.00  0.00     0.049 A 
ATOM     43  N   UNL A   1      39.195  32.631  35.493  1.00  0.00    -0.248 NA
ATOM     44  C   UNL A   1      37.392  34.025  35.993  1.00  0.00     0.031 C 
ATOM     45  C   UNL A   1      37.221  31.553  31.625  1.00  0.00     0.029 A 
ATOM     46  N   UNL A   1      38.941  31.116  32.986  1.00  0.00    -0.354 N 
ATOM     47  C   UNL A   1      39.401  33.217  36.735  1.00  0.00     0.074 A 
ATOM     48  C   UNL A   1      38.272  34.088  36.983  1.00  0.00     0.031 C 
ATOM     49  C   UNL A   1      37.963  30.597  31.044  1.00  0.00     0.029 A 
ATOM     50  C   UNL A   1      39.128  30.327  31.879  1.00  0.00     0.049 A 
ATOM     51  H   UNL A   1      39.545  31.109  33.764  1.00  0.00     0.167 HD
ATOM     52  C   UNL A   1      40.439  33.042  37.586  1.00  0.00     0.037 A 
ATOM     53  C   UNL A   1      40.145  29.505  31.556  1.00  0.00     0.037 A 
ATOM     54  C   UNL A   1      41.541  32.145  37.353  1.00  0.00     0.049 A 
ATOM     55  C   UNL A   1      41.309  29.370  32.499  1.00  0.00     0.074 A 
ATOM     56  C   UNL A   1      42.615  31.864  38.180  1.00  0.00     0.029 A 
ATOM     57  N   UNL A   1      41.708  31.382  36.207  1.00  0.00    -0.354 N 
ATOM     58  N   UNL A   1      41.495  29.928  33.670  1.00  0.00    -0.248 NA
ATOM     59  C   UNL A   1      42.411  28.500  32.066  1.00  0.00     0.031 C 
ATOM     60  C   UNL A   1      43.452  30.960  37.518  1.00  0.00     0.029 A 
ATOM     61  C   UNL A   1      42.881  30.650  36.294  1.00  0.00     0.049 A 
ATOM     62  H   UNL A   1      41.085  31.365  35.444  1.00  0.00     0.167 HD
ATOM     63  C   UNL A   1      42.722  29.464  34.123  1.00  0.00     0.074 A 
ATOM     64  C   UNL A   1      43.231  28.568  33.106  1.00  0.00     0.031 C 
ATOM     65  C   UNL A   1      43.370  29.758  35.275  1.00  0.00     0.037 A 
BRANCH  52  66
ATOM     66  C   UNL A   1      40.453  33.854  38.847  1.00  0.00     0.064 A 
ATOM     67  C   UNL A   1      39.836  33.405  40.022  1.00  0.00     0.173 A 
ATOM     68  C   UNL A   1      41.150  35.072  38.892  1.00  0.00     0.173 A 
ATOM     69  F   UNL A   1      39.150  32.253  40.027  1.00  0.00    -0.203 F 
ATOM     70  C   UNL A   1      39.905  34.153  41.195  1.00  0.00     0.198 A 
ATOM     71  C   UNL A   1      41.236  35.806  40.071  1.00  0.00     0.198 A 
ATOM     72  F   UNL A   1      41.762  35.541  37.794  1.00  0.00    -0.203 F 
ATOM     73  F   UNL A   1      39.284  33.720  42.302  1.00  0.00    -0.200 F 
ATOM     74  C   UNL A   1      40.610  35.347  41.220  1.00  0.00     0.200 A 
ATOM     75  F   UNL A   1      41.926  36.954  40.097  1.00  0.00    -0.200 F 
ATOM     76  F   UNL A   1      40.685  36.059  42.355  1.00  0.00    -0.200 F 
ENDBRANCH  52  66
BRANCH  53  77
ATOM     77  C   UNL A   1      40.124  28.768  30.267  1.00  0.00     0.064 A 
ATOM     78  C   UNL A   1      40.717  29.310  29.120  1.00  0.00     0.173 A 
ATOM     79  C   UNL A   1      39.502  27.516  30.155  1.00  0.00     0.173 A 
ATOM     80  F   UNL A   1      41.299  30.517  29.175  1.00  0.00    -0.203 F 
ATOM     81  C   UNL A   1      40.676  28.633  27.903  1.00  0.00     0.198 A 
ATOM     82  C   UNL A   1      39.485  26.828  28.944  1.00  0.00     0.198 A 
ATOM     83  F   UNL A   1      38.917  26.957  31.224  1.00  0.00    -0.203 F 
ATOM     84  F   UNL A   1      41.212  29.193  26.810  1.00  0.00    -0.200 F 
ATOM     85  C   UNL A   1      40.066  27.391  27.817  1.00  0.00     0.200 A 
ATOM     86  F   UNL A   1      38.904  25.625  28.867  1.00  0.00    -0.200 F 
ATOM     87  F   UNL A   1      40.028  26.740  26.647  1.00  0.00    -0.200 F 
ENDBRANCH  53  77
BRANCH  65  88
ATOM     88  C   UNL A   1      44.686  29.081  35.510  1.00  0.00     0.064 A 
ATOM     89  C   UNL A   1      44.764  27.834  36.145  1.00  0.00     0.173 A 
ATOM     90  C   UNL A   1      45.878  29.673  35.067  1.00  0.00     0.173 A 
ATOM     91  F   UNL A   1      43.653  27.238  36.602  1.00  0.00    -0.203 F 
ATOM     92  C   UNL A   1      45.994  27.211  36.346  1.00  0.00     0.198 A 
ATOM     93  C   UNL A   1      47.102  29.037  35.248  1.00  0.00     0.198 A 
ATOM     94  F   UNL A   1      45.854  30.864  34.450  1.00  0.00    -0.203 F 
ATOM     95  F   UNL A   1      46.052  26.039  36.993  1.00  0.00    -0.200 F 
ATOM     96  C   UNL A   1      47.160  27.810  35.893  1.00  0.00     0.200 A 
ATOM     97  F   UNL A   1      48.228  29.612  34.801  1.00  0.00    -0.200 F 
ATOM     98  F   UNL A   1      48.342  27.209  36.084  1.00  0.00    -0.200 F 
ENDBRANCH  65  88
ENDBRANCH  39  40
ENDBRANCH  32  34
ENDBRANCH  31  32
ENDBRANCH  30  31
ENDBRANCH  29  30
ENDBRANCH  28  29
ENDBRANCH  26  28
ENDBRANCH   1  26
TORSDOF 20
ENDMDL
MODEL 2
REMARK VINA RESULT:     -11.2      4.269     10.452
REMARK SMILES CCCCCCNC(=O)Oc1cccc(-c2ccc(CC(=O)OCCOC(=O)c3ccc(-c4c5nc(c(-c6c(F)c(F)c(F)c(F)c6F)c6ccc([nH]6)c(-c6c(F)c(F)c(F)c(F)c6F)c6nc(c(-c7c(F)c(F)c(F)c(F)c7F)c7ccc4[nH]7)C=C6)C=C5)cc3)cc2F)c1
REMARK SMILES IDX 20 1 19 2 16 3 17 4 93 5 18 6 92 7 94 8 15 9 11 10 12 11
REMARK SMILES IDX 95 12 13 13 14 14 10 15 8 16 7 17 9 19 6 20 5 21 4 22 3 23
REMARK SMILES IDX 2 24 1 25 21 26 22 27 23 28 24 29 25 30 26 31 27 32 28 33
REMARK SMILES IDX 29 34 30 35 91 36 31 37 90 38 32 39 33 40 34 41 84 42 35 43
REMARK SMILES IDX 89 44 83 45 85 46 36 47 88 48 82 49 81 50 37 52 69 53 49 54
REMARK SMILES IDX 68 55 50 56 53 57 67 58 86 59 51 60 52 61 66 63 87 64 54 65
REMARK SMILES IDX 38 66 39 67 47 68 40 69 41 70 45 71 48 72 42 73 43 74 46 75
REMARK SMILES IDX 44 76 70 77 71 78 79 79 72 80 73 81 77 82 80 83 74 84 75 85
REMARK SMILES IDX 78 86 76 87 55 88 56 89 64 90 57 91 58 92 62 93 65 94 59 95
REMARK SMILES IDX 60 96 63 97 61 98
REMARK H PARENT 7 18 85 51 53 62
REMARK Flexibility Score: inf
ROOT
ATOM      1  C   UNL A   1      41.721  19.811  26.879  1.00  0.00     0.158 C 
ENDROOT
BRANCH   1   2
ATOM      2  C   UNL A   1      40.427  20.418  26.397  1.00  0.00    -0.034 A 
ATOM      3  C   UNL A   1      37.952  21.505  25.537  1.00  0.00     0.018 A 
ATOM      4  C   UNL A   1      38.897  22.305  26.193  1.00  0.00     0.012 A 
ATOM      5  C   UNL A   1      38.274  20.160  25.322  1.00  0.00     0.131 A 
ATOM      6  C   UNL A   1      40.116  21.767  26.623  1.00  0.00     0.005 A 
ATOM      7  C   UNL A   1      39.489  19.619  25.738  1.00  0.00     0.044 A 
ATOM      8  F   UNL A   1      37.407  19.346  24.698  1.00  0.00    -0.206 F 
BRANCH   3   9
ATOM      9  C   UNL A   1      36.664  22.054  25.095  1.00  0.00    -0.012 A 
ATOM     10  C   UNL A   1      34.319  22.510  25.508  1.00  0.00     0.133 A 
ATOM     11  C   UNL A   1      34.156  22.992  24.213  1.00  0.00     0.047 A 
ATOM     12  C   UNL A   1      35.553  22.032  25.950  1.00  0.00     0.056 A 
ATOM     13  C   UNL A   1      35.256  23.033  23.359  1.00  0.00     0.004 A 
ATOM     14  C   UNL A   1      36.502  22.573  23.799  1.00  0.00     0.009 A 
BRANCH  10  15
ATOM     15  O   UNL A   1      33.175  22.390  26.310  1.00  0.00    -0.410 OA
BRANCH  15  16
ATOM     16  C   UNL A   1      32.040  21.870  25.706  1.00  0.00     0.412 C 
ATOM     17  N   UNL A   1      30.971  22.722  25.748  1.00  0.00    -0.321 N 
ATOM     18  H   UNL A   1      30.130  22.392  25.358  1.00  0.00     0.167 HD
ATOM     19  O   UNL A   1      31.942  20.768  25.181  1.00  0.00    -0.224 OA
BRANCH  17  20
ATOM     20  C   UNL A   1      30.945  24.058  26.308  1.00  0.00     0.119 C 
BRANCH  20  21
ATOM     21  C   UNL A   1      30.525  25.104  25.274  1.00  0.00     0.021 C 
BRANCH  21  22
ATOM     22  C   UNL A   1      31.004  26.533  25.566  1.00  0.00     0.002 C 
BRANCH  22  23
ATOM     23  C   UNL A   1      32.277  26.646  26.411  1.00  0.00    -0.000 C 
BRANCH  23  24
ATOM     24  C   UNL A   1      33.588  26.387  25.665  1.00  0.00    -0.003 C 
ATOM     25  C   UNL A   1      33.620  27.001  24.273  1.00  0.00     0.004 C 
ENDBRANCH  23  24
ENDBRANCH  22  23
ENDBRANCH  21  22
ENDBRANCH  20  21
ENDBRANCH  17  20
ENDBRANCH  15  16
ENDBRANCH  10  15
ENDBRANCH   3   9
ENDBRANCH   1   2
BRANCH   1  26
ATOM     26  C   UNL A   1      42.606  19.170  25.836  1.00  0.00     0.310 C 
ATOM     27  O   UNL A   1      42.767  17.955  25.785  1.00  0.00    -0.252 OA
BRANCH  26  28
ATOM     28  O   UNL A   1      43.148  20.062  24.965  1.00  0.00    -0.462 OA
BRANCH  28  29
ATOM     29  C   UNL A   1      43.838  21.180  25.554  1.00  0.00     0.274 C 
BRANCH  29  30
ATOM     30  C   UNL A   1      43.975  22.320  24.548  1.00  0.00     0.275 C 
BRANCH  30  31
ATOM     31  O   UNL A   1      43.235  23.467  25.004  1.00  0.00    -0.458 OA
BRANCH  31  32
ATOM     32  C   UNL A   1      43.957  24.588  25.221  1.00  0.00     0.338 C 
ATOM     33  O   UNL A   1      44.967  24.956  24.648  1.00  0.00    -0.246 OA
BRANCH  32  34
ATOM     34  C   UNL A   1      43.331  25.362  26.301  1.00  0.00     0.060 A 
ATOM     35  C   UNL A   1      43.701  26.692  26.514  1.00  0.00     0.016 A 
ATOM     36  C   UNL A   1      42.445  24.725  27.169  1.00  0.00     0.016 A 
ATOM     37  C   UNL A   1      43.212  27.382  27.620  1.00  0.00     0.010 A 
ATOM     38  C   UNL A   1      41.912  25.435  28.246  1.00  0.00     0.010 A 
ATOM     39  C   UNL A   1      42.305  26.762  28.492  1.00  0.00    -0.014 A 
BRANCH  39  40
ATOM     40  C   UNL A   1      41.765  27.493  29.665  1.00  0.00     0.031 A 
ATOM     41  C   UNL A   1      40.517  28.319  29.530  1.00  0.00     0.074 A 
ATOM     42  C   UNL A   1      42.415  27.438  30.842  1.00  0.00     0.049 A 
ATOM     43  N   UNL A   1      39.976  29.146  30.386  1.00  0.00    -0.248 NA
ATOM     44  C   UNL A   1      39.784  28.203  28.260  1.00  0.00     0.031 C 
ATOM     45  C   UNL A   1      43.616  26.647  31.108  1.00  0.00     0.029 A 
ATOM     46  N   UNL A   1      42.161  28.071  32.033  1.00  0.00    -0.354 N 
ATOM     47  C   UNL A   1      38.861  29.676  29.749  1.00  0.00     0.074 A 
ATOM     48  C   UNL A   1      38.804  29.080  28.432  1.00  0.00     0.031 C 
ATOM     49  C   UNL A   1      43.992  26.837  32.383  1.00  0.00     0.029 A 
ATOM     50  C   UNL A   1      43.097  27.808  33.002  1.00  0.00     0.049 A 
ATOM     51  H   UNL A   1      41.383  28.657  32.178  1.00  0.00     0.167 HD
ATOM     52  C   UNL A   1      37.970  30.577  30.225  1.00  0.00     0.037 A 
ATOM     53  C   UNL A   1      43.239  28.322  34.239  1.00  0.00     0.037 A 
ATOM     54  C   UNL A   1      38.008  31.137  31.550  1.00  0.00     0.049 A 
ATOM     55  C   UNL A   1      42.262  29.358  34.721  1.00  0.00     0.074 A 
ATOM     56  C   UNL A   1      37.120  32.021  32.139  1.00  0.00     0.029 A 
ATOM     57  N   UNL A   1      38.987  30.867  32.494  1.00  0.00    -0.354 N 
ATOM     58  N   UNL A   1      41.212  29.853  34.113  1.00  0.00    -0.248 NA
ATOM     59  C   UNL A   1      42.501  29.919  36.059  1.00  0.00     0.031 C 
ATOM     60  C   UNL A   1      37.583  32.315  33.426  1.00  0.00     0.029 A 
ATOM     61  C   UNL A   1      38.740  31.586  33.652  1.00  0.00     0.049 A 
ATOM     62  H   UNL A   1      39.747  30.254  32.360  1.00  0.00     0.167 HD
ATOM     63  C   UNL A   1      40.655  30.766  34.996  1.00  0.00     0.074 A 
ATOM     64  C   UNL A   1      41.475  30.748  36.190  1.00  0.00     0.031 C 
ATOM     65  C   UNL A   1      39.563  31.552  34.832  1.00  0.00     0.037 A 
BRANCH  52  66
ATOM     66  C   UNL A   1      36.884  31.039  29.301  1.00  0.00     0.064 A 
ATOM     67  C   UNL A   1      35.809  30.210  28.951  1.00  0.00     0.173 A 
ATOM     68  C   UNL A   1      36.888  32.354  28.811  1.00  0.00     0.173 A 
ATOM     69  F   UNL A   1      35.765  28.942  29.386  1.00  0.00    -0.203 F 
ATOM     70  C   UNL A   1      34.785  30.677  28.131  1.00  0.00     0.198 A 
ATOM     71  C   UNL A   1      35.852  32.825  28.010  1.00  0.00     0.198 A 
ATOM     72  F   UNL A   1      37.892  33.187  29.123  1.00  0.00    -0.203 F 
ATOM     73  F   UNL A   1      33.780  29.860  27.783  1.00  0.00    -0.200 F 
ATOM     74  C   UNL A   1      34.804  31.985  27.667  1.00  0.00     0.200 A 
ATOM     75  F   UNL A   1      35.866  34.091  27.572  1.00  0.00    -0.200 F 
ATOM     76  F   UNL A   1      33.809  32.435  26.888  1.00  0.00    -0.200 F 
ENDBRANCH  52  66
BRANCH  53  77
ATOM     77  C   UNL A   1      44.368  27.885  35.100  1.00  0.00     0.064 A 
ATOM     78  C   UNL A   1      44.229  26.795  35.967  1.00  0.00     0.173 A 
ATOM     79  C   UNL A   1      45.600  28.554  35.079  1.00  0.00     0.173 A 
ATOM     80  F   UNL A   1      43.059  26.142  36.040  1.00  0.00    -0.203 F 
ATOM     81  C   UNL A   1      45.277  26.398  36.795  1.00  0.00     0.198 A 
ATOM     82  C   UNL A   1      46.656  28.140  35.888  1.00  0.00     0.198 A 
ATOM     83  F   UNL A   1      45.781  29.606  34.268  1.00  0.00    -0.203 F 
ATOM     84  F   UNL A   1      45.104  25.380  37.649  1.00  0.00    -0.200 F 
ATOM     85  C   UNL A   1      46.491  27.066  36.751  1.00  0.00     0.200 A 
ATOM     86  F   UNL A   1      47.830  28.782  35.835  1.00  0.00    -0.200 F 
ATOM     87  F   UNL A   1      47.499  26.684  37.546  1.00  0.00    -0.200 F 
ENDBRANCH  53  77
BRANCH  65  88
ATOM     88  C   UNL A   1      39.178  32.434  35.981  1.00  0.00     0.064 A 
ATOM     89  C   UNL A   1      38.380  31.960  37.031  1.00  0.00     0.173 A 
ATOM     90  C   UNL A   1      39.639  33.757  36.047  1.00  0.00     0.173 A 
ATOM     91  F   UNL A   1      37.900  30.708  37.003  1.00  0.00    -0.203 F 
ATOM     92  C   UNL A   1      38.039  32.788  38.098  1.00  0.00     0.198 A 
ATOM     93  C   UNL A   1      39.317  34.574  37.126  1.00  0.00     0.198 A 
ATOM     94  F   UNL A   1      40.411  34.254  35.068  1.00  0.00    -0.203 F 
ATOM     95  F   UNL A   1      37.239  32.329  39.070  1.00  0.00    -0.200 F 
ATOM     96  C   UNL A   1      38.512  34.090  38.147  1.00  0.00     0.200 A 
ATOM     97  F   UNL A   1      39.783  35.829  37.177  1.00  0.00    -0.200 F 
ATOM     98  F   UNL A   1      38.186  34.885  39.176  1.00  0.00    -0.200 F 
ENDBRANCH  65  88
ENDBRANCH  39  40
ENDBRANCH  32  34
ENDBRANCH  31  32
ENDBRANCH  30  31
ENDBRANCH  29  30
ENDBRANCH  28  29
ENDBRANCH  26  28
ENDBRANCH   1  26
TORSDOF 20
ENDMDL
MODEL 3
REMARK VINA RESULT:     -11.2      2.001      3.402
REMARK SMILES CCCCCCNC(=O)Oc1cccc(-c2ccc(CC(=O)OCCOC(=O)c3ccc(-c4c5nc(c(-c6c(F)c(F)c(F)c(F)c6F)c6ccc([nH]6)c(-c6c(F)c(F)c(F)c(F)c6F)c6nc(c(-c7c(F)c(F)c(F)c(F)c7F)c7ccc4[nH]7)C=C6)C=C5)cc3)cc2F)c1
REMARK SMILES IDX 20 1 19 2 16 3 17 4 93 5 18 6 92 7 94 8 15 9 11 10 12 11
REMARK SMILES IDX 95 12 13 13 14 14 10 15 8 16 7 17 9 19 6 20 5 21 4 22 3 23
REMARK SMILES IDX 2 24 1 25 21 26 22 27 23 28 24 29 25 30 26 31 27 32 28 33
REMARK SMILES IDX 29 34 30 35 91 36 31 37 90 38 32 39 33 40 34 41 84 42 35 43
REMARK SMILES IDX 89 44 83 45 85 46 36 47 88 48 82 49 81 50 37 52 69 53 49 54
REMARK SMILES IDX 68 55 50 56 53 57 67 58 86 59 51 60 52 61 66 63 87 64 54 65
REMARK SMILES IDX 38 66 39 67 47 68 40 69 41 70 45 71 48 72 42 73 43 74 46 75
REMARK SMILES IDX 44 76 70 77 71 78 79 79 72 80 73 81 77 82 80 83 74 84 75 85
REMARK SMILES IDX 78 86 76 87 55 88 56 89 64 90 57 91 58 92 62 93 65 94 59 95
REMARK SMILES IDX 60 96 63 97 61 98
REMARK H PARENT 7 18 85 51 53 62
REMARK Flexibility Score: inf
ROOT
ATOM      1  C   UNL A   1      34.852  32.575  28.010  1.00  0.00     0.158 C 
ENDROOT
BRANCH   1   2
ATOM      2  C   UNL A   1      34.411  31.193  27.595  1.00  0.00    -0.034 A 
ATOM      3  C   UNL A   1      33.564  28.623  26.740  1.00  0.00     0.018 A 
ATOM      4  C   UNL A   1      34.859  28.823  27.238  1.00  0.00     0.012 A 
ATOM      5  C   UNL A   1      32.710  29.732  26.682  1.00  0.00     0.131 A 
ATOM      6  C   UNL A   1      35.278  30.093  27.655  1.00  0.00     0.005 A 
ATOM      7  C   UNL A   1      33.117  30.996  27.104  1.00  0.00     0.044 A 
ATOM      8  F   UNL A   1      31.459  29.600  26.215  1.00  0.00    -0.206 F 
BRANCH   3   9
ATOM      9  C   UNL A   1      33.119  27.301  26.286  1.00  0.00    -0.012 A 
ATOM     10  C   UNL A   1      33.533  25.243  25.072  1.00  0.00     0.133 A 
ATOM     11  C   UNL A   1      32.229  24.813  25.302  1.00  0.00     0.047 A 
ATOM     12  C   UNL A   1      33.978  26.478  25.543  1.00  0.00     0.056 A 
ATOM     13  C   UNL A   1      31.371  25.614  26.051  1.00  0.00     0.004 A 
ATOM     14  C   UNL A   1      31.814  26.847  26.543  1.00  0.00     0.009 A 
BRANCH  10  15
ATOM     15  O   UNL A   1      34.341  24.462  24.235  1.00  0.00    -0.410 OA
BRANCH  15  16
ATOM     16  C   UNL A   1      33.802  24.092  23.012  1.00  0.00     0.412 C 
ATOM     17  N   UNL A   1      33.610  22.743  22.895  1.00  0.00    -0.321 N 
ATOM     18  H   UNL A   1      33.254  22.422  22.035  1.00  0.00     0.167 HD
ATOM     19  O   UNL A   1      33.513  24.847  22.092  1.00  0.00    -0.224 OA
BRANCH  17  20
ATOM     20  C   UNL A   1      33.876  21.736  23.903  1.00  0.00     0.119 C 
BRANCH  20  21
ATOM     21  C   UNL A   1      32.624  20.930  24.252  1.00  0.00     0.021 C 
BRANCH  21  22
ATOM     22  C   UNL A   1      32.773  19.409  24.111  1.00  0.00     0.002 C 
BRANCH  22  23
ATOM     23  C   UNL A   1      34.032  18.804  24.741  1.00  0.00    -0.000 C 
BRANCH  23  24
ATOM     24  C   UNL A   1      34.537  17.513  24.094  1.00  0.00    -0.003 C 
ATOM     25  C   UNL A   1      33.698  17.065  22.907  1.00  0.00     0.004 C 
ENDBRANCH  23  24
ENDBRANCH  22  23
ENDBRANCH  21  22
ENDBRANCH  20  21
ENDBRANCH  17  20
ENDBRANCH  15  16
ENDBRANCH  10  15
ENDBRANCH   3   9
ENDBRANCH   1   2
BRANCH   1  26
ATOM     26  C   UNL A   1      34.099  33.220  29.148  1.00  0.00     0.310 C 
ATOM     27  O   UNL A   1      34.252  32.858  30.311  1.00  0.00    -0.252 OA
BRANCH  26  28
ATOM     28  O   UNL A   1      33.292  34.240  28.754  1.00  0.00    -0.462 OA
BRANCH  28  29
ATOM     29  C   UNL A   1      33.783  35.569  29.012  1.00  0.00     0.274 C 
BRANCH  29  30
ATOM     30  C   UNL A   1      32.819  36.335  29.915  1.00  0.00     0.275 C 
BRANCH  30  31
ATOM     31  O   UNL A   1      32.382  35.489  30.994  1.00  0.00    -0.458 OA
BRANCH  31  32
ATOM     32  C   UNL A   1      32.687  35.915  32.239  1.00  0.00     0.338 C 
ATOM     33  O   UNL A   1      32.114  36.755  32.909  1.00  0.00    -0.246 OA
BRANCH  32  34
ATOM     34  C   UNL A   1      33.871  35.190  32.719  1.00  0.00     0.060 A 
ATOM     35  C   UNL A   1      35.146  35.725  32.525  1.00  0.00     0.016 A 
ATOM     36  C   UNL A   1      33.712  33.921  33.274  1.00  0.00     0.016 A 
ATOM     37  C   UNL A   1      36.273  34.976  32.855  1.00  0.00     0.010 A 
ATOM     38  C   UNL A   1      34.840  33.193  33.656  1.00  0.00     0.010 A 
ATOM     39  C   UNL A   1      36.130  33.706  33.433  1.00  0.00    -0.014 A 
BRANCH  39  40
ATOM     40  C   UNL A   1      37.324  32.907  33.803  1.00  0.00     0.031 A 
ATOM     41  C   UNL A   1      38.033  33.167  35.101  1.00  0.00     0.074 A 
ATOM     42  C   UNL A   1      37.786  31.968  32.956  1.00  0.00     0.049 A 
ATOM     43  N   UNL A   1      39.170  32.687  35.533  1.00  0.00    -0.248 NA
ATOM     44  C   UNL A   1      37.378  34.095  36.035  1.00  0.00     0.031 C 
ATOM     45  C   UNL A   1      37.167  31.600  31.682  1.00  0.00     0.029 A 
ATOM     46  N   UNL A   1      38.893  31.161  33.035  1.00  0.00    -0.354 N 
ATOM     47  C   UNL A   1      39.386  33.279  36.770  1.00  0.00     0.074 A 
ATOM     48  C   UNL A   1      38.264  34.158  37.020  1.00  0.00     0.031 C 
ATOM     49  C   UNL A   1      37.900  30.636  31.102  1.00  0.00     0.029 A 
ATOM     50  C   UNL A   1      39.069  30.364  31.932  1.00  0.00     0.049 A 
ATOM     51  H   UNL A   1      39.501  31.154  33.810  1.00  0.00     0.167 HD
ATOM     52  C   UNL A   1      40.428  33.102  37.617  1.00  0.00     0.037 A 
ATOM     53  C   UNL A   1      40.079  29.535  31.608  1.00  0.00     0.037 A 
ATOM     54  C   UNL A   1      41.523  32.197  37.382  1.00  0.00     0.049 A 
ATOM     55  C   UNL A   1      41.247  29.397  32.545  1.00  0.00     0.074 A 
ATOM     56  C   UNL A   1      42.600  31.914  38.205  1.00  0.00     0.029 A 
ATOM     57  N   UNL A   1      41.680  31.427  36.239  1.00  0.00    -0.354 N 
ATOM     58  N   UNL A   1      41.443  29.960  33.712  1.00  0.00    -0.248 NA
ATOM     59  C   UNL A   1      42.342  28.518  32.111  1.00  0.00     0.031 C 
ATOM     60  C   UNL A   1      43.429  31.002  37.543  1.00  0.00     0.029 A 
ATOM     61  C   UNL A   1      42.848  30.688  36.324  1.00  0.00     0.049 A 
ATOM     62  H   UNL A   1      41.052  31.409  35.480  1.00  0.00     0.167 HD
ATOM     63  C   UNL A   1      42.670  29.492  34.160  1.00  0.00     0.074 A 
ATOM     64  C   UNL A   1      43.169  28.587  33.145  1.00  0.00     0.031 C 
ATOM     65  C   UNL A   1      43.326  29.788  35.307  1.00  0.00     0.037 A 
BRANCH  52  66
ATOM     66  C   UNL A   1      40.454  33.921  38.873  1.00  0.00     0.064 A 
ATOM     67  C   UNL A   1      41.092  35.168  38.928  1.00  0.00     0.173 A 
ATOM     68  C   UNL A   1      39.776  33.475  40.018  1.00  0.00     0.173 A 
ATOM     69  F   UNL A   1      41.761  35.632  37.863  1.00  0.00    -0.203 F 
ATOM     70  C   UNL A   1      41.060  35.934  40.091  1.00  0.00     0.198 A 
ATOM     71  C   UNL A   1      39.729  34.253  41.171  1.00  0.00     0.198 A 
ATOM     72  F   UNL A   1      39.147  32.291  40.012  1.00  0.00    -0.203 F 
ATOM     73  F   UNL A   1      41.700  37.112  40.133  1.00  0.00    -0.200 F 
ATOM     74  C   UNL A   1      40.374  35.480  41.208  1.00  0.00     0.200 A 
ATOM     75  F   UNL A   1      39.056  33.818  42.245  1.00  0.00    -0.200 F 
ATOM     76  F   UNL A   1      40.335  36.226  42.321  1.00  0.00    -0.200 F 
ENDBRANCH  52  66
BRANCH  53  77
ATOM     77  C   UNL A   1      40.046  28.791  30.323  1.00  0.00     0.064 A 
ATOM     78  C   UNL A   1      40.601  29.340  29.160  1.00  0.00     0.173 A 
ATOM     79  C   UNL A   1      39.452  27.524  30.230  1.00  0.00     0.173 A 
ATOM     80  F   UNL A   1      41.156  30.561  29.196  1.00  0.00    -0.203 F 
ATOM     81  C   UNL A   1      40.549  28.657  27.947  1.00  0.00     0.198 A 
ATOM     82  C   UNL A   1      39.424  26.830  29.023  1.00  0.00     0.198 A 
ATOM     83  F   UNL A   1      38.904  26.957  31.315  1.00  0.00    -0.203 F 
ATOM     84  F   UNL A   1      41.046  29.224  26.840  1.00  0.00    -0.200 F 
ATOM     85  C   UNL A   1      39.966  27.400  27.881  1.00  0.00     0.200 A 
ATOM     86  F   UNL A   1      38.869  25.612  28.965  1.00  0.00    -0.200 F 
ATOM     87  F   UNL A   1      39.917  26.743  26.714  1.00  0.00    -0.200 F 
ENDBRANCH  53  77
BRANCH  65  88
ATOM     88  C   UNL A   1      44.640  29.105  35.538  1.00  0.00     0.064 A 
ATOM     89  C   UNL A   1      44.717  27.873  36.202  1.00  0.00     0.173 A 
ATOM     90  C   UNL A   1      45.831  29.674  35.062  1.00  0.00     0.173 A 
ATOM     91  F   UNL A   1      43.608  27.298  36.691  1.00  0.00    -0.203 F 
ATOM     92  C   UNL A   1      45.944  27.244  36.399  1.00  0.00     0.198 A 
ATOM     93  C   UNL A   1      47.051  29.031  35.240  1.00  0.00     0.198 A 
ATOM     94  F   UNL A   1      45.807  30.850  34.417  1.00  0.00    -0.203 F 
ATOM     95  F   UNL A   1      46.001  26.087  37.074  1.00  0.00    -0.200 F 
ATOM     96  C   UNL A   1      47.108  27.820  35.914  1.00  0.00     0.200 A 
ATOM     97  F   UNL A   1      48.175  29.585  34.762  1.00  0.00    -0.200 F 
ATOM     98  F   UNL A   1      48.287  27.213  36.102  1.00  0.00    -0.200 F 
ENDBRANCH  65  88
ENDBRANCH  39  40
ENDBRANCH  32  34
ENDBRANCH  31  32
ENDBRANCH  30  31
ENDBRANCH  29  30
ENDBRANCH  28  29
ENDBRANCH  26  28
ENDBRANCH   1  26
TORSDOF 20
ENDMDL
