MODEL 1
REMARK VINA RESULT:     -13.1      0.000      0.000
REMARK SMILES Cc1cc(Cl)c2c(c1)C=C(C(=O)OCCOC(=O)c1ccc(-c3c4nc(c(-c5c(F)c(F)c(F)c(F)c5F)c5ccc([nH]5)c(-c5c(F)c(F)c(F)c(F)c5F)c5nc(c(-c6c(F)c(F)c(F)c(F)c6F)c6ccc3[nH]6)C=C5)C=C4)cc1)[C@@H](C(F)(F)F)O2
REMARK SMILES IDX 15 1 14 2 13 3 11 4 12 5 10 6 1 7 2 8 3 9 8 10 4 11 7 12
REMARK SMILES IDX 5 13 6 14 9 15 87 16 82 17 83 18 84 19 85 20 86 21 16 22
REMARK SMILES IDX 17 23 18 24 19 25 20 26 81 27 21 28 80 29 22 30 23 31 24 32
REMARK SMILES IDX 74 33 25 34 79 35 73 36 75 37 26 38 78 39 72 40 71 41 27 43
REMARK SMILES IDX 59 44 39 45 58 46 40 47 43 48 57 49 76 50 41 51 42 52 56 54
REMARK SMILES IDX 77 55 44 56 28 57 29 58 37 59 30 60 31 61 35 62 38 63 32 64
REMARK SMILES IDX 33 65 36 66 34 67 60 68 61 69 69 70 62 71 63 72 67 73 70 74
REMARK SMILES IDX 64 75 65 76 68 77 66 78 45 79 46 80 54 81 47 82 48 83 52 84
REMARK SMILES IDX 55 85 49 86 50 87 53 88 51 89
REMARK H PARENT 75 42 43 53
REMARK Flexibility Score: inf
ROOT
ATOM      1  C   UNL A   1      31.732  30.494  25.768  1.00  0.00     0.275 C 
ENDROOT
BRANCH   1   2
ATOM      2  C   UNL A   1      31.602  29.104  25.141  1.00  0.00     0.275 C 
BRANCH   2   3
ATOM      3  O   UNL A   1      32.462  28.142  25.793  1.00  0.00    -0.459 OA
BRANCH   3   4
ATOM      4  C   UNL A   1      31.825  27.163  26.474  1.00  0.00     0.338 C 
ATOM      5  O   UNL A   1      30.999  27.313  27.363  1.00  0.00    -0.246 OA
BRANCH   4   6
ATOM      6  C   UNL A   1      32.230  25.832  25.986  1.00  0.00     0.087 C 
ATOM      7  C   UNL A   1      37.312  22.656  24.531  1.00  0.00     0.044 C 
ATOM      8  C   UNL A   1      35.840  22.930  24.624  1.00  0.00    -0.049 A 
ATOM      9  C   UNL A   1      34.910  22.042  24.070  1.00  0.00     0.028 A 
ATOM     10  C   UNL A   1      35.367  24.066  25.285  1.00  0.00     0.015 A 
ATOM     11  C   UNL A   1      33.534  22.295  24.168  1.00  0.00     0.084 A 
ATOM     12  C   UNL A   1      33.991  24.327  25.364  1.00  0.00     0.019 A 
ATOM     13  Cl  UNL A   1      32.444  21.163  23.453  1.00  0.00    -0.080 Cl
ATOM     14  C   UNL A   1      33.063  23.444  24.813  1.00  0.00     0.146 A 
ATOM     15  C   UNL A   1      33.537  25.550  25.990  1.00  0.00     0.027 C 
ATOM     16  O   UNL A   1      31.711  23.650  24.896  1.00  0.00    -0.474 OA
ATOM     17  C   UNL A   1      31.202  24.930  25.371  1.00  0.00     0.316 C 
BRANCH  17  18
ATOM     18  C   UNL A   1      30.465  25.633  24.219  1.00  0.00     0.430 C 
ATOM     19  F   UNL A   1      31.314  26.359  23.454  1.00  0.00    -0.167 F 
ATOM     20  F   UNL A   1      29.870  24.739  23.392  1.00  0.00    -0.167 F 
ATOM     21  F   UNL A   1      29.501  26.470  24.668  1.00  0.00    -0.167 F 
ENDBRANCH  17  18
ENDBRANCH   4   6
ENDBRANCH   3   4
ENDBRANCH   2   3
ENDBRANCH   1   2
BRANCH   1  22
ATOM     22  O   UNL A   1      32.460  30.428  27.009  1.00  0.00    -0.458 OA
BRANCH  22  23
ATOM     23  C   UNL A   1      33.149  31.547  27.319  1.00  0.00     0.338 C 
ATOM     24  O   UNL A   1      32.714  32.681  27.435  1.00  0.00    -0.246 OA
BRANCH  23  25
ATOM     25  C   UNL A   1      34.555  31.234  27.608  1.00  0.00     0.060 A 
ATOM     26  C   UNL A   1      34.893  29.914  27.882  1.00  0.00     0.016 A 
ATOM     27  C   UNL A   1      35.460  32.256  27.880  1.00  0.00     0.016 A 
ATOM     28  C   UNL A   1      36.041  29.630  28.615  1.00  0.00     0.010 A 
ATOM     29  C   UNL A   1      36.691  31.945  28.467  1.00  0.00     0.010 A 
ATOM     30  C   UNL A   1      36.969  30.638  28.909  1.00  0.00    -0.014 A 
BRANCH  30  31
ATOM     31  C   UNL A   1      38.196  30.347  29.709  1.00  0.00     0.031 A 
ATOM     32  C   UNL A   1      39.286  29.479  29.130  1.00  0.00     0.074 A 
ATOM     33  C   UNL A   1      38.356  30.858  30.947  1.00  0.00     0.049 A 
ATOM     34  N   UNL A   1      40.277  28.873  29.734  1.00  0.00    -0.248 NA
ATOM     35  C   UNL A   1      39.248  29.249  27.675  1.00  0.00     0.031 C 
ATOM     36  C   UNL A   1      37.441  31.787  31.611  1.00  0.00     0.029 A 
ATOM     37  N   UNL A   1      39.353  30.665  31.873  1.00  0.00    -0.354 N 
ATOM     38  C   UNL A   1      40.934  28.140  28.752  1.00  0.00     0.074 A 
ATOM     39  C   UNL A   1      40.232  28.376  27.509  1.00  0.00     0.031 C 
ATOM     40  C   UNL A   1      37.935  32.114  32.813  1.00  0.00     0.029 A 
ATOM     41  C   UNL A   1      39.130  31.319  33.060  1.00  0.00     0.049 A 
ATOM     42  H   UNL A   1      40.149  30.112  31.703  1.00  0.00     0.167 HD
ATOM     43  C   UNL A   1      42.022  27.342  28.882  1.00  0.00     0.037 A 
ATOM     44  C   UNL A   1      39.765  31.239  34.244  1.00  0.00     0.037 A 
ATOM     45  C   UNL A   1      42.746  27.160  30.116  1.00  0.00     0.049 A 
ATOM     46  C   UNL A   1      40.916  30.287  34.388  1.00  0.00     0.074 A 
ATOM     47  C   UNL A   1      43.854  26.367  30.359  1.00  0.00     0.029 A 
ATOM     48  N   UNL A   1      42.445  27.799  31.310  1.00  0.00    -0.354 N 
ATOM     49  N   UNL A   1      41.468  29.512  33.487  1.00  0.00    -0.248 NA
ATOM     50  C   UNL A   1      41.516  30.179  35.724  1.00  0.00     0.031 C 
ATOM     51  C   UNL A   1      44.197  26.494  31.711  1.00  0.00     0.029 A 
ATOM     52  C   UNL A   1      43.338  27.409  32.296  1.00  0.00     0.049 A 
ATOM     53  H   UNL A   1      41.705  28.437  31.438  1.00  0.00     0.167 HD
ATOM     54  C   UNL A   1      42.484  28.832  34.140  1.00  0.00     0.074 A 
ATOM     55  C   UNL A   1      42.493  29.310  35.508  1.00  0.00     0.031 C 
ATOM     56  C   UNL A   1      43.329  27.889  33.654  1.00  0.00     0.037 A 
BRANCH  43  57
ATOM     57  C   UNL A   1      42.486  26.574  27.676  1.00  0.00     0.064 A 
ATOM     58  C   UNL A   1      43.455  27.080  26.798  1.00  0.00     0.173 A 
ATOM     59  C   UNL A   1      41.995  25.281  27.431  1.00  0.00     0.173 A 
ATOM     60  F   UNL A   1      43.950  28.315  26.976  1.00  0.00    -0.203 F 
ATOM     61  C   UNL A   1      43.904  26.328  25.713  1.00  0.00     0.198 A 
ATOM     62  C   UNL A   1      42.467  24.521  26.364  1.00  0.00     0.198 A 
ATOM     63  F   UNL A   1      41.069  24.745  28.241  1.00  0.00    -0.203 F 
ATOM     64  F   UNL A   1      44.804  26.847  24.866  1.00  0.00    -0.200 F 
ATOM     65  C   UNL A   1      43.418  25.046  25.503  1.00  0.00     0.200 A 
ATOM     66  F   UNL A   1      42.006  23.276  26.173  1.00  0.00    -0.200 F 
ATOM     67  F   UNL A   1      43.863  24.319  24.469  1.00  0.00    -0.200 F 
ENDBRANCH  43  57
BRANCH  44  68
ATOM     68  C   UNL A   1      39.282  32.045  35.397  1.00  0.00     0.064 A 
ATOM     69  C   UNL A   1      38.457  31.476  36.375  1.00  0.00     0.173 A 
ATOM     70  C   UNL A   1      39.655  33.389  35.561  1.00  0.00     0.173 A 
ATOM     71  F   UNL A   1      38.049  30.205  36.248  1.00  0.00    -0.203 F 
ATOM     72  C   UNL A   1      38.025  32.218  37.472  1.00  0.00     0.198 A 
ATOM     73  C   UNL A   1      39.253  34.119  36.677  1.00  0.00     0.198 A 
ATOM     74  F   UNL A   1      40.443  33.984  34.653  1.00  0.00    -0.203 F 
ATOM     75  F   UNL A   1      37.207  31.658  38.375  1.00  0.00    -0.200 F 
ATOM     76  C   UNL A   1      38.432  33.534  37.629  1.00  0.00     0.200 A 
ATOM     77  F   UNL A   1      39.667  35.383  36.834  1.00  0.00    -0.200 F 
ATOM     78  F   UNL A   1      38.033  34.240  38.696  1.00  0.00    -0.200 F 
ENDBRANCH  44  68
BRANCH  56  79
ATOM     79  C   UNL A   1      44.347  27.332  34.607  1.00  0.00     0.064 A 
ATOM     80  C   UNL A   1      45.578  27.969  34.820  1.00  0.00     0.173 A 
ATOM     81  C   UNL A   1      44.081  26.157  35.325  1.00  0.00     0.173 A 
ATOM     82  F   UNL A   1      45.887  29.087  34.145  1.00  0.00    -0.203 F 
ATOM     83  C   UNL A   1      46.521  27.430  35.691  1.00  0.00     0.198 A 
ATOM     84  C   UNL A   1      45.013  25.640  36.222  1.00  0.00     0.198 A 
ATOM     85  F   UNL A   1      42.916  25.512  35.164  1.00  0.00    -0.203 F 
ATOM     86  F   UNL A   1      47.715  28.022  35.832  1.00  0.00    -0.200 F 
ATOM     87  C   UNL A   1      46.235  26.270  36.395  1.00  0.00     0.200 A 
ATOM     88  F   UNL A   1      44.728  24.527  36.912  1.00  0.00    -0.200 F 
ATOM     89  F   UNL A   1      47.143  25.754  37.235  1.00  0.00    -0.200 F 
ENDBRANCH  56  79
ENDBRANCH  30  31
ENDBRANCH  23  25
ENDBRANCH  22  23
ENDBRANCH   1  22
TORSDOF 12
ENDMDL
MODEL 2
REMARK VINA RESULT:     -13.1      0.207      1.622
REMARK SMILES Cc1cc(Cl)c2c(c1)C=C(C(=O)OCCOC(=O)c1ccc(-c3c4nc(c(-c5c(F)c(F)c(F)c(F)c5F)c5ccc([nH]5)c(-c5c(F)c(F)c(F)c(F)c5F)c5nc(c(-c6c(F)c(F)c(F)c(F)c6F)c6ccc3[nH]6)C=C5)C=C4)cc1)[C@@H](C(F)(F)F)O2
REMARK SMILES IDX 15 1 14 2 13 3 11 4 12 5 10 6 1 7 2 8 3 9 8 10 4 11 7 12
REMARK SMILES IDX 5 13 6 14 9 15 87 16 82 17 83 18 84 19 85 20 86 21 16 22
REMARK SMILES IDX 17 23 18 24 19 25 20 26 81 27 21 28 80 29 22 30 23 31 24 32
REMARK SMILES IDX 74 33 25 34 79 35 73 36 75 37 26 38 78 39 72 40 71 41 27 43
REMARK SMILES IDX 59 44 39 45 58 46 40 47 43 48 57 49 76 50 41 51 42 52 56 54
REMARK SMILES IDX 77 55 44 56 28 57 29 58 37 59 30 60 31 61 35 62 38 63 32 64
REMARK SMILES IDX 33 65 36 66 34 67 60 68 61 69 69 70 62 71 63 72 67 73 70 74
REMARK SMILES IDX 64 75 65 76 68 77 66 78 45 79 46 80 54 81 47 82 48 83 52 84
REMARK SMILES IDX 55 85 49 86 50 87 53 88 51 89
REMARK H PARENT 75 42 43 53
REMARK Flexibility Score: inf
ROOT
ATOM      1  C   UNL A   1      31.727  30.493  25.867  1.00  0.00     0.275 C 
ENDROOT
BRANCH   1   2
ATOM      2  C   UNL A   1      31.638  29.143  25.152  1.00  0.00     0.275 C 
BRANCH   2   3
ATOM      3  O   UNL A   1      32.497  28.156  25.765  1.00  0.00    -0.459 OA
BRANCH   3   4
ATOM      4  C   UNL A   1      31.862  27.198  26.478  1.00  0.00     0.338 C 
ATOM      5  O   UNL A   1      31.036  27.375  27.361  1.00  0.00    -0.246 OA
BRANCH   4   6
ATOM      6  C   UNL A   1      32.272  25.854  26.035  1.00  0.00     0.087 C 
ATOM      7  C   UNL A   1      37.365  22.643  24.698  1.00  0.00     0.044 C 
ATOM      8  C   UNL A   1      35.891  22.916  24.778  1.00  0.00    -0.049 A 
ATOM      9  C   UNL A   1      34.965  22.008  24.251  1.00  0.00     0.028 A 
ATOM     10  C   UNL A   1      35.415  24.072  25.400  1.00  0.00     0.015 A 
ATOM     11  C   UNL A   1      33.588  22.262  24.337  1.00  0.00     0.084 A 
ATOM     12  C   UNL A   1      34.037  24.333  25.467  1.00  0.00     0.019 A 
ATOM     13  Cl  UNL A   1      32.503  21.104  23.656  1.00  0.00    -0.080 Cl
ATOM     14  C   UNL A   1      33.113  23.430  24.943  1.00  0.00     0.146 A 
ATOM     15  C   UNL A   1      33.579  25.574  26.051  1.00  0.00     0.027 C 
ATOM     16  O   UNL A   1      31.760  23.636  25.015  1.00  0.00    -0.474 OA
ATOM     17  C   UNL A   1      31.248  24.929  25.446  1.00  0.00     0.316 C 
BRANCH  17  18
ATOM     18  C   UNL A   1      30.513  25.593  24.270  1.00  0.00     0.430 C 
ATOM     19  F   UNL A   1      31.363  26.290  23.481  1.00  0.00    -0.167 F 
ATOM     20  F   UNL A   1      29.916  24.672  23.475  1.00  0.00    -0.167 F 
ATOM     21  F   UNL A   1      29.550  26.446  24.689  1.00  0.00    -0.167 F 
ENDBRANCH  17  18
ENDBRANCH   4   6
ENDBRANCH   3   4
ENDBRANCH   2   3
ENDBRANCH   1   2
BRANCH   1  22
ATOM     22  O   UNL A   1      32.552  30.394  27.043  1.00  0.00    -0.458 OA
BRANCH  22  23
ATOM     23  C   UNL A   1      33.232  31.518  27.352  1.00  0.00     0.338 C 
ATOM     24  O   UNL A   1      32.786  32.647  27.478  1.00  0.00    -0.246 OA
BRANCH  23  25
ATOM     25  C   UNL A   1      34.644  31.219  27.626  1.00  0.00     0.060 A 
ATOM     26  C   UNL A   1      35.012  29.890  27.806  1.00  0.00     0.016 A 
ATOM     27  C   UNL A   1      35.523  32.239  27.977  1.00  0.00     0.016 A 
ATOM     28  C   UNL A   1      36.163  29.582  28.523  1.00  0.00     0.010 A 
ATOM     29  C   UNL A   1      36.759  31.916  28.548  1.00  0.00     0.010 A 
ATOM     30  C   UNL A   1      37.066  30.587  28.895  1.00  0.00    -0.014 A 
BRANCH  30  31
ATOM     31  C   UNL A   1      38.296  30.268  29.679  1.00  0.00     0.031 A 
ATOM     32  C   UNL A   1      39.357  29.373  29.088  1.00  0.00     0.074 A 
ATOM     33  C   UNL A   1      38.484  30.777  30.914  1.00  0.00     0.049 A 
ATOM     34  N   UNL A   1      40.341  28.744  29.680  1.00  0.00    -0.248 NA
ATOM     35  C   UNL A   1      39.294  29.142  27.635  1.00  0.00     0.031 C 
ATOM     36  C   UNL A   1      37.601  31.729  31.589  1.00  0.00     0.029 A 
ATOM     37  N   UNL A   1      39.489  30.561  31.828  1.00  0.00    -0.354 N 
ATOM     38  C   UNL A   1      40.967  27.994  28.691  1.00  0.00     0.074 A 
ATOM     39  C   UNL A   1      40.255  28.245  27.457  1.00  0.00     0.031 C 
ATOM     40  C   UNL A   1      38.119  32.046  32.783  1.00  0.00     0.029 A 
ATOM     41  C   UNL A   1      39.297  31.223  33.016  1.00  0.00     0.049 A 
ATOM     42  H   UNL A   1      40.269  29.989  31.648  1.00  0.00     0.167 HD
ATOM     43  C   UNL A   1      42.038  27.171  28.809  1.00  0.00     0.037 A 
ATOM     44  C   UNL A   1      39.946  31.129  34.192  1.00  0.00     0.037 A 
ATOM     45  C   UNL A   1      42.773  26.973  30.033  1.00  0.00     0.049 A 
ATOM     46  C   UNL A   1      41.075  30.150  34.323  1.00  0.00     0.074 A 
ATOM     47  C   UNL A   1      43.865  26.154  30.264  1.00  0.00     0.029 A 
ATOM     48  N   UNL A   1      42.503  27.621  31.230  1.00  0.00    -0.354 N 
ATOM     49  N   UNL A   1      41.596  29.361  33.415  1.00  0.00    -0.248 NA
ATOM     50  C   UNL A   1      41.690  30.030  35.651  1.00  0.00     0.031 C 
ATOM     51  C   UNL A   1      44.229  26.275  31.610  1.00  0.00     0.029 A 
ATOM     52  C   UNL A   1      43.399  27.211  32.205  1.00  0.00     0.049 A 
ATOM     53  H   UNL A   1      41.780  28.276  31.367  1.00  0.00     0.167 HD
ATOM     54  C   UNL A   1      42.605  28.658  34.057  1.00  0.00     0.074 A 
ATOM     55  C   UNL A   1      42.642  29.138  35.424  1.00  0.00     0.031 C 
ATOM     56  C   UNL A   1      43.420  27.694  33.562  1.00  0.00     0.037 A 
BRANCH  43  57
ATOM     57  C   UNL A   1      42.467  26.390  27.598  1.00  0.00     0.064 A 
ATOM     58  C   UNL A   1      43.486  26.837  26.746  1.00  0.00     0.173 A 
ATOM     59  C   UNL A   1      41.888  25.139  27.323  1.00  0.00     0.173 A 
ATOM     60  F   UNL A   1      44.065  28.030  26.952  1.00  0.00    -0.203 F 
ATOM     61  C   UNL A   1      43.899  26.071  25.656  1.00  0.00     0.198 A 
ATOM     62  C   UNL A   1      42.324  24.364  26.252  1.00  0.00     0.198 A 
ATOM     63  F   UNL A   1      40.911  24.659  28.108  1.00  0.00    -0.203 F 
ATOM     64  F   UNL A   1      44.849  26.536  24.833  1.00  0.00    -0.200 F 
ATOM     65  C   UNL A   1      43.326  24.831  25.416  1.00  0.00     0.200 A 
ATOM     66  F   UNL A   1      41.778  23.159  26.032  1.00  0.00    -0.200 F 
ATOM     67  F   UNL A   1      43.736  24.089  24.379  1.00  0.00    -0.200 F 
ENDBRANCH  43  57
BRANCH  44  68
ATOM     68  C   UNL A   1      39.497  31.949  35.349  1.00  0.00     0.064 A 
ATOM     69  C   UNL A   1      39.941  33.268  35.509  1.00  0.00     0.173 A 
ATOM     70  C   UNL A   1      38.596  31.445  36.302  1.00  0.00     0.173 A 
ATOM     71  F   UNL A   1      40.824  33.786  34.642  1.00  0.00    -0.203 F 
ATOM     72  C   UNL A   1      39.502  34.051  36.574  1.00  0.00     0.198 A 
ATOM     73  C   UNL A   1      38.130  32.240  37.346  1.00  0.00     0.198 A 
ATOM     74  F   UNL A   1      38.141  30.188  36.197  1.00  0.00    -0.203 F 
ATOM     75  F   UNL A   1      39.970  35.298  36.722  1.00  0.00    -0.200 F 
ATOM     76  C   UNL A   1      38.589  33.542  37.485  1.00  0.00     0.200 A 
ATOM     77  F   UNL A   1      37.232  31.750  38.209  1.00  0.00    -0.200 F 
ATOM     78  F   UNL A   1      38.152  34.302  38.497  1.00  0.00    -0.200 F 
ENDBRANCH  44  68
BRANCH  56  79
ATOM     79  C   UNL A   1      44.437  27.114  34.503  1.00  0.00     0.064 A 
ATOM     80  C   UNL A   1      44.169  25.960  35.254  1.00  0.00     0.173 A 
ATOM     81  C   UNL A   1      45.699  27.712  34.641  1.00  0.00     0.173 A 
ATOM     82  F   UNL A   1      42.971  25.362  35.169  1.00  0.00    -0.203 F 
ATOM     83  C   UNL A   1      45.114  25.447  36.137  1.00  0.00     0.198 A 
ATOM     84  C   UNL A   1      46.654  27.174  35.500  1.00  0.00     0.198 A 
ATOM     85  F   UNL A   1      46.009  28.812  33.941  1.00  0.00    -0.203 F 
ATOM     86  F   UNL A   1      44.814  24.380  36.890  1.00  0.00    -0.200 F 
ATOM     87  C   UNL A   1      46.357  26.050  36.254  1.00  0.00     0.200 A 
ATOM     88  F   UNL A   1      47.860  27.750  35.601  1.00  0.00    -0.200 F 
ATOM     89  F   UNL A   1      47.267  25.552  37.103  1.00  0.00    -0.200 F 
ENDBRANCH  56  79
ENDBRANCH  30  31
ENDBRANCH  23  25
ENDBRANCH  22  23
ENDBRANCH   1  22
TORSDOF 12
ENDMDL
MODEL 3
REMARK VINA RESULT:     -13.1      0.239      1.158
REMARK SMILES Cc1cc(Cl)c2c(c1)C=C(C(=O)OCCOC(=O)c1ccc(-c3c4nc(c(-c5c(F)c(F)c(F)c(F)c5F)c5ccc([nH]5)c(-c5c(F)c(F)c(F)c(F)c5F)c5nc(c(-c6c(F)c(F)c(F)c(F)c6F)c6ccc3[nH]6)C=C5)C=C4)cc1)[C@@H](C(F)(F)F)O2
REMARK SMILES IDX 15 1 14 2 13 3 11 4 12 5 10 6 1 7 2 8 3 9 8 10 4 11 7 12
REMARK SMILES IDX 5 13 6 14 9 15 87 16 82 17 83 18 84 19 85 20 86 21 16 22
REMARK SMILES IDX 17 23 18 24 19 25 20 26 81 27 21 28 80 29 22 30 23 31 24 32
REMARK SMILES IDX 74 33 25 34 79 35 73 36 75 37 26 38 78 39 72 40 71 41 27 43
REMARK SMILES IDX 59 44 39 45 58 46 40 47 43 48 57 49 76 50 41 51 42 52 56 54
REMARK SMILES IDX 77 55 44 56 28 57 29 58 37 59 30 60 31 61 35 62 38 63 32 64
REMARK SMILES IDX 33 65 36 66 34 67 60 68 61 69 69 70 62 71 63 72 67 73 70 74
REMARK SMILES IDX 64 75 65 76 68 77 66 78 45 79 46 80 54 81 47 82 48 83 52 84
REMARK SMILES IDX 55 85 49 86 50 87 53 88 51 89
REMARK H PARENT 75 42 43 53
REMARK Flexibility Score: inf
ROOT
ATOM      1  C   UNL A   1      31.766  30.611  25.965  1.00  0.00     0.275 C 
ENDROOT
BRANCH   1   2
ATOM      2  C   UNL A   1      31.731  29.265  25.238  1.00  0.00     0.275 C 
BRANCH   2   3
ATOM      3  O   UNL A   1      32.545  28.275  25.907  1.00  0.00    -0.459 OA
BRANCH   3   4
ATOM      4  C   UNL A   1      31.861  27.302  26.551  1.00  0.00     0.338 C 
ATOM      5  O   UNL A   1      31.023  27.459  27.427  1.00  0.00    -0.246 OA
BRANCH   4   6
ATOM      6  C   UNL A   1      32.232  25.971  26.040  1.00  0.00     0.087 C 
ATOM      7  C   UNL A   1      37.223  22.724  24.433  1.00  0.00     0.044 C 
ATOM      8  C   UNL A   1      35.758  23.023  24.563  1.00  0.00    -0.049 A 
ATOM      9  C   UNL A   1      34.801  22.157  24.020  1.00  0.00     0.028 A 
ATOM     10  C   UNL A   1      35.321  24.159  25.246  1.00  0.00     0.015 A 
ATOM     11  C   UNL A   1      33.432  22.433  24.152  1.00  0.00     0.084 A 
ATOM     12  C   UNL A   1      33.951  24.443  25.361  1.00  0.00     0.019 A 
ATOM     13  Cl  UNL A   1      32.307  21.328  23.450  1.00  0.00    -0.080 Cl
ATOM     14  C   UNL A   1      32.997  23.582  24.821  1.00  0.00     0.146 A 
ATOM     15  C   UNL A   1      33.533  25.666  26.010  1.00  0.00     0.027 C 
ATOM     16  O   UNL A   1      31.650  23.810  24.937  1.00  0.00    -0.474 OA
ATOM     17  C   UNL A   1      31.175  25.093  25.437  1.00  0.00     0.316 C 
BRANCH  17  18
ATOM     18  C   UNL A   1      30.424  25.822  24.311  1.00  0.00     0.430 C 
ATOM     19  F   UNL A   1      31.266  26.553  23.542  1.00  0.00    -0.167 F 
ATOM     20  F   UNL A   1      29.805  24.948  23.481  1.00  0.00    -0.167 F 
ATOM     21  F   UNL A   1      29.477  26.661  24.791  1.00  0.00    -0.167 F 
ENDBRANCH  17  18
ENDBRANCH   4   6
ENDBRANCH   3   4
ENDBRANCH   2   3
ENDBRANCH   1   2
BRANCH   1  22
ATOM     22  O   UNL A   1      32.577  30.529  27.152  1.00  0.00    -0.458 OA
BRANCH  22  23
ATOM     23  C   UNL A   1      33.307  31.633  27.414  1.00  0.00     0.338 C 
ATOM     24  O   UNL A   1      32.911  32.783  27.508  1.00  0.00    -0.246 OA
BRANCH  23  25
ATOM     25  C   UNL A   1      34.710  31.284  27.680  1.00  0.00     0.060 A 
ATOM     26  C   UNL A   1      35.017  29.957  27.955  1.00  0.00     0.016 A 
ATOM     27  C   UNL A   1      35.646  32.282  27.930  1.00  0.00     0.016 A 
ATOM     28  C   UNL A   1      36.169  29.646  28.670  1.00  0.00     0.010 A 
ATOM     29  C   UNL A   1      36.879  31.941  28.497  1.00  0.00     0.010 A 
ATOM     30  C   UNL A   1      37.129  30.629  28.941  1.00  0.00    -0.014 A 
BRANCH  30  31
ATOM     31  C   UNL A   1      38.362  30.310  29.721  1.00  0.00     0.031 A 
ATOM     32  C   UNL A   1      39.423  29.418  29.124  1.00  0.00     0.074 A 
ATOM     33  C   UNL A   1      38.553  30.816  30.957  1.00  0.00     0.049 A 
ATOM     34  N   UNL A   1      40.410  28.789  29.711  1.00  0.00    -0.248 NA
ATOM     35  C   UNL A   1      39.356  29.192  27.670  1.00  0.00     0.031 C 
ATOM     36  C   UNL A   1      37.670  31.764  31.637  1.00  0.00     0.029 A 
ATOM     37  N   UNL A   1      39.561  30.598  31.867  1.00  0.00    -0.354 N 
ATOM     38  C   UNL A   1      41.034  28.044  28.718  1.00  0.00     0.074 A 
ATOM     39  C   UNL A   1      40.318  28.298  27.486  1.00  0.00     0.031 C 
ATOM     40  C   UNL A   1      38.191  32.078  32.831  1.00  0.00     0.029 A 
ATOM     41  C   UNL A   1      39.371  31.256  33.058  1.00  0.00     0.049 A 
ATOM     42  H   UNL A   1      40.341  30.028  31.683  1.00  0.00     0.167 HD
ATOM     43  C   UNL A   1      42.106  27.222  28.830  1.00  0.00     0.037 A 
ATOM     44  C   UNL A   1      40.023  31.159  34.232  1.00  0.00     0.037 A 
ATOM     45  C   UNL A   1      42.846  27.021  30.051  1.00  0.00     0.049 A 
ATOM     46  C   UNL A   1      41.154  30.181  34.356  1.00  0.00     0.074 A 
ATOM     47  C   UNL A   1      43.939  26.203  30.276  1.00  0.00     0.029 A 
ATOM     48  N   UNL A   1      42.578  27.665  31.251  1.00  0.00    -0.354 N 
ATOM     49  N   UNL A   1      41.674  29.396  33.445  1.00  0.00    -0.248 NA
ATOM     50  C   UNL A   1      41.774  30.058  35.682  1.00  0.00     0.031 C 
ATOM     51  C   UNL A   1      44.307  26.320  31.621  1.00  0.00     0.029 A 
ATOM     52  C   UNL A   1      43.478  27.253  32.222  1.00  0.00     0.049 A 
ATOM     53  H   UNL A   1      41.854  28.318  31.392  1.00  0.00     0.167 HD
ATOM     54  C   UNL A   1      42.686  28.692  34.081  1.00  0.00     0.074 A 
ATOM     55  C   UNL A   1      42.727  29.167  35.450  1.00  0.00     0.031 C 
ATOM     56  C   UNL A   1      43.501  27.731  33.581  1.00  0.00     0.037 A 
BRANCH  43  57
ATOM     57  C   UNL A   1      42.533  26.445  27.615  1.00  0.00     0.064 A 
ATOM     58  C   UNL A   1      43.544  26.901  26.757  1.00  0.00     0.173 A 
ATOM     59  C   UNL A   1      41.961  25.192  27.341  1.00  0.00     0.173 A 
ATOM     60  F   UNL A   1      44.117  28.097  26.962  1.00  0.00    -0.203 F 
ATOM     61  C   UNL A   1      43.956  26.140  25.664  1.00  0.00     0.198 A 
ATOM     62  C   UNL A   1      42.395  24.421  26.266  1.00  0.00     0.198 A 
ATOM     63  F   UNL A   1      40.993  24.704  28.131  1.00  0.00    -0.203 F 
ATOM     64  F   UNL A   1      44.898  26.613  24.836  1.00  0.00    -0.200 F 
ATOM     65  C   UNL A   1      43.389  24.897  25.426  1.00  0.00     0.200 A 
ATOM     66  F   UNL A   1      41.856  23.212  26.048  1.00  0.00    -0.200 F 
ATOM     67  F   UNL A   1      43.798  24.159  24.384  1.00  0.00    -0.200 F 
ENDBRANCH  43  57
BRANCH  44  68
ATOM     68  C   UNL A   1      39.577  31.974  35.393  1.00  0.00     0.064 A 
ATOM     69  C   UNL A   1      40.079  33.265  35.599  1.00  0.00     0.173 A 
ATOM     70  C   UNL A   1      38.621  31.495  36.303  1.00  0.00     0.173 A 
ATOM     71  F   UNL A   1      41.015  33.758  34.774  1.00  0.00    -0.203 F 
ATOM     72  C   UNL A   1      39.644  34.045  36.668  1.00  0.00     0.198 A 
ATOM     73  C   UNL A   1      38.159  32.288  37.351  1.00  0.00     0.198 A 
ATOM     74  F   UNL A   1      38.108  30.264  36.154  1.00  0.00    -0.203 F 
ATOM     75  F   UNL A   1      40.167  35.263  36.860  1.00  0.00    -0.200 F 
ATOM     76  C   UNL A   1      38.676  33.562  37.535  1.00  0.00     0.200 A 
ATOM     77  F   UNL A   1      37.210  31.824  38.172  1.00  0.00    -0.200 F 
ATOM     78  F   UNL A   1      38.243  34.321  38.551  1.00  0.00    -0.200 F 
ENDBRANCH  44  68
BRANCH  56  79
ATOM     79  C   UNL A   1      44.522  27.150  34.516  1.00  0.00     0.064 A 
ATOM     80  C   UNL A   1      45.785  27.737  34.681  1.00  0.00     0.173 A 
ATOM     81  C   UNL A   1      44.227  26.002  35.266  1.00  0.00     0.173 A 
ATOM     82  F   UNL A   1      46.121  28.826  33.974  1.00  0.00    -0.203 F 
ATOM     83  C   UNL A   1      46.728  27.175  35.536  1.00  0.00     0.198 A 
ATOM     84  C   UNL A   1      45.161  25.463  36.147  1.00  0.00     0.198 A 
ATOM     85  F   UNL A   1      43.031  25.405  35.152  1.00  0.00    -0.203 F 
ATOM     86  F   UNL A   1      47.950  27.717  35.632  1.00  0.00    -0.200 F 
ATOM     87  C   UNL A   1      46.413  26.043  36.273  1.00  0.00     0.200 A 
ATOM     88  F   UNL A   1      44.849  24.377  36.869  1.00  0.00    -0.200 F 
ATOM     89  F   UNL A   1      47.323  25.505  37.097  1.00  0.00    -0.200 F 
ENDBRANCH  56  79
ENDBRANCH  30  31
ENDBRANCH  23  25
ENDBRANCH  22  23
ENDBRANCH   1  22
TORSDOF 12
ENDMDL
