MODEL 1
REMARK VINA RESULT:     -13.5      0.000      0.000
REMARK SMILES Cc1c(CC(=O)N[C@@H](C)C(=O)OCCOC(=O)c2ccc(-c3c4nc(c(-c5c(F)c(F)c(F)c(F)c5F)c5ccc([nH]5)c(-c5c(F)c(F)c(F)c(F)c5F)c5nc(c(-c6c(F)c(F)c(F)c(F)c6F)c6ccc3[nH]6)C=C5)C=C4)cc2)c(=O)oc2cc3oc4c(c3cc12)CCCC4
REMARK SMILES IDX 13 1 12 2 10 3 11 4 8 5 9 6 7 7 5 8 6 9 4 11 3 12 1 13 2 14
REMARK SMILES IDX 92 15 81 16 84 17 91 18 82 19 83 20 85 21 90 22 86 23 89 24
REMARK SMILES IDX 87 25 88 26 93 27 96 28 94 29 95 30 14 31 15 32 16 33 17 34
REMARK SMILES IDX 18 35 19 36 80 37 20 38 79 39 21 40 22 41 23 42 73 43 24 44
REMARK SMILES IDX 78 45 72 46 74 47 25 48 77 49 71 50 70 51 26 53 58 54 38 55
REMARK SMILES IDX 57 56 39 57 42 58 56 59 75 60 40 61 41 62 55 64 76 65 43 66
REMARK SMILES IDX 27 67 28 68 36 69 29 70 30 71 34 72 37 73 31 74 32 75 35 76
REMARK SMILES IDX 33 77 59 78 60 79 68 80 61 81 62 82 66 83 69 84 63 85 64 86
REMARK SMILES IDX 67 87 65 88 44 89 45 90 53 91 46 92 47 93 51 94 54 95 48 96
REMARK SMILES IDX 49 97 52 98 50 99
REMARK H PARENT 7 10 74 52 42 63
REMARK Flexibility Score: inf
ROOT
ATOM      1  C   UNL A   1      45.413  39.176  28.143  1.00  0.00     0.274 C 
ENDROOT
BRANCH   1   2
ATOM      2  O   UNL A   1      45.106  40.523  27.740  1.00  0.00    -0.461 OA
BRANCH   2   3
ATOM      3  C   UNL A   1      43.808  40.915  27.847  1.00  0.00     0.328 C 
ATOM      4  O   UNL A   1      43.160  40.923  28.887  1.00  0.00    -0.250 OA
BRANCH   3   5
ATOM      5  C   UNL A   1      43.226  41.346  26.494  1.00  0.00     0.189 C 
ATOM      6  C   UNL A   1      41.986  40.514  26.198  1.00  0.00     0.043 C 
BRANCH   5   7
ATOM      7  N   UNL A   1      44.182  41.264  25.389  1.00  0.00    -0.343 N 
ATOM      8  C   UNL A   1      44.477  42.182  24.419  1.00  0.00     0.225 C 
ATOM      9  O   UNL A   1      45.392  41.922  23.634  1.00  0.00    -0.275 OA
ATOM     10  H   UNL A   1      44.689  40.421  25.335  1.00  0.00     0.164 HD
BRANCH   8  11
ATOM     11  C   UNL A   1      43.650  43.463  24.268  1.00  0.00     0.143 C 
BRANCH  11  12
ATOM     12  C   UNL A   1      43.108  43.606  22.866  1.00  0.00     0.051 A 
ATOM     13  C   UNL A   1      44.967  45.117  22.099  1.00  0.00     0.046 C 
ATOM     14  C   UNL A   1      43.783  44.206  21.869  1.00  0.00    -0.029 A 
ATOM     15  C   UNL A   1      43.313  44.019  20.493  1.00  0.00     0.022 A 
ATOM     16  C   UNL A   1      41.781  42.979  22.631  1.00  0.00     0.340 A 
ATOM     17  C   UNL A   1      42.053  43.461  20.267  1.00  0.00     0.142 A 
ATOM     18  C   UNL A   1      44.065  44.475  19.407  1.00  0.00     0.024 A 
ATOM     19  O   UNL A   1      41.113  42.527  23.555  1.00  0.00    -0.246 OA
ATOM     20  O   UNL A   1      41.310  42.926  21.332  1.00  0.00    -0.422 OA
ATOM     21  C   UNL A   1      41.407  43.490  19.027  1.00  0.00     0.095 A 
ATOM     22  C   UNL A   1      43.379  44.700  18.208  1.00  0.00     0.025 A 
ATOM     23  C   UNL A   1      42.066  44.258  18.079  1.00  0.00     0.138 A 
ATOM     24  C   UNL A   1      43.609  45.607  17.147  1.00  0.00     0.001 A 
ATOM     25  O   UNL A   1      41.467  44.873  17.019  1.00  0.00    -0.461 OA
ATOM     26  C   UNL A   1      42.351  45.824  16.623  1.00  0.00     0.108 A 
ATOM     27  C   UNL A   1      44.639  46.676  17.056  1.00  0.00     0.040 C 
ATOM     28  C   UNL A   1      41.855  47.203  16.348  1.00  0.00     0.076 C 
ATOM     29  C   UNL A   1      44.027  47.998  17.574  1.00  0.00     0.005 C 
ATOM     30  C   UNL A   1      42.475  48.092  17.465  1.00  0.00     0.008 C 
ENDBRANCH  11  12
ENDBRANCH   8  11
ENDBRANCH   5   7
ENDBRANCH   3   5
ENDBRANCH   2   3
ENDBRANCH   1   2
BRANCH   1  31
ATOM     31  C   UNL A   1      45.272  38.241  26.941  1.00  0.00     0.275 C 
BRANCH  31  32
ATOM     32  O   UNL A   1      44.134  37.379  27.110  1.00  0.00    -0.458 OA
BRANCH  32  33
ATOM     33  C   UNL A   1      44.369  36.052  26.942  1.00  0.00     0.338 C 
ATOM     34  O   UNL A   1      45.060  35.508  26.120  1.00  0.00    -0.246 OA
BRANCH  33  35
ATOM     35  C   UNL A   1      43.785  35.381  28.111  1.00  0.00     0.060 A 
ATOM     36  C   UNL A   1      44.594  34.844  29.106  1.00  0.00     0.016 A 
ATOM     37  C   UNL A   1      42.399  35.238  28.151  1.00  0.00     0.016 A 
ATOM     38  C   UNL A   1      43.995  34.123  30.132  1.00  0.00     0.010 A 
ATOM     39  C   UNL A   1      41.800  34.521  29.172  1.00  0.00     0.010 A 
ATOM     40  C   UNL A   1      42.600  33.949  30.158  1.00  0.00    -0.014 A 
BRANCH  40  41
ATOM     41  C   UNL A   1      42.033  33.091  31.207  1.00  0.00     0.031 A 
ATOM     42  C   UNL A   1      40.541  33.199  31.397  1.00  0.00     0.074 A 
ATOM     43  C   UNL A   1      42.588  31.866  31.312  1.00  0.00     0.049 A 
ATOM     44  N   UNL A   1      39.622  32.540  30.752  1.00  0.00    -0.248 NA
ATOM     45  C   UNL A   1      40.008  34.269  32.246  1.00  0.00     0.031 C 
ATOM     46  C   UNL A   1      42.956  30.991  30.195  1.00  0.00     0.029 A 
ATOM     47  N   UNL A   1      42.866  31.130  32.440  1.00  0.00    -0.354 N 
ATOM     48  C   UNL A   1      38.400  33.112  31.083  1.00  0.00     0.074 A 
ATOM     49  C   UNL A   1      38.690  34.175  32.018  1.00  0.00     0.031 C 
ATOM     50  C   UNL A   1      43.246  29.771  30.685  1.00  0.00     0.029 A 
ATOM     51  C   UNL A   1      43.156  29.802  32.143  1.00  0.00     0.049 A 
ATOM     52  H   UNL A   1      42.861  31.501  33.353  1.00  0.00     0.167 HD
ATOM     53  C   UNL A   1      37.200  32.690  30.598  1.00  0.00     0.037 A 
ATOM     54  C   UNL A   1      42.760  28.758  32.923  1.00  0.00     0.037 A 
ATOM     55  C   UNL A   1      37.238  31.587  29.691  1.00  0.00     0.049 A 
ATOM     56  C   UNL A   1      41.321  28.613  32.473  1.00  0.00     0.074 A 
ATOM     57  C   UNL A   1      37.184  31.387  28.330  1.00  0.00     0.029 A 
ATOM     58  N   UNL A   1      37.359  30.327  30.224  1.00  0.00    -0.354 N 
ATOM     59  N   UNL A   1      40.896  28.038  31.377  1.00  0.00    -0.248 NA
ATOM     60  C   UNL A   1      40.338  29.491  33.116  1.00  0.00     0.031 C 
ATOM     61  C   UNL A   1      37.735  30.085  28.116  1.00  0.00     0.029 A 
ATOM     62  C   UNL A   1      38.135  29.601  29.361  1.00  0.00     0.049 A 
ATOM     63  H   UNL A   1      36.964  30.006  31.067  1.00  0.00     0.167 HD
ATOM     64  C   UNL A   1      39.702  28.691  31.054  1.00  0.00     0.074 A 
ATOM     65  C   UNL A   1      39.399  29.546  32.182  1.00  0.00     0.031 C 
ATOM     66  C   UNL A   1      39.127  28.655  29.815  1.00  0.00     0.037 A 
BRANCH  53  67
ATOM     67  C   UNL A   1      35.881  33.156  31.077  1.00  0.00     0.064 A 
ATOM     68  C   UNL A   1      35.233  34.156  30.334  1.00  0.00     0.173 A 
ATOM     69  C   UNL A   1      35.363  32.827  32.333  1.00  0.00     0.173 A 
ATOM     70  F   UNL A   1      35.704  34.502  29.123  1.00  0.00    -0.203 F 
ATOM     71  C   UNL A   1      34.139  34.842  30.847  1.00  0.00     0.198 A 
ATOM     72  C   UNL A   1      34.256  33.509  32.841  1.00  0.00     0.198 A 
ATOM     73  F   UNL A   1      35.952  31.888  33.085  1.00  0.00    -0.203 F 
ATOM     74  F   UNL A   1      33.580  35.831  30.137  1.00  0.00    -0.200 F 
ATOM     75  C   UNL A   1      33.658  34.526  32.106  1.00  0.00     0.200 A 
ATOM     76  F   UNL A   1      33.784  33.208  34.059  1.00  0.00    -0.200 F 
ATOM     77  F   UNL A   1      32.626  35.212  32.618  1.00  0.00    -0.200 F 
ENDBRANCH  53  67
BRANCH  54  78
ATOM     78  C   UNL A   1      43.196  28.838  34.354  1.00  0.00     0.064 A 
ATOM     79  C   UNL A   1      44.170  27.922  34.812  1.00  0.00     0.173 A 
ATOM     80  C   UNL A   1      42.742  29.772  35.294  1.00  0.00     0.173 A 
ATOM     81  F   UNL A   1      44.581  26.920  34.018  1.00  0.00    -0.203 F 
ATOM     82  C   UNL A   1      44.758  28.032  36.071  1.00  0.00     0.198 A 
ATOM     83  C   UNL A   1      43.347  29.898  36.549  1.00  0.00     0.198 A 
ATOM     84  F   UNL A   1      41.727  30.598  35.014  1.00  0.00    -0.203 F 
ATOM     85  F   UNL A   1      45.723  27.178  36.437  1.00  0.00    -0.200 F 
ATOM     86  C   UNL A   1      44.369  29.045  36.927  1.00  0.00     0.200 A 
ATOM     87  F   UNL A   1      42.954  30.875  37.378  1.00  0.00    -0.200 F 
ATOM     88  F   UNL A   1      44.976  29.199  38.111  1.00  0.00    -0.200 F 
ENDBRANCH  54  78
BRANCH  66  89
ATOM     89  C   UNL A   1      39.758  27.734  28.831  1.00  0.00     0.064 A 
ATOM     90  C   UNL A   1      39.458  26.368  28.847  1.00  0.00     0.173 A 
ATOM     91  C   UNL A   1      40.612  28.214  27.824  1.00  0.00     0.173 A 
ATOM     92  F   UNL A   1      38.633  25.867  29.779  1.00  0.00    -0.203 F 
ATOM     93  C   UNL A   1      39.974  25.516  27.877  1.00  0.00     0.198 A 
ATOM     94  C   UNL A   1      41.100  27.363  26.838  1.00  0.00     0.198 A 
ATOM     95  F   UNL A   1      40.950  29.511  27.770  1.00  0.00    -0.203 F 
ATOM     96  F   UNL A   1      39.666  24.210  27.902  1.00  0.00    -0.200 F 
ATOM     97  C   UNL A   1      40.780  26.016  26.864  1.00  0.00     0.200 A 
ATOM     98  F   UNL A   1      41.859  27.852  25.847  1.00  0.00    -0.200 F 
ATOM     99  F   UNL A   1      41.238  25.199  25.905  1.00  0.00    -0.200 F 
ENDBRANCH  66  89
ENDBRANCH  40  41
ENDBRANCH  33  35
ENDBRANCH  32  33
ENDBRANCH  31  32
ENDBRANCH   1  31
TORSDOF 14
ENDMDL
MODEL 2
REMARK VINA RESULT:     -13.5      0.290      1.121
REMARK SMILES Cc1c(CC(=O)N[C@@H](C)C(=O)OCCOC(=O)c2ccc(-c3c4nc(c(-c5c(F)c(F)c(F)c(F)c5F)c5ccc([nH]5)c(-c5c(F)c(F)c(F)c(F)c5F)c5nc(c(-c6c(F)c(F)c(F)c(F)c6F)c6ccc3[nH]6)C=C5)C=C4)cc2)c(=O)oc2cc3oc4c(c3cc12)CCCC4
REMARK SMILES IDX 13 1 12 2 10 3 11 4 8 5 9 6 7 7 5 8 6 9 4 11 3 12 1 13 2 14
REMARK SMILES IDX 92 15 81 16 84 17 91 18 82 19 83 20 85 21 90 22 86 23 89 24
REMARK SMILES IDX 87 25 88 26 93 27 96 28 94 29 95 30 14 31 15 32 16 33 17 34
REMARK SMILES IDX 18 35 19 36 80 37 20 38 79 39 21 40 22 41 23 42 73 43 24 44
REMARK SMILES IDX 78 45 72 46 74 47 25 48 77 49 71 50 70 51 26 53 58 54 38 55
REMARK SMILES IDX 57 56 39 57 42 58 56 59 75 60 40 61 41 62 55 64 76 65 43 66
REMARK SMILES IDX 27 67 28 68 36 69 29 70 30 71 34 72 37 73 31 74 32 75 35 76
REMARK SMILES IDX 33 77 59 78 60 79 68 80 61 81 62 82 66 83 69 84 63 85 64 86
REMARK SMILES IDX 67 87 65 88 44 89 45 90 53 91 46 92 47 93 51 94 54 95 48 96
REMARK SMILES IDX 49 97 52 98 50 99
REMARK H PARENT 7 10 74 52 42 63
REMARK Flexibility Score: inf
ROOT
ATOM      1  C   UNL A   1      45.066  39.131  28.178  1.00  0.00     0.274 C 
ENDROOT
BRANCH   1   2
ATOM      2  O   UNL A   1      44.726  40.468  27.767  1.00  0.00    -0.461 OA
BRANCH   2   3
ATOM      3  C   UNL A   1      43.410  40.806  27.807  1.00  0.00     0.328 C 
ATOM      4  O   UNL A   1      42.698  40.745  28.802  1.00  0.00    -0.250 OA
BRANCH   3   5
ATOM      5  C   UNL A   1      42.897  41.274  26.438  1.00  0.00     0.189 C 
ATOM      6  C   UNL A   1      41.642  40.489  26.083  1.00  0.00     0.043 C 
BRANCH   5   7
ATOM      7  N   UNL A   1      43.892  41.170  25.369  1.00  0.00    -0.343 N 
ATOM      8  C   UNL A   1      44.272  42.096  24.437  1.00  0.00     0.225 C 
ATOM      9  O   UNL A   1      45.204  41.810  23.682  1.00  0.00    -0.275 OA
ATOM     10  H   UNL A   1      44.359  40.304  25.313  1.00  0.00     0.164 HD
BRANCH   8  11
ATOM     11  C   UNL A   1      43.517  43.421  24.288  1.00  0.00     0.143 C 
BRANCH  11  12
ATOM     12  C   UNL A   1      42.983  43.595  22.887  1.00  0.00     0.051 A 
ATOM     13  C   UNL A   1      44.920  45.007  22.122  1.00  0.00     0.046 C 
ATOM     14  C   UNL A   1      43.689  44.161  21.890  1.00  0.00    -0.029 A 
ATOM     15  C   UNL A   1      43.210  44.001  20.514  1.00  0.00     0.022 A 
ATOM     16  C   UNL A   1      41.625  43.039  22.650  1.00  0.00     0.340 A 
ATOM     17  C   UNL A   1      41.922  43.512  20.287  1.00  0.00     0.142 A 
ATOM     18  C   UNL A   1      43.984  44.419  19.429  1.00  0.00     0.024 A 
ATOM     19  O   UNL A   1      40.934  42.622  23.574  1.00  0.00    -0.246 OA
ATOM     20  O   UNL A   1      41.152  43.014  21.352  1.00  0.00    -0.422 OA
ATOM     21  C   UNL A   1      41.278  43.577  19.048  1.00  0.00     0.095 A 
ATOM     22  C   UNL A   1      43.312  44.683  18.231  1.00  0.00     0.025 A 
ATOM     23  C   UNL A   1      41.977  44.311  18.102  1.00  0.00     0.138 A 
ATOM     24  C   UNL A   1      43.589  45.579  17.172  1.00  0.00     0.001 A 
ATOM     25  O   UNL A   1      41.412  44.959  17.042  1.00  0.00    -0.461 OA
ATOM     26  C   UNL A   1      42.344  45.863  16.649  1.00  0.00     0.108 A 
ATOM     27  C   UNL A   1      44.674  46.592  17.082  1.00  0.00     0.040 C 
ATOM     28  C   UNL A   1      41.922  47.267  16.376  1.00  0.00     0.076 C 
ATOM     29  C   UNL A   1      44.133  47.943  17.604  1.00  0.00     0.005 C 
ATOM     30  C   UNL A   1      42.588  48.119  17.495  1.00  0.00     0.008 C 
ENDBRANCH  11  12
ENDBRANCH   8  11
ENDBRANCH   5   7
ENDBRANCH   3   5
ENDBRANCH   2   3
ENDBRANCH   1   2
BRANCH   1  31
ATOM     31  C   UNL A   1      45.024  38.201  26.964  1.00  0.00     0.275 C 
BRANCH  31  32
ATOM     32  O   UNL A   1      43.909  37.300  27.064  1.00  0.00    -0.458 OA
BRANCH  32  33
ATOM     33  C   UNL A   1      44.198  35.983  26.900  1.00  0.00     0.338 C 
ATOM     34  O   UNL A   1      44.918  35.467  26.085  1.00  0.00    -0.246 OA
BRANCH  33  35
ATOM     35  C   UNL A   1      43.630  35.290  28.063  1.00  0.00     0.060 A 
ATOM     36  C   UNL A   1      44.441  34.573  28.935  1.00  0.00     0.016 A 
ATOM     37  C   UNL A   1      42.245  35.316  28.220  1.00  0.00     0.016 A 
ATOM     38  C   UNL A   1      43.840  33.844  29.955  1.00  0.00     0.010 A 
ATOM     39  C   UNL A   1      41.644  34.592  29.235  1.00  0.00     0.010 A 
ATOM     40  C   UNL A   1      42.441  33.843  30.097  1.00  0.00    -0.014 A 
BRANCH  40  41
ATOM     41  C   UNL A   1      41.855  32.972  31.125  1.00  0.00     0.031 A 
ATOM     42  C   UNL A   1      40.366  33.113  31.322  1.00  0.00     0.074 A 
ATOM     43  C   UNL A   1      42.379  31.733  31.199  1.00  0.00     0.049 A 
ATOM     44  N   UNL A   1      39.430  32.492  30.663  1.00  0.00    -0.248 NA
ATOM     45  C   UNL A   1      39.861  34.174  32.198  1.00  0.00     0.031 C 
ATOM     46  C   UNL A   1      42.724  30.876  30.060  1.00  0.00     0.029 A 
ATOM     47  N   UNL A   1      42.641  30.962  32.308  1.00  0.00    -0.354 N 
ATOM     48  C   UNL A   1      38.223  33.085  31.011  1.00  0.00     0.074 A 
ATOM     49  C   UNL A   1      38.541  34.118  31.970  1.00  0.00     0.031 C 
ATOM     50  C   UNL A   1      42.985  29.638  30.519  1.00  0.00     0.029 A 
ATOM     51  C   UNL A   1      42.899  29.635  31.978  1.00  0.00     0.049 A 
ATOM     52  H   UNL A   1      42.647  31.310  33.229  1.00  0.00     0.167 HD
ATOM     53  C   UNL A   1      37.013  32.705  30.518  1.00  0.00     0.037 A 
ATOM     54  C   UNL A   1      42.479  28.582  32.732  1.00  0.00     0.037 A 
ATOM     55  C   UNL A   1      37.022  31.624  29.585  1.00  0.00     0.049 A 
ATOM     56  C   UNL A   1      41.036  28.483  32.283  1.00  0.00     0.074 A 
ATOM     57  C   UNL A   1      36.960  31.459  28.219  1.00  0.00     0.029 A 
ATOM     58  N   UNL A   1      37.113  30.349  30.086  1.00  0.00    -0.354 N 
ATOM     59  N   UNL A   1      40.595  27.946  31.174  1.00  0.00    -0.248 NA
ATOM     60  C   UNL A   1      40.076  29.369  32.949  1.00  0.00     0.031 C 
ATOM     61  C   UNL A   1      37.479  30.149  27.972  1.00  0.00     0.029 A 
ATOM     62  C   UNL A   1      37.870  29.626  29.203  1.00  0.00     0.049 A 
ATOM     63  H   UNL A   1      36.711  30.017  30.921  1.00  0.00     0.167 HD
ATOM     64  C   UNL A   1      39.417  28.636  30.869  1.00  0.00     0.074 A 
ATOM     65  C   UNL A   1      39.137  29.470  32.019  1.00  0.00     0.031 C 
ATOM     66  C   UNL A   1      38.839  28.645  29.632  1.00  0.00     0.037 A 
BRANCH  53  67
ATOM     67  C   UNL A   1      35.706  33.191  31.012  1.00  0.00     0.064 A 
ATOM     68  C   UNL A   1      35.080  34.222  30.293  1.00  0.00     0.173 A 
ATOM     69  C   UNL A   1      35.184  32.847  32.262  1.00  0.00     0.173 A 
ATOM     70  F   UNL A   1      35.555  34.584  29.089  1.00  0.00    -0.203 F 
ATOM     71  C   UNL A   1      34.004  34.922  30.825  1.00  0.00     0.198 A 
ATOM     72  C   UNL A   1      34.094  33.543  32.788  1.00  0.00     0.198 A 
ATOM     73  F   UNL A   1      35.753  31.877  32.992  1.00  0.00    -0.203 F 
ATOM     74  F   UNL A   1      33.466  35.939  30.138  1.00  0.00    -0.200 F 
ATOM     75  C   UNL A   1      33.518  34.590  32.078  1.00  0.00     0.200 A 
ATOM     76  F   UNL A   1      33.619  33.226  34.001  1.00  0.00    -0.200 F 
ATOM     77  F   UNL A   1      32.504  35.288  32.608  1.00  0.00    -0.200 F 
ENDBRANCH  53  67
BRANCH  54  78
ATOM     78  C   UNL A   1      42.919  28.616  34.164  1.00  0.00     0.064 A 
ATOM     79  C   UNL A   1      43.770  27.588  34.629  1.00  0.00     0.173 A 
ATOM     80  C   UNL A   1      42.584  29.606  35.097  1.00  0.00     0.173 A 
ATOM     81  F   UNL A   1      44.054  26.538  33.843  1.00  0.00    -0.203 F 
ATOM     82  C   UNL A   1      44.365  27.633  35.889  1.00  0.00     0.198 A 
ATOM     83  C   UNL A   1      43.198  29.663  36.353  1.00  0.00     0.198 A 
ATOM     84  F   UNL A   1      41.680  30.550  34.809  1.00  0.00    -0.203 F 
ATOM     85  F   UNL A   1      45.215  26.666  36.263  1.00  0.00    -0.200 F 
ATOM     86  C   UNL A   1      44.104  28.691  36.738  1.00  0.00     0.200 A 
ATOM     87  F   UNL A   1      42.929  30.686  37.175  1.00  0.00    -0.200 F 
ATOM     88  F   UNL A   1      44.724  28.776  37.923  1.00  0.00    -0.200 F 
ENDBRANCH  54  78
BRANCH  66  89
ATOM     89  C   UNL A   1      39.445  27.733  28.623  1.00  0.00     0.064 A 
ATOM     90  C   UNL A   1      40.238  28.247  27.592  1.00  0.00     0.173 A 
ATOM     91  C   UNL A   1      39.297  26.340  28.715  1.00  0.00     0.173 A 
ATOM     92  F   UNL A   1      40.424  29.571  27.475  1.00  0.00    -0.203 F 
ATOM     93  C   UNL A   1      40.880  27.396  26.698  1.00  0.00     0.198 A 
ATOM     94  C   UNL A   1      39.965  25.492  27.838  1.00  0.00     0.198 A 
ATOM     95  F   UNL A   1      38.533  25.791  29.671  1.00  0.00    -0.203 F 
ATOM     96  F   UNL A   1      41.646  27.906  25.722  1.00  0.00    -0.200 F 
ATOM     97  C   UNL A   1      40.757  26.021  26.831  1.00  0.00     0.200 A 
ATOM     98  F   UNL A   1      39.864  24.163  27.983  1.00  0.00    -0.200 F 
ATOM     99  F   UNL A   1      41.414  25.203  25.997  1.00  0.00    -0.200 F 
ENDBRANCH  66  89
ENDBRANCH  40  41
ENDBRANCH  33  35
ENDBRANCH  32  33
ENDBRANCH  31  32
ENDBRANCH   1  31
TORSDOF 14
ENDMDL
MODEL 3
REMARK VINA RESULT:     -13.2      9.967     21.010
REMARK SMILES Cc1c(CC(=O)N[C@@H](C)C(=O)OCCOC(=O)c2ccc(-c3c4nc(c(-c5c(F)c(F)c(F)c(F)c5F)c5ccc([nH]5)c(-c5c(F)c(F)c(F)c(F)c5F)c5nc(c(-c6c(F)c(F)c(F)c(F)c6F)c6ccc3[nH]6)C=C5)C=C4)cc2)c(=O)oc2cc3oc4c(c3cc12)CCCC4
REMARK SMILES IDX 13 1 12 2 10 3 11 4 8 5 9 6 7 7 5 8 6 9 4 11 3 12 1 13 2 14
REMARK SMILES IDX 92 15 81 16 84 17 91 18 82 19 83 20 85 21 90 22 86 23 89 24
REMARK SMILES IDX 87 25 88 26 93 27 96 28 94 29 95 30 14 31 15 32 16 33 17 34
REMARK SMILES IDX 18 35 19 36 80 37 20 38 79 39 21 40 22 41 23 42 73 43 24 44
REMARK SMILES IDX 78 45 72 46 74 47 25 48 77 49 71 50 70 51 26 53 58 54 38 55
REMARK SMILES IDX 57 56 39 57 42 58 56 59 75 60 40 61 41 62 55 64 76 65 43 66
REMARK SMILES IDX 27 67 28 68 36 69 29 70 30 71 34 72 37 73 31 74 32 75 35 76
REMARK SMILES IDX 33 77 59 78 60 79 68 80 61 81 62 82 66 83 69 84 63 85 64 86
REMARK SMILES IDX 67 87 65 88 44 89 45 90 53 91 46 92 47 93 51 94 54 95 48 96
REMARK SMILES IDX 49 97 52 98 50 99
REMARK H PARENT 7 10 74 52 42 63
REMARK Flexibility Score: inf
ROOT
ATOM      1  C   UNL A   1      45.696  22.922  38.504  1.00  0.00     0.274 C 
ENDROOT
BRANCH   1   2
ATOM      2  O   UNL A   1      45.667  21.484  38.522  1.00  0.00    -0.461 OA
BRANCH   2   3
ATOM      3  C   UNL A   1      46.721  20.855  39.107  1.00  0.00     0.328 C 
ATOM      4  O   UNL A   1      47.254  21.203  40.152  1.00  0.00    -0.250 OA
BRANCH   3   5
ATOM      5  C   UNL A   1      47.187  19.640  38.293  1.00  0.00     0.189 C 
ATOM      6  C   UNL A   1      46.108  19.273  37.284  1.00  0.00     0.043 C 
BRANCH   5   7
ATOM      7  N   UNL A   1      47.542  18.482  39.115  1.00  0.00    -0.343 N 
ATOM      8  C   UNL A   1      46.752  17.698  39.908  1.00  0.00     0.225 C 
ATOM      9  O   UNL A   1      47.263  16.712  40.445  1.00  0.00    -0.275 OA
ATOM     10  H   UNL A   1      48.494  18.229  39.093  1.00  0.00     0.164 HD
BRANCH   8  11
ATOM     11  C   UNL A   1      45.290  18.072  40.179  1.00  0.00     0.143 C 
BRANCH  11  12
ATOM     12  C   UNL A   1      44.434  16.842  40.363  1.00  0.00     0.051 A 
ATOM     13  C   UNL A   1      44.998  16.582  42.801  1.00  0.00     0.046 C 
ATOM     14  C   UNL A   1      44.183  16.286  41.563  1.00  0.00    -0.029 A 
ATOM     15  C   UNL A   1      43.104  15.299  41.666  1.00  0.00     0.022 A 
ATOM     16  C   UNL A   1      43.822  16.301  39.120  1.00  0.00     0.340 A 
ATOM     17  C   UNL A   1      42.549  14.763  40.502  1.00  0.00     0.142 A 
ATOM     18  C   UNL A   1      42.687  14.815  42.909  1.00  0.00     0.024 A 
ATOM     19  O   UNL A   1      44.131  16.733  38.015  1.00  0.00    -0.246 OA
ATOM     20  O   UNL A   1      42.895  15.284  39.244  1.00  0.00    -0.422 OA
ATOM     21  C   UNL A   1      41.722  13.636  40.489  1.00  0.00     0.095 A 
ATOM     22  C   UNL A   1      42.031  13.580  42.923  1.00  0.00     0.025 A 
ATOM     23  C   UNL A   1      41.627  13.007  41.721  1.00  0.00     0.138 A 
ATOM     24  C   UNL A   1      41.962  12.561  43.902  1.00  0.00     0.001 A 
ATOM     25  O   UNL A   1      41.349  11.684  41.903  1.00  0.00    -0.461 OA
ATOM     26  C   UNL A   1      41.765  11.411  43.165  1.00  0.00     0.108 A 
ATOM     27  C   UNL A   1      42.672  12.487  45.207  1.00  0.00     0.040 C 
ATOM     28  C   UNL A   1      42.581  10.187  43.409  1.00  0.00     0.076 C 
ATOM     29  C   UNL A   1      43.992  11.707  45.008  1.00  0.00     0.005 C 
ATOM     30  C   UNL A   1      43.991  10.709  43.811  1.00  0.00     0.008 C 
ENDBRANCH  11  12
ENDBRANCH   8  11
ENDBRANCH   5   7
ENDBRANCH   3   5
ENDBRANCH   2   3
ENDBRANCH   1   2
BRANCH   1  31
ATOM     31  C   UNL A   1      46.007  23.406  37.086  1.00  0.00     0.275 C 
BRANCH  31  32
ATOM     32  O   UNL A   1      44.889  23.156  36.218  1.00  0.00    -0.458 OA
BRANCH  32  33
ATOM     33  C   UNL A   1      44.041  24.201  36.030  1.00  0.00     0.338 C 
ATOM     34  O   UNL A   1      43.259  24.683  36.807  1.00  0.00    -0.246 OA
BRANCH  33  35
ATOM     35  C   UNL A   1      44.410  24.801  34.742  1.00  0.00     0.060 A 
ATOM     36  C   UNL A   1      45.062  26.028  34.684  1.00  0.00     0.016 A 
ATOM     37  C   UNL A   1      44.018  24.135  33.581  1.00  0.00     0.016 A 
ATOM     38  C   UNL A   1      45.288  26.603  33.439  1.00  0.00     0.010 A 
ATOM     39  C   UNL A   1      44.242  24.705  32.340  1.00  0.00     0.010 A 
ATOM     40  C   UNL A   1      44.865  25.949  32.268  1.00  0.00    -0.014 A 
BRANCH  40  41
ATOM     41  C   UNL A   1      45.035  26.651  30.988  1.00  0.00     0.031 A 
ATOM     42  C   UNL A   1      44.870  25.800  29.755  1.00  0.00     0.074 A 
ATOM     43  C   UNL A   1      44.544  27.906  30.950  1.00  0.00     0.049 A 
ATOM     44  N   UNL A   1      43.756  25.529  29.137  1.00  0.00    -0.248 NA
ATOM     45  C   UNL A   1      46.014  25.024  29.267  1.00  0.00     0.031 C 
ATOM     46  C   UNL A   1      43.264  28.346  31.513  1.00  0.00     0.029 A 
ATOM     47  N   UNL A   1      45.059  29.024  30.337  1.00  0.00    -0.354 N 
ATOM     48  C   UNL A   1      44.037  24.540  28.202  1.00  0.00     0.074 A 
ATOM     49  C   UNL A   1      45.451  24.266  28.316  1.00  0.00     0.031 C 
ATOM     50  C   UNL A   1      43.007  29.591  31.071  1.00  0.00     0.029 A 
ATOM     51  C   UNL A   1      44.131  30.058  30.262  1.00  0.00     0.049 A 
ATOM     52  H   UNL A   1      45.980  29.086  29.992  1.00  0.00     0.167 HD
ATOM     53  C   UNL A   1      43.114  23.995  27.363  1.00  0.00     0.037 A 
ATOM     54  C   UNL A   1      44.027  30.894  29.192  1.00  0.00     0.037 A 
ATOM     55  C   UNL A   1      41.781  24.494  27.480  1.00  0.00     0.049 A 
ATOM     56  C   UNL A   1      43.233  30.022  28.241  1.00  0.00     0.074 A 
ATOM     57  C   UNL A   1      40.598  24.106  28.068  1.00  0.00     0.029 A 
ATOM     58  N   UNL A   1      41.492  25.689  26.869  1.00  0.00    -0.354 N 
ATOM     59  N   UNL A   1      41.944  29.801  28.273  1.00  0.00    -0.248 NA
ATOM     60  C   UNL A   1      43.993  29.059  27.440  1.00  0.00     0.031 C 
ATOM     61  C   UNL A   1      39.814  25.298  28.164  1.00  0.00     0.029 A 
ATOM     62  C   UNL A   1      40.597  26.343  27.674  1.00  0.00     0.049 A 
ATOM     63  H   UNL A   1      41.857  26.015  26.015  1.00  0.00     0.167 HD
ATOM     64  C   UNL A   1      41.772  28.525  27.724  1.00  0.00     0.074 A 
ATOM     65  C   UNL A   1      43.066  28.142  27.200  1.00  0.00     0.031 C 
ATOM     66  C   UNL A   1      40.648  27.768  27.896  1.00  0.00     0.037 A 
BRANCH  53  67
ATOM     67  C   UNL A   1      43.424  23.084  26.240  1.00  0.00     0.064 A 
ATOM     68  C   UNL A   1      43.218  21.709  26.438  1.00  0.00     0.173 A 
ATOM     69  C   UNL A   1      44.117  23.489  25.096  1.00  0.00     0.173 A 
ATOM     70  F   UNL A   1      42.559  21.281  27.529  1.00  0.00    -0.203 F 
ATOM     71  C   UNL A   1      43.731  20.768  25.555  1.00  0.00     0.198 A 
ATOM     72  C   UNL A   1      44.620  22.541  24.203  1.00  0.00     0.198 A 
ATOM     73  F   UNL A   1      44.348  24.789  24.867  1.00  0.00    -0.203 F 
ATOM     74  F   UNL A   1      43.567  19.461  25.805  1.00  0.00    -0.200 F 
ATOM     75  C   UNL A   1      44.443  21.183  24.443  1.00  0.00     0.200 A 
ATOM     76  F   UNL A   1      45.309  22.937  23.123  1.00  0.00    -0.200 F 
ATOM     77  F   UNL A   1      44.970  20.276  23.610  1.00  0.00    -0.200 F 
ENDBRANCH  53  67
BRANCH  54  78
ATOM     78  C   UNL A   1      45.291  31.611  28.827  1.00  0.00     0.064 A 
ATOM     79  C   UNL A   1      45.308  33.023  28.900  1.00  0.00     0.173 A 
ATOM     80  C   UNL A   1      46.492  31.002  28.440  1.00  0.00     0.173 A 
ATOM     81  F   UNL A   1      44.176  33.700  29.151  1.00  0.00    -0.203 F 
ATOM     82  C   UNL A   1      46.481  33.759  28.748  1.00  0.00     0.198 A 
ATOM     83  C   UNL A   1      47.674  31.738  28.309  1.00  0.00     0.198 A 
ATOM     84  F   UNL A   1      46.557  29.686  28.206  1.00  0.00    -0.203 F 
ATOM     85  F   UNL A   1      46.459  35.092  28.888  1.00  0.00    -0.200 F 
ATOM     86  C   UNL A   1      47.673  33.111  28.485  1.00  0.00     0.200 A 
ATOM     87  F   UNL A   1      48.824  31.103  28.042  1.00  0.00    -0.200 F 
ATOM     88  F   UNL A   1      48.817  33.805  28.405  1.00  0.00    -0.200 F 
ENDBRANCH  54  78
BRANCH  66  89
ATOM     89  C   UNL A   1      39.510  28.439  28.581  1.00  0.00     0.064 A 
ATOM     90  C   UNL A   1      38.634  29.258  27.861  1.00  0.00     0.173 A 
ATOM     91  C   UNL A   1      39.244  28.218  29.943  1.00  0.00     0.173 A 
ATOM     92  F   UNL A   1      38.838  29.484  26.554  1.00  0.00    -0.203 F 
ATOM     93  C   UNL A   1      37.518  29.817  28.475  1.00  0.00     0.198 A 
ATOM     94  C   UNL A   1      38.110  28.754  30.544  1.00  0.00     0.198 A 
ATOM     95  F   UNL A   1      40.060  27.457  30.688  1.00  0.00    -0.203 F 
ATOM     96  F   UNL A   1      36.684  30.591  27.766  1.00  0.00    -0.200 F 
ATOM     97  C   UNL A   1      37.248  29.552  29.810  1.00  0.00     0.200 A 
ATOM     98  F   UNL A   1      37.839  28.477  31.827  1.00  0.00    -0.200 F 
ATOM     99  F   UNL A   1      36.147  30.055  30.385  1.00  0.00    -0.200 F 
ENDBRANCH  66  89
ENDBRANCH  40  41
ENDBRANCH  33  35
ENDBRANCH  32  33
ENDBRANCH  31  32
ENDBRANCH   1  31
TORSDOF 14
ENDMDL
