MODEL 1
REMARK VINA RESULT:     -11.6      0.000      0.000
REMARK SMILES CCC(CC)(NC(=O)c1ccc(NC(C)=O)cc1)C(=O)OCCOC(=O)c1ccc(-c2c3nc(c(-c4c(F)c(F)c(F)c(F)c4F)c4ccc([nH]4)c(-c4c(F)c(F)c(F)c(F)c4F)c4nc(c(-c5c(F)c(F)c(F)c(F)c5F)c5ccc2[nH]5)C=C4)C=C3)cc1
REMARK SMILES IDX 22 1 21 2 19 3 20 4 3 5 2 6 1 7 4 8 5 9 6 10 7 11 8 13 9 14
REMARK SMILES IDX 10 15 18 16 11 17 17 18 12 19 13 20 14 21 15 23 16 24 23 25
REMARK SMILES IDX 24 26 25 27 26 28 27 29 28 30 89 31 29 32 88 33 30 34 31 35
REMARK SMILES IDX 32 36 82 37 33 38 87 39 81 40 83 41 34 42 86 43 80 44 79 45
REMARK SMILES IDX 35 47 67 48 47 49 66 50 48 51 51 52 65 53 84 54 49 55 50 56
REMARK SMILES IDX 64 58 85 59 52 60 36 61 37 62 45 63 38 64 39 65 43 66 46 67
REMARK SMILES IDX 40 68 41 69 44 70 42 71 68 72 69 73 77 74 70 75 71 76 75 77
REMARK SMILES IDX 78 78 72 79 73 80 76 81 74 82 53 83 54 84 62 85 55 86 56 87
REMARK SMILES IDX 60 88 63 89 57 90 58 91 61 92 59 93
REMARK H PARENT 6 12 13 22 83 46 51 57
REMARK Flexibility Score: inf
ROOT
ATOM      1  C   UNL A   1      31.749  28.563  26.384  1.00  0.00     0.274 C 
ENDROOT
BRANCH   1   2
ATOM      2  O   UNL A   1      31.544  27.825  25.155  1.00  0.00    -0.460 OA
BRANCH   2   3
ATOM      3  C   UNL A   1      32.644  27.282  24.590  1.00  0.00     0.331 C 
ATOM      4  O   UNL A   1      33.409  27.929  23.879  1.00  0.00    -0.249 OA
BRANCH   3   5
ATOM      5  C   UNL A   1      32.782  25.733  24.779  1.00  0.00     0.137 C 
BRANCH   5   6
ATOM      6  C   UNL A   1      34.093  25.477  25.614  1.00  0.00     0.037 C 
ATOM      7  C   UNL A   1      35.194  24.598  25.028  1.00  0.00     0.007 C 
ENDBRANCH   5   6
BRANCH   5   8
ATOM      8  C   UNL A   1      32.896  25.179  23.326  1.00  0.00     0.037 C 
ATOM      9  C   UNL A   1      31.627  25.242  22.482  1.00  0.00     0.007 C 
ENDBRANCH   5   8
BRANCH   5  10
ATOM     10  N   UNL A   1      31.758  24.914  25.528  1.00  0.00    -0.336 N 
ATOM     11  C   UNL A   1      31.733  23.776  26.283  1.00  0.00     0.252 C 
ATOM     12  H   UNL A   1      30.860  25.312  25.453  1.00  0.00     0.165 HD
ATOM     13  O   UNL A   1      30.987  23.731  27.259  1.00  0.00    -0.269 OA
BRANCH  11  14
ATOM     14  C   UNL A   1      32.352  22.526  25.837  1.00  0.00     0.039 A 
ATOM     15  C   UNL A   1      33.367  21.983  26.631  1.00  0.00     0.016 A 
ATOM     16  C   UNL A   1      32.035  21.943  24.613  1.00  0.00     0.016 A 
ATOM     17  C   UNL A   1      33.979  20.782  26.264  1.00  0.00     0.027 A 
ATOM     18  C   UNL A   1      32.643  20.731  24.257  1.00  0.00     0.027 A 
ATOM     19  C   UNL A   1      33.575  20.113  25.108  1.00  0.00     0.041 A 
BRANCH  19  20
ATOM     20  N   UNL A   1      33.944  18.782  24.810  1.00  0.00    -0.326 N 
ATOM     21  C   UNL A   1      33.127  17.663  24.850  1.00  0.00     0.221 C 
ATOM     22  H   UNL A   1      34.881  18.633  24.546  1.00  0.00     0.169 HD
ATOM     23  C   UNL A   1      33.700  16.502  24.074  1.00  0.00     0.114 C 
ATOM     24  O   UNL A   1      32.046  17.555  25.417  1.00  0.00    -0.275 OA
ENDBRANCH  19  20
ENDBRANCH  11  14
ENDBRANCH   5  10
ENDBRANCH   3   5
ENDBRANCH   2   3
ENDBRANCH   1   2
BRANCH   1  25
ATOM     25  C   UNL A   1      31.798  30.058  26.101  1.00  0.00     0.275 C 
BRANCH  25  26
ATOM     26  O   UNL A   1      33.164  30.479  26.173  1.00  0.00    -0.458 OA
BRANCH  26  27
ATOM     27  C   UNL A   1      33.425  31.469  27.057  1.00  0.00     0.338 C 
ATOM     28  O   UNL A   1      32.797  32.485  27.273  1.00  0.00    -0.246 OA
BRANCH  27  29
ATOM     29  C   UNL A   1      34.656  31.114  27.766  1.00  0.00     0.060 A 
ATOM     30  C   UNL A   1      35.640  32.084  27.950  1.00  0.00     0.016 A 
ATOM     31  C   UNL A   1      34.841  29.810  28.216  1.00  0.00     0.016 A 
ATOM     32  C   UNL A   1      36.834  31.749  28.570  1.00  0.00     0.010 A 
ATOM     33  C   UNL A   1      36.003  29.495  28.917  1.00  0.00     0.010 A 
ATOM     34  C   UNL A   1      37.007  30.463  29.098  1.00  0.00    -0.014 A 
BRANCH  34  35
ATOM     35  C   UNL A   1      38.227  30.146  29.875  1.00  0.00     0.031 A 
ATOM     36  C   UNL A   1      39.293  29.275  29.284  1.00  0.00     0.074 A 
ATOM     37  C   UNL A   1      38.358  30.650  31.117  1.00  0.00     0.049 A 
ATOM     38  N   UNL A   1      40.354  28.766  29.856  1.00  0.00    -0.248 NA
ATOM     39  C   UNL A   1      39.142  28.916  27.866  1.00  0.00     0.031 C 
ATOM     40  C   UNL A   1      37.389  31.525  31.780  1.00  0.00     0.029 A 
ATOM     41  N   UNL A   1      39.360  30.508  32.042  1.00  0.00    -0.354 N 
ATOM     42  C   UNL A   1      40.975  27.998  28.881  1.00  0.00     0.074 A 
ATOM     43  C   UNL A   1      40.171  28.101  27.682  1.00  0.00     0.031 C 
ATOM     44  C   UNL A   1      37.860  31.872  32.986  1.00  0.00     0.029 A 
ATOM     45  C   UNL A   1      39.124  31.184  33.213  1.00  0.00     0.049 A 
ATOM     46  H   UNL A   1      40.171  29.973  31.881  1.00  0.00     0.167 HD
ATOM     47  C   UNL A   1      42.112  27.270  28.989  1.00  0.00     0.037 A 
ATOM     48  C   UNL A   1      39.832  31.218  34.356  1.00  0.00     0.037 A 
ATOM     49  C   UNL A   1      42.906  27.191  30.187  1.00  0.00     0.049 A 
ATOM     50  C   UNL A   1      41.093  30.408  34.442  1.00  0.00     0.074 A 
ATOM     51  C   UNL A   1      44.048  26.448  30.425  1.00  0.00     0.029 A 
ATOM     52  N   UNL A   1      42.642  27.901  31.351  1.00  0.00    -0.354 N 
ATOM     53  N   UNL A   1      41.637  29.630  33.538  1.00  0.00    -0.248 NA
ATOM     54  C   UNL A   1      41.831  30.467  35.710  1.00  0.00     0.031 C 
ATOM     55  C   UNL A   1      44.466  26.695  31.739  1.00  0.00     0.029 A 
ATOM     56  C   UNL A   1      43.604  27.619  32.308  1.00  0.00     0.049 A 
ATOM     57  H   UNL A   1      41.883  28.515  31.478  1.00  0.00     0.167 HD
ATOM     58  C   UNL A   1      42.776  29.102  34.125  1.00  0.00     0.074 A 
ATOM     59  C   UNL A   1      42.865  29.680  35.451  1.00  0.00     0.031 C 
ATOM     60  C   UNL A   1      43.660  28.206  33.621  1.00  0.00     0.037 A 
BRANCH  47  61
ATOM     61  C   UNL A   1      42.538  26.478  27.788  1.00  0.00     0.064 A 
ATOM     62  C   UNL A   1      43.419  27.005  26.833  1.00  0.00     0.173 A 
ATOM     63  C   UNL A   1      42.069  25.169  27.598  1.00  0.00     0.173 A 
ATOM     64  F   UNL A   1      43.880  28.259  26.961  1.00  0.00    -0.203 F 
ATOM     65  C   UNL A   1      43.798  26.259  25.719  1.00  0.00     0.198 A 
ATOM     66  C   UNL A   1      42.469  24.418  26.496  1.00  0.00     0.198 A 
ATOM     67  F   UNL A   1      41.224  24.617  28.482  1.00  0.00    -0.203 F 
ATOM     68  F   UNL A   1      44.608  26.798  24.797  1.00  0.00    -0.200 F 
ATOM     69  C   UNL A   1      43.327  24.965  25.554  1.00  0.00     0.200 A 
ATOM     70  F   UNL A   1      42.018  23.164  26.341  1.00  0.00    -0.200 F 
ATOM     71  F   UNL A   1      43.694  24.248  24.483  1.00  0.00    -0.200 F 
ENDBRANCH  47  61
BRANCH  48  72
ATOM     72  C   UNL A   1      39.345  32.024  35.504  1.00  0.00     0.064 A 
ATOM     73  C   UNL A   1      39.713  33.368  35.650  1.00  0.00     0.173 A 
ATOM     74  C   UNL A   1      38.483  31.475  36.465  1.00  0.00     0.173 A 
ATOM     75  F   UNL A   1      40.551  33.933  34.769  1.00  0.00    -0.203 F 
ATOM     76  C   UNL A   1      39.243  34.131  36.718  1.00  0.00     0.198 A 
ATOM     77  C   UNL A   1      37.989  32.246  37.515  1.00  0.00     0.198 A 
ATOM     78  F   UNL A   1      38.096  30.195  36.368  1.00  0.00    -0.203 F 
ATOM     79  F   UNL A   1      39.638  35.404  36.855  1.00  0.00    -0.200 F 
ATOM     80  C   UNL A   1      38.374  33.572  37.645  1.00  0.00     0.200 A 
ATOM     81  F   UNL A   1      37.136  31.707  38.397  1.00  0.00    -0.200 F 
ATOM     82  F   UNL A   1      37.913  34.309  38.664  1.00  0.00    -0.200 F 
ENDBRANCH  48  72
BRANCH  60  83
ATOM     83  C   UNL A   1      44.794  27.812  34.517  1.00  0.00     0.064 A 
ATOM     84  C   UNL A   1      46.026  28.482  34.469  1.00  0.00     0.173 A 
ATOM     85  C   UNL A   1      44.645  26.763  35.434  1.00  0.00     0.173 A 
ATOM     86  F   UNL A   1      46.218  29.480  33.593  1.00  0.00    -0.203 F 
ATOM     87  C   UNL A   1      47.081  28.093  35.288  1.00  0.00     0.198 A 
ATOM     88  C   UNL A   1      45.696  26.392  36.268  1.00  0.00     0.198 A 
ATOM     89  F   UNL A   1      43.484  26.096  35.516  1.00  0.00    -0.203 F 
ATOM     90  F   UNL A   1      48.266  28.710  35.190  1.00  0.00    -0.200 F 
ATOM     91  C   UNL A   1      46.914  27.052  36.189  1.00  0.00     0.200 A 
ATOM     92  F   UNL A   1      45.533  25.389  37.142  1.00  0.00    -0.200 F 
ATOM     93  F   UNL A   1      47.933  26.673  36.973  1.00  0.00    -0.200 F 
ENDBRANCH  60  83
ENDBRANCH  34  35
ENDBRANCH  27  29
ENDBRANCH  26  27
ENDBRANCH  25  26
ENDBRANCH   1  25
TORSDOF 16
ENDMDL
MODEL 2
REMARK VINA RESULT:     -11.6      1.107      2.100
REMARK SMILES CCC(CC)(NC(=O)c1ccc(NC(C)=O)cc1)C(=O)OCCOC(=O)c1ccc(-c2c3nc(c(-c4c(F)c(F)c(F)c(F)c4F)c4ccc([nH]4)c(-c4c(F)c(F)c(F)c(F)c4F)c4nc(c(-c5c(F)c(F)c(F)c(F)c5F)c5ccc2[nH]5)C=C4)C=C3)cc1
REMARK SMILES IDX 22 1 21 2 19 3 20 4 3 5 2 6 1 7 4 8 5 9 6 10 7 11 8 13 9 14
REMARK SMILES IDX 10 15 18 16 11 17 17 18 12 19 13 20 14 21 15 23 16 24 23 25
REMARK SMILES IDX 24 26 25 27 26 28 27 29 28 30 89 31 29 32 88 33 30 34 31 35
REMARK SMILES IDX 32 36 82 37 33 38 87 39 81 40 83 41 34 42 86 43 80 44 79 45
REMARK SMILES IDX 35 47 67 48 47 49 66 50 48 51 51 52 65 53 84 54 49 55 50 56
REMARK SMILES IDX 64 58 85 59 52 60 36 61 37 62 45 63 38 64 39 65 43 66 46 67
REMARK SMILES IDX 40 68 41 69 44 70 42 71 68 72 69 73 77 74 70 75 71 76 75 77
REMARK SMILES IDX 78 78 72 79 73 80 76 81 74 82 53 83 54 84 62 85 55 86 56 87
REMARK SMILES IDX 60 88 63 89 57 90 58 91 61 92 59 93
REMARK H PARENT 6 12 13 22 83 46 51 57
REMARK Flexibility Score: inf
ROOT
ATOM      1  C   UNL A   1      31.293  29.648  24.579  1.00  0.00     0.274 C 
ENDROOT
BRANCH   1   2
ATOM      2  O   UNL A   1      31.782  28.343  24.187  1.00  0.00    -0.460 OA
BRANCH   2   3
ATOM      3  C   UNL A   1      30.941  27.304  24.379  1.00  0.00     0.331 C 
ATOM      4  O   UNL A   1      29.727  27.399  24.216  1.00  0.00    -0.249 OA
BRANCH   3   5
ATOM      5  C   UNL A   1      31.610  26.020  24.977  1.00  0.00     0.137 C 
BRANCH   5   6
ATOM      6  C   UNL A   1      32.518  26.480  26.178  1.00  0.00     0.037 C 
ATOM      7  C   UNL A   1      34.022  26.618  25.969  1.00  0.00     0.007 C 
ENDBRANCH   5   6
BRANCH   5   8
ATOM      8  C   UNL A   1      32.449  25.441  23.797  1.00  0.00     0.037 C 
ATOM      9  C   UNL A   1      31.663  24.727  22.702  1.00  0.00     0.007 C 
ENDBRANCH   5   8
BRANCH   5  10
ATOM     10  N   UNL A   1      30.805  24.900  25.592  1.00  0.00    -0.336 N 
ATOM     11  C   UNL A   1      31.022  23.847  26.436  1.00  0.00     0.252 C 
ATOM     12  H   UNL A   1      29.863  24.940  25.308  1.00  0.00     0.165 HD
ATOM     13  O   UNL A   1      30.150  23.554  27.250  1.00  0.00    -0.269 OA
BRANCH  11  14
ATOM     14  C   UNL A   1      32.123  22.901  26.242  1.00  0.00     0.039 A 
ATOM     15  C   UNL A   1      32.006  21.973  25.202  1.00  0.00     0.016 A 
ATOM     16  C   UNL A   1      33.202  22.837  27.118  1.00  0.00     0.016 A 
ATOM     17  C   UNL A   1      33.035  21.059  24.959  1.00  0.00     0.027 A 
ATOM     18  C   UNL A   1      34.237  21.926  26.860  1.00  0.00     0.027 A 
ATOM     19  C   UNL A   1      34.187  21.073  25.745  1.00  0.00     0.041 A 
BRANCH  19  20
ATOM     20  N   UNL A   1      35.369  20.377  25.405  1.00  0.00    -0.326 N 
ATOM     21  C   UNL A   1      36.513  20.911  24.832  1.00  0.00     0.221 C 
ATOM     22  H   UNL A   1      35.382  19.412  25.596  1.00  0.00     0.169 HD
ATOM     23  C   UNL A   1      37.715  20.014  25.000  1.00  0.00     0.114 C 
ATOM     24  O   UNL A   1      36.618  21.985  24.252  1.00  0.00    -0.275 OA
ENDBRANCH  19  20
ENDBRANCH  11  14
ENDBRANCH   5  10
ENDBRANCH   3   5
ENDBRANCH   2   3
ENDBRANCH   1   2
BRANCH   1  25
ATOM     25  C   UNL A   1      31.625  29.922  26.038  1.00  0.00     0.275 C 
BRANCH  25  26
ATOM     26  O   UNL A   1      33.003  30.300  26.117  1.00  0.00    -0.458 OA
BRANCH  26  27
ATOM     27  C   UNL A   1      33.282  31.323  26.957  1.00  0.00     0.338 C 
ATOM     28  O   UNL A   1      32.671  32.359  27.128  1.00  0.00    -0.246 OA
BRANCH  27  29
ATOM     29  C   UNL A   1      34.507  30.979  27.681  1.00  0.00     0.060 A 
ATOM     30  C   UNL A   1      35.411  31.989  28.008  1.00  0.00     0.016 A 
ATOM     31  C   UNL A   1      34.767  29.651  28.002  1.00  0.00     0.016 A 
ATOM     32  C   UNL A   1      36.602  31.671  28.644  1.00  0.00     0.010 A 
ATOM     33  C   UNL A   1      35.922  29.342  28.719  1.00  0.00     0.010 A 
ATOM     34  C   UNL A   1      36.846  30.351  29.044  1.00  0.00    -0.014 A 
BRANCH  34  35
ATOM     35  C   UNL A   1      38.055  30.037  29.839  1.00  0.00     0.031 A 
ATOM     36  C   UNL A   1      39.128  29.162  29.267  1.00  0.00     0.074 A 
ATOM     37  C   UNL A   1      38.171  30.546  31.081  1.00  0.00     0.049 A 
ATOM     38  N   UNL A   1      40.181  28.655  29.855  1.00  0.00    -0.248 NA
ATOM     39  C   UNL A   1      38.996  28.796  27.848  1.00  0.00     0.031 C 
ATOM     40  C   UNL A   1      37.193  31.426  31.726  1.00  0.00     0.029 A 
ATOM     41  N   UNL A   1      39.159  30.408  32.019  1.00  0.00    -0.354 N 
ATOM     42  C   UNL A   1      40.814  27.881  28.893  1.00  0.00     0.074 A 
ATOM     43  C   UNL A   1      40.027  27.979  27.683  1.00  0.00     0.031 C 
ATOM     44  C   UNL A   1      37.648  31.778  32.936  1.00  0.00     0.029 A 
ATOM     45  C   UNL A   1      38.909  31.090  33.183  1.00  0.00     0.049 A 
ATOM     46  H   UNL A   1      39.972  29.871  31.872  1.00  0.00     0.167 HD
ATOM     47  C   UNL A   1      41.949  27.152  29.020  1.00  0.00     0.037 A 
ATOM     48  C   UNL A   1      39.601  31.128  34.336  1.00  0.00     0.037 A 
ATOM     49  C   UNL A   1      42.726  27.078  30.229  1.00  0.00     0.049 A 
ATOM     50  C   UNL A   1      40.860  30.317  34.443  1.00  0.00     0.074 A 
ATOM     51  C   UNL A   1      43.864  26.335  30.485  1.00  0.00     0.029 A 
ATOM     52  N   UNL A   1      42.448  27.795  31.385  1.00  0.00    -0.354 N 
ATOM     53  N   UNL A   1      41.415  29.535  33.550  1.00  0.00    -0.248 NA
ATOM     54  C   UNL A   1      41.581  30.383  35.720  1.00  0.00     0.031 C 
ATOM     55  C   UNL A   1      44.265  26.588  31.804  1.00  0.00     0.029 A 
ATOM     56  C   UNL A   1      43.396  27.515  32.356  1.00  0.00     0.049 A 
ATOM     57  H   UNL A   1      41.687  28.410  31.499  1.00  0.00     0.167 HD
ATOM     58  C   UNL A   1      42.545  29.008  34.155  1.00  0.00     0.074 A 
ATOM     59  C   UNL A   1      42.618  29.593  35.479  1.00  0.00     0.031 C 
ATOM     60  C   UNL A   1      43.435  28.109  33.667  1.00  0.00     0.037 A 
BRANCH  47  61
ATOM     61  C   UNL A   1      42.390  26.354  27.828  1.00  0.00     0.064 A 
ATOM     62  C   UNL A   1      41.852  25.089  27.549  1.00  0.00     0.173 A 
ATOM     63  C   UNL A   1      43.354  26.867  26.947  1.00  0.00     0.173 A 
ATOM     64  F   UNL A   1      40.942  24.547  28.372  1.00  0.00    -0.203 F 
ATOM     65  C   UNL A   1      42.280  24.358  26.443  1.00  0.00     0.198 A 
ATOM     66  C   UNL A   1      43.761  26.143  25.829  1.00  0.00     0.198 A 
ATOM     67  F   UNL A   1      43.900  28.072  27.169  1.00  0.00    -0.203 F 
ATOM     68  F   UNL A   1      41.783  23.133  26.218  1.00  0.00    -0.200 F 
ATOM     69  C   UNL A   1      43.230  24.887  25.581  1.00  0.00     0.200 A 
ATOM     70  F   UNL A   1      44.674  26.660  24.994  1.00  0.00    -0.200 F 
ATOM     71  F   UNL A   1      43.637  24.182  24.517  1.00  0.00    -0.200 F 
ENDBRANCH  47  61
BRANCH  48  72
ATOM     72  C   UNL A   1      39.100  31.941  35.473  1.00  0.00     0.064 A 
ATOM     73  C   UNL A   1      38.308  31.369  36.477  1.00  0.00     0.173 A 
ATOM     74  C   UNL A   1      39.422  33.302  35.592  1.00  0.00     0.173 A 
ATOM     75  F   UNL A   1      37.957  30.077  36.397  1.00  0.00    -0.203 F 
ATOM     76  C   UNL A   1      37.851  32.128  37.554  1.00  0.00     0.198 A 
ATOM     77  C   UNL A   1      38.990  34.052  36.684  1.00  0.00     0.198 A 
ATOM     78  F   UNL A   1      40.181  33.898  34.660  1.00  0.00    -0.203 F 
ATOM     79  F   UNL A   1      37.066  31.564  38.482  1.00  0.00    -0.200 F 
ATOM     80  C   UNL A   1      38.200  33.466  37.661  1.00  0.00     0.200 A 
ATOM     81  F   UNL A   1      39.345  35.340  36.792  1.00  0.00    -0.200 F 
ATOM     82  F   UNL A   1      37.771  34.191  38.702  1.00  0.00    -0.200 F 
ENDBRANCH  48  72
BRANCH  60  83
ATOM     83  C   UNL A   1      44.557  27.719  34.581  1.00  0.00     0.064 A 
ATOM     84  C   UNL A   1      45.769  28.425  34.588  1.00  0.00     0.173 A 
ATOM     85  C   UNL A   1      44.416  26.634  35.458  1.00  0.00     0.173 A 
ATOM     86  F   UNL A   1      45.953  29.458  33.752  1.00  0.00    -0.203 F 
ATOM     87  C   UNL A   1      46.813  28.040  35.422  1.00  0.00     0.198 A 
ATOM     88  C   UNL A   1      45.455  26.267  36.307  1.00  0.00     0.198 A 
ATOM     89  F   UNL A   1      43.274  25.932  35.486  1.00  0.00    -0.203 F 
ATOM     90  F   UNL A   1      47.981  28.695  35.378  1.00  0.00    -0.200 F 
ATOM     91  C   UNL A   1      46.654  26.964  36.283  1.00  0.00     0.200 A 
ATOM     92  F   UNL A   1      45.299  25.230  37.142  1.00  0.00    -0.200 F 
ATOM     93  F   UNL A   1      47.663  26.589  37.082  1.00  0.00    -0.200 F 
ENDBRANCH  60  83
ENDBRANCH  34  35
ENDBRANCH  27  29
ENDBRANCH  26  27
ENDBRANCH  25  26
ENDBRANCH   1  25
TORSDOF 16
ENDMDL
MODEL 3
REMARK VINA RESULT:     -11.4      0.916      1.945
REMARK SMILES CCC(CC)(NC(=O)c1ccc(NC(C)=O)cc1)C(=O)OCCOC(=O)c1ccc(-c2c3nc(c(-c4c(F)c(F)c(F)c(F)c4F)c4ccc([nH]4)c(-c4c(F)c(F)c(F)c(F)c4F)c4nc(c(-c5c(F)c(F)c(F)c(F)c5F)c5ccc2[nH]5)C=C4)C=C3)cc1
REMARK SMILES IDX 22 1 21 2 19 3 20 4 3 5 2 6 1 7 4 8 5 9 6 10 7 11 8 13 9 14
REMARK SMILES IDX 10 15 18 16 11 17 17 18 12 19 13 20 14 21 15 23 16 24 23 25
REMARK SMILES IDX 24 26 25 27 26 28 27 29 28 30 89 31 29 32 88 33 30 34 31 35
REMARK SMILES IDX 32 36 82 37 33 38 87 39 81 40 83 41 34 42 86 43 80 44 79 45
REMARK SMILES IDX 35 47 67 48 47 49 66 50 48 51 51 52 65 53 84 54 49 55 50 56
REMARK SMILES IDX 64 58 85 59 52 60 36 61 37 62 45 63 38 64 39 65 43 66 46 67
REMARK SMILES IDX 40 68 41 69 44 70 42 71 68 72 69 73 77 74 70 75 71 76 75 77
REMARK SMILES IDX 78 78 72 79 73 80 76 81 74 82 53 83 54 84 62 85 55 86 56 87
REMARK SMILES IDX 60 88 63 89 57 90 58 91 61 92 59 93
REMARK H PARENT 6 12 13 22 83 46 51 57
REMARK Flexibility Score: inf
ROOT
ATOM      1  C   UNL A   1      31.871  28.543  24.642  1.00  0.00     0.274 C 
ENDROOT
BRANCH   1   2
ATOM      2  O   UNL A   1      32.640  27.507  25.299  1.00  0.00    -0.460 OA
BRANCH   2   3
ATOM      3  C   UNL A   1      31.933  26.544  25.930  1.00  0.00     0.331 C 
ATOM      4  O   UNL A   1      31.366  26.738  27.002  1.00  0.00    -0.249 OA
BRANCH   3   5
ATOM      5  C   UNL A   1      32.027  25.124  25.274  1.00  0.00     0.137 C 
BRANCH   5   6
ATOM      6  C   UNL A   1      30.643  24.837  24.578  1.00  0.00     0.037 C 
ATOM      7  C   UNL A   1      30.020  25.902  23.683  1.00  0.00     0.007 C 
ENDBRANCH   5   6
BRANCH   5   8
ATOM      8  C   UNL A   1      32.290  24.165  26.474  1.00  0.00     0.037 C 
ATOM      9  C   UNL A   1      31.140  23.237  26.855  1.00  0.00     0.007 C 
ENDBRANCH   5   8
BRANCH   5  10
ATOM     10  N   UNL A   1      33.012  24.804  24.175  1.00  0.00    -0.336 N 
ATOM     11  C   UNL A   1      33.281  23.761  23.334  1.00  0.00     0.252 C 
ATOM     12  H   UNL A   1      33.631  25.554  24.021  1.00  0.00     0.165 HD
ATOM     13  O   UNL A   1      33.631  24.008  22.182  1.00  0.00    -0.269 OA
BRANCH  11  14
ATOM     14  C   UNL A   1      33.423  22.384  23.812  1.00  0.00     0.039 A 
ATOM     15  C   UNL A   1      32.316  21.538  23.693  1.00  0.00     0.016 A 
ATOM     16  C   UNL A   1      34.570  21.948  24.468  1.00  0.00     0.016 A 
ATOM     17  C   UNL A   1      32.402  20.208  24.115  1.00  0.00     0.027 A 
ATOM     18  C   UNL A   1      34.654  20.610  24.877  1.00  0.00     0.027 A 
ATOM     19  C   UNL A   1      33.593  19.716  24.650  1.00  0.00     0.041 A 
BRANCH  19  20
ATOM     20  N   UNL A   1      33.847  18.341  24.849  1.00  0.00    -0.326 N 
ATOM     21  C   UNL A   1      33.888  17.353  23.877  1.00  0.00     0.221 C 
ATOM     22  H   UNL A   1      34.013  18.053  25.775  1.00  0.00     0.169 HD
ATOM     23  C   UNL A   1      34.596  16.108  24.348  1.00  0.00     0.114 C 
ATOM     24  O   UNL A   1      33.434  17.415  22.740  1.00  0.00    -0.275 OA
ENDBRANCH  19  20
ENDBRANCH  11  14
ENDBRANCH   5  10
ENDBRANCH   3   5
ENDBRANCH   2   3
ENDBRANCH   1   2
BRANCH   1  25
ATOM     25  C   UNL A   1      31.822  29.795  25.506  1.00  0.00     0.275 C 
BRANCH  25  26
ATOM     26  O   UNL A   1      33.154  30.084  25.945  1.00  0.00    -0.458 OA
BRANCH  26  27
ATOM     27  C   UNL A   1      33.274  31.119  26.807  1.00  0.00     0.338 C 
ATOM     28  O   UNL A   1      32.554  32.087  26.942  1.00  0.00    -0.246 OA
BRANCH  27  29
ATOM     29  C   UNL A   1      34.476  30.889  27.609  1.00  0.00     0.060 A 
ATOM     30  C   UNL A   1      34.772  29.596  28.038  1.00  0.00     0.016 A 
ATOM     31  C   UNL A   1      35.287  31.964  27.959  1.00  0.00     0.016 A 
ATOM     32  C   UNL A   1      35.877  29.370  28.846  1.00  0.00     0.010 A 
ATOM     33  C   UNL A   1      36.446  31.725  28.696  1.00  0.00     0.010 A 
ATOM     34  C   UNL A   1      36.748  30.427  29.144  1.00  0.00    -0.014 A 
BRANCH  34  35
ATOM     35  C   UNL A   1      37.996  30.160  29.893  1.00  0.00     0.031 A 
ATOM     36  C   UNL A   1      39.073  29.312  29.288  1.00  0.00     0.074 A 
ATOM     37  C   UNL A   1      38.144  30.687  31.124  1.00  0.00     0.049 A 
ATOM     38  N   UNL A   1      40.163  28.844  29.839  1.00  0.00    -0.248 NA
ATOM     39  C   UNL A   1      38.896  28.926  27.880  1.00  0.00     0.031 C 
ATOM     40  C   UNL A   1      37.165  31.542  31.798  1.00  0.00     0.029 A 
ATOM     41  N   UNL A   1      39.172  30.589  32.024  1.00  0.00    -0.354 N 
ATOM     42  C   UNL A   1      40.783  28.080  28.861  1.00  0.00     0.074 A 
ATOM     43  C   UNL A   1      39.945  28.140  27.681  1.00  0.00     0.031 C 
ATOM     44  C   UNL A   1      37.656  31.922  32.987  1.00  0.00     0.029 A 
ATOM     45  C   UNL A   1      38.947  31.276  33.190  1.00  0.00     0.049 A 
ATOM     46  H   UNL A   1      39.995  30.076  31.850  1.00  0.00     0.167 HD
ATOM     47  C   UNL A   1      41.943  27.388  28.949  1.00  0.00     0.037 A 
ATOM     48  C   UNL A   1      39.682  31.349  34.314  1.00  0.00     0.037 A 
ATOM     49  C   UNL A   1      42.770  27.352  30.128  1.00  0.00     0.049 A 
ATOM     50  C   UNL A   1      40.969  30.579  34.380  1.00  0.00     0.074 A 
ATOM     51  C   UNL A   1      43.940  26.647  30.347  1.00  0.00     0.029 A 
ATOM     52  N   UNL A   1      42.514  28.072  31.287  1.00  0.00    -0.354 N 
ATOM     53  N   UNL A   1      41.513  29.804  33.474  1.00  0.00    -0.248 NA
ATOM     54  C   UNL A   1      41.737  30.681  35.626  1.00  0.00     0.031 C 
ATOM     55  C   UNL A   1      44.384  26.927  31.646  1.00  0.00     0.029 A 
ATOM     56  C   UNL A   1      43.508  27.834  32.223  1.00  0.00     0.049 A 
ATOM     57  H   UNL A   1      41.740  28.665  31.425  1.00  0.00     0.167 HD
ATOM     58  C   UNL A   1      42.682  29.320  34.038  1.00  0.00     0.074 A 
ATOM     59  C   UNL A   1      42.787  29.921  35.353  1.00  0.00     0.031 C 
ATOM     60  C   UNL A   1      43.580  28.442  33.525  1.00  0.00     0.037 A 
BRANCH  47  61
ATOM     61  C   UNL A   1      42.362  26.591  27.750  1.00  0.00     0.064 A 
ATOM     62  C   UNL A   1      43.271  27.097  26.810  1.00  0.00     0.173 A 
ATOM     63  C   UNL A   1      41.859  25.297  27.546  1.00  0.00     0.173 A 
ATOM     64  F   UNL A   1      43.766  28.336  26.950  1.00  0.00    -0.203 F 
ATOM     65  C   UNL A   1      43.643  26.346  25.697  1.00  0.00     0.198 A 
ATOM     66  C   UNL A   1      42.251  24.540  26.445  1.00  0.00     0.198 A 
ATOM     67  F   UNL A   1      40.987  24.765  28.415  1.00  0.00    -0.203 F 
ATOM     68  F   UNL A   1      44.480  26.867  24.788  1.00  0.00    -0.200 F 
ATOM     69  C   UNL A   1      43.137  25.067  25.517  1.00  0.00     0.200 A 
ATOM     70  F   UNL A   1      41.767  23.301  26.277  1.00  0.00    -0.200 F 
ATOM     71  F   UNL A   1      43.498  24.346  24.447  1.00  0.00    -0.200 F 
ENDBRANCH  47  61
BRANCH  48  72
ATOM     72  C   UNL A   1      39.200  32.159  35.462  1.00  0.00     0.064 A 
ATOM     73  C   UNL A   1      38.435  31.581  36.484  1.00  0.00     0.173 A 
ATOM     74  C   UNL A   1      39.515  33.522  35.574  1.00  0.00     0.173 A 
ATOM     75  F   UNL A   1      38.091  30.287  36.412  1.00  0.00    -0.203 F 
ATOM     76  C   UNL A   1      37.997  32.337  37.570  1.00  0.00     0.198 A 
ATOM     77  C   UNL A   1      39.102  34.269  36.675  1.00  0.00     0.198 A 
ATOM     78  F   UNL A   1      40.249  34.122  34.626  1.00  0.00    -0.203 F 
ATOM     79  F   UNL A   1      37.236  31.768  38.515  1.00  0.00    -0.200 F 
ATOM     80  C   UNL A   1      38.338  33.677  37.669  1.00  0.00     0.200 A 
ATOM     81  F   UNL A   1      39.451  35.559  36.776  1.00  0.00    -0.200 F 
ATOM     82  F   UNL A   1      37.927  34.400  38.720  1.00  0.00    -0.200 F 
ENDBRANCH  48  72
BRANCH  60  83
ATOM     83  C   UNL A   1      44.748  28.098  34.397  1.00  0.00     0.064 A 
ATOM     84  C   UNL A   1      45.944  28.828  34.334  1.00  0.00     0.173 A 
ATOM     85  C   UNL A   1      44.668  27.033  35.306  1.00  0.00     0.173 A 
ATOM     86  F   UNL A   1      46.071  29.842  33.465  1.00  0.00    -0.203 F 
ATOM     87  C   UNL A   1      47.032  28.484  35.130  1.00  0.00     0.198 A 
ATOM     88  C   UNL A   1      45.750  26.708  36.118  1.00  0.00     0.198 A 
ATOM     89  F   UNL A   1      43.543  26.310  35.402  1.00  0.00    -0.203 F 
ATOM     90  F   UNL A   1      48.183  29.160  35.018  1.00  0.00    -0.200 F 
ATOM     91  C   UNL A   1      46.933  27.427  36.024  1.00  0.00     0.200 A 
ATOM     92  F   UNL A   1      45.653  25.689  36.983  1.00  0.00    -0.200 F 
ATOM     93  F   UNL A   1      47.983  27.093  36.786  1.00  0.00    -0.200 F 
ENDBRANCH  60  83
ENDBRANCH  34  35
ENDBRANCH  27  29
ENDBRANCH  26  27
ENDBRANCH  25  26
ENDBRANCH   1  25
TORSDOF 16
ENDMDL
