MODEL 1
REMARK VINA RESULT:     -10.9      0.000      0.000
REMARK SMILES CC(C)n1ccc(C#CC(=O)OCCOC(=O)c2ccc(-c3c4nc(c(-c5c(F)c(F)c(F)c(F)c5F)c5ccc([nH]5)c(-c5c(F)c(F)c(F)c(F)c5F)c5nc(c(-c6c(F)c(F)c(F)c(F)c6F)c6ccc3[nH]6)C=C5)C=C4)cc2)n1
REMARK SMILES IDX 13 1 12 2 10 3 11 4 9 5 8 6 7 7 4 8 5 9 81 10 6 11 2 12 1 13
REMARK SMILES IDX 3 14 14 15 15 16 16 17 17 18 18 19 19 20 80 21 20 22 79 23
REMARK SMILES IDX 21 24 22 25 23 26 73 27 24 28 78 29 72 30 74 31 25 32 77 33
REMARK SMILES IDX 71 34 70 35 26 37 58 38 38 39 57 40 39 41 42 42 56 43 75 44
REMARK SMILES IDX 40 45 41 46 55 48 76 49 43 50 27 51 28 52 36 53 29 54 30 55
REMARK SMILES IDX 34 56 37 57 31 58 32 59 35 60 33 61 59 62 60 63 68 64 61 65
REMARK SMILES IDX 62 66 66 67 69 68 63 69 64 70 67 71 65 72 44 73 45 74 53 75
REMARK SMILES IDX 46 76 47 77 51 78 54 79 48 80 49 81 52 82 50 83
REMARK H PARENT 74 36 42 47
REMARK Flexibility Score: inf
ROOT
ATOM      1  C   UNL A   1      42.308  19.291  25.909  1.00  0.00     0.275 C 
ENDROOT
BRANCH   1   2
ATOM      2  O   UNL A   1      42.254  19.641  27.301  1.00  0.00    -0.452 OA
BRANCH   2   3
ATOM      3  C   UNL A   1      42.039  20.960  27.564  1.00  0.00     0.384 C 
ATOM      4  O   UNL A   1      42.774  21.699  28.201  1.00  0.00    -0.236 OA
BRANCH   3   5
ATOM      5  C   UNL A   1      40.827  21.456  26.968  1.00  0.00     0.024 C 
ATOM      6  C   UNL A   1      39.823  21.881  26.471  1.00  0.00    -0.033 C 
BRANCH   6   7
ATOM      7  C   UNL A   1      38.597  22.427  25.993  1.00  0.00     0.135 A 
ATOM      8  N   UNL A   1      36.757  22.554  24.970  1.00  0.00    -0.269 N 
ATOM      9  C   UNL A   1      36.952  23.800  25.508  1.00  0.00     0.110 A 
ATOM     10  N   UNL A   1      37.768  21.697  25.241  1.00  0.00    -0.164 NA
ATOM     11  C   UNL A   1      38.141  23.740  26.191  1.00  0.00     0.059 A 
BRANCH   8  12
ATOM     12  C   UNL A   1      35.624  22.167  24.133  1.00  0.00     0.101 C 
ATOM     13  C   UNL A   1      34.664  21.256  24.894  1.00  0.00     0.033 C 
ATOM     14  C   UNL A   1      34.892  23.358  23.515  1.00  0.00     0.033 C 
ENDBRANCH   8  12
ENDBRANCH   6   7
ENDBRANCH   3   5
ENDBRANCH   2   3
ENDBRANCH   1   2
BRANCH   1  15
ATOM     15  C   UNL A   1      43.720  18.904  25.496  1.00  0.00     0.275 C 
BRANCH  15  16
ATOM     16  O   UNL A   1      44.611  20.020  25.541  1.00  0.00    -0.458 OA
BRANCH  16  17
ATOM     17  C   UNL A   1      44.541  20.840  24.467  1.00  0.00     0.338 C 
ATOM     18  O   UNL A   1      44.690  20.536  23.295  1.00  0.00    -0.246 OA
BRANCH  17  19
ATOM     19  C   UNL A   1      44.538  22.230  24.929  1.00  0.00     0.060 A 
ATOM     20  C   UNL A   1      45.456  22.593  25.918  1.00  0.00     0.016 A 
ATOM     21  C   UNL A   1      43.452  23.051  24.592  1.00  0.00     0.016 A 
ATOM     22  C   UNL A   1      45.198  23.719  26.674  1.00  0.00     0.010 A 
ATOM     23  C   UNL A   1      43.183  24.156  25.361  1.00  0.00     0.010 A 
ATOM     24  C   UNL A   1      44.024  24.445  26.433  1.00  0.00    -0.014 A 
BRANCH  24  25
ATOM     25  C   UNL A   1      43.784  25.662  27.185  1.00  0.00     0.031 A 
ATOM     26  C   UNL A   1      44.787  26.702  26.853  1.00  0.00     0.074 A 
ATOM     27  C   UNL A   1      42.692  25.848  27.953  1.00  0.00     0.049 A 
ATOM     28  N   UNL A   1      45.691  27.192  27.632  1.00  0.00    -0.248 NA
ATOM     29  C   UNL A   1      44.941  27.096  25.439  1.00  0.00     0.031 C 
ATOM     30  C   UNL A   1      41.541  24.955  28.110  1.00  0.00     0.029 A 
ATOM     31  N   UNL A   1      42.333  26.931  28.700  1.00  0.00    -0.354 N 
ATOM     32  C   UNL A   1      46.375  28.127  26.863  1.00  0.00     0.074 A 
ATOM     33  C   UNL A   1      46.029  27.864  25.494  1.00  0.00     0.031 C 
ATOM     34  C   UNL A   1      40.528  25.624  28.708  1.00  0.00     0.029 A 
ATOM     35  C   UNL A   1      40.996  26.943  29.095  1.00  0.00     0.049 A 
ATOM     36  H   UNL A   1      42.966  27.645  28.941  1.00  0.00     0.167 HD
ATOM     37  C   UNL A   1      46.888  29.240  27.452  1.00  0.00     0.037 A 
ATOM     38  C   UNL A   1      40.327  27.992  29.645  1.00  0.00     0.037 A 
ATOM     39  C   UNL A   1      47.057  29.025  28.870  1.00  0.00     0.049 A 
ATOM     40  C   UNL A   1      41.347  28.929  30.178  1.00  0.00     0.074 A 
ATOM     41  C   UNL A   1      47.785  28.148  29.651  1.00  0.00     0.029 A 
ATOM     42  N   UNL A   1      46.086  29.542  29.688  1.00  0.00    -0.354 N 
ATOM     43  N   UNL A   1      42.112  28.661  31.197  1.00  0.00    -0.248 NA
ATOM     44  C   UNL A   1      41.826  29.973  29.289  1.00  0.00     0.031 C 
ATOM     45  C   UNL A   1      46.948  27.860  30.772  1.00  0.00     0.029 A 
ATOM     46  C   UNL A   1      45.790  28.630  30.664  1.00  0.00     0.049 A 
ATOM     47  H   UNL A   1      45.669  30.428  29.588  1.00  0.00     0.167 HD
ATOM     48  C   UNL A   1      43.357  29.148  30.830  1.00  0.00     0.074 A 
ATOM     49  C   UNL A   1      43.097  30.029  29.693  1.00  0.00     0.031 C 
ATOM     50  C   UNL A   1      44.493  28.550  31.296  1.00  0.00     0.037 A 
BRANCH  37  51
ATOM     51  C   UNL A   1      46.747  30.627  26.856  1.00  0.00     0.064 A 
ATOM     52  C   UNL A   1      47.868  31.481  26.873  1.00  0.00     0.173 A 
ATOM     53  C   UNL A   1      45.514  31.261  26.578  1.00  0.00     0.173 A 
ATOM     54  F   UNL A   1      49.089  30.998  27.149  1.00  0.00    -0.203 F 
ATOM     55  C   UNL A   1      47.747  32.865  26.718  1.00  0.00     0.198 A 
ATOM     56  C   UNL A   1      45.405  32.635  26.372  1.00  0.00     0.198 A 
ATOM     57  F   UNL A   1      44.343  30.617  26.604  1.00  0.00    -0.203 F 
ATOM     58  F   UNL A   1      48.822  33.647  26.884  1.00  0.00    -0.200 F 
ATOM     59  C   UNL A   1      46.515  33.442  26.475  1.00  0.00     0.200 A 
ATOM     60  F   UNL A   1      44.196  33.174  26.161  1.00  0.00    -0.200 F 
ATOM     61  F   UNL A   1      46.386  34.772  26.394  1.00  0.00    -0.200 F 
ENDBRANCH  37  51
BRANCH  38  62
ATOM     62  C   UNL A   1      38.918  28.422  29.443  1.00  0.00     0.064 A 
ATOM     63  C   UNL A   1      38.063  28.644  30.540  1.00  0.00     0.173 A 
ATOM     64  C   UNL A   1      38.478  28.923  28.204  1.00  0.00     0.173 A 
ATOM     65  F   UNL A   1      38.424  28.246  31.769  1.00  0.00    -0.203 F 
ATOM     66  C   UNL A   1      36.860  29.349  30.408  1.00  0.00     0.198 A 
ATOM     67  C   UNL A   1      37.275  29.623  28.073  1.00  0.00     0.198 A 
ATOM     68  F   UNL A   1      39.252  28.834  27.114  1.00  0.00    -0.203 F 
ATOM     69  F   UNL A   1      36.109  29.600  31.490  1.00  0.00    -0.200 F 
ATOM     70  C   UNL A   1      36.474  29.850  29.178  1.00  0.00     0.200 A 
ATOM     71  F   UNL A   1      36.933  30.138  26.883  1.00  0.00    -0.200 F 
ATOM     72  F   UNL A   1      35.358  30.583  29.062  1.00  0.00    -0.200 F 
ENDBRANCH  38  62
BRANCH  50  73
ATOM     73  C   UNL A   1      44.350  27.596  32.451  1.00  0.00     0.064 A 
ATOM     74  C   UNL A   1      44.134  26.210  32.328  1.00  0.00     0.173 A 
ATOM     75  C   UNL A   1      44.535  28.103  33.743  1.00  0.00     0.173 A 
ATOM     76  F   UNL A   1      44.044  25.628  31.125  1.00  0.00    -0.203 F 
ATOM     77  C   UNL A   1      44.053  25.389  33.453  1.00  0.00     0.198 A 
ATOM     78  C   UNL A   1      44.495  27.276  34.861  1.00  0.00     0.198 A 
ATOM     79  F   UNL A   1      44.793  29.408  33.921  1.00  0.00    -0.203 F 
ATOM     80  F   UNL A   1      43.819  24.075  33.313  1.00  0.00    -0.200 F 
ATOM     81  C   UNL A   1      44.239  25.923  34.718  1.00  0.00     0.200 A 
ATOM     82  F   UNL A   1      44.724  27.790  36.077  1.00  0.00    -0.200 F 
ATOM     83  F   UNL A   1      44.193  25.130  35.797  1.00  0.00    -0.200 F 
ENDBRANCH  50  73
ENDBRANCH  24  25
ENDBRANCH  17  19
ENDBRANCH  16  17
ENDBRANCH  15  16
ENDBRANCH   1  15
TORSDOF 13
ENDMDL
MODEL 2
REMARK VINA RESULT:     -10.7      2.495      4.615
REMARK SMILES CC(C)n1ccc(C#CC(=O)OCCOC(=O)c2ccc(-c3c4nc(c(-c5c(F)c(F)c(F)c(F)c5F)c5ccc([nH]5)c(-c5c(F)c(F)c(F)c(F)c5F)c5nc(c(-c6c(F)c(F)c(F)c(F)c6F)c6ccc3[nH]6)C=C5)C=C4)cc2)n1
REMARK SMILES IDX 13 1 12 2 10 3 11 4 9 5 8 6 7 7 4 8 5 9 81 10 6 11 2 12 1 13
REMARK SMILES IDX 3 14 14 15 15 16 16 17 17 18 18 19 19 20 80 21 20 22 79 23
REMARK SMILES IDX 21 24 22 25 23 26 73 27 24 28 78 29 72 30 74 31 25 32 77 33
REMARK SMILES IDX 71 34 70 35 26 37 58 38 38 39 57 40 39 41 42 42 56 43 75 44
REMARK SMILES IDX 40 45 41 46 55 48 76 49 43 50 27 51 28 52 36 53 29 54 30 55
REMARK SMILES IDX 34 56 37 57 31 58 32 59 35 60 33 61 59 62 60 63 68 64 61 65
REMARK SMILES IDX 62 66 66 67 69 68 63 69 64 70 67 71 65 72 44 73 45 74 53 75
REMARK SMILES IDX 46 76 47 77 51 78 54 79 48 80 49 81 52 82 50 83
REMARK H PARENT 74 36 42 47
REMARK Flexibility Score: inf
ROOT
ATOM      1  C   UNL A   1      42.304  19.258  26.390  1.00  0.00     0.275 C 
ENDROOT
BRANCH   1   2
ATOM      2  O   UNL A   1      42.855  18.824  25.136  1.00  0.00    -0.452 OA
BRANCH   2   3
ATOM      3  C   UNL A   1      44.203  18.968  25.010  1.00  0.00     0.384 C 
ATOM      4  O   UNL A   1      45.006  18.078  24.771  1.00  0.00    -0.236 OA
BRANCH   3   5
ATOM      5  C   UNL A   1      44.633  20.334  25.151  1.00  0.00     0.024 C 
ATOM      6  C   UNL A   1      44.978  21.475  25.270  1.00  0.00    -0.033 C 
BRANCH   6   7
ATOM      7  C   UNL A   1      45.358  22.847  25.293  1.00  0.00     0.135 A 
ATOM      8  N   UNL A   1      46.425  24.593  25.803  1.00  0.00    -0.269 N 
ATOM      9  C   UNL A   1      45.403  25.024  24.998  1.00  0.00     0.110 A 
ATOM     10  N   UNL A   1      46.406  23.257  26.013  1.00  0.00    -0.164 NA
ATOM     11  C   UNL A   1      44.698  23.902  24.641  1.00  0.00     0.059 A 
BRANCH   8  12
ATOM     12  C   UNL A   1      47.415  25.458  26.441  1.00  0.00     0.101 C 
ATOM     13  C   UNL A   1      47.262  26.905  25.977  1.00  0.00     0.033 C 
ATOM     14  C   UNL A   1      47.416  25.358  27.965  1.00  0.00     0.033 C 
ENDBRANCH   8  12
ENDBRANCH   6   7
ENDBRANCH   3   5
ENDBRANCH   2   3
ENDBRANCH   1   2
BRANCH   1  15
ATOM     15  C   UNL A   1      40.939  19.900  26.195  1.00  0.00     0.275 C 
BRANCH  15  16
ATOM     16  O   UNL A   1      41.012  21.326  26.241  1.00  0.00    -0.458 OA
BRANCH  16  17
ATOM     17  C   UNL A   1      39.813  21.949  26.322  1.00  0.00     0.338 C 
ATOM     18  O   UNL A   1      38.835  21.762  25.618  1.00  0.00    -0.246 OA
BRANCH  17  19
ATOM     19  C   UNL A   1      39.937  23.107  27.210  1.00  0.00     0.060 A 
ATOM     20  C   UNL A   1      39.033  24.159  27.044  1.00  0.00     0.016 A 
ATOM     21  C   UNL A   1      41.106  23.251  27.971  1.00  0.00     0.016 A 
ATOM     22  C   UNL A   1      39.377  25.406  27.527  1.00  0.00     0.010 A 
ATOM     23  C   UNL A   1      41.460  24.497  28.427  1.00  0.00     0.010 A 
ATOM     24  C   UNL A   1      40.622  25.574  28.148  1.00  0.00    -0.014 A 
BRANCH  24  25
ATOM     25  C   UNL A   1      40.957  26.869  28.709  1.00  0.00     0.031 A 
ATOM     26  C   UNL A   1      42.207  27.402  28.115  1.00  0.00     0.074 A 
ATOM     27  C   UNL A   1      40.137  27.544  29.538  1.00  0.00     0.049 A 
ATOM     28  N   UNL A   1      43.334  27.598  28.712  1.00  0.00    -0.248 NA
ATOM     29  C   UNL A   1      42.278  27.542  26.648  1.00  0.00     0.031 C 
ATOM     30  C   UNL A   1      38.778  27.182  29.950  1.00  0.00     0.029 A 
ATOM     31  N   UNL A   1      40.313  28.761  30.129  1.00  0.00    -0.354 N 
ATOM     32  C   UNL A   1      44.185  28.106  27.738  1.00  0.00     0.074 A 
ATOM     33  C   UNL A   1      43.565  27.838  26.471  1.00  0.00     0.031 C 
ATOM     34  C   UNL A   1      38.180  28.251  30.526  1.00  0.00     0.029 A 
ATOM     35  C   UNL A   1      39.147  29.327  30.643  1.00  0.00     0.049 A 
ATOM     36  H   UNL A   1      41.190  29.203  30.186  1.00  0.00     0.167 HD
ATOM     37  C   UNL A   1      45.150  28.999  28.084  1.00  0.00     0.037 A 
ATOM     38  C   UNL A   1      38.996  30.609  31.075  1.00  0.00     0.037 A 
ATOM     39  C   UNL A   1      45.442  28.902  29.495  1.00  0.00     0.049 A 
ATOM     40  C   UNL A   1      40.354  31.141  31.346  1.00  0.00     0.074 A 
ATOM     41  C   UNL A   1      45.911  27.911  30.334  1.00  0.00     0.029 A 
ATOM     42  N   UNL A   1      44.860  29.841  30.306  1.00  0.00    -0.354 N 
ATOM     43  N   UNL A   1      41.114  30.722  32.316  1.00  0.00    -0.248 NA
ATOM     44  C   UNL A   1      41.039  31.813  30.256  1.00  0.00     0.031 C 
ATOM     45  C   UNL A   1      45.206  28.095  31.563  1.00  0.00     0.029 A 
ATOM     46  C   UNL A   1      44.405  29.230  31.443  1.00  0.00     0.049 A 
ATOM     47  H   UNL A   1      44.783  30.801  30.104  1.00  0.00     0.167 HD
ATOM     48  C   UNL A   1      42.381  30.651  31.756  1.00  0.00     0.074 A 
ATOM     49  C   UNL A   1      42.289  31.427  30.521  1.00  0.00     0.031 C 
ATOM     50  C   UNL A   1      43.279  29.724  32.202  1.00  0.00     0.037 A 
BRANCH  37  51
ATOM     51  C   UNL A   1      45.433  30.257  27.285  1.00  0.00     0.064 A 
ATOM     52  C   UNL A   1      46.775  30.654  27.113  1.00  0.00     0.173 A 
ATOM     53  C   UNL A   1      44.470  31.244  26.970  1.00  0.00     0.173 A 
ATOM     54  F   UNL A   1      47.777  29.810  27.402  1.00  0.00    -0.203 F 
ATOM     55  C   UNL A   1      47.120  31.958  26.748  1.00  0.00     0.198 A 
ATOM     56  C   UNL A   1      44.819  32.528  26.556  1.00  0.00     0.198 A 
ATOM     57  F   UNL A   1      43.159  31.064  27.153  1.00  0.00    -0.203 F 
ATOM     58  F   UNL A   1      48.409  32.324  26.737  1.00  0.00    -0.200 F 
ATOM     59  C   UNL A   1      46.142  32.897  26.478  1.00  0.00     0.200 A 
ATOM     60  F   UNL A   1      43.852  33.427  26.322  1.00  0.00    -0.200 F 
ATOM     61  F   UNL A   1      46.469  34.163  26.195  1.00  0.00    -0.200 F 
ENDBRANCH  37  51
BRANCH  38  62
ATOM     62  C   UNL A   1      37.825  31.516  30.943  1.00  0.00     0.064 A 
ATOM     63  C   UNL A   1      37.386  31.952  29.678  1.00  0.00     0.173 A 
ATOM     64  C   UNL A   1      36.934  31.719  32.012  1.00  0.00     0.173 A 
ATOM     65  F   UNL A   1      38.149  31.754  28.592  1.00  0.00    -0.203 F 
ATOM     66  C   UNL A   1      36.122  32.525  29.493  1.00  0.00     0.198 A 
ATOM     67  C   UNL A   1      35.674  32.295  31.826  1.00  0.00     0.198 A 
ATOM     68  F   UNL A   1      37.223  31.270  33.241  1.00  0.00    -0.203 F 
ATOM     69  F   UNL A   1      35.713  32.863  28.261  1.00  0.00    -0.200 F 
ATOM     70  C   UNL A   1      35.262  32.684  30.565  1.00  0.00     0.200 A 
ATOM     71  F   UNL A   1      34.835  32.405  32.866  1.00  0.00    -0.200 F 
ATOM     72  F   UNL A   1      34.026  33.169  30.380  1.00  0.00    -0.200 F 
ENDBRANCH  38  62
BRANCH  50  73
ATOM     73  C   UNL A   1      42.975  29.037  33.506  1.00  0.00     0.064 A 
ATOM     74  C   UNL A   1      42.177  27.885  33.642  1.00  0.00     0.173 A 
ATOM     75  C   UNL A   1      43.605  29.521  34.660  1.00  0.00     0.173 A 
ATOM     76  F   UNL A   1      41.619  27.300  32.575  1.00  0.00    -0.203 F 
ATOM     77  C   UNL A   1      41.979  27.287  34.887  1.00  0.00     0.198 A 
ATOM     78  C   UNL A   1      43.440  28.899  35.893  1.00  0.00     0.198 A 
ATOM     79  F   UNL A   1      44.417  30.587  34.585  1.00  0.00    -0.203 F 
ATOM     80  F   UNL A   1      41.193  26.206  34.998  1.00  0.00    -0.200 F 
ATOM     81  C   UNL A   1      42.615  27.792  36.010  1.00  0.00     0.200 A 
ATOM     82  F   UNL A   1      44.095  29.362  36.965  1.00  0.00    -0.200 F 
ATOM     83  F   UNL A   1      42.451  27.199  37.201  1.00  0.00    -0.200 F 
ENDBRANCH  50  73
ENDBRANCH  24  25
ENDBRANCH  17  19
ENDBRANCH  16  17
ENDBRANCH  15  16
ENDBRANCH   1  15
TORSDOF 13
ENDMDL
MODEL 3
REMARK VINA RESULT:     -10.6      5.170     10.933
REMARK SMILES CC(C)n1ccc(C#CC(=O)OCCOC(=O)c2ccc(-c3c4nc(c(-c5c(F)c(F)c(F)c(F)c5F)c5ccc([nH]5)c(-c5c(F)c(F)c(F)c(F)c5F)c5nc(c(-c6c(F)c(F)c(F)c(F)c6F)c6ccc3[nH]6)C=C5)C=C4)cc2)n1
REMARK SMILES IDX 13 1 12 2 10 3 11 4 9 5 8 6 7 7 4 8 5 9 81 10 6 11 2 12 1 13
REMARK SMILES IDX 3 14 14 15 15 16 16 17 17 18 18 19 19 20 80 21 20 22 79 23
REMARK SMILES IDX 21 24 22 25 23 26 73 27 24 28 78 29 72 30 74 31 25 32 77 33
REMARK SMILES IDX 71 34 70 35 26 37 58 38 38 39 57 40 39 41 42 42 56 43 75 44
REMARK SMILES IDX 40 45 41 46 55 48 76 49 43 50 27 51 28 52 36 53 29 54 30 55
REMARK SMILES IDX 34 56 37 57 31 58 32 59 35 60 33 61 59 62 60 63 68 64 61 65
REMARK SMILES IDX 62 66 66 67 69 68 63 69 64 70 67 71 65 72 44 73 45 74 53 75
REMARK SMILES IDX 46 76 47 77 51 78 54 79 48 80 49 81 52 82 50 83
REMARK H PARENT 74 36 42 47
REMARK Flexibility Score: inf
ROOT
ATOM      1  C   UNL A   1      33.283  36.230  29.620  1.00  0.00     0.275 C 
ENDROOT
BRANCH   1   2
ATOM      2  O   UNL A   1      32.579  36.257  30.872  1.00  0.00    -0.452 OA
BRANCH   2   3
ATOM      3  C   UNL A   1      33.257  36.817  31.912  1.00  0.00     0.384 C 
ATOM      4  O   UNL A   1      33.054  37.919  32.397  1.00  0.00    -0.236 OA
BRANCH   3   5
ATOM      5  C   UNL A   1      34.267  35.945  32.451  1.00  0.00     0.024 C 
ATOM      6  C   UNL A   1      35.115  35.230  32.903  1.00  0.00    -0.033 C 
BRANCH   6   7
ATOM      7  C   UNL A   1      36.184  34.393  33.334  1.00  0.00     0.135 A 
ATOM      8  N   UNL A   1      38.149  33.774  33.785  1.00  0.00    -0.269 N 
ATOM      9  C   UNL A   1      37.369  32.667  33.999  1.00  0.00     0.110 A 
ATOM     10  N   UNL A   1      37.442  34.844  33.357  1.00  0.00    -0.164 NA
ATOM     11  C   UNL A   1      36.080  33.048  33.723  1.00  0.00     0.059 A 
BRANCH   8  12
ATOM     12  C   UNL A   1      39.601  33.820  33.931  1.00  0.00     0.101 C 
ATOM     13  C   UNL A   1      40.277  34.151  32.602  1.00  0.00     0.033 C 
ATOM     14  C   UNL A   1      40.071  34.755  35.044  1.00  0.00     0.033 C 
ENDBRANCH   8  12
ENDBRANCH   6   7
ENDBRANCH   3   5
ENDBRANCH   2   3
ENDBRANCH   1   2
BRANCH   1  15
ATOM     15  C   UNL A   1      33.361  34.815  29.065  1.00  0.00     0.275 C 
BRANCH  15  16
ATOM     16  O   UNL A   1      34.674  34.269  29.189  1.00  0.00    -0.458 OA
BRANCH  16  17
ATOM     17  C   UNL A   1      34.745  33.133  29.922  1.00  0.00     0.338 C 
ATOM     18  O   UNL A   1      34.029  32.811  30.855  1.00  0.00    -0.246 OA
BRANCH  17  19
ATOM     19  C   UNL A   1      36.003  32.447  29.618  1.00  0.00     0.060 A 
ATOM     20  C   UNL A   1      35.958  31.071  29.380  1.00  0.00     0.016 A 
ATOM     21  C   UNL A   1      37.211  33.115  29.864  1.00  0.00     0.016 A 
ATOM     22  C   UNL A   1      37.117  30.337  29.534  1.00  0.00     0.010 A 
ATOM     23  C   UNL A   1      38.358  32.381  30.042  1.00  0.00     0.010 A 
ATOM     24  C   UNL A   1      38.288  30.994  29.936  1.00  0.00    -0.014 A 
BRANCH  24  25
ATOM     25  C   UNL A   1      39.519  30.235  30.038  1.00  0.00     0.031 A 
ATOM     26  C   UNL A   1      39.968  30.127  31.447  1.00  0.00     0.074 A 
ATOM     27  C   UNL A   1      40.071  29.588  28.991  1.00  0.00     0.049 A 
ATOM     28  N   UNL A   1      41.028  30.643  31.971  1.00  0.00    -0.248 NA
ATOM     29  C   UNL A   1      39.031  29.557  32.435  1.00  0.00     0.031 C 
ATOM     30  C   UNL A   1      39.531  29.444  27.637  1.00  0.00     0.029 A 
ATOM     31  N   UNL A   1      41.207  28.834  28.941  1.00  0.00    -0.354 N 
ATOM     32  C   UNL A   1      41.003  30.261  33.307  1.00  0.00     0.074 A 
ATOM     33  C   UNL A   1      39.670  29.802  33.578  1.00  0.00     0.031 C 
ATOM     34  C   UNL A   1      40.212  28.478  26.978  1.00  0.00     0.029 A 
ATOM     35  C   UNL A   1      41.314  28.027  27.809  1.00  0.00     0.049 A 
ATOM     36  H   UNL A   1      41.894  28.858  29.645  1.00  0.00     0.167 HD
ATOM     37  C   UNL A   1      42.171  30.038  33.966  1.00  0.00     0.037 A 
ATOM     38  C   UNL A   1      42.217  27.027  27.614  1.00  0.00     0.037 A 
ATOM     39  C   UNL A   1      43.261  30.710  33.299  1.00  0.00     0.049 A 
ATOM     40  C   UNL A   1      43.330  27.252  28.569  1.00  0.00     0.074 A 
ATOM     41  C   UNL A   1      43.564  32.022  32.989  1.00  0.00     0.029 A 
ATOM     42  N   UNL A   1      44.051  29.939  32.486  1.00  0.00    -0.354 N 
ATOM     43  N   UNL A   1      44.161  28.251  28.488  1.00  0.00    -0.248 NA
ATOM     44  C   UNL A   1      43.230  26.622  29.874  1.00  0.00     0.031 C 
ATOM     45  C   UNL A   1      44.199  31.969  31.711  1.00  0.00     0.029 A 
ATOM     46  C   UNL A   1      44.324  30.631  31.339  1.00  0.00     0.049 A 
ATOM     47  H   UNL A   1      44.370  29.031  32.696  1.00  0.00     0.167 HD
ATOM     48  C   UNL A   1      44.327  28.669  29.799  1.00  0.00     0.074 A 
ATOM     49  C   UNL A   1      43.810  27.571  30.613  1.00  0.00     0.031 C 
ATOM     50  C   UNL A   1      44.587  29.982  30.074  1.00  0.00     0.037 A 
BRANCH  37  51
ATOM     51  C   UNL A   1      42.393  28.839  34.868  1.00  0.00     0.064 A 
ATOM     52  C   UNL A   1      43.094  29.029  36.076  1.00  0.00     0.173 A 
ATOM     53  C   UNL A   1      42.246  27.491  34.465  1.00  0.00     0.173 A 
ATOM     54  F   UNL A   1      43.316  30.266  36.548  1.00  0.00    -0.203 F 
ATOM     55  C   UNL A   1      43.679  27.965  36.768  1.00  0.00     0.198 A 
ATOM     56  C   UNL A   1      42.787  26.429  35.187  1.00  0.00     0.198 A 
ATOM     57  F   UNL A   1      41.682  27.137  33.307  1.00  0.00    -0.203 F 
ATOM     58  F   UNL A   1      44.455  28.213  37.832  1.00  0.00    -0.200 F 
ATOM     59  C   UNL A   1      43.532  26.667  36.319  1.00  0.00     0.200 A 
ATOM     60  F   UNL A   1      42.651  25.180  34.717  1.00  0.00    -0.200 F 
ATOM     61  F   UNL A   1      44.148  25.654  36.941  1.00  0.00    -0.200 F 
ENDBRANCH  37  51
BRANCH  38  62
ATOM     62  C   UNL A   1      42.040  25.718  26.932  1.00  0.00     0.064 A 
ATOM     63  C   UNL A   1      42.861  25.348  25.849  1.00  0.00     0.173 A 
ATOM     64  C   UNL A   1      41.286  24.685  27.519  1.00  0.00     0.173 A 
ATOM     65  F   UNL A   1      43.652  26.257  25.260  1.00  0.00    -0.203 F 
ATOM     66  C   UNL A   1      42.943  24.023  25.404  1.00  0.00     0.198 A 
ATOM     67  C   UNL A   1      41.367  23.363  27.071  1.00  0.00     0.198 A 
ATOM     68  F   UNL A   1      40.535  24.915  28.604  1.00  0.00    -0.203 F 
ATOM     69  F   UNL A   1      43.789  23.700  24.415  1.00  0.00    -0.200 F 
ATOM     70  C   UNL A   1      42.207  23.030  26.024  1.00  0.00     0.200 A 
ATOM     71  F   UNL A   1      40.679  22.404  27.707  1.00  0.00    -0.200 F 
ATOM     72  F   UNL A   1      42.335  21.751  25.645  1.00  0.00    -0.200 F 
ENDBRANCH  38  62
BRANCH  50  73
ATOM     73  C   UNL A   1      45.012  30.859  28.927  1.00  0.00     0.064 A 
ATOM     74  C   UNL A   1      44.131  31.502  28.036  1.00  0.00     0.173 A 
ATOM     75  C   UNL A   1      46.378  31.133  28.787  1.00  0.00     0.173 A 
ATOM     76  F   UNL A   1      42.804  31.372  28.161  1.00  0.00    -0.203 F 
ATOM     77  C   UNL A   1      44.609  32.332  27.022  1.00  0.00     0.198 A 
ATOM     78  C   UNL A   1      46.849  31.994  27.802  1.00  0.00     0.198 A 
ATOM     79  F   UNL A   1      47.262  30.588  29.638  1.00  0.00    -0.203 F 
ATOM     80  F   UNL A   1      43.753  32.912  26.168  1.00  0.00    -0.200 F 
ATOM     81  C   UNL A   1      45.967  32.581  26.910  1.00  0.00     0.200 A 
ATOM     82  F   UNL A   1      48.158  32.269  27.729  1.00  0.00    -0.200 F 
ATOM     83  F   UNL A   1      46.425  33.404  25.955  1.00  0.00    -0.200 F 
ENDBRANCH  50  73
ENDBRANCH  24  25
ENDBRANCH  17  19
ENDBRANCH  16  17
ENDBRANCH  15  16
ENDBRANCH   1  15
TORSDOF 13
ENDMDL
