MODEL 1
REMARK VINA RESULT:     -11.9      0.000      0.000
REMARK SMILES COCCNC(=O)c1cccc(NC(=O)[C@@H]2CCCC[C@H]2C(=O)OCCOC(=O)c2ccc(-c3c4nc(c(-c5c(F)c(F)c(F)c(F)c5F)c5ccc([nH]5)c(-c5c(F)c(F)c(F)c(F)c5F)c5nc(c(-c6c(F)c(F)c(F)c(F)c6F)c6ccc3[nH]6)C=C5)C=C4)cc2)c1
REMARK SMILES IDX 22 1 23 2 21 3 16 4 17 5 18 6 20 7 19 8 14 9 13 10 15 12
REMARK SMILES IDX 12 13 8 14 9 15 93 16 10 17 11 18 6 19 5 20 7 22 4 23 3 24
REMARK SMILES IDX 2 25 1 26 24 27 25 28 26 29 27 30 28 31 29 32 30 33 31 34
REMARK SMILES IDX 92 35 32 36 91 37 33 38 34 39 35 40 85 41 36 42 90 43 84 44
REMARK SMILES IDX 86 45 37 46 89 47 83 48 82 49 38 51 70 52 50 53 69 54 51 55
REMARK SMILES IDX 54 56 68 57 87 58 52 59 53 60 67 62 88 63 55 64 39 65 40 66
REMARK SMILES IDX 48 67 41 68 42 69 46 70 49 71 43 72 44 73 47 74 45 75 71 76
REMARK SMILES IDX 72 77 80 78 73 79 74 80 78 81 81 82 75 83 76 84 79 85 77 86
REMARK SMILES IDX 56 87 57 88 65 89 58 90 59 91 63 92 66 93 60 94 61 95 64 96
REMARK SMILES IDX 62 97
REMARK H PARENT 13 11 5 21 86 50 54 61
REMARK Flexibility Score: inf
ROOT
ATOM      1  C   UNL A   1      33.187  27.258  25.603  1.00  0.00     0.309 C 
ATOM      2  O   UNL A   1      34.048  27.306  26.477  1.00  0.00    -0.252 OA
ENDROOT
BRANCH   1   3
ATOM      3  C   UNL A   1      33.063  26.058  24.688  1.00  0.00     0.111 C 
ATOM      4  C   UNL A   1      32.059  24.941  25.036  1.00  0.00     0.093 C 
ATOM      5  C   UNL A   1      32.224  23.812  23.984  1.00  0.00     0.014 C 
ATOM      6  C   UNL A   1      32.025  24.311  22.554  1.00  0.00     0.001 C 
ATOM      7  C   UNL A   1      32.784  26.601  23.278  1.00  0.00     0.016 C 
ATOM      8  C   UNL A   1      32.920  25.504  22.232  1.00  0.00     0.001 C 
BRANCH   4   9
ATOM      9  C   UNL A   1      32.313  24.329  26.409  1.00  0.00     0.228 C 
ATOM     10  N   UNL A   1      33.448  23.686  26.793  1.00  0.00    -0.326 N 
ATOM     11  H   UNL A   1      33.425  23.456  27.750  1.00  0.00     0.169 HD
ATOM     12  O   UNL A   1      31.404  24.364  27.251  1.00  0.00    -0.274 OA
BRANCH  10  13
ATOM     13  C   UNL A   1      34.647  23.259  26.189  1.00  0.00     0.041 A 
ATOM     14  C   UNL A   1      35.791  21.310  25.232  1.00  0.00     0.041 A 
ATOM     15  C   UNL A   1      36.717  22.172  24.633  1.00  0.00     0.014 A 
ATOM     16  C   UNL A   1      34.804  21.860  26.058  1.00  0.00     0.040 A 
ATOM     17  C   UNL A   1      36.655  23.544  24.868  1.00  0.00     0.003 A 
ATOM     18  C   UNL A   1      35.629  24.081  25.650  1.00  0.00     0.026 A 
BRANCH  14  19
ATOM     19  C   UNL A   1      35.980  19.851  25.001  1.00  0.00     0.251 C 
ATOM     20  N   UNL A   1      34.957  18.960  24.798  1.00  0.00    -0.350 N 
ATOM     21  H   UNL A   1      35.250  18.021  24.790  1.00  0.00     0.163 HD
ATOM     22  O   UNL A   1      37.130  19.411  24.967  1.00  0.00    -0.269 OA
BRANCH  20  23
ATOM     23  C   UNL A   1      33.526  19.123  24.592  1.00  0.00     0.144 C 
BRANCH  23  24
ATOM     24  C   UNL A   1      32.749  17.810  24.451  1.00  0.00     0.181 C 
BRANCH  24  25
ATOM     25  O   UNL A   1      32.772  17.011  25.635  1.00  0.00    -0.383 OA
ATOM     26  C   UNL A   1      32.786  15.614  25.387  1.00  0.00     0.194 C 
ENDBRANCH  24  25
ENDBRANCH  23  24
ENDBRANCH  20  23
ENDBRANCH  14  19
ENDBRANCH  10  13
ENDBRANCH   4   9
ENDBRANCH   1   3
BRANCH   1  27
ATOM     27  O   UNL A   1      32.339  28.268  25.312  1.00  0.00    -0.462 OA
BRANCH  27  28
ATOM     28  C   UNL A   1      31.715  28.889  26.453  1.00  0.00     0.274 C 
BRANCH  28  29
ATOM     29  C   UNL A   1      31.832  30.412  26.416  1.00  0.00     0.275 C 
BRANCH  29  30
ATOM     30  O   UNL A   1      33.207  30.826  26.409  1.00  0.00    -0.458 OA
BRANCH  30  31
ATOM     31  C   UNL A   1      33.548  31.792  27.288  1.00  0.00     0.338 C 
ATOM     32  O   UNL A   1      33.007  32.861  27.498  1.00  0.00    -0.246 OA
BRANCH  31  33
ATOM     33  C   UNL A   1      34.761  31.421  28.001  1.00  0.00     0.060 A 
ATOM     34  C   UNL A   1      35.781  32.359  28.149  1.00  0.00     0.016 A 
ATOM     35  C   UNL A   1      34.920  30.096  28.403  1.00  0.00     0.016 A 
ATOM     36  C   UNL A   1      36.977  31.979  28.732  1.00  0.00     0.010 A 
ATOM     37  C   UNL A   1      36.104  29.724  29.025  1.00  0.00     0.010 A 
ATOM     38  C   UNL A   1      37.127  30.668  29.199  1.00  0.00    -0.014 A 
BRANCH  38  39
ATOM     39  C   UNL A   1      38.334  30.300  29.956  1.00  0.00     0.031 A 
ATOM     40  C   UNL A   1      39.322  29.346  29.376  1.00  0.00     0.074 A 
ATOM     41  C   UNL A   1      38.474  30.811  31.191  1.00  0.00     0.049 A 
ATOM     42  N   UNL A   1      40.356  28.787  29.946  1.00  0.00    -0.248 NA
ATOM     43  C   UNL A   1      39.117  28.956  27.972  1.00  0.00     0.031 C 
ATOM     44  C   UNL A   1      37.553  31.765  31.815  1.00  0.00     0.029 A 
ATOM     45  N   UNL A   1      39.429  30.593  32.145  1.00  0.00    -0.354 N 
ATOM     46  C   UNL A   1      40.913  27.961  28.982  1.00  0.00     0.074 A 
ATOM     47  C   UNL A   1      40.099  28.083  27.792  1.00  0.00     0.031 C 
ATOM     48  C   UNL A   1      37.988  32.049  33.051  1.00  0.00     0.029 A 
ATOM     49  C   UNL A   1      39.180  31.255  33.320  1.00  0.00     0.049 A 
ATOM     50  H   UNL A   1      40.215  30.017  32.003  1.00  0.00     0.167 HD
ATOM     51  C   UNL A   1      42.008  27.174  29.099  1.00  0.00     0.037 A 
ATOM     52  C   UNL A   1      39.830  31.196  34.495  1.00  0.00     0.037 A 
ATOM     53  C   UNL A   1      42.799  27.081  30.299  1.00  0.00     0.049 A 
ATOM     54  C   UNL A   1      41.026  30.296  34.601  1.00  0.00     0.074 A 
ATOM     55  C   UNL A   1      43.933  26.325  30.534  1.00  0.00     0.029 A 
ATOM     56  N   UNL A   1      42.530  27.776  31.472  1.00  0.00    -0.354 N 
ATOM     57  N   UNL A   1      41.550  29.513  33.689  1.00  0.00    -0.248 NA
ATOM     58  C   UNL A   1      41.717  30.267  35.893  1.00  0.00     0.031 C 
ATOM     59  C   UNL A   1      44.330  26.536  31.859  1.00  0.00     0.029 A 
ATOM     60  C   UNL A   1      43.468  27.455  32.439  1.00  0.00     0.049 A 
ATOM     61  H   UNL A   1      41.782  28.403  31.598  1.00  0.00     0.167 HD
ATOM     62  C   UNL A   1      42.641  28.906  34.289  1.00  0.00     0.074 A 
ATOM     63  C   UNL A   1      42.713  29.429  35.641  1.00  0.00     0.031 C 
ATOM     64  C   UNL A   1      43.504  27.996  33.775  1.00  0.00     0.037 A 
BRANCH  51  65
ATOM     65  C   UNL A   1      42.388  26.335  27.916  1.00  0.00     0.064 A 
ATOM     66  C   UNL A   1      41.804  25.081  27.680  1.00  0.00     0.173 A 
ATOM     67  C   UNL A   1      43.337  26.800  26.992  1.00  0.00     0.173 A 
ATOM     68  F   UNL A   1      40.904  24.584  28.541  1.00  0.00    -0.203 F 
ATOM     69  C   UNL A   1      42.171  24.316  26.576  1.00  0.00     0.198 A 
ATOM     70  C   UNL A   1      43.684  26.043  25.877  1.00  0.00     0.198 A 
ATOM     71  F   UNL A   1      43.927  27.992  27.172  1.00  0.00    -0.203 F 
ATOM     72  F   UNL A   1      41.630  23.103  26.393  1.00  0.00    -0.200 F 
ATOM     73  C   UNL A   1      43.106  24.800  25.672  1.00  0.00     0.200 A 
ATOM     74  F   UNL A   1      44.582  26.515  25.001  1.00  0.00    -0.200 F 
ATOM     75  F   UNL A   1      43.454  24.064  24.608  1.00  0.00    -0.200 F 
ENDBRANCH  51  65
BRANCH  52  76
ATOM     76  C   UNL A   1      39.347  32.003  35.643  1.00  0.00     0.064 A 
ATOM     77  C   UNL A   1      38.414  31.479  36.545  1.00  0.00     0.173 A 
ATOM     78  C   UNL A   1      39.841  33.294  35.886  1.00  0.00     0.173 A 
ATOM     79  F   UNL A   1      37.905  30.255  36.346  1.00  0.00    -0.203 F 
ATOM     80  C   UNL A   1      37.983  32.220  37.643  1.00  0.00     0.198 A 
ATOM     81  C   UNL A   1      39.428  34.024  36.998  1.00  0.00     0.198 A 
ATOM     82  F   UNL A   1      40.744  33.836  35.056  1.00  0.00    -0.203 F 
ATOM     83  F   UNL A   1      37.065  31.709  38.475  1.00  0.00    -0.200 F 
ATOM     84  C   UNL A   1      38.496  33.488  37.872  1.00  0.00     0.200 A 
ATOM     85  F   UNL A   1      39.940  35.241  37.226  1.00  0.00    -0.200 F 
ATOM     86  F   UNL A   1      38.088  34.195  38.936  1.00  0.00    -0.200 F 
ENDBRANCH  52  76
BRANCH  64  87
ATOM     87  C   UNL A   1      44.606  27.535  34.678  1.00  0.00     0.064 A 
ATOM     88  C   UNL A   1      45.835  28.208  34.735  1.00  0.00     0.173 A 
ATOM     89  C   UNL A   1      44.420  26.422  35.510  1.00  0.00     0.173 A 
ATOM     90  F   UNL A   1      46.063  29.265  33.942  1.00  0.00    -0.203 F 
ATOM     91  C   UNL A   1      46.849  27.767  35.579  1.00  0.00     0.198 A 
ATOM     92  C   UNL A   1      45.427  25.999  36.371  1.00  0.00     0.198 A 
ATOM     93  F   UNL A   1      43.259  25.749  35.490  1.00  0.00    -0.203 F 
ATOM     94  F   UNL A   1      48.033  28.395  35.586  1.00  0.00    -0.200 F 
ATOM     95  C   UNL A   1      46.643  26.667  36.400  1.00  0.00     0.200 A 
ATOM     96  F   UNL A   1      45.224  24.942  37.169  1.00  0.00    -0.200 F 
ATOM     97  F   UNL A   1      47.620  26.245  37.213  1.00  0.00    -0.200 F 
ENDBRANCH  64  87
ENDBRANCH  38  39
ENDBRANCH  31  33
ENDBRANCH  30  31
ENDBRANCH  29  30
ENDBRANCH  28  29
ENDBRANCH  27  28
ENDBRANCH   1  27
TORSDOF 17
ENDMDL
MODEL 2
REMARK VINA RESULT:     -11.8      2.590      5.094
REMARK SMILES COCCNC(=O)c1cccc(NC(=O)[C@@H]2CCCC[C@H]2C(=O)OCCOC(=O)c2ccc(-c3c4nc(c(-c5c(F)c(F)c(F)c(F)c5F)c5ccc([nH]5)c(-c5c(F)c(F)c(F)c(F)c5F)c5nc(c(-c6c(F)c(F)c(F)c(F)c6F)c6ccc3[nH]6)C=C5)C=C4)cc2)c1
REMARK SMILES IDX 22 1 23 2 21 3 16 4 17 5 18 6 20 7 19 8 14 9 13 10 15 12
REMARK SMILES IDX 12 13 8 14 9 15 93 16 10 17 11 18 6 19 5 20 7 22 4 23 3 24
REMARK SMILES IDX 2 25 1 26 24 27 25 28 26 29 27 30 28 31 29 32 30 33 31 34
REMARK SMILES IDX 92 35 32 36 91 37 33 38 34 39 35 40 85 41 36 42 90 43 84 44
REMARK SMILES IDX 86 45 37 46 89 47 83 48 82 49 38 51 70 52 50 53 69 54 51 55
REMARK SMILES IDX 54 56 68 57 87 58 52 59 53 60 67 62 88 63 55 64 39 65 40 66
REMARK SMILES IDX 48 67 41 68 42 69 46 70 49 71 43 72 44 73 47 74 45 75 71 76
REMARK SMILES IDX 72 77 80 78 73 79 74 80 78 81 81 82 75 83 76 84 79 85 77 86
REMARK SMILES IDX 56 87 57 88 65 89 58 90 59 91 63 92 66 93 60 94 61 95 64 96
REMARK SMILES IDX 62 97
REMARK H PARENT 13 11 5 21 86 50 54 61
REMARK Flexibility Score: inf
ROOT
ATOM      1  C   UNL A   1      33.418  28.272  25.499  1.00  0.00     0.309 C 
ATOM      2  O   UNL A   1      34.440  28.952  25.483  1.00  0.00    -0.252 OA
ENDROOT
BRANCH   1   3
ATOM      3  C   UNL A   1      33.399  26.869  24.930  1.00  0.00     0.111 C 
ATOM      4  C   UNL A   1      34.017  26.606  23.542  1.00  0.00     0.093 C 
ATOM      5  C   UNL A   1      33.764  25.117  23.187  1.00  0.00     0.014 C 
ATOM      6  C   UNL A   1      34.329  24.161  24.235  1.00  0.00     0.001 C 
ATOM      7  C   UNL A   1      34.048  25.955  25.980  1.00  0.00     0.016 C 
ATOM      8  C   UNL A   1      33.830  24.488  25.639  1.00  0.00     0.001 C 
BRANCH   4   9
ATOM      9  C   UNL A   1      33.381  27.454  22.446  1.00  0.00     0.228 C 
ATOM     10  N   UNL A   1      32.055  27.738  22.330  1.00  0.00    -0.326 N 
ATOM     11  H   UNL A   1      31.887  28.377  21.602  1.00  0.00     0.169 HD
ATOM     12  O   UNL A   1      34.105  27.894  21.541  1.00  0.00    -0.274 OA
BRANCH  10  13
ATOM     13  C   UNL A   1      30.860  27.362  22.974  1.00  0.00     0.041 A 
ATOM     14  C   UNL A   1      28.488  27.941  23.229  1.00  0.00     0.041 A 
ATOM     15  C   UNL A   1      28.258  26.674  23.775  1.00  0.00     0.014 A 
ATOM     16  C   UNL A   1      29.801  28.295  22.894  1.00  0.00     0.040 A 
ATOM     17  C   UNL A   1      29.319  25.795  23.987  1.00  0.00     0.003 A 
ATOM     18  C   UNL A   1      30.614  26.144  23.595  1.00  0.00     0.026 A 
BRANCH  14  19
ATOM     19  C   UNL A   1      27.315  28.852  23.117  1.00  0.00     0.251 C 
ATOM     20  N   UNL A   1      27.366  30.119  22.596  1.00  0.00    -0.350 N 
ATOM     21  H   UNL A   1      26.531  30.626  22.714  1.00  0.00     0.163 HD
ATOM     22  O   UNL A   1      26.220  28.437  23.496  1.00  0.00    -0.269 OA
BRANCH  20  23
ATOM     23  C   UNL A   1      28.403  30.865  21.901  1.00  0.00     0.144 C 
BRANCH  23  24
ATOM     24  C   UNL A   1      28.609  32.295  22.411  1.00  0.00     0.181 C 
BRANCH  24  25
ATOM     25  O   UNL A   1      27.934  33.278  21.623  1.00  0.00    -0.383 OA
ATOM     26  C   UNL A   1      27.676  32.868  20.289  1.00  0.00     0.194 C 
ENDBRANCH  24  25
ENDBRANCH  23  24
ENDBRANCH  20  23
ENDBRANCH  14  19
ENDBRANCH  10  13
ENDBRANCH   4   9
ENDBRANCH   1   3
BRANCH   1  27
ATOM     27  O   UNL A   1      32.216  28.711  25.933  1.00  0.00    -0.462 OA
BRANCH  27  28
ATOM     28  C   UNL A   1      31.806  29.988  25.404  1.00  0.00     0.274 C 
BRANCH  28  29
ATOM     29  C   UNL A   1      31.790  31.078  26.475  1.00  0.00     0.275 C 
BRANCH  29  30
ATOM     30  O   UNL A   1      32.884  30.918  27.393  1.00  0.00    -0.458 OA
BRANCH  30  31
ATOM     31  C   UNL A   1      33.709  31.977  27.534  1.00  0.00     0.338 C 
ATOM     32  O   UNL A   1      33.556  33.121  27.152  1.00  0.00    -0.246 OA
BRANCH  31  33
ATOM     33  C   UNL A   1      34.933  31.578  28.210  1.00  0.00     0.060 A 
ATOM     34  C   UNL A   1      36.000  32.471  28.277  1.00  0.00     0.016 A 
ATOM     35  C   UNL A   1      35.048  30.264  28.661  1.00  0.00     0.016 A 
ATOM     36  C   UNL A   1      37.202  32.057  28.825  1.00  0.00     0.010 A 
ATOM     37  C   UNL A   1      36.240  29.860  29.249  1.00  0.00     0.010 A 
ATOM     38  C   UNL A   1      37.312  30.761  29.341  1.00  0.00    -0.014 A 
BRANCH  38  39
ATOM     39  C   UNL A   1      38.532  30.366  30.061  1.00  0.00     0.031 A 
ATOM     40  C   UNL A   1      39.494  29.409  29.442  1.00  0.00     0.074 A 
ATOM     41  C   UNL A   1      38.708  30.856  31.301  1.00  0.00     0.049 A 
ATOM     42  N   UNL A   1      40.534  28.830  29.978  1.00  0.00    -0.248 NA
ATOM     43  C   UNL A   1      39.250  29.045  28.038  1.00  0.00     0.031 C 
ATOM     44  C   UNL A   1      37.814  31.810  31.963  1.00  0.00     0.029 A 
ATOM     45  N   UNL A   1      39.683  30.610  32.228  1.00  0.00    -0.354 N 
ATOM     46  C   UNL A   1      41.058  28.013  28.988  1.00  0.00     0.074 A 
ATOM     47  C   UNL A   1      40.216  28.163  27.820  1.00  0.00     0.031 C 
ATOM     48  C   UNL A   1      38.282  32.069  33.191  1.00  0.00     0.029 A 
ATOM     49  C   UNL A   1      39.471  31.256  33.419  1.00  0.00     0.049 A 
ATOM     50  H   UNL A   1      40.458  30.028  32.057  1.00  0.00     0.167 HD
ATOM     51  C   UNL A   1      42.145  27.210  29.065  1.00  0.00     0.037 A 
ATOM     52  C   UNL A   1      40.149  31.171  34.577  1.00  0.00     0.037 A 
ATOM     53  C   UNL A   1      42.964  27.088  30.244  1.00  0.00     0.049 A 
ATOM     54  C   UNL A   1      41.335  30.255  34.638  1.00  0.00     0.074 A 
ATOM     55  C   UNL A   1      44.094  26.315  30.439  1.00  0.00     0.029 A 
ATOM     56  N   UNL A   1      42.732  27.768  31.435  1.00  0.00    -0.354 N 
ATOM     57  N   UNL A   1      41.828  29.480  33.702  1.00  0.00    -0.248 NA
ATOM     58  C   UNL A   1      42.058  30.197  35.913  1.00  0.00     0.031 C 
ATOM     59  C   UNL A   1      44.526  26.500  31.757  1.00  0.00     0.029 A 
ATOM     60  C   UNL A   1      43.689  27.420  32.373  1.00  0.00     0.049 A 
ATOM     61  H   UNL A   1      41.995  28.402  31.588  1.00  0.00     0.167 HD
ATOM     62  C   UNL A   1      42.926  28.850  34.265  1.00  0.00     0.074 A 
ATOM     63  C   UNL A   1      43.036  29.351  35.623  1.00  0.00     0.031 C 
ATOM     64  C   UNL A   1      43.765  27.939  33.715  1.00  0.00     0.037 A 
BRANCH  51  65
ATOM     65  C   UNL A   1      42.486  26.386  27.860  1.00  0.00     0.064 A 
ATOM     66  C   UNL A   1      43.430  26.813  26.915  1.00  0.00     0.173 A 
ATOM     67  C   UNL A   1      41.873  25.140  27.657  1.00  0.00     0.173 A 
ATOM     68  F   UNL A   1      44.032  28.003  27.053  1.00  0.00    -0.203 F 
ATOM     69  C   UNL A   1      43.733  26.034  25.801  1.00  0.00     0.198 A 
ATOM     70  C   UNL A   1      42.194  24.353  26.556  1.00  0.00     0.198 A 
ATOM     71  F   UNL A   1      40.961  24.685  28.531  1.00  0.00    -0.203 F 
ATOM     72  F   UNL A   1      44.608  26.480  24.890  1.00  0.00    -0.200 F 
ATOM     73  C   UNL A   1      43.119  24.802  25.625  1.00  0.00     0.200 A 
ATOM     74  F   UNL A   1      41.607  23.159  26.391  1.00  0.00    -0.200 F 
ATOM     75  F   UNL A   1      43.415  24.051  24.556  1.00  0.00    -0.200 F 
ENDBRANCH  51  65
BRANCH  52  76
ATOM     76  C   UNL A   1      39.704  31.964  35.748  1.00  0.00     0.064 A 
ATOM     77  C   UNL A   1      40.294  33.199  36.043  1.00  0.00     0.173 A 
ATOM     78  C   UNL A   1      38.653  31.527  36.569  1.00  0.00     0.173 A 
ATOM     79  F   UNL A   1      41.311  33.651  35.295  1.00  0.00    -0.203 F 
ATOM     80  C   UNL A   1      39.857  33.964  37.123  1.00  0.00     0.198 A 
ATOM     81  C   UNL A   1      38.200  32.305  37.632  1.00  0.00     0.198 A 
ATOM     82  F   UNL A   1      38.049  30.356  36.321  1.00  0.00    -0.203 F 
ATOM     83  F   UNL A   1      40.459  35.127  37.404  1.00  0.00    -0.200 F 
ATOM     84  C   UNL A   1      38.806  33.519  37.911  1.00  0.00     0.200 A 
ATOM     85  F   UNL A   1      37.172  31.880  38.379  1.00  0.00    -0.200 F 
ATOM     86  F   UNL A   1      38.379  34.262  38.942  1.00  0.00    -0.200 F 
ENDBRANCH  52  76
BRANCH  64  87
ATOM     87  C   UNL A   1      44.882  27.450  34.584  1.00  0.00     0.064 A 
ATOM     88  C   UNL A   1      46.122  28.104  34.618  1.00  0.00     0.173 A 
ATOM     89  C   UNL A   1      44.701  26.329  35.407  1.00  0.00     0.173 A 
ATOM     90  F   UNL A   1      46.346  29.168  33.832  1.00  0.00    -0.203 F 
ATOM     91  C   UNL A   1      47.151  27.637  35.429  1.00  0.00     0.198 A 
ATOM     92  C   UNL A   1      45.723  25.880  36.236  1.00  0.00     0.198 A 
ATOM     93  F   UNL A   1      43.530  25.673  35.409  1.00  0.00    -0.203 F 
ATOM     94  F   UNL A   1      48.344  28.248  35.414  1.00  0.00    -0.200 F 
ATOM     95  C   UNL A   1      46.949  26.530  36.242  1.00  0.00     0.200 A 
ATOM     96  F   UNL A   1      45.525  24.816  37.026  1.00  0.00    -0.200 F 
ATOM     97  F   UNL A   1      47.941  26.083  37.023  1.00  0.00    -0.200 F 
ENDBRANCH  64  87
ENDBRANCH  38  39
ENDBRANCH  31  33
ENDBRANCH  30  31
ENDBRANCH  29  30
ENDBRANCH  28  29
ENDBRANCH  27  28
ENDBRANCH   1  27
TORSDOF 17
ENDMDL
MODEL 3
REMARK VINA RESULT:     -11.4      1.997      3.538
REMARK SMILES COCCNC(=O)c1cccc(NC(=O)[C@@H]2CCCC[C@H]2C(=O)OCCOC(=O)c2ccc(-c3c4nc(c(-c5c(F)c(F)c(F)c(F)c5F)c5ccc([nH]5)c(-c5c(F)c(F)c(F)c(F)c5F)c5nc(c(-c6c(F)c(F)c(F)c(F)c6F)c6ccc3[nH]6)C=C5)C=C4)cc2)c1
REMARK SMILES IDX 22 1 23 2 21 3 16 4 17 5 18 6 20 7 19 8 14 9 13 10 15 12
REMARK SMILES IDX 12 13 8 14 9 15 93 16 10 17 11 18 6 19 5 20 7 22 4 23 3 24
REMARK SMILES IDX 2 25 1 26 24 27 25 28 26 29 27 30 28 31 29 32 30 33 31 34
REMARK SMILES IDX 92 35 32 36 91 37 33 38 34 39 35 40 85 41 36 42 90 43 84 44
REMARK SMILES IDX 86 45 37 46 89 47 83 48 82 49 38 51 70 52 50 53 69 54 51 55
REMARK SMILES IDX 54 56 68 57 87 58 52 59 53 60 67 62 88 63 55 64 39 65 40 66
REMARK SMILES IDX 48 67 41 68 42 69 46 70 49 71 43 72 44 73 47 74 45 75 71 76
REMARK SMILES IDX 72 77 80 78 73 79 74 80 78 81 81 82 75 83 76 84 79 85 77 86
REMARK SMILES IDX 56 87 57 88 65 89 58 90 59 91 63 92 66 93 60 94 61 95 64 96
REMARK SMILES IDX 62 97
REMARK H PARENT 13 11 5 21 86 50 54 61
REMARK Flexibility Score: inf
ROOT
ATOM      1  C   UNL A   1      31.777  29.219  26.008  1.00  0.00     0.309 C 
ATOM      2  O   UNL A   1      31.486  28.575  27.012  1.00  0.00    -0.252 OA
ENDROOT
BRANCH   1   3
ATOM      3  C   UNL A   1      32.268  28.533  24.750  1.00  0.00     0.111 C 
ATOM      4  C   UNL A   1      31.445  28.653  23.452  1.00  0.00     0.093 C 
ATOM      5  C   UNL A   1      32.135  27.776  22.373  1.00  0.00     0.014 C 
ATOM      6  C   UNL A   1      33.593  28.169  22.144  1.00  0.00     0.001 C 
ATOM      7  C   UNL A   1      33.707  29.017  24.513  1.00  0.00     0.016 C 
ATOM      8  C   UNL A   1      34.394  28.183  23.442  1.00  0.00     0.001 C 
BRANCH   4   9
ATOM      9  C   UNL A   1      30.017  28.145  23.611  1.00  0.00     0.228 C 
ATOM     10  N   UNL A   1      29.657  26.863  23.887  1.00  0.00    -0.326 N 
ATOM     11  H   UNL A   1      28.688  26.785  24.037  1.00  0.00     0.169 HD
ATOM     12  O   UNL A   1      29.082  28.938  23.431  1.00  0.00    -0.274 OA
BRANCH  10  13
ATOM     13  C   UNL A   1      30.300  25.615  24.015  1.00  0.00     0.041 A 
ATOM     14  C   UNL A   1      30.778  23.792  25.587  1.00  0.00     0.041 A 
ATOM     15  C   UNL A   1      31.129  22.978  24.505  1.00  0.00     0.014 A 
ATOM     16  C   UNL A   1      30.430  25.124  25.335  1.00  0.00     0.040 A 
ATOM     17  C   UNL A   1      31.138  23.493  23.210  1.00  0.00     0.003 A 
ATOM     18  C   UNL A   1      30.734  24.809  22.970  1.00  0.00     0.026 A 
BRANCH  14  19
ATOM     19  C   UNL A   1      30.879  23.191  26.946  1.00  0.00     0.251 C 
ATOM     20  N   UNL A   1      32.052  22.789  27.530  1.00  0.00    -0.350 N 
ATOM     21  H   UNL A   1      31.923  22.299  28.374  1.00  0.00     0.163 HD
ATOM     22  O   UNL A   1      29.845  23.064  27.603  1.00  0.00    -0.269 OA
BRANCH  20  23
ATOM     23  C   UNL A   1      33.450  22.942  27.156  1.00  0.00     0.144 C 
BRANCH  23  24
ATOM     24  C   UNL A   1      34.299  21.679  27.338  1.00  0.00     0.181 C 
BRANCH  24  25
ATOM     25  O   UNL A   1      35.146  21.404  26.221  1.00  0.00    -0.383 OA
ATOM     26  C   UNL A   1      34.524  21.605  24.962  1.00  0.00     0.194 C 
ENDBRANCH  24  25
ENDBRANCH  23  24
ENDBRANCH  20  23
ENDBRANCH  14  19
ENDBRANCH  10  13
ENDBRANCH   4   9
ENDBRANCH   1   3
BRANCH   1  27
ATOM     27  O   UNL A   1      31.775  30.568  25.939  1.00  0.00    -0.462 OA
BRANCH  27  28
ATOM     28  C   UNL A   1      32.313  31.239  27.096  1.00  0.00     0.274 C 
BRANCH  28  29
ATOM     29  C   UNL A   1      31.796  32.672  27.224  1.00  0.00     0.275 C 
BRANCH  29  30
ATOM     30  O   UNL A   1      32.875  33.618  27.166  1.00  0.00    -0.458 OA
BRANCH  30  31
ATOM     31  C   UNL A   1      33.140  34.297  28.302  1.00  0.00     0.338 C 
ATOM     32  O   UNL A   1      32.555  35.253  28.776  1.00  0.00    -0.246 OA
BRANCH  31  33
ATOM     33  C   UNL A   1      34.325  33.757  28.949  1.00  0.00     0.060 A 
ATOM     34  C   UNL A   1      34.183  32.780  29.932  1.00  0.00     0.016 A 
ATOM     35  C   UNL A   1      35.563  34.328  28.657  1.00  0.00     0.016 A 
ATOM     36  C   UNL A   1      35.299  32.342  30.624  1.00  0.00     0.010 A 
ATOM     37  C   UNL A   1      36.689  33.859  29.321  1.00  0.00     0.010 A 
ATOM     38  C   UNL A   1      36.557  32.859  30.296  1.00  0.00    -0.014 A 
BRANCH  38  39
ATOM     39  C   UNL A   1      37.762  32.288  30.917  1.00  0.00     0.031 A 
ATOM     40  C   UNL A   1      38.526  31.211  30.225  1.00  0.00     0.074 A 
ATOM     41  C   UNL A   1      38.104  32.735  32.138  1.00  0.00     0.049 A 
ATOM     42  N   UNL A   1      39.513  30.484  30.677  1.00  0.00    -0.248 NA
ATOM     43  C   UNL A   1      38.122  30.898  28.845  1.00  0.00     0.031 C 
ATOM     44  C   UNL A   1      37.411  33.800  32.868  1.00  0.00     0.029 A 
ATOM     45  N   UNL A   1      39.105  32.345  32.984  1.00  0.00    -0.354 N 
ATOM     46  C   UNL A   1      39.834  29.611  29.649  1.00  0.00     0.074 A 
ATOM     47  C   UNL A   1      38.932  29.891  28.552  1.00  0.00     0.031 C 
ATOM     48  C   UNL A   1      38.007  33.978  34.055  1.00  0.00     0.029 A 
ATOM     49  C   UNL A   1      39.083  33.003  34.187  1.00  0.00     0.049 A 
ATOM     50  H   UNL A   1      39.774  31.661  32.753  1.00  0.00     0.167 HD
ATOM     51  C   UNL A   1      40.799  28.662  29.641  1.00  0.00     0.037 A 
ATOM     52  C   UNL A   1      39.831  32.811  35.288  1.00  0.00     0.037 A 
ATOM     53  C   UNL A   1      41.684  28.413  30.750  1.00  0.00     0.049 A 
ATOM     54  C   UNL A   1      40.876  31.736  35.255  1.00  0.00     0.074 A 
ATOM     55  C   UNL A   1      42.704  27.486  30.855  1.00  0.00     0.029 A 
ATOM     56  N   UNL A   1      41.646  29.107  31.954  1.00  0.00    -0.354 N 
ATOM     57  N   UNL A   1      41.178  30.908  34.284  1.00  0.00    -0.248 NA
ATOM     58  C   UNL A   1      41.682  31.564  36.468  1.00  0.00     0.031 C 
ATOM     59  C   UNL A   1      43.262  27.595  32.135  1.00  0.00     0.029 A 
ATOM     60  C   UNL A   1      42.616  28.618  32.813  1.00  0.00     0.049 A 
ATOM     61  H   UNL A   1      41.021  29.838  32.166  1.00  0.00     0.167 HD
ATOM     62  C   UNL A   1      42.216  30.124  34.758  1.00  0.00     0.074 A 
ATOM     63  C   UNL A   1      42.504  30.591  36.102  1.00  0.00     0.031 C 
ATOM     64  C   UNL A   1      42.871  29.108  34.145  1.00  0.00     0.037 A 
BRANCH  51  65
ATOM     65  C   UNL A   1      40.923  27.809  28.413  1.00  0.00     0.064 A 
ATOM     66  C   UNL A   1      40.246  26.587  28.291  1.00  0.00     0.173 A 
ATOM     67  C   UNL A   1      41.714  28.231  27.334  1.00  0.00     0.173 A 
ATOM     68  F   UNL A   1      39.490  26.130  29.301  1.00  0.00    -0.203 F 
ATOM     69  C   UNL A   1      40.374  25.808  27.144  1.00  0.00     0.198 A 
ATOM     70  C   UNL A   1      41.822  27.462  26.179  1.00  0.00     0.198 A 
ATOM     71  F   UNL A   1      42.384  29.392  27.400  1.00  0.00    -0.203 F 
ATOM     72  F   UNL A   1      39.751  24.624  27.066  1.00  0.00    -0.200 F 
ATOM     73  C   UNL A   1      41.156  26.248  26.086  1.00  0.00     0.200 A 
ATOM     74  F   UNL A   1      42.571  27.893  25.155  1.00  0.00    -0.200 F 
ATOM     75  F   UNL A   1      41.274  25.500  24.981  1.00  0.00    -0.200 F 
ENDBRANCH  51  65
BRANCH  52  76
ATOM     76  C   UNL A   1      39.598  33.649  36.489  1.00  0.00     0.064 A 
ATOM     77  C   UNL A   1      40.185  34.914  36.606  1.00  0.00     0.173 A 
ATOM     78  C   UNL A   1      38.751  33.221  37.524  1.00  0.00     0.173 A 
ATOM     79  F   UNL A   1      41.012  35.360  35.649  1.00  0.00    -0.203 F 
ATOM     80  C   UNL A   1      39.942  35.718  37.718  1.00  0.00     0.198 A 
ATOM     81  C   UNL A   1      38.489  34.036  38.622  1.00  0.00     0.198 A 
ATOM     82  F   UNL A   1      38.157  32.020  37.454  1.00  0.00    -0.203 F 
ATOM     83  F   UNL A   1      40.541  36.913  37.821  1.00  0.00    -0.200 F 
ATOM     84  C   UNL A   1      39.089  35.281  38.720  1.00  0.00     0.200 A 
ATOM     85  F   UNL A   1      37.650  33.618  39.579  1.00  0.00    -0.200 F 
ATOM     86  F   UNL A   1      38.848  36.062  39.784  1.00  0.00    -0.200 F 
ENDBRANCH  52  76
BRANCH  64  87
ATOM     87  C   UNL A   1      43.973  28.457  34.922  1.00  0.00     0.064 A 
ATOM     88  C   UNL A   1      43.719  27.393  35.799  1.00  0.00     0.173 A 
ATOM     89  C   UNL A   1      45.297  28.891  34.772  1.00  0.00     0.173 A 
ATOM     90  F   UNL A   1      42.464  26.960  35.989  1.00  0.00    -0.203 F 
ATOM     91  C   UNL A   1      44.752  26.799  36.515  1.00  0.00     0.198 A 
ATOM     92  C   UNL A   1      46.332  28.278  35.471  1.00  0.00     0.198 A 
ATOM     93  F   UNL A   1      45.587  29.905  33.943  1.00  0.00    -0.203 F 
ATOM     94  F   UNL A   1      44.484  25.813  37.382  1.00  0.00    -0.200 F 
ATOM     95  C   UNL A   1      46.059  27.237  36.346  1.00  0.00     0.200 A 
ATOM     96  F   UNL A   1      47.593  28.697  35.301  1.00  0.00    -0.200 F 
ATOM     97  F   UNL A   1      47.053  26.663  37.037  1.00  0.00    -0.200 F 
ENDBRANCH  64  87
ENDBRANCH  38  39
ENDBRANCH  31  33
ENDBRANCH  30  31
ENDBRANCH  29  30
ENDBRANCH  28  29
ENDBRANCH  27  28
ENDBRANCH   1  27
TORSDOF 17
ENDMDL
