MODEL 1
REMARK VINA RESULT:     -11.5      0.000      0.000
REMARK SMILES CCOc1cc(C=O)ccc1OCc1ccc(C(=O)OCCOC(=O)c2ccc(-c3c4nc(c(-c5c(F)c(F)c(F)c(F)c5F)c5ccc([nH]5)c(-c5c(F)c(F)c(F)c(F)c5F)c5nc(c(-c6c(F)c(F)c(F)c(F)c6F)c6ccc3[nH]6)C=C5)C=C4)cc2)cc1
REMARK SMILES IDX 20 1 18 2 19 3 17 4 14 5 15 6 90 7 16 8 89 9 13 10 12 11
REMARK SMILES IDX 11 12 4 13 5 14 6 15 10 16 9 17 3 18 2 19 1 20 7 21 8 22
REMARK SMILES IDX 21 23 22 24 23 25 24 26 25 27 26 28 27 29 88 30 28 31 87 32
REMARK SMILES IDX 29 33 30 34 31 35 81 36 32 37 86 38 80 39 82 40 33 41 85 42
REMARK SMILES IDX 79 43 78 44 34 46 66 47 46 48 65 49 47 50 50 51 64 52 83 53
REMARK SMILES IDX 48 54 49 55 63 57 84 58 51 59 35 60 36 61 44 62 37 63 38 64
REMARK SMILES IDX 42 65 45 66 39 67 40 68 43 69 41 70 67 71 68 72 76 73 69 74
REMARK SMILES IDX 70 75 74 76 77 77 71 78 72 79 75 80 73 81 52 82 53 83 61 84
REMARK SMILES IDX 54 85 55 86 59 87 62 88 56 89 57 90 60 91 58 92
REMARK H PARENT 82 45 50 56
REMARK Flexibility Score: inf
ROOT
ATOM      1  O   UNL A   1      31.559  29.059  23.261  1.00  0.00    -0.458 OA
ENDROOT
BRANCH   1   2
ATOM      2  C   UNL A   1      30.740  28.162  22.658  1.00  0.00     0.338 C 
ATOM      3  O   UNL A   1      29.705  28.421  22.058  1.00  0.00    -0.246 OA
BRANCH   2   4
ATOM      4  C   UNL A   1      31.245  26.772  22.764  1.00  0.00     0.060 A 
ATOM      5  C   UNL A   1      32.140  24.078  22.706  1.00  0.00    -0.011 A 
ATOM      6  C   UNL A   1      32.840  25.083  22.032  1.00  0.00     0.008 A 
ATOM      7  C   UNL A   1      30.954  24.448  23.366  1.00  0.00     0.008 A 
ATOM      8  C   UNL A   1      32.377  26.396  22.033  1.00  0.00     0.016 A 
ATOM      9  C   UNL A   1      30.533  25.788  23.441  1.00  0.00     0.016 A 
BRANCH   5  10
ATOM     10  C   UNL A   1      32.752  22.678  22.647  1.00  0.00     0.265 C 
BRANCH  10  11
ATOM     11  O   UNL A   1      33.446  22.105  23.761  1.00  0.00    -0.485 OA
BRANCH  11  12
ATOM     12  C   UNL A   1      34.502  22.802  24.277  1.00  0.00     0.161 A 
ATOM     13  C   UNL A   1      34.507  23.523  25.482  1.00  0.00     0.161 A 
ATOM     14  C   UNL A   1      35.735  23.895  26.036  1.00  0.00     0.062 A 
ATOM     15  C   UNL A   1      36.923  23.590  25.348  1.00  0.00     0.018 A 
ATOM     16  C   UNL A   1      35.679  22.606  23.548  1.00  0.00     0.051 A 
ATOM     17  C   UNL A   1      36.897  22.990  24.087  1.00  0.00     0.015 A 
BRANCH  13  18
ATOM     18  O   UNL A   1      33.297  23.889  26.000  1.00  0.00    -0.490 OA
BRANCH  18  19
ATOM     19  C   UNL A   1      32.716  23.033  26.984  1.00  0.00     0.226 C 
ATOM     20  C   UNL A   1      31.258  22.839  26.583  1.00  0.00     0.049 C 
ENDBRANCH  18  19
ENDBRANCH  13  18
BRANCH  15  21
ATOM     21  C   UNL A   1      38.245  23.871  25.942  1.00  0.00     0.260 C 
ATOM     22  O   UNL A   1      38.371  24.334  27.066  1.00  0.00    -0.298 OA
ENDBRANCH  15  21
ENDBRANCH  11  12
ENDBRANCH  10  11
ENDBRANCH   5  10
ENDBRANCH   2   4
ENDBRANCH   1   2
BRANCH   1  23
ATOM     23  C   UNL A   1      31.008  29.718  24.425  1.00  0.00     0.275 C 
BRANCH  23  24
ATOM     24  C   UNL A   1      31.724  29.370  25.735  1.00  0.00     0.275 C 
BRANCH  24  25
ATOM     25  O   UNL A   1      33.048  29.932  25.791  1.00  0.00    -0.458 OA
BRANCH  25  26
ATOM     26  C   UNL A   1      33.248  30.805  26.804  1.00  0.00     0.338 C 
ATOM     27  O   UNL A   1      32.420  31.508  27.356  1.00  0.00    -0.246 OA
BRANCH  26  28
ATOM     28  C   UNL A   1      34.626  30.703  27.305  1.00  0.00     0.060 A 
ATOM     29  C   UNL A   1      35.096  29.421  27.534  1.00  0.00     0.016 A 
ATOM     30  C   UNL A   1      35.355  31.796  27.753  1.00  0.00     0.016 A 
ATOM     31  C   UNL A   1      36.223  29.195  28.309  1.00  0.00     0.010 A 
ATOM     32  C   UNL A   1      36.564  31.577  28.433  1.00  0.00     0.010 A 
ATOM     33  C   UNL A   1      36.994  30.272  28.754  1.00  0.00    -0.014 A 
BRANCH  33  34
ATOM     34  C   UNL A   1      38.219  30.018  29.568  1.00  0.00     0.031 A 
ATOM     35  C   UNL A   1      39.323  29.144  29.030  1.00  0.00     0.074 A 
ATOM     36  C   UNL A   1      38.363  30.592  30.780  1.00  0.00     0.049 A 
ATOM     37  N   UNL A   1      40.376  28.664  29.643  1.00  0.00    -0.248 NA
ATOM     38  C   UNL A   1      39.221  28.746  27.617  1.00  0.00     0.031 C 
ATOM     39  C   UNL A   1      37.406  31.509  31.404  1.00  0.00     0.029 A 
ATOM     40  N   UNL A   1      39.371  30.493  31.710  1.00  0.00    -0.354 N 
ATOM     41  C   UNL A   1      41.026  27.862  28.713  1.00  0.00     0.074 A 
ATOM     42  C   UNL A   1      40.245  27.913  27.495  1.00  0.00     0.031 C 
ATOM     43  C   UNL A   1      37.884  31.915  32.588  1.00  0.00     0.029 A 
ATOM     44  C   UNL A   1      39.126  31.204  32.861  1.00  0.00     0.049 A 
ATOM     45  H   UNL A   1      40.188  29.964  31.565  1.00  0.00     0.167 HD
ATOM     46  C   UNL A   1      42.168  27.147  28.865  1.00  0.00     0.037 A 
ATOM     47  C   UNL A   1      39.790  31.238  34.032  1.00  0.00     0.037 A 
ATOM     48  C   UNL A   1      42.962  27.140  30.067  1.00  0.00     0.049 A 
ATOM     49  C   UNL A   1      41.019  30.391  34.198  1.00  0.00     0.074 A 
ATOM     50  C   UNL A   1      44.147  26.468  30.316  1.00  0.00     0.029 A 
ATOM     51  N   UNL A   1      42.655  27.844  31.223  1.00  0.00    -0.354 N 
ATOM     52  N   UNL A   1      41.602  29.604  33.328  1.00  0.00    -0.248 NA
ATOM     53  C   UNL A   1      41.672  30.424  35.513  1.00  0.00     0.031 C 
ATOM     54  C   UNL A   1      44.524  26.718  31.639  1.00  0.00     0.029 A 
ATOM     55  C   UNL A   1      43.613  27.600  32.196  1.00  0.00     0.049 A 
ATOM     56  H   UNL A   1      41.873  28.430  31.336  1.00  0.00     0.167 HD
ATOM     57  C   UNL A   1      42.701  29.062  33.980  1.00  0.00     0.074 A 
ATOM     58  C   UNL A   1      42.713  29.629  35.314  1.00  0.00     0.031 C 
ATOM     59  C   UNL A   1      43.615  28.174  33.518  1.00  0.00     0.037 A 
BRANCH  46  60
ATOM     60  C   UNL A   1      42.604  26.273  27.722  1.00  0.00     0.064 A 
ATOM     61  C   UNL A   1      42.088  24.984  27.522  1.00  0.00     0.173 A 
ATOM     62  C   UNL A   1      43.541  26.752  26.789  1.00  0.00     0.173 A 
ATOM     63  F   UNL A   1      41.201  24.472  28.387  1.00  0.00    -0.203 F 
ATOM     64  C   UNL A   1      42.518  24.196  26.455  1.00  0.00     0.198 A 
ATOM     65  C   UNL A   1      43.940  25.975  25.705  1.00  0.00     0.198 A 
ATOM     66  F   UNL A   1      44.062  27.981  26.925  1.00  0.00    -0.203 F 
ATOM     67  F   UNL A   1      42.051  22.947  26.317  1.00  0.00    -0.200 F 
ATOM     68  C   UNL A   1      43.436  24.695  25.544  1.00  0.00     0.200 A 
ATOM     69  F   UNL A   1      44.816  26.467  24.818  1.00  0.00    -0.200 F 
ATOM     70  F   UNL A   1      43.842  23.938  24.515  1.00  0.00    -0.200 F 
ENDBRANCH  46  60
BRANCH  47  71
ATOM     71  C   UNL A   1      39.269  32.066  35.155  1.00  0.00     0.064 A 
ATOM     72  C   UNL A   1      38.498  31.497  36.177  1.00  0.00     0.173 A 
ATOM     73  C   UNL A   1      39.538  33.442  35.233  1.00  0.00     0.173 A 
ATOM     74  F   UNL A   1      38.191  30.191  36.136  1.00  0.00    -0.203 F 
ATOM     75  C   UNL A   1      38.008  32.272  37.225  1.00  0.00     0.198 A 
ATOM     76  C   UNL A   1      39.079  34.209  36.301  1.00  0.00     0.198 A 
ATOM     77  F   UNL A   1      40.271  34.038  34.281  1.00  0.00    -0.203 F 
ATOM     78  F   UNL A   1      37.234  31.711  38.166  1.00  0.00    -0.200 F 
ATOM     79  C   UNL A   1      38.306  33.625  37.292  1.00  0.00     0.200 A 
ATOM     80  F   UNL A   1      39.387  35.510  36.370  1.00  0.00    -0.200 F 
ATOM     81  F   UNL A   1      37.845  34.367  38.307  1.00  0.00    -0.200 F 
ENDBRANCH  47  71
BRANCH  59  82
ATOM     82  C   UNL A   1      44.729  27.793  34.449  1.00  0.00     0.064 A 
ATOM     83  C   UNL A   1      45.920  28.531  34.518  1.00  0.00     0.173 A 
ATOM     84  C   UNL A   1      44.592  26.687  35.302  1.00  0.00     0.173 A 
ATOM     85  F   UNL A   1      46.110  29.586  33.711  1.00  0.00    -0.203 F 
ATOM     86  C   UNL A   1      46.943  28.158  35.387  1.00  0.00     0.198 A 
ATOM     87  C   UNL A   1      45.603  26.338  36.193  1.00  0.00     0.198 A 
ATOM     88  F   UNL A   1      43.471  25.950  35.278  1.00  0.00    -0.203 F 
ATOM     89  F   UNL A   1      48.094  28.844  35.396  1.00  0.00    -0.200 F 
ATOM     90  C   UNL A   1      46.780  27.069  36.228  1.00  0.00     0.200 A 
ATOM     91  F   UNL A   1      45.436  25.294  37.016  1.00  0.00    -0.200 F 
ATOM     92  F   UNL A   1      47.763  26.715  37.068  1.00  0.00    -0.200 F 
ENDBRANCH  59  82
ENDBRANCH  33  34
ENDBRANCH  26  28
ENDBRANCH  25  26
ENDBRANCH  24  25
ENDBRANCH  23  24
ENDBRANCH   1  23
TORSDOF 17
ENDMDL
MODEL 2
REMARK VINA RESULT:     -11.5      2.654      8.299
REMARK SMILES CCOc1cc(C=O)ccc1OCc1ccc(C(=O)OCCOC(=O)c2ccc(-c3c4nc(c(-c5c(F)c(F)c(F)c(F)c5F)c5ccc([nH]5)c(-c5c(F)c(F)c(F)c(F)c5F)c5nc(c(-c6c(F)c(F)c(F)c(F)c6F)c6ccc3[nH]6)C=C5)C=C4)cc2)cc1
REMARK SMILES IDX 20 1 18 2 19 3 17 4 14 5 15 6 90 7 16 8 89 9 13 10 12 11
REMARK SMILES IDX 11 12 4 13 5 14 6 15 10 16 9 17 3 18 2 19 1 20 7 21 8 22
REMARK SMILES IDX 21 23 22 24 23 25 24 26 25 27 26 28 27 29 88 30 28 31 87 32
REMARK SMILES IDX 29 33 30 34 31 35 81 36 32 37 86 38 80 39 82 40 33 41 85 42
REMARK SMILES IDX 79 43 78 44 34 46 66 47 46 48 65 49 47 50 50 51 64 52 83 53
REMARK SMILES IDX 48 54 49 55 63 57 84 58 51 59 35 60 36 61 44 62 37 63 38 64
REMARK SMILES IDX 42 65 45 66 39 67 40 68 43 69 41 70 67 71 68 72 76 73 69 74
REMARK SMILES IDX 70 75 74 76 77 77 71 78 72 79 75 80 73 81 52 82 53 83 61 84
REMARK SMILES IDX 54 85 55 86 59 87 62 88 56 89 57 90 60 91 58 92
REMARK H PARENT 82 45 50 56
REMARK Flexibility Score: inf
ROOT
ATOM      1  O   UNL A   1      41.267  20.852  25.717  1.00  0.00    -0.458 OA
ENDROOT
BRANCH   1   2
ATOM      2  C   UNL A   1      40.397  21.220  26.688  1.00  0.00     0.338 C 
ATOM      3  O   UNL A   1      40.539  21.040  27.891  1.00  0.00    -0.246 OA
BRANCH   2   4
ATOM      4  C   UNL A   1      39.209  21.926  26.149  1.00  0.00     0.060 A 
ATOM      5  C   UNL A   1      36.834  23.271  25.367  1.00  0.00    -0.011 A 
ATOM      6  C   UNL A   1      37.802  23.913  26.144  1.00  0.00     0.008 A 
ATOM      7  C   UNL A   1      37.063  21.923  25.034  1.00  0.00     0.008 A 
ATOM      8  C   UNL A   1      38.947  23.238  26.556  1.00  0.00     0.016 A 
ATOM      9  C   UNL A   1      38.260  21.267  25.376  1.00  0.00     0.016 A 
BRANCH   5  10
ATOM     10  C   UNL A   1      35.626  24.117  24.962  1.00  0.00     0.265 C 
BRANCH  10  11
ATOM     11  O   UNL A   1      34.906  23.882  23.747  1.00  0.00    -0.485 OA
BRANCH  11  12
ATOM     12  C   UNL A   1      33.671  24.453  23.621  1.00  0.00     0.161 A 
ATOM     13  C   UNL A   1      32.515  23.822  23.135  1.00  0.00     0.161 A 
ATOM     14  C   UNL A   1      31.274  24.417  23.377  1.00  0.00     0.062 A 
ATOM     15  C   UNL A   1      31.220  25.652  24.048  1.00  0.00     0.018 A 
ATOM     16  C   UNL A   1      33.614  25.732  24.184  1.00  0.00     0.051 A 
ATOM     17  C   UNL A   1      32.385  26.332  24.410  1.00  0.00     0.015 A 
BRANCH  13  18
ATOM     18  O   UNL A   1      32.684  22.698  22.377  1.00  0.00    -0.490 OA
BRANCH  18  19
ATOM     19  C   UNL A   1      31.977  21.523  22.776  1.00  0.00     0.226 C 
ATOM     20  C   UNL A   1      32.829  20.847  23.845  1.00  0.00     0.049 C 
ENDBRANCH  18  19
ENDBRANCH  13  18
BRANCH  15  21
ATOM     21  C   UNL A   1      29.929  26.267  24.417  1.00  0.00     0.260 C 
ATOM     22  O   UNL A   1      28.981  26.307  23.647  1.00  0.00    -0.298 OA
ENDBRANCH  15  21
ENDBRANCH  11  12
ENDBRANCH  10  11
ENDBRANCH   5  10
ENDBRANCH   2   4
ENDBRANCH   1   2
BRANCH   1  23
ATOM     23  C   UNL A   1      42.636  20.671  26.147  1.00  0.00     0.275 C 
BRANCH  23  24
ATOM     24  C   UNL A   1      43.646  21.551  25.400  1.00  0.00     0.275 C 
BRANCH  24  25
ATOM     25  O   UNL A   1      43.020  22.705  24.809  1.00  0.00    -0.458 OA
BRANCH  25  26
ATOM     26  C   UNL A   1      43.685  23.867  25.001  1.00  0.00     0.338 C 
ATOM     27  O   UNL A   1      44.668  24.270  24.405  1.00  0.00    -0.246 OA
BRANCH  26  28
ATOM     28  C   UNL A   1      42.966  24.717  25.960  1.00  0.00     0.060 A 
ATOM     29  C   UNL A   1      43.250  26.071  25.902  1.00  0.00     0.016 A 
ATOM     30  C   UNL A   1      42.225  24.211  27.019  1.00  0.00     0.016 A 
ATOM     31  C   UNL A   1      42.915  26.922  26.944  1.00  0.00     0.010 A 
ATOM     32  C   UNL A   1      41.774  25.091  28.018  1.00  0.00     0.010 A 
ATOM     33  C   UNL A   1      42.147  26.451  28.013  1.00  0.00    -0.014 A 
BRANCH  33  34
ATOM     34  C   UNL A   1      41.770  27.381  29.118  1.00  0.00     0.031 A 
ATOM     35  C   UNL A   1      42.583  27.426  30.385  1.00  0.00     0.074 A 
ATOM     36  C   UNL A   1      40.714  28.209  28.981  1.00  0.00     0.049 A 
ATOM     37  N   UNL A   1      42.323  28.030  31.519  1.00  0.00    -0.248 NA
ATOM     38  C   UNL A   1      43.853  26.683  30.383  1.00  0.00     0.031 C 
ATOM     39  C   UNL A   1      39.871  28.319  27.788  1.00  0.00     0.029 A 
ATOM     40  N   UNL A   1      40.165  29.122  29.851  1.00  0.00    -0.354 N 
ATOM     41  C   UNL A   1      43.360  27.690  32.379  1.00  0.00     0.074 A 
ATOM     42  C   UNL A   1      44.251  26.821  31.640  1.00  0.00     0.031 C 
ATOM     43  C   UNL A   1      38.942  29.265  27.985  1.00  0.00     0.029 A 
ATOM     44  C   UNL A   1      39.049  29.751  29.354  1.00  0.00     0.049 A 
ATOM     45  H   UNL A   1      40.537  29.307  30.744  1.00  0.00     0.167 HD
ATOM     46  C   UNL A   1      43.548  28.067  33.668  1.00  0.00     0.037 A 
ATOM     47  C   UNL A   1      38.168  30.580  29.946  1.00  0.00     0.037 A 
ATOM     48  C   UNL A   1      42.679  28.970  34.379  1.00  0.00     0.049 A 
ATOM     49  C   UNL A   1      38.363  30.936  31.392  1.00  0.00     0.074 A 
ATOM     50  C   UNL A   1      42.792  29.434  35.679  1.00  0.00     0.029 A 
ATOM     51  N   UNL A   1      41.535  29.552  33.848  1.00  0.00    -0.354 N 
ATOM     52  N   UNL A   1      39.323  30.577  32.209  1.00  0.00    -0.248 NA
ATOM     53  C   UNL A   1      37.344  31.799  32.003  1.00  0.00     0.031 C 
ATOM     54  C   UNL A   1      41.688  30.247  35.953  1.00  0.00     0.029 A 
ATOM     55  C   UNL A   1      40.920  30.347  34.804  1.00  0.00     0.049 A 
ATOM     56  H   UNL A   1      41.209  29.420  32.930  1.00  0.00     0.167 HD
ATOM     57  C   UNL A   1      39.036  31.184  33.424  1.00  0.00     0.074 A 
ATOM     58  C   UNL A   1      37.823  31.952  33.229  1.00  0.00     0.031 C 
ATOM     59  C   UNL A   1      39.715  31.109  34.595  1.00  0.00     0.037 A 
BRANCH  46  60
ATOM     60  C   UNL A   1      44.710  27.469  34.410  1.00  0.00     0.064 A 
ATOM     61  C   UNL A   1      44.608  26.263  35.120  1.00  0.00     0.173 A 
ATOM     62  C   UNL A   1      45.962  28.107  34.385  1.00  0.00     0.173 A 
ATOM     63  F   UNL A   1      43.434  25.617  35.187  1.00  0.00    -0.203 F 
ATOM     64  C   UNL A   1      45.703  25.737  35.803  1.00  0.00     0.198 A 
ATOM     65  C   UNL A   1      47.063  27.559  35.040  1.00  0.00     0.198 A 
ATOM     66  F   UNL A   1      46.121  29.259  33.716  1.00  0.00    -0.203 F 
ATOM     67  F   UNL A   1      45.565  24.612  36.519  1.00  0.00    -0.200 F 
ATOM     68  C   UNL A   1      46.930  26.381  35.756  1.00  0.00     0.200 A 
ATOM     69  F   UNL A   1      48.251  28.176  34.979  1.00  0.00    -0.200 F 
ATOM     70  F   UNL A   1      47.984  25.870  36.409  1.00  0.00    -0.200 F 
ENDBRANCH  46  60
BRANCH  47  71
ATOM     71  C   UNL A   1      36.994  31.083  29.182  1.00  0.00     0.064 A 
ATOM     72  C   UNL A   1      35.908  30.248  28.891  1.00  0.00     0.173 A 
ATOM     73  C   UNL A   1      36.931  32.412  28.732  1.00  0.00     0.173 A 
ATOM     74  F   UNL A   1      35.929  28.962  29.276  1.00  0.00    -0.203 F 
ATOM     75  C   UNL A   1      34.811  30.718  28.172  1.00  0.00     0.198 A 
ATOM     76  C   UNL A   1      35.818  32.891  28.046  1.00  0.00     0.198 A 
ATOM     77  F   UNL A   1      37.945  33.255  28.982  1.00  0.00    -0.203 F 
ATOM     78  F   UNL A   1      33.805  29.885  27.868  1.00  0.00    -0.200 F 
ATOM     79  C   UNL A   1      34.762  32.041  27.758  1.00  0.00     0.200 A 
ATOM     80  F   UNL A   1      35.768  34.174  27.666  1.00  0.00    -0.200 F 
ATOM     81  F   UNL A   1      33.702  32.495  27.078  1.00  0.00    -0.200 F 
ENDBRANCH  47  71
BRANCH  59  82
ATOM     82  C   UNL A   1      39.183  31.913  35.746  1.00  0.00     0.064 A 
ATOM     83  C   UNL A   1      38.301  31.361  36.687  1.00  0.00     0.173 A 
ATOM     84  C   UNL A   1      39.582  33.246  35.922  1.00  0.00     0.173 A 
ATOM     85  F   UNL A   1      37.874  30.097  36.555  1.00  0.00    -0.203 F 
ATOM     86  C   UNL A   1      37.817  32.126  37.747  1.00  0.00     0.198 A 
ATOM     87  C   UNL A   1      39.123  33.996  37.001  1.00  0.00     0.198 A 
ATOM     88  F   UNL A   1      40.427  33.820  35.053  1.00  0.00    -0.203 F 
ATOM     89  F   UNL A   1      36.932  31.596  38.602  1.00  0.00    -0.200 F 
ATOM     90  C   UNL A   1      38.234  33.438  37.907  1.00  0.00     0.200 A 
ATOM     91  F   UNL A   1      39.540  35.259  37.162  1.00  0.00    -0.200 F 
ATOM     92  F   UNL A   1      37.772  34.170  38.930  1.00  0.00    -0.200 F 
ENDBRANCH  59  82
ENDBRANCH  33  34
ENDBRANCH  26  28
ENDBRANCH  25  26
ENDBRANCH  24  25
ENDBRANCH  23  24
ENDBRANCH   1  23
TORSDOF 17
ENDMDL
MODEL 3
REMARK VINA RESULT:     -11.4      1.346      2.679
REMARK SMILES CCOc1cc(C=O)ccc1OCc1ccc(C(=O)OCCOC(=O)c2ccc(-c3c4nc(c(-c5c(F)c(F)c(F)c(F)c5F)c5ccc([nH]5)c(-c5c(F)c(F)c(F)c(F)c5F)c5nc(c(-c6c(F)c(F)c(F)c(F)c6F)c6ccc3[nH]6)C=C5)C=C4)cc2)cc1
REMARK SMILES IDX 20 1 18 2 19 3 17 4 14 5 15 6 90 7 16 8 89 9 13 10 12 11
REMARK SMILES IDX 11 12 4 13 5 14 6 15 10 16 9 17 3 18 2 19 1 20 7 21 8 22
REMARK SMILES IDX 21 23 22 24 23 25 24 26 25 27 26 28 27 29 88 30 28 31 87 32
REMARK SMILES IDX 29 33 30 34 31 35 81 36 32 37 86 38 80 39 82 40 33 41 85 42
REMARK SMILES IDX 79 43 78 44 34 46 66 47 46 48 65 49 47 50 50 51 64 52 83 53
REMARK SMILES IDX 48 54 49 55 63 57 84 58 51 59 35 60 36 61 44 62 37 63 38 64
REMARK SMILES IDX 42 65 45 66 39 67 40 68 43 69 41 70 67 71 68 72 76 73 69 74
REMARK SMILES IDX 70 75 74 76 77 77 71 78 72 79 75 80 73 81 52 82 53 83 61 84
REMARK SMILES IDX 54 85 55 86 59 87 62 88 56 89 57 90 60 91 58 92
REMARK H PARENT 82 45 50 56
REMARK Flexibility Score: inf
ROOT
ATOM      1  O   UNL A   1      31.053  29.031  23.650  1.00  0.00    -0.458 OA
ENDROOT
BRANCH   1   2
ATOM      2  C   UNL A   1      30.160  28.012  23.656  1.00  0.00     0.338 C 
ATOM      3  O   UNL A   1      29.040  28.031  23.162  1.00  0.00    -0.246 OA
BRANCH   2   4
ATOM      4  C   UNL A   1      30.692  26.795  24.317  1.00  0.00     0.060 A 
ATOM      5  C   UNL A   1      31.689  24.343  25.343  1.00  0.00    -0.011 A 
ATOM      6  C   UNL A   1      32.461  25.131  24.484  1.00  0.00     0.008 A 
ATOM      7  C   UNL A   1      30.387  24.790  25.634  1.00  0.00     0.008 A 
ATOM      8  C   UNL A   1      31.954  26.314  23.954  1.00  0.00     0.016 A 
ATOM      9  C   UNL A   1      29.906  26.028  25.170  1.00  0.00     0.016 A 
BRANCH   5  10
ATOM     10  C   UNL A   1      32.357  23.074  25.873  1.00  0.00     0.265 C 
BRANCH  10  11
ATOM     11  O   UNL A   1      33.667  22.674  25.457  1.00  0.00    -0.485 OA
BRANCH  11  12
ATOM     12  C   UNL A   1      33.799  21.446  24.872  1.00  0.00     0.161 A 
ATOM     13  C   UNL A   1      34.865  20.551  25.061  1.00  0.00     0.161 A 
ATOM     14  C   UNL A   1      34.701  19.220  24.670  1.00  0.00     0.062 A 
ATOM     15  C   UNL A   1      33.501  18.826  24.050  1.00  0.00     0.018 A 
ATOM     16  C   UNL A   1      32.660  21.071  24.154  1.00  0.00     0.051 A 
ATOM     17  C   UNL A   1      32.502  19.754  23.749  1.00  0.00     0.015 A 
BRANCH  13  18
ATOM     18  O   UNL A   1      36.036  21.062  25.544  1.00  0.00    -0.490 OA
BRANCH  18  19
ATOM     19  C   UNL A   1      37.125  21.191  24.628  1.00  0.00     0.226 C 
ATOM     20  C   UNL A   1      36.812  22.399  23.751  1.00  0.00     0.049 C 
ENDBRANCH  18  19
ENDBRANCH  13  18
BRANCH  15  21
ATOM     21  C   UNL A   1      33.241  17.412  23.714  1.00  0.00     0.260 C 
ATOM     22  O   UNL A   1      33.762  16.862  22.754  1.00  0.00    -0.298 OA
ENDBRANCH  15  21
ENDBRANCH  11  12
ENDBRANCH  10  11
ENDBRANCH   5  10
ENDBRANCH   2   4
ENDBRANCH   1   2
BRANCH   1  23
ATOM     23  C   UNL A   1      31.177  29.757  24.895  1.00  0.00     0.275 C 
BRANCH  23  24
ATOM     24  C   UNL A   1      32.616  29.864  25.414  1.00  0.00     0.275 C 
BRANCH  24  25
ATOM     25  O   UNL A   1      32.660  30.129  26.828  1.00  0.00    -0.458 OA
BRANCH  25  26
ATOM     26  C   UNL A   1      33.250  31.298  27.164  1.00  0.00     0.338 C 
ATOM     27  O   UNL A   1      32.734  32.400  27.231  1.00  0.00    -0.246 OA
BRANCH  26  28
ATOM     28  C   UNL A   1      34.629  31.067  27.615  1.00  0.00     0.060 A 
ATOM     29  C   UNL A   1      34.934  29.771  27.999  1.00  0.00     0.016 A 
ATOM     30  C   UNL A   1      35.526  32.093  27.876  1.00  0.00     0.016 A 
ATOM     31  C   UNL A   1      36.065  29.490  28.749  1.00  0.00     0.010 A 
ATOM     32  C   UNL A   1      36.734  31.794  28.527  1.00  0.00     0.010 A 
ATOM     33  C   UNL A   1      37.002  30.495  29.007  1.00  0.00    -0.014 A 
BRANCH  33  34
ATOM     34  C   UNL A   1      38.229  30.177  29.795  1.00  0.00     0.031 A 
ATOM     35  C   UNL A   1      39.291  29.278  29.219  1.00  0.00     0.074 A 
ATOM     36  C   UNL A   1      38.411  30.715  31.019  1.00  0.00     0.049 A 
ATOM     37  N   UNL A   1      40.336  28.745  29.803  1.00  0.00    -0.248 NA
ATOM     38  C   UNL A   1      39.155  28.919  27.799  1.00  0.00     0.031 C 
ATOM     39  C   UNL A   1      37.497  31.650  31.679  1.00  0.00     0.029 A 
ATOM     40  N   UNL A   1      39.428  30.557  31.930  1.00  0.00    -0.354 N 
ATOM     41  C   UNL A   1      40.942  27.943  28.844  1.00  0.00     0.074 A 
ATOM     42  C   UNL A   1      40.146  28.052  27.641  1.00  0.00     0.031 C 
ATOM     43  C   UNL A   1      38.008  32.009  32.865  1.00  0.00     0.029 A 
ATOM     44  C   UNL A   1      39.227  31.247  33.101  1.00  0.00     0.049 A 
ATOM     45  H   UNL A   1      40.224  30.002  31.760  1.00  0.00     0.167 HD
ATOM     46  C   UNL A   1      42.060  27.184  28.961  1.00  0.00     0.037 A 
ATOM     47  C   UNL A   1      39.908  31.229  34.263  1.00  0.00     0.037 A 
ATOM     48  C   UNL A   1      42.871  27.119  30.150  1.00  0.00     0.049 A 
ATOM     49  C   UNL A   1      41.108  30.334  34.388  1.00  0.00     0.074 A 
ATOM     50  C   UNL A   1      44.034  26.399  30.364  1.00  0.00     0.029 A 
ATOM     51  N   UNL A   1      42.607  27.805  31.328  1.00  0.00    -0.354 N 
ATOM     52  N   UNL A   1      41.650  29.548  33.491  1.00  0.00    -0.248 NA
ATOM     53  C   UNL A   1      41.781  30.311  35.693  1.00  0.00     0.031 C 
ATOM     54  C   UNL A   1      44.440  26.602  31.687  1.00  0.00     0.029 A 
ATOM     55  C   UNL A   1      43.570  27.502  32.279  1.00  0.00     0.049 A 
ATOM     56  H   UNL A   1      41.848  28.416  31.467  1.00  0.00     0.167 HD
ATOM     57  C   UNL A   1      42.738  28.952  34.112  1.00  0.00     0.074 A 
ATOM     58  C   UNL A   1      42.790  29.484  35.459  1.00  0.00     0.031 C 
ATOM     59  C   UNL A   1      43.611  28.043  33.615  1.00  0.00     0.037 A 
BRANCH  46  60
ATOM     60  C   UNL A   1      42.447  26.324  27.790  1.00  0.00     0.064 A 
ATOM     61  C   UNL A   1      43.406  26.725  26.848  1.00  0.00     0.173 A 
ATOM     62  C   UNL A   1      41.863  25.056  27.626  1.00  0.00     0.173 A 
ATOM     63  F   UNL A   1      43.988  27.929  26.949  1.00  0.00    -0.203 F 
ATOM     64  C   UNL A   1      43.740  25.907  25.770  1.00  0.00     0.198 A 
ATOM     65  C   UNL A   1      42.225  24.227  26.567  1.00  0.00     0.198 A 
ATOM     66  F   UNL A   1      40.945  24.616  28.501  1.00  0.00    -0.203 F 
ATOM     67  F   UNL A   1      44.619  26.336  24.853  1.00  0.00    -0.200 F 
ATOM     68  C   UNL A   1      43.155  24.656  25.635  1.00  0.00     0.200 A 
ATOM     69  F   UNL A   1      41.670  23.013  26.449  1.00  0.00    -0.200 F 
ATOM     70  F   UNL A   1      43.483  23.869  24.601  1.00  0.00    -0.200 F 
ENDBRANCH  46  60
BRANCH  47  71
ATOM     71  C   UNL A   1      39.435  32.046  35.413  1.00  0.00     0.064 A 
ATOM     72  C   UNL A   1      39.823  33.384  35.559  1.00  0.00     0.173 A 
ATOM     73  C   UNL A   1      38.578  31.508  36.387  1.00  0.00     0.173 A 
ATOM     74  F   UNL A   1      40.660  33.940  34.670  1.00  0.00    -0.203 F 
ATOM     75  C   UNL A   1      39.382  34.148  36.638  1.00  0.00     0.198 A 
ATOM     76  C   UNL A   1      38.109  32.282  37.445  1.00  0.00     0.198 A 
ATOM     77  F   UNL A   1      38.176  30.231  36.297  1.00  0.00    -0.203 F 
ATOM     78  F   UNL A   1      39.805  35.412  36.778  1.00  0.00    -0.200 F 
ATOM     79  C   UNL A   1      38.519  33.600  37.575  1.00  0.00     0.200 A 
ATOM     80  F   UNL A   1      37.259  31.753  38.335  1.00  0.00    -0.200 F 
ATOM     81  F   UNL A   1      38.086  34.338  38.605  1.00  0.00    -0.200 F 
ENDBRANCH  47  71
BRANCH  59  82
ATOM     82  C   UNL A   1      44.725  27.599  34.518  1.00  0.00     0.064 A 
ATOM     83  C   UNL A   1      45.931  28.309  34.609  1.00  0.00     0.173 A 
ATOM     84  C   UNL A   1      44.572  26.460  35.323  1.00  0.00     0.173 A 
ATOM     85  F   UNL A   1      46.136  29.394  33.847  1.00  0.00    -0.203 F 
ATOM     86  C   UNL A   1      46.953  27.878  35.452  1.00  0.00     0.198 A 
ATOM     87  C   UNL A   1      45.582  26.052  36.189  1.00  0.00     0.198 A 
ATOM     88  F   UNL A   1      43.436  25.747  35.277  1.00  0.00    -0.203 F 
ATOM     89  F   UNL A   1      48.118  28.540  35.481  1.00  0.00    -0.200 F 
ATOM     90  C   UNL A   1      46.774  26.756  36.246  1.00  0.00     0.200 A 
ATOM     91  F   UNL A   1      45.400  24.976  36.967  1.00  0.00    -0.200 F 
ATOM     92  F   UNL A   1      47.756  26.346  37.061  1.00  0.00    -0.200 F 
ENDBRANCH  59  82
ENDBRANCH  33  34
ENDBRANCH  26  28
ENDBRANCH  25  26
ENDBRANCH  24  25
ENDBRANCH  23  24
ENDBRANCH   1  23
TORSDOF 17
ENDMDL
