MODEL 1
REMARK VINA RESULT:     -10.8      0.000      0.000
REMARK SMILES Nc1nonc1C(=O)N1[C@@H]2CC[C@H]1C[C@H](CC(=O)OCCOC(=O)c1ccc(-c3c4nc(c(-c5c(F)c(F)c(F)c(F)c5F)c5ccc([nH]5)c(-c5c(F)c(F)c(F)c(F)c5F)c5nc(c(-c6c(F)c(F)c(F)c(F)c6F)c6ccc3[nH]6)C=C5)C=C4)cc1)C2
REMARK SMILES IDX 20 1 19 2 17 3 18 4 16 5 15 6 9 7 10 8 13 9 11 10 88 11
REMARK SMILES IDX 12 12 14 13 7 14 8 15 6 16 2 17 3 18 4 19 5 20 1 21 21 24
REMARK SMILES IDX 22 25 23 26 24 27 25 28 26 29 87 30 27 31 86 32 28 33 29 34
REMARK SMILES IDX 30 35 80 36 31 37 85 38 79 39 81 40 32 41 84 42 78 43 77 44
REMARK SMILES IDX 33 46 65 47 45 48 64 49 46 50 49 51 63 52 82 53 47 54 48 55
REMARK SMILES IDX 62 57 83 58 50 59 34 60 35 61 43 62 36 63 37 64 41 65 44 66
REMARK SMILES IDX 38 67 39 68 42 69 40 70 66 71 67 72 75 73 68 74 69 75 73 76
REMARK SMILES IDX 76 77 70 78 71 79 74 80 72 81 51 82 52 83 60 84 53 85 54 86
REMARK SMILES IDX 58 87 61 88 55 89 56 90 59 91 57 92
REMARK H PARENT 1 22 1 23 81 45 49 56
REMARK Flexibility Score: inf
ROOT
ATOM      1  C   UNL A   1      33.051  33.388  27.831  1.00  0.00     0.274 C 
ENDROOT
BRANCH   1   2
ATOM      2  O   UNL A   1      34.346  33.843  27.401  1.00  0.00    -0.462 OA
BRANCH   2   3
ATOM      3  C   UNL A   1      35.146  34.372  28.355  1.00  0.00     0.306 C 
ATOM      4  O   UNL A   1      34.936  35.421  28.953  1.00  0.00    -0.252 OA
BRANCH   3   5
ATOM      5  C   UNL A   1      36.397  33.554  28.574  1.00  0.00     0.126 C 
BRANCH   5   6
ATOM      6  C   UNL A   1      36.654  33.023  30.005  1.00  0.00     0.004 C 
ATOM      7  N   UNL A   1      35.615  34.273  32.318  1.00  0.00    -0.331 N 
ATOM      8  C   UNL A   1      35.194  32.897  32.141  1.00  0.00     0.086 C 
ATOM      9  C   UNL A   1      37.067  34.229  32.292  1.00  0.00     0.086 C 
ATOM     10  C   UNL A   1      36.203  32.066  32.943  1.00  0.00     0.027 C 
ATOM     11  C   UNL A   1      35.286  32.637  30.639  1.00  0.00     0.029 C 
ATOM     12  C   UNL A   1      37.393  33.003  33.152  1.00  0.00     0.027 C 
ATOM     13  C   UNL A   1      37.522  34.012  30.842  1.00  0.00     0.029 C 
BRANCH   7  14
ATOM     14  C   UNL A   1      34.935  35.087  33.223  1.00  0.00     0.280 C 
ATOM     15  O   UNL A   1      34.958  34.838  34.428  1.00  0.00    -0.267 OA
BRANCH  14  16
ATOM     16  C   UNL A   1      34.121  36.164  32.649  1.00  0.00     0.216 A 
ATOM     17  C   UNL A   1      33.140  36.160  31.623  1.00  0.00     0.201 A 
ATOM     18  N   UNL A   1      32.632  37.379  31.476  1.00  0.00    -0.032 NA
ATOM     19  O   UNL A   1      33.266  38.152  32.434  1.00  0.00    -0.242 OA
ATOM     20  N   UNL A   1      34.187  37.408  33.152  1.00  0.00    -0.042 NA
BRANCH  17  21
ATOM     21  N   UNL A   1      32.724  35.104  30.907  1.00  0.00    -0.379 N 
ATOM     22  H   UNL A   1      31.780  34.824  30.945  1.00  0.00     0.158 HD
ATOM     23  H   UNL A   1      33.362  34.609  30.344  1.00  0.00     0.158 HD
ENDBRANCH  17  21
ENDBRANCH  14  16
ENDBRANCH   7  14
ENDBRANCH   5   6
ENDBRANCH   3   5
ENDBRANCH   2   3
ENDBRANCH   1   2
BRANCH   1  24
ATOM     24  C   UNL A   1      32.881  31.896  27.538  1.00  0.00     0.275 C 
BRANCH  24  25
ATOM     25  O   UNL A   1      34.152  31.278  27.258  1.00  0.00    -0.458 OA
BRANCH  25  26
ATOM     26  C   UNL A   1      34.290  30.000  27.677  1.00  0.00     0.338 C 
ATOM     27  O   UNL A   1      33.453  29.116  27.671  1.00  0.00    -0.246 OA
BRANCH  26  28
ATOM     28  C   UNL A   1      35.697  29.774  28.046  1.00  0.00     0.060 A 
ATOM     29  C   UNL A   1      36.687  29.953  27.076  1.00  0.00     0.016 A 
ATOM     30  C   UNL A   1      36.029  29.346  29.330  1.00  0.00     0.016 A 
ATOM     31  C   UNL A   1      38.024  29.729  27.391  1.00  0.00     0.010 A 
ATOM     32  C   UNL A   1      37.371  29.120  29.646  1.00  0.00     0.010 A 
ATOM     33  C   UNL A   1      38.374  29.313  28.680  1.00  0.00    -0.014 A 
BRANCH  33  34
ATOM     34  C   UNL A   1      39.793  29.059  29.021  1.00  0.00     0.031 A 
ATOM     35  C   UNL A   1      40.588  30.114  29.728  1.00  0.00     0.074 A 
ATOM     36  C   UNL A   1      40.364  27.890  28.677  1.00  0.00     0.049 A 
ATOM     37  N   UNL A   1      41.869  30.154  29.984  1.00  0.00    -0.248 NA
ATOM     38  C   UNL A   1      39.837  31.285  30.208  1.00  0.00     0.031 C 
ATOM     39  C   UNL A   1      39.676  26.775  28.029  1.00  0.00     0.029 A 
ATOM     40  N   UNL A   1      41.659  27.459  28.806  1.00  0.00    -0.354 N 
ATOM     41  C   UNL A   1      42.085  31.361  30.635  1.00  0.00     0.074 A 
ATOM     42  C   UNL A   1      40.805  32.030  30.724  1.00  0.00     0.031 C 
ATOM     43  C   UNL A   1      40.560  25.790  27.802  1.00  0.00     0.029 A 
ATOM     44  C   UNL A   1      41.882  26.228  28.239  1.00  0.00     0.049 A 
ATOM     45  H   UNL A   1      42.360  27.979  29.262  1.00  0.00     0.167 HD
ATOM     46  C   UNL A   1      43.250  31.857  31.115  1.00  0.00     0.037 A 
ATOM     47  C   UNL A   1      43.032  25.552  28.057  1.00  0.00     0.037 A 
ATOM     48  C   UNL A   1      44.516  31.180  31.027  1.00  0.00     0.049 A 
ATOM     49  C   UNL A   1      44.323  26.159  28.532  1.00  0.00     0.074 A 
ATOM     50  C   UNL A   1      45.752  31.591  31.494  1.00  0.00     0.029 A 
ATOM     51  N   UNL A   1      44.708  29.944  30.425  1.00  0.00    -0.354 N 
ATOM     52  N   UNL A   1      44.524  27.301  29.143  1.00  0.00    -0.248 NA
ATOM     53  C   UNL A   1      45.550  25.387  28.286  1.00  0.00     0.031 C 
ATOM     54  C   UNL A   1      46.700  30.626  31.137  1.00  0.00     0.029 A 
ATOM     55  C   UNL A   1      46.047  29.590  30.488  1.00  0.00     0.049 A 
ATOM     56  H   UNL A   1      43.999  29.399  30.014  1.00  0.00     0.167 HD
ATOM     57  C   UNL A   1      45.892  27.379  29.369  1.00  0.00     0.074 A 
ATOM     58  C   UNL A   1      46.471  26.160  28.843  1.00  0.00     0.031 C 
ATOM     59  C   UNL A   1      46.603  28.371  29.957  1.00  0.00     0.037 A 
BRANCH  46  60
ATOM     60  C   UNL A   1      43.211  33.216  31.747  1.00  0.00     0.064 A 
ATOM     61  C   UNL A   1      43.040  33.383  33.129  1.00  0.00     0.173 A 
ATOM     62  C   UNL A   1      43.375  34.368  30.963  1.00  0.00     0.173 A 
ATOM     63  F   UNL A   1      42.864  32.314  33.921  1.00  0.00    -0.203 F 
ATOM     64  C   UNL A   1      43.009  34.654  33.700  1.00  0.00     0.198 A 
ATOM     65  C   UNL A   1      43.370  35.635  31.539  1.00  0.00     0.198 A 
ATOM     66  F   UNL A   1      43.544  34.264  29.636  1.00  0.00    -0.203 F 
ATOM     67  F   UNL A   1      42.798  34.791  35.016  1.00  0.00    -0.200 F 
ATOM     68  C   UNL A   1      43.180  35.777  32.905  1.00  0.00     0.200 A 
ATOM     69  F   UNL A   1      43.543  36.721  30.771  1.00  0.00    -0.200 F 
ATOM     70  F   UNL A   1      43.153  36.999  33.455  1.00  0.00    -0.200 F 
ENDBRANCH  46  60
BRANCH  47  71
ATOM     71  C   UNL A   1      43.013  24.242  27.358  1.00  0.00     0.064 A 
ATOM     72  C   UNL A   1      42.659  23.067  28.035  1.00  0.00     0.173 A 
ATOM     73  C   UNL A   1      43.344  24.138  25.999  1.00  0.00     0.173 A 
ATOM     74  F   UNL A   1      42.359  23.111  29.341  1.00  0.00    -0.203 F 
ATOM     75  C   UNL A   1      42.646  21.836  27.380  1.00  0.00     0.198 A 
ATOM     76  C   UNL A   1      43.304  22.912  25.339  1.00  0.00     0.198 A 
ATOM     77  F   UNL A   1      43.692  25.233  25.307  1.00  0.00    -0.203 F 
ATOM     78  F   UNL A   1      42.342  20.722  28.060  1.00  0.00    -0.200 F 
ATOM     79  C   UNL A   1      42.962  21.761  26.032  1.00  0.00     0.200 A 
ATOM     80  F   UNL A   1      43.598  22.846  24.034  1.00  0.00    -0.200 F 
ATOM     81  F   UNL A   1      42.942  20.578  25.402  1.00  0.00    -0.200 F 
ENDBRANCH  47  71
BRANCH  59  82
ATOM     82  C   UNL A   1      48.085  28.170  30.084  1.00  0.00     0.064 A 
ATOM     83  C   UNL A   1      48.973  28.627  29.101  1.00  0.00     0.173 A 
ATOM     84  C   UNL A   1      48.623  27.555  31.224  1.00  0.00     0.173 A 
ATOM     85  F   UNL A   1      48.505  29.207  27.985  1.00  0.00    -0.203 F 
ATOM     86  C   UNL A   1      50.348  28.459  29.246  1.00  0.00     0.198 A 
ATOM     87  C   UNL A   1      49.998  27.411  31.378  1.00  0.00     0.198 A 
ATOM     88  F   UNL A   1      47.814  27.105  32.195  1.00  0.00    -0.203 F 
ATOM     89  F   UNL A   1      51.177  28.867  28.276  1.00  0.00    -0.200 F 
ATOM     90  C   UNL A   1      50.859  27.859  30.387  1.00  0.00     0.200 A 
ATOM     91  F   UNL A   1      50.492  26.841  32.486  1.00  0.00    -0.200 F 
ATOM     92  F   UNL A   1      52.183  27.705  30.529  1.00  0.00    -0.200 F 
ENDBRANCH  59  82
ENDBRANCH  33  34
ENDBRANCH  26  28
ENDBRANCH  25  26
ENDBRANCH  24  25
ENDBRANCH   1  24
TORSDOF 15
ENDMDL
MODEL 2
REMARK VINA RESULT:     -10.7      4.574     11.646
REMARK SMILES Nc1nonc1C(=O)N1[C@@H]2CC[C@H]1C[C@H](CC(=O)OCCOC(=O)c1ccc(-c3c4nc(c(-c5c(F)c(F)c(F)c(F)c5F)c5ccc([nH]5)c(-c5c(F)c(F)c(F)c(F)c5F)c5nc(c(-c6c(F)c(F)c(F)c(F)c6F)c6ccc3[nH]6)C=C5)C=C4)cc1)C2
REMARK SMILES IDX 20 1 19 2 17 3 18 4 16 5 15 6 9 7 10 8 13 9 11 10 88 11
REMARK SMILES IDX 12 12 14 13 7 14 8 15 6 16 2 17 3 18 4 19 5 20 1 21 21 24
REMARK SMILES IDX 22 25 23 26 24 27 25 28 26 29 87 30 27 31 86 32 28 33 29 34
REMARK SMILES IDX 30 35 80 36 31 37 85 38 79 39 81 40 32 41 84 42 78 43 77 44
REMARK SMILES IDX 33 46 65 47 45 48 64 49 46 50 49 51 63 52 82 53 47 54 48 55
REMARK SMILES IDX 62 57 83 58 50 59 34 60 35 61 43 62 36 63 37 64 41 65 44 66
REMARK SMILES IDX 38 67 39 68 42 69 40 70 66 71 67 72 75 73 68 74 69 75 73 76
REMARK SMILES IDX 76 77 70 78 71 79 74 80 72 81 51 82 52 83 60 84 53 85 54 86
REMARK SMILES IDX 58 87 61 88 55 89 56 90 59 91 57 92
REMARK H PARENT 1 22 1 23 81 45 49 56
REMARK Flexibility Score: inf
ROOT
ATOM      1  C   UNL A   1      40.049  19.961  26.134  1.00  0.00     0.274 C 
ENDROOT
BRANCH   1   2
ATOM      2  O   UNL A   1      40.430  20.415  27.445  1.00  0.00    -0.462 OA
BRANCH   2   3
ATOM      3  C   UNL A   1      41.715  20.811  27.596  1.00  0.00     0.306 C 
ATOM      4  O   UNL A   1      42.699  20.114  27.383  1.00  0.00    -0.252 OA
BRANCH   3   5
ATOM      5  C   UNL A   1      41.823  22.219  28.133  1.00  0.00     0.126 C 
BRANCH   5   6
ATOM      6  C   UNL A   1      42.715  23.209  27.347  1.00  0.00     0.004 C 
ATOM      7  N   UNL A   1      44.857  22.374  25.701  1.00  0.00    -0.331 N 
ATOM      8  C   UNL A   1      43.829  23.125  25.008  1.00  0.00     0.086 C 
ATOM      9  C   UNL A   1      45.275  23.231  26.798  1.00  0.00     0.086 C 
ATOM     10  C   UNL A   1      44.311  24.581  25.039  1.00  0.00     0.027 C 
ATOM     11  C   UNL A   1      42.556  22.915  25.827  1.00  0.00     0.029 C 
ATOM     12  C   UNL A   1      45.367  24.614  26.144  1.00  0.00     0.027 C 
ATOM     13  C   UNL A   1      44.182  23.211  27.876  1.00  0.00     0.029 C 
BRANCH   7  14
ATOM     14  C   UNL A   1      45.788  21.644  24.963  1.00  0.00     0.280 C 
ATOM     15  O   UNL A   1      46.549  22.212  24.179  1.00  0.00    -0.267 OA
BRANCH  14  16
ATOM     16  C   UNL A   1      45.726  20.184  25.094  1.00  0.00     0.216 A 
ATOM     17  C   UNL A   1      44.649  19.270  24.947  1.00  0.00     0.201 A 
ATOM     18  N   UNL A   1      45.085  18.026  25.118  1.00  0.00    -0.032 NA
ATOM     19  O   UNL A   1      46.446  18.147  25.337  1.00  0.00    -0.242 OA
ATOM     20  N   UNL A   1      46.841  19.475  25.329  1.00  0.00    -0.042 NA
BRANCH  17  21
ATOM     21  N   UNL A   1      43.375  19.563  24.645  1.00  0.00    -0.379 N 
ATOM     22  H   UNL A   1      42.858  20.166  25.228  1.00  0.00     0.158 HD
ATOM     23  H   UNL A   1      42.958  19.177  23.842  1.00  0.00     0.158 HD
ENDBRANCH  17  21
ENDBRANCH  14  16
ENDBRANCH   7  14
ENDBRANCH   5   6
ENDBRANCH   3   5
ENDBRANCH   2   3
ENDBRANCH   1   2
BRANCH   1  24
ATOM     24  C   UNL A   1      38.972  20.871  25.542  1.00  0.00     0.275 C 
BRANCH  24  25
ATOM     25  O   UNL A   1      39.338  22.258  25.678  1.00  0.00    -0.458 OA
BRANCH  25  26
ATOM     26  C   UNL A   1      38.337  23.099  26.024  1.00  0.00     0.338 C 
ATOM     27  O   UNL A   1      37.138  22.931  25.890  1.00  0.00    -0.246 OA
BRANCH  26  28
ATOM     28  C   UNL A   1      38.914  24.253  26.732  1.00  0.00     0.060 A 
ATOM     29  C   UNL A   1      38.574  24.463  28.071  1.00  0.00     0.016 A 
ATOM     30  C   UNL A   1      39.750  25.145  26.063  1.00  0.00     0.016 A 
ATOM     31  C   UNL A   1      39.090  25.556  28.761  1.00  0.00     0.010 A 
ATOM     32  C   UNL A   1      40.268  26.242  26.756  1.00  0.00     0.010 A 
ATOM     33  C   UNL A   1      39.942  26.451  28.107  1.00  0.00    -0.014 A 
BRANCH  33  34
ATOM     34  C   UNL A   1      40.486  27.625  28.829  1.00  0.00     0.031 A 
ATOM     35  C   UNL A   1      41.901  27.605  29.321  1.00  0.00     0.074 A 
ATOM     36  C   UNL A   1      39.699  28.693  29.056  1.00  0.00     0.049 A 
ATOM     37  N   UNL A   1      42.521  28.456  30.095  1.00  0.00    -0.248 NA
ATOM     38  C   UNL A   1      42.728  26.470  28.883  1.00  0.00     0.031 C 
ATOM     39  C   UNL A   1      38.323  28.841  28.584  1.00  0.00     0.029 A 
ATOM     40  N   UNL A   1      39.941  29.845  29.759  1.00  0.00    -0.354 N 
ATOM     41  C   UNL A   1      43.804  27.952  30.257  1.00  0.00     0.074 A 
ATOM     42  C   UNL A   1      43.870  26.714  29.511  1.00  0.00     0.031 C 
ATOM     43  C   UNL A   1      37.836  30.012  29.025  1.00  0.00     0.029 A 
ATOM     44  C   UNL A   1      38.845  30.667  29.852  1.00  0.00     0.049 A 
ATOM     45  H   UNL A   1      40.816  30.062  30.157  1.00  0.00     0.167 HD
ATOM     46  C   UNL A   1      44.830  28.482  30.964  1.00  0.00     0.037 A 
ATOM     47  C   UNL A   1      38.665  31.798  30.559  1.00  0.00     0.037 A 
ATOM     48  C   UNL A   1      44.755  29.718  31.697  1.00  0.00     0.049 A 
ATOM     49  C   UNL A   1      39.797  32.327  31.397  1.00  0.00     0.074 A 
ATOM     50  C   UNL A   1      45.742  30.348  32.435  1.00  0.00     0.029 A 
ATOM     51  N   UNL A   1      43.620  30.513  31.788  1.00  0.00    -0.354 N 
ATOM     52  N   UNL A   1      41.006  31.845  31.552  1.00  0.00    -0.248 NA
ATOM     53  C   UNL A   1      39.537  33.552  32.167  1.00  0.00     0.031 C 
ATOM     54  C   UNL A   1      45.193  31.501  33.007  1.00  0.00     0.029 A 
ATOM     55  C   UNL A   1      43.876  31.614  32.589  1.00  0.00     0.049 A 
ATOM     56  H   UNL A   1      42.761  30.322  31.348  1.00  0.00     0.167 HD
ATOM     57  C   UNL A   1      41.656  32.712  32.419  1.00  0.00     0.074 A 
ATOM     58  C   UNL A   1      40.711  33.760  32.746  1.00  0.00     0.031 C 
ATOM     59  C   UNL A   1      42.921  32.646  32.902  1.00  0.00     0.037 A 
BRANCH  46  60
ATOM     60  C   UNL A   1      46.112  27.705  31.007  1.00  0.00     0.064 A 
ATOM     61  C   UNL A   1      46.359  26.742  31.995  1.00  0.00     0.173 A 
ATOM     62  C   UNL A   1      47.097  27.910  30.029  1.00  0.00     0.173 A 
ATOM     63  F   UNL A   1      45.455  26.519  32.962  1.00  0.00    -0.203 F 
ATOM     64  C   UNL A   1      47.556  26.028  32.018  1.00  0.00     0.198 A 
ATOM     65  C   UNL A   1      48.281  27.178  30.039  1.00  0.00     0.198 A 
ATOM     66  F   UNL A   1      46.909  28.819  29.060  1.00  0.00    -0.203 F 
ATOM     67  F   UNL A   1      47.789  25.145  32.998  1.00  0.00    -0.200 F 
ATOM     68  C   UNL A   1      48.512  26.243  31.037  1.00  0.00     0.200 A 
ATOM     69  F   UNL A   1      49.201  27.380  29.085  1.00  0.00    -0.200 F 
ATOM     70  F   UNL A   1      49.661  25.555  31.057  1.00  0.00    -0.200 F 
ENDBRANCH  46  60
BRANCH  47  71
ATOM     71  C   UNL A   1      37.348  32.482  30.533  1.00  0.00     0.064 A 
ATOM     72  C   UNL A   1      36.398  32.261  31.540  1.00  0.00     0.173 A 
ATOM     73  C   UNL A   1      37.012  33.373  29.503  1.00  0.00     0.173 A 
ATOM     74  F   UNL A   1      36.664  31.398  32.532  1.00  0.00    -0.203 F 
ATOM     75  C   UNL A   1      35.159  32.899  31.512  1.00  0.00     0.198 A 
ATOM     76  C   UNL A   1      35.784  34.030  29.491  1.00  0.00     0.198 A 
ATOM     77  F   UNL A   1      37.885  33.617  28.514  1.00  0.00    -0.203 F 
ATOM     78  F   UNL A   1      34.255  32.641  32.466  1.00  0.00    -0.200 F 
ATOM     79  C   UNL A   1      34.856  33.788  30.492  1.00  0.00     0.200 A 
ATOM     80  F   UNL A   1      35.500  34.898  28.510  1.00  0.00    -0.200 F 
ATOM     81  F   UNL A   1      33.668  34.406  30.470  1.00  0.00    -0.200 F 
ENDBRANCH  47  71
BRANCH  59  82
ATOM     82  C   UNL A   1      43.363  33.749  33.818  1.00  0.00     0.064 A 
ATOM     83  C   UNL A   1      43.917  34.938  33.319  1.00  0.00     0.173 A 
ATOM     84  C   UNL A   1      43.189  33.635  35.204  1.00  0.00     0.173 A 
ATOM     85  F   UNL A   1      44.119  35.087  32.000  1.00  0.00    -0.203 F 
ATOM     86  C   UNL A   1      44.296  35.965  34.179  1.00  0.00     0.198 A 
ATOM     87  C   UNL A   1      43.545  34.674  36.058  1.00  0.00     0.198 A 
ATOM     88  F   UNL A   1      42.659  32.520  35.729  1.00  0.00    -0.203 F 
ATOM     89  F   UNL A   1      44.860  37.076  33.685  1.00  0.00    -0.200 F 
ATOM     90  C   UNL A   1      44.103  35.835  35.546  1.00  0.00     0.200 A 
ATOM     91  F   UNL A   1      43.348  34.552  37.379  1.00  0.00    -0.200 F 
ATOM     92  F   UNL A   1      44.462  36.829  36.371  1.00  0.00    -0.200 F 
ENDBRANCH  59  82
ENDBRANCH  33  34
ENDBRANCH  26  28
ENDBRANCH  25  26
ENDBRANCH  24  25
ENDBRANCH   1  24
TORSDOF 15
ENDMDL
MODEL 3
REMARK VINA RESULT:     -10.6      4.605     10.128
REMARK SMILES Nc1nonc1C(=O)N1[C@@H]2CC[C@H]1C[C@H](CC(=O)OCCOC(=O)c1ccc(-c3c4nc(c(-c5c(F)c(F)c(F)c(F)c5F)c5ccc([nH]5)c(-c5c(F)c(F)c(F)c(F)c5F)c5nc(c(-c6c(F)c(F)c(F)c(F)c6F)c6ccc3[nH]6)C=C5)C=C4)cc1)C2
REMARK SMILES IDX 20 1 19 2 17 3 18 4 16 5 15 6 9 7 10 8 13 9 11 10 88 11
REMARK SMILES IDX 12 12 14 13 7 14 8 15 6 16 2 17 3 18 4 19 5 20 1 21 21 24
REMARK SMILES IDX 22 25 23 26 24 27 25 28 26 29 87 30 27 31 86 32 28 33 29 34
REMARK SMILES IDX 30 35 80 36 31 37 85 38 79 39 81 40 32 41 84 42 78 43 77 44
REMARK SMILES IDX 33 46 65 47 45 48 64 49 46 50 49 51 63 52 82 53 47 54 48 55
REMARK SMILES IDX 62 57 83 58 50 59 34 60 35 61 43 62 36 63 37 64 41 65 44 66
REMARK SMILES IDX 38 67 39 68 42 69 40 70 66 71 67 72 75 73 68 74 69 75 73 76
REMARK SMILES IDX 76 77 70 78 71 79 74 80 72 81 51 82 52 83 60 84 53 85 54 86
REMARK SMILES IDX 58 87 61 88 55 89 56 90 59 91 57 92
REMARK H PARENT 1 22 1 23 81 45 49 56
REMARK Flexibility Score: inf
ROOT
ATOM      1  C   UNL A   1      32.821  31.682  27.485  1.00  0.00     0.274 C 
ENDROOT
BRANCH   1   2
ATOM      2  O   UNL A   1      34.164  31.198  27.665  1.00  0.00    -0.462 OA
BRANCH   2   3
ATOM      3  C   UNL A   1      34.364  29.880  27.437  1.00  0.00     0.306 C 
ATOM      4  O   UNL A   1      35.440  29.301  27.531  1.00  0.00    -0.252 OA
BRANCH   3   5
ATOM      5  C   UNL A   1      33.108  29.179  26.975  1.00  0.00     0.126 C 
BRANCH   5   6
ATOM      6  C   UNL A   1      33.279  27.816  26.262  1.00  0.00     0.004 C 
ATOM      7  N   UNL A   1      31.869  27.124  23.911  1.00  0.00    -0.331 N 
ATOM      8  C   UNL A   1      33.312  27.109  23.769  1.00  0.00     0.086 C 
ATOM      9  C   UNL A   1      31.592  26.239  25.029  1.00  0.00     0.086 C 
ATOM     10  C   UNL A   1      33.724  25.658  24.049  1.00  0.00     0.027 C 
ATOM     11  C   UNL A   1      33.832  28.078  24.830  1.00  0.00     0.029 C 
ATOM     12  C   UNL A   1      32.522  25.049  24.772  1.00  0.00     0.027 C 
ATOM     13  C   UNL A   1      31.978  26.959  26.329  1.00  0.00     0.029 C 
BRANCH   7  14
ATOM     14  C   UNL A   1      31.068  27.116  22.769  1.00  0.00     0.280 C 
ATOM     15  O   UNL A   1      31.389  26.449  21.785  1.00  0.00    -0.267 OA
BRANCH  14  16
ATOM     16  C   UNL A   1      29.910  28.016  22.778  1.00  0.00     0.216 A 
ATOM     17  C   UNL A   1      29.732  29.327  22.263  1.00  0.00     0.201 A 
ATOM     18  N   UNL A   1      28.482  29.729  22.468  1.00  0.00    -0.032 NA
ATOM     19  O   UNL A   1      27.854  28.657  23.080  1.00  0.00    -0.242 OA
ATOM     20  N   UNL A   1      28.733  27.605  23.277  1.00  0.00    -0.042 NA
BRANCH  17  21
ATOM     21  N   UNL A   1      30.646  30.076  21.626  1.00  0.00    -0.379 N 
ATOM     22  H   UNL A   1      30.441  30.452  20.739  1.00  0.00     0.158 HD
ATOM     23  H   UNL A   1      31.518  30.251  22.046  1.00  0.00     0.158 HD
ENDBRANCH  17  21
ENDBRANCH  14  16
ENDBRANCH   7  14
ENDBRANCH   5   6
ENDBRANCH   3   5
ENDBRANCH   2   3
ENDBRANCH   1   2
BRANCH   1  24
ATOM     24  C   UNL A   1      32.828  33.175  27.150  1.00  0.00     0.275 C 
BRANCH  24  25
ATOM     25  O   UNL A   1      32.169  33.937  28.179  1.00  0.00    -0.458 OA
BRANCH  25  26
ATOM     26  C   UNL A   1      32.906  34.917  28.750  1.00  0.00     0.338 C 
ATOM     27  O   UNL A   1      32.622  36.096  28.863  1.00  0.00    -0.246 OA
BRANCH  26  28
ATOM     28  C   UNL A   1      34.104  34.315  29.356  1.00  0.00     0.060 A 
ATOM     29  C   UNL A   1      33.953  33.483  30.468  1.00  0.00     0.016 A 
ATOM     30  C   UNL A   1      35.371  34.607  28.854  1.00  0.00     0.016 A 
ATOM     31  C   UNL A   1      35.070  32.915  31.074  1.00  0.00     0.010 A 
ATOM     32  C   UNL A   1      36.492  34.037  29.462  1.00  0.00     0.010 A 
ATOM     33  C   UNL A   1      36.347  33.187  30.572  1.00  0.00    -0.014 A 
BRANCH  33  34
ATOM     34  C   UNL A   1      37.542  32.598  31.218  1.00  0.00     0.031 A 
ATOM     35  C   UNL A   1      38.278  31.481  30.541  1.00  0.00     0.074 A 
ATOM     36  C   UNL A   1      37.948  33.055  32.416  1.00  0.00     0.049 A 
ATOM     37  N   UNL A   1      39.248  30.732  30.996  1.00  0.00    -0.248 NA
ATOM     38  C   UNL A   1      37.862  31.164  29.166  1.00  0.00     0.031 C 
ATOM     39  C   UNL A   1      37.338  34.166  33.145  1.00  0.00     0.029 A 
ATOM     40  N   UNL A   1      38.958  32.625  33.239  1.00  0.00    -0.354 N 
ATOM     41  C   UNL A   1      39.546  29.841  29.975  1.00  0.00     0.074 A 
ATOM     42  C   UNL A   1      38.644  30.132  28.881  1.00  0.00     0.031 C 
ATOM     43  C   UNL A   1      37.976  34.321  34.316  1.00  0.00     0.029 A 
ATOM     44  C   UNL A   1      39.000  33.288  34.440  1.00  0.00     0.049 A 
ATOM     45  H   UNL A   1      39.590  31.912  32.992  1.00  0.00     0.167 HD
ATOM     46  C   UNL A   1      40.489  28.869  29.959  1.00  0.00     0.037 A 
ATOM     47  C   UNL A   1      39.753  33.059  35.533  1.00  0.00     0.037 A 
ATOM     48  C   UNL A   1      41.384  28.592  31.051  1.00  0.00     0.049 A 
ATOM     49  C   UNL A   1      40.742  31.926  35.517  1.00  0.00     0.074 A 
ATOM     50  C   UNL A   1      42.384  27.639  31.129  1.00  0.00     0.029 A 
ATOM     51  N   UNL A   1      41.383  29.270  32.262  1.00  0.00    -0.354 N 
ATOM     52  N   UNL A   1      41.017  31.082  34.552  1.00  0.00    -0.248 NA
ATOM     53  C   UNL A   1      41.521  31.707  36.745  1.00  0.00     0.031 C 
ATOM     54  C   UNL A   1      42.960  27.710  32.402  1.00  0.00     0.029 A 
ATOM     55  C   UNL A   1      42.349  28.739  33.102  1.00  0.00     0.049 A 
ATOM     56  H   UNL A   1      40.785  30.017  32.491  1.00  0.00     0.167 HD
ATOM     57  C   UNL A   1      42.008  30.245  35.047  1.00  0.00     0.074 A 
ATOM     58  C   UNL A   1      42.298  30.692  36.393  1.00  0.00     0.031 C 
ATOM     59  C   UNL A   1      42.621  29.199  34.441  1.00  0.00     0.037 A 
BRANCH  46  60
ATOM     60  C   UNL A   1      40.575  28.012  28.732  1.00  0.00     0.064 A 
ATOM     61  C   UNL A   1      41.367  28.374  27.633  1.00  0.00     0.173 A 
ATOM     62  C   UNL A   1      39.875  26.797  28.665  1.00  0.00     0.173 A 
ATOM     63  F   UNL A   1      42.043  29.533  27.640  1.00  0.00    -0.203 F 
ATOM     64  C   UNL A   1      41.436  27.563  26.502  1.00  0.00     0.198 A 
ATOM     65  C   UNL A   1      39.967  25.977  27.545  1.00  0.00     0.198 A 
ATOM     66  F   UNL A   1      39.105  26.404  29.691  1.00  0.00    -0.203 F 
ATOM     67  F   UNL A   1      42.164  27.951  25.445  1.00  0.00    -0.200 F 
ATOM     68  C   UNL A   1      40.741  26.364  26.461  1.00  0.00     0.200 A 
ATOM     69  F   UNL A   1      39.302  24.814  27.510  1.00  0.00    -0.200 F 
ATOM     70  F   UNL A   1      40.811  25.584  25.374  1.00  0.00    -0.200 F 
ENDBRANCH  46  60
BRANCH  47  71
ATOM     71  C   UNL A   1      39.570  33.899  36.744  1.00  0.00     0.064 A 
ATOM     72  C   UNL A   1      38.735  33.484  37.790  1.00  0.00     0.173 A 
ATOM     73  C   UNL A   1      40.228  35.130  36.881  1.00  0.00     0.173 A 
ATOM     74  F   UNL A   1      38.065  32.327  37.694  1.00  0.00    -0.203 F 
ATOM     75  C   UNL A   1      38.558  34.275  38.925  1.00  0.00     0.198 A 
ATOM     76  C   UNL A   1      40.072  35.906  38.027  1.00  0.00     0.198 A 
ATOM     77  F   UNL A   1      41.036  35.572  35.907  1.00  0.00    -0.203 F 
ATOM     78  F   UNL A   1      37.724  33.874  39.894  1.00  0.00    -0.200 F 
ATOM     79  C   UNL A   1      39.232  35.481  39.046  1.00  0.00     0.200 A 
ATOM     80  F   UNL A   1      40.734  37.065  38.145  1.00  0.00    -0.200 F 
ATOM     81  F   UNL A   1      39.067  36.237  40.140  1.00  0.00    -0.200 F 
ENDBRANCH  47  71
BRANCH  59  82
ATOM     82  C   UNL A   1      43.683  28.481  35.221  1.00  0.00     0.064 A 
ATOM     83  C   UNL A   1      45.031  28.860  35.144  1.00  0.00     0.173 A 
ATOM     84  C   UNL A   1      43.341  27.435  36.089  1.00  0.00     0.173 A 
ATOM     85  F   UNL A   1      45.409  29.845  34.314  1.00  0.00    -0.203 F 
ATOM     86  C   UNL A   1      46.002  28.203  35.896  1.00  0.00     0.198 A 
ATOM     87  C   UNL A   1      44.310  26.798  36.858  1.00  0.00     0.198 A 
ATOM     88  F   UNL A   1      42.064  27.039  36.201  1.00  0.00    -0.203 F 
ATOM     89  F   UNL A   1      47.289  28.555  35.778  1.00  0.00    -0.200 F 
ATOM     90  C   UNL A   1      45.639  27.179  36.758  1.00  0.00     0.200 A 
ATOM     91  F   UNL A   1      43.957  25.815  37.699  1.00  0.00    -0.200 F 
ATOM     92  F   UNL A   1      46.574  26.554  37.487  1.00  0.00    -0.200 F 
ENDBRANCH  59  82
ENDBRANCH  33  34
ENDBRANCH  26  28
ENDBRANCH  25  26
ENDBRANCH  24  25
ENDBRANCH   1  24
TORSDOF 15
ENDMDL
