MODEL 1
REMARK VINA RESULT:     -12.2      0.000      0.000
REMARK SMILES CC[N@@H+](C)Cc1cc2c(cc1Cl)C=C(C(=O)OCCOC(=O)c1ccc(-c3c4nc(c(-c5c(F)c(F)c(F)c(F)c5F)c5ccc([nH]5)c(-c5c(F)c(F)c(F)c(F)c5F)c5nc(c(-c6c(F)c(F)c(F)c(F)c6F)c6ccc3[nH]6)C=C5)C=C4)cc1)[C@@H](C(F)(F)F)O2
REMARK SMILES IDX 18 1 17 2 15 3 16 4 14 5 6 6 7 7 11 8 8 9 10 10 12 11 9 12
REMARK SMILES IDX 91 13 13 14 86 15 5 16 3 17 4 18 2 20 1 21 87 22 88 23 89 24
REMARK SMILES IDX 90 25 19 26 20 27 21 28 22 29 23 30 24 31 85 32 25 33 84 34
REMARK SMILES IDX 26 35 27 36 28 37 78 38 29 39 83 40 77 41 79 42 30 43 82 44
REMARK SMILES IDX 76 45 75 46 31 48 63 49 43 50 62 51 44 52 47 53 61 54 80 55
REMARK SMILES IDX 45 56 46 57 60 59 81 60 48 61 32 62 33 63 41 64 34 65 35 66
REMARK SMILES IDX 39 67 42 68 36 69 37 70 40 71 38 72 64 73 65 74 73 75 66 76
REMARK SMILES IDX 67 77 71 78 74 79 68 80 69 81 72 82 70 83 49 84 50 85 58 86
REMARK SMILES IDX 51 87 52 88 56 89 59 90 53 91 54 92 57 93 55 94
REMARK H PARENT 3 19 79 47 47 58
REMARK Flexibility Score: inf
ROOT
ATOM      1  C   UNL A   1      36.276  20.337  25.039  1.00  0.00     0.275 C 
ENDROOT
BRANCH   1   2
ATOM      2  O   UNL A   1      36.040  21.563  25.763  1.00  0.00    -0.459 OA
BRANCH   2   3
ATOM      3  C   UNL A   1      34.750  21.960  25.845  1.00  0.00     0.338 C 
ATOM      4  O   UNL A   1      33.864  21.440  26.505  1.00  0.00    -0.246 OA
BRANCH   3   5
ATOM      5  C   UNL A   1      34.549  23.183  25.049  1.00  0.00     0.087 C 
ATOM      6  C   UNL A   1      33.151  27.717  23.448  1.00  0.00     0.029 A 
ATOM      7  C   UNL A   1      33.615  26.548  22.815  1.00  0.00     0.058 A 
ATOM      8  C   UNL A   1      33.286  27.810  24.843  1.00  0.00     0.050 A 
ATOM      9  C   UNL A   1      34.023  25.442  23.549  1.00  0.00     0.128 A 
ATOM     10  C   UNL A   1      33.761  26.723  25.579  1.00  0.00     0.033 A 
ATOM     11  Cl  UNL A   1      32.857  29.226  25.735  1.00  0.00    -0.084 Cl
ATOM     12  C   UNL A   1      34.075  25.524  24.934  1.00  0.00     0.019 A 
ATOM     13  O   UNL A   1      34.345  24.316  22.844  1.00  0.00    -0.475 OA
ATOM     14  C   UNL A   1      34.411  24.344  25.699  1.00  0.00     0.027 C 
ATOM     15  C   UNL A   1      34.369  23.052  23.564  1.00  0.00     0.316 C 
BRANCH   6  16
ATOM     16  C   UNL A   1      32.458  28.780  22.617  1.00  0.00     0.300 C 
BRANCH  16  17
ATOM     17  N   UNL A   1      31.005  28.596  22.412  1.00  0.00    -0.334 N 
ATOM     18  C   UNL A   1      30.212  29.550  23.194  1.00  0.00     0.333 C 
ATOM     19  H   UNL A   1      30.896  28.789  21.417  1.00  0.00     0.348 HD
BRANCH  17  20
ATOM     20  C   UNL A   1      30.483  27.236  22.584  1.00  0.00     0.258 C 
ATOM     21  C   UNL A   1      29.472  27.086  23.717  1.00  0.00     0.071 C 
ENDBRANCH  17  20
ENDBRANCH  16  17
ENDBRANCH   6  16
BRANCH  15  22
ATOM     22  C   UNL A   1      33.100  22.244  23.243  1.00  0.00     0.430 C 
ATOM     23  F   UNL A   1      32.737  22.383  21.946  1.00  0.00    -0.167 F 
ATOM     24  F   UNL A   1      33.295  20.920  23.453  1.00  0.00    -0.167 F 
ATOM     25  F   UNL A   1      32.046  22.621  24.003  1.00  0.00    -0.167 F 
ENDBRANCH  15  22
ENDBRANCH   3   5
ENDBRANCH   2   3
ENDBRANCH   1   2
BRANCH   1  26
ATOM     26  C   UNL A   1      37.768  20.009  25.008  1.00  0.00     0.275 C 
BRANCH  26  27
ATOM     27  O   UNL A   1      38.538  21.168  25.383  1.00  0.00    -0.458 OA
BRANCH  27  28
ATOM     28  C   UNL A   1      39.530  20.947  26.273  1.00  0.00     0.338 C 
ATOM     29  O   UNL A   1      40.052  19.886  26.564  1.00  0.00    -0.246 OA
BRANCH  28  30
ATOM     30  C   UNL A   1      39.993  22.234  26.813  1.00  0.00     0.060 A 
ATOM     31  C   UNL A   1      41.072  22.304  27.688  1.00  0.00     0.016 A 
ATOM     32  C   UNL A   1      39.434  23.400  26.306  1.00  0.00     0.016 A 
ATOM     33  C   UNL A   1      41.573  23.561  28.052  1.00  0.00     0.010 A 
ATOM     34  C   UNL A   1      40.039  24.630  26.535  1.00  0.00     0.010 A 
ATOM     35  C   UNL A   1      41.094  24.740  27.444  1.00  0.00    -0.014 A 
BRANCH  35  36
ATOM     36  C   UNL A   1      41.667  26.084  27.753  1.00  0.00     0.031 A 
ATOM     37  C   UNL A   1      43.043  26.469  27.255  1.00  0.00     0.074 A 
ATOM     38  C   UNL A   1      40.982  26.944  28.534  1.00  0.00     0.049 A 
ATOM     39  N   UNL A   1      43.730  27.563  27.479  1.00  0.00    -0.248 NA
ATOM     40  C   UNL A   1      43.765  25.479  26.440  1.00  0.00     0.031 C 
ATOM     41  C   UNL A   1      39.688  26.671  29.162  1.00  0.00     0.029 A 
ATOM     42  N   UNL A   1      41.275  28.227  28.929  1.00  0.00    -0.354 N 
ATOM     43  C   UNL A   1      44.964  27.371  26.868  1.00  0.00     0.074 A 
ATOM     44  C   UNL A   1      44.964  26.031  26.330  1.00  0.00     0.031 C 
ATOM     45  C   UNL A   1      39.265  27.774  29.797  1.00  0.00     0.029 A 
ATOM     46  C   UNL A   1      40.277  28.816  29.668  1.00  0.00     0.049 A 
ATOM     47  H   UNL A   1      42.118  28.681  28.703  1.00  0.00     0.167 HD
ATOM     48  C   UNL A   1      45.991  28.243  26.725  1.00  0.00     0.037 A 
ATOM     49  C   UNL A   1      40.181  30.060  30.175  1.00  0.00     0.037 A 
ATOM     50  C   UNL A   1      45.966  29.602  27.199  1.00  0.00     0.049 A 
ATOM     51  C   UNL A   1      41.303  31.034  29.948  1.00  0.00     0.074 A 
ATOM     52  C   UNL A   1      46.926  30.588  27.045  1.00  0.00     0.029 A 
ATOM     53  N   UNL A   1      44.917  30.171  27.904  1.00  0.00    -0.354 N 
ATOM     54  N   UNL A   1      42.439  30.853  29.321  1.00  0.00    -0.248 NA
ATOM     55  C   UNL A   1      41.124  32.388  30.490  1.00  0.00     0.031 C 
ATOM     56  C   UNL A   1      46.469  31.745  27.683  1.00  0.00     0.029 A 
ATOM     57  C   UNL A   1      45.204  31.495  28.192  1.00  0.00     0.049 A 
ATOM     58  H   UNL A   1      44.090  29.702  28.162  1.00  0.00     0.167 HD
ATOM     59  C   UNL A   1      43.101  32.073  29.372  1.00  0.00     0.074 A 
ATOM     60  C   UNL A   1      42.229  32.992  30.076  1.00  0.00     0.031 C 
ATOM     61  C   UNL A   1      44.322  32.400  28.882  1.00  0.00     0.037 A 
BRANCH  48  62
ATOM     62  C   UNL A   1      47.216  27.772  25.990  1.00  0.00     0.064 A 
ATOM     63  C   UNL A   1      48.335  27.270  26.674  1.00  0.00     0.173 A 
ATOM     64  C   UNL A   1      47.257  27.772  24.587  1.00  0.00     0.173 A 
ATOM     65  F   UNL A   1      48.355  27.256  28.016  1.00  0.00    -0.203 F 
ATOM     66  C   UNL A   1      49.456  26.815  25.985  1.00  0.00     0.198 A 
ATOM     67  C   UNL A   1      48.366  27.283  23.900  1.00  0.00     0.198 A 
ATOM     68  F   UNL A   1      46.214  28.231  23.880  1.00  0.00    -0.203 F 
ATOM     69  F   UNL A   1      50.530  26.389  26.664  1.00  0.00    -0.200 F 
ATOM     70  C   UNL A   1      49.468  26.813  24.600  1.00  0.00     0.200 A 
ATOM     71  F   UNL A   1      48.368  27.264  22.560  1.00  0.00    -0.200 F 
ATOM     72  F   UNL A   1      50.542  26.360  23.937  1.00  0.00    -0.200 F 
ENDBRANCH  48  62
BRANCH  49  73
ATOM     73  C   UNL A   1      38.938  30.469  30.882  1.00  0.00     0.064 A 
ATOM     74  C   UNL A   1      38.846  30.368  32.277  1.00  0.00     0.173 A 
ATOM     75  C   UNL A   1      37.841  31.005  30.192  1.00  0.00     0.173 A 
ATOM     76  F   UNL A   1      39.861  29.846  32.980  1.00  0.00    -0.203 F 
ATOM     77  C   UNL A   1      37.702  30.783  32.956  1.00  0.00     0.198 A 
ATOM     78  C   UNL A   1      36.708  31.445  30.874  1.00  0.00     0.198 A 
ATOM     79  F   UNL A   1      37.884  31.130  28.857  1.00  0.00    -0.203 F 
ATOM     80  F   UNL A   1      37.629  30.649  34.287  1.00  0.00    -0.200 F 
ATOM     81  C   UNL A   1      36.637  31.330  32.254  1.00  0.00     0.200 A 
ATOM     82  F   UNL A   1      35.690  31.990  30.196  1.00  0.00    -0.200 F 
ATOM     83  F   UNL A   1      35.544  31.746  32.909  1.00  0.00    -0.200 F 
ENDBRANCH  49  73
BRANCH  61  84
ATOM     84  C   UNL A   1      44.777  33.820  29.051  1.00  0.00     0.064 A 
ATOM     85  C   UNL A   1      45.542  34.221  30.156  1.00  0.00     0.173 A 
ATOM     86  C   UNL A   1      44.485  34.778  28.070  1.00  0.00     0.173 A 
ATOM     87  F   UNL A   1      45.838  33.343  31.127  1.00  0.00    -0.203 F 
ATOM     88  C   UNL A   1      45.975  35.538  30.284  1.00  0.00     0.198 A 
ATOM     89  C   UNL A   1      44.946  36.086  28.185  1.00  0.00     0.198 A 
ATOM     90  F   UNL A   1      43.766  34.442  26.988  1.00  0.00    -0.203 F 
ATOM     91  F   UNL A   1      46.665  35.910  31.371  1.00  0.00    -0.200 F 
ATOM     92  C   UNL A   1      45.683  36.466  29.296  1.00  0.00     0.200 A 
ATOM     93  F   UNL A   1      44.677  36.978  27.223  1.00  0.00    -0.200 F 
ATOM     94  F   UNL A   1      46.109  37.731  29.418  1.00  0.00    -0.200 F 
ENDBRANCH  61  84
ENDBRANCH  35  36
ENDBRANCH  28  30
ENDBRANCH  27  28
ENDBRANCH  26  27
ENDBRANCH   1  26
TORSDOF 15
ENDMDL
MODEL 2
REMARK VINA RESULT:     -12.1      0.323      1.659
REMARK SMILES CC[N@@H+](C)Cc1cc2c(cc1Cl)C=C(C(=O)OCCOC(=O)c1ccc(-c3c4nc(c(-c5c(F)c(F)c(F)c(F)c5F)c5ccc([nH]5)c(-c5c(F)c(F)c(F)c(F)c5F)c5nc(c(-c6c(F)c(F)c(F)c(F)c6F)c6ccc3[nH]6)C=C5)C=C4)cc1)[C@@H](C(F)(F)F)O2
REMARK SMILES IDX 18 1 17 2 15 3 16 4 14 5 6 6 7 7 11 8 8 9 10 10 12 11 9 12
REMARK SMILES IDX 91 13 13 14 86 15 5 16 3 17 4 18 2 20 1 21 87 22 88 23 89 24
REMARK SMILES IDX 90 25 19 26 20 27 21 28 22 29 23 30 24 31 85 32 25 33 84 34
REMARK SMILES IDX 26 35 27 36 28 37 78 38 29 39 83 40 77 41 79 42 30 43 82 44
REMARK SMILES IDX 76 45 75 46 31 48 63 49 43 50 62 51 44 52 47 53 61 54 80 55
REMARK SMILES IDX 45 56 46 57 60 59 81 60 48 61 32 62 33 63 41 64 34 65 35 66
REMARK SMILES IDX 39 67 42 68 36 69 37 70 40 71 38 72 64 73 65 74 73 75 66 76
REMARK SMILES IDX 67 77 71 78 74 79 68 80 69 81 72 82 70 83 49 84 50 85 58 86
REMARK SMILES IDX 51 87 52 88 56 89 59 90 53 91 54 92 57 93 55 94
REMARK H PARENT 3 19 79 47 47 58
REMARK Flexibility Score: inf
ROOT
ATOM      1  C   UNL A   1      35.987  20.288  25.070  1.00  0.00     0.275 C 
ENDROOT
BRANCH   1   2
ATOM      2  O   UNL A   1      35.712  21.396  25.954  1.00  0.00    -0.459 OA
BRANCH   2   3
ATOM      3  C   UNL A   1      34.426  21.812  25.993  1.00  0.00     0.338 C 
ATOM      4  O   UNL A   1      33.509  21.301  26.617  1.00  0.00    -0.246 OA
BRANCH   3   5
ATOM      5  C   UNL A   1      34.273  23.045  25.201  1.00  0.00     0.087 C 
ATOM      6  C   UNL A   1      33.093  27.651  23.632  1.00  0.00     0.029 A 
ATOM      7  C   UNL A   1      33.471  26.457  22.988  1.00  0.00     0.058 A 
ATOM      8  C   UNL A   1      33.273  27.737  25.022  1.00  0.00     0.050 A 
ATOM      9  C   UNL A   1      33.836  25.330  23.713  1.00  0.00     0.128 A 
ATOM     10  C   UNL A   1      33.706  26.624  25.747  1.00  0.00     0.033 A 
ATOM     11  Cl  UNL A   1      32.952  29.176  25.924  1.00  0.00    -0.084 Cl
ATOM     12  C   UNL A   1      33.932  25.409  25.095  1.00  0.00     0.019 A 
ATOM     13  O   UNL A   1      34.072  24.188  23.001  1.00  0.00    -0.475 OA
ATOM     14  C   UNL A   1      34.220  24.212  25.853  1.00  0.00     0.027 C 
ATOM     15  C   UNL A   1      34.043  22.924  23.722  1.00  0.00     0.316 C 
BRANCH   6  16
ATOM     16  C   UNL A   1      32.439  28.753  22.819  1.00  0.00     0.300 C 
BRANCH  16  17
ATOM     17  N   UNL A   1      31.027  28.526  22.441  1.00  0.00    -0.334 N 
ATOM     18  C   UNL A   1      30.385  29.750  21.951  1.00  0.00     0.333 C 
ATOM     19  H   UNL A   1      31.107  27.849  21.683  1.00  0.00     0.348 HD
BRANCH  17  20
ATOM     20  C   UNL A   1      30.177  27.866  23.438  1.00  0.00     0.258 C 
ATOM     21  C   UNL A   1      28.679  28.017  23.189  1.00  0.00     0.071 C 
ENDBRANCH  17  20
ENDBRANCH  16  17
ENDBRANCH   6  16
BRANCH  15  22
ATOM     22  C   UNL A   1      32.722  22.190  23.438  1.00  0.00     0.430 C 
ATOM     23  F   UNL A   1      31.772  22.506  24.350  1.00  0.00    -0.167 F 
ATOM     24  F   UNL A   1      32.224  22.528  22.224  1.00  0.00    -0.167 F 
ATOM     25  F   UNL A   1      32.870  20.845  23.454  1.00  0.00    -0.167 F 
ENDBRANCH  15  22
ENDBRANCH   3   5
ENDBRANCH   2   3
ENDBRANCH   1   2
BRANCH   1  26
ATOM     26  C   UNL A   1      37.486  20.182  24.792  1.00  0.00     0.275 C 
BRANCH  26  27
ATOM     27  O   UNL A   1      38.171  21.332  25.323  1.00  0.00    -0.458 OA
BRANCH  27  28
ATOM     28  C   UNL A   1      39.242  21.065  26.102  1.00  0.00     0.338 C 
ATOM     29  O   UNL A   1      39.791  19.993  26.278  1.00  0.00    -0.246 OA
BRANCH  28  30
ATOM     30  C   UNL A   1      39.752  22.321  26.674  1.00  0.00     0.060 A 
ATOM     31  C   UNL A   1      40.862  22.335  27.511  1.00  0.00     0.016 A 
ATOM     32  C   UNL A   1      39.199  23.517  26.233  1.00  0.00     0.016 A 
ATOM     33  C   UNL A   1      41.402  23.566  27.905  1.00  0.00     0.010 A 
ATOM     34  C   UNL A   1      39.837  24.725  26.487  1.00  0.00     0.010 A 
ATOM     35  C   UNL A   1      40.926  24.778  27.361  1.00  0.00    -0.014 A 
BRANCH  35  36
ATOM     36  C   UNL A   1      41.538  26.097  27.700  1.00  0.00     0.031 A 
ATOM     37  C   UNL A   1      42.925  26.453  27.211  1.00  0.00     0.074 A 
ATOM     38  C   UNL A   1      40.878  26.958  28.500  1.00  0.00     0.049 A 
ATOM     39  N   UNL A   1      43.644  27.521  27.460  1.00  0.00    -0.248 NA
ATOM     40  C   UNL A   1      43.619  25.462  26.374  1.00  0.00     0.031 C 
ATOM     41  C   UNL A   1      39.576  26.710  29.122  1.00  0.00     0.029 A 
ATOM     42  N   UNL A   1      41.208  28.223  28.925  1.00  0.00    -0.354 N 
ATOM     43  C   UNL A   1      44.873  27.307  26.845  1.00  0.00     0.074 A 
ATOM     44  C   UNL A   1      44.833  25.980  26.277  1.00  0.00     0.031 C 
ATOM     45  C   UNL A   1      39.185  27.809  29.782  1.00  0.00     0.029 A 
ATOM     46  C   UNL A   1      40.227  28.825  29.677  1.00  0.00     0.049 A 
ATOM     47  H   UNL A   1      42.064  28.657  28.710  1.00  0.00     0.167 HD
ATOM     48  C   UNL A   1      45.925  28.152  26.722  1.00  0.00     0.037 A 
ATOM     49  C   UNL A   1      40.167  30.059  30.212  1.00  0.00     0.037 A 
ATOM     50  C   UNL A   1      45.939  29.500  27.227  1.00  0.00     0.049 A 
ATOM     51  C   UNL A   1      41.317  31.005  30.007  1.00  0.00     0.074 A 
ATOM     52  C   UNL A   1      46.927  30.460  27.096  1.00  0.00     0.029 A 
ATOM     53  N   UNL A   1      44.906  30.083  27.945  1.00  0.00    -0.354 N 
ATOM     54  N   UNL A   1      42.448  30.805  29.377  1.00  0.00    -0.248 NA
ATOM     55  C   UNL A   1      41.178  32.350  30.580  1.00  0.00     0.031 C 
ATOM     56  C   UNL A   1      46.504  31.615  27.760  1.00  0.00     0.029 A 
ATOM     57  C   UNL A   1      45.232  31.391  28.263  1.00  0.00     0.049 A 
ATOM     58  H   UNL A   1      44.066  29.633  28.192  1.00  0.00     0.167 HD
ATOM     59  C   UNL A   1      43.145  32.003  29.455  1.00  0.00     0.074 A 
ATOM     60  C   UNL A   1      42.300  32.931  30.180  1.00  0.00     0.031 C 
ATOM     61  C   UNL A   1      44.376  32.305  28.974  1.00  0.00     0.037 A 
BRANCH  48  62
ATOM     62  C   UNL A   1      47.136  27.662  25.977  1.00  0.00     0.064 A 
ATOM     63  C   UNL A   1      47.217  27.737  24.578  1.00  0.00     0.173 A 
ATOM     64  C   UNL A   1      48.250  27.161  26.668  1.00  0.00     0.173 A 
ATOM     65  F   UNL A   1      46.178  28.199  23.865  1.00  0.00    -0.203 F 
ATOM     66  C   UNL A   1      48.352  27.303  23.897  1.00  0.00     0.198 A 
ATOM     67  C   UNL A   1      49.397  26.759  25.988  1.00  0.00     0.198 A 
ATOM     68  F   UNL A   1      48.233  27.074  28.007  1.00  0.00    -0.203 F 
ATOM     69  F   UNL A   1      48.383  27.338  22.558  1.00  0.00    -0.200 F 
ATOM     70  C   UNL A   1      49.444  26.823  24.602  1.00  0.00     0.200 A 
ATOM     71  F   UNL A   1      50.460  26.313  26.671  1.00  0.00    -0.200 F 
ATOM     72  F   UNL A   1      50.542  26.419  23.948  1.00  0.00    -0.200 F 
ENDBRANCH  48  62
BRANCH  49  73
ATOM     73  C   UNL A   1      38.936  30.488  30.928  1.00  0.00     0.064 A 
ATOM     74  C   UNL A   1      38.856  30.399  32.325  1.00  0.00     0.173 A 
ATOM     75  C   UNL A   1      37.839  31.031  30.245  1.00  0.00     0.173 A 
ATOM     76  F   UNL A   1      39.872  29.870  33.021  1.00  0.00    -0.203 F 
ATOM     77  C   UNL A   1      37.724  30.832  33.011  1.00  0.00     0.198 A 
ATOM     78  C   UNL A   1      36.718  31.490  30.935  1.00  0.00     0.198 A 
ATOM     79  F   UNL A   1      37.869  31.146  28.909  1.00  0.00    -0.203 F 
ATOM     80  F   UNL A   1      37.663  30.709  34.344  1.00  0.00    -0.200 F 
ATOM     81  C   UNL A   1      36.659  31.386  32.316  1.00  0.00     0.200 A 
ATOM     82  F   UNL A   1      35.700  32.042  30.261  1.00  0.00    -0.200 F 
ATOM     83  F   UNL A   1      35.577  31.820  32.978  1.00  0.00    -0.200 F 
ENDBRANCH  49  73
BRANCH  61  84
ATOM     84  C   UNL A   1      44.872  33.707  29.175  1.00  0.00     0.064 A 
ATOM     85  C   UNL A   1      44.587  34.727  28.257  1.00  0.00     0.173 A 
ATOM     86  C   UNL A   1      45.597  34.043  30.328  1.00  0.00     0.173 A 
ATOM     87  F   UNL A   1      43.906  34.455  27.133  1.00  0.00    -0.203 F 
ATOM     88  C   UNL A   1      45.036  36.028  28.472  1.00  0.00     0.198 A 
ATOM     89  C   UNL A   1      46.016  35.349  30.556  1.00  0.00     0.198 A 
ATOM     90  F   UNL A   1      45.885  33.104  31.244  1.00  0.00    -0.203 F 
ATOM     91  F   UNL A   1      44.793  36.978  27.558  1.00  0.00    -0.200 F 
ATOM     92  C   UNL A   1      45.742  36.339  29.624  1.00  0.00     0.200 A 
ATOM     93  F   UNL A   1      46.685  35.652  31.677  1.00  0.00    -0.200 F 
ATOM     94  F   UNL A   1      46.164  37.593  29.834  1.00  0.00    -0.200 F 
ENDBRANCH  61  84
ENDBRANCH  35  36
ENDBRANCH  28  30
ENDBRANCH  27  28
ENDBRANCH  26  27
ENDBRANCH   1  26
TORSDOF 15
ENDMDL
MODEL 3
REMARK VINA RESULT:     -12.1      4.564      9.853
REMARK SMILES CC[N@@H+](C)Cc1cc2c(cc1Cl)C=C(C(=O)OCCOC(=O)c1ccc(-c3c4nc(c(-c5c(F)c(F)c(F)c(F)c5F)c5ccc([nH]5)c(-c5c(F)c(F)c(F)c(F)c5F)c5nc(c(-c6c(F)c(F)c(F)c(F)c6F)c6ccc3[nH]6)C=C5)C=C4)cc1)[C@@H](C(F)(F)F)O2
REMARK SMILES IDX 18 1 17 2 15 3 16 4 14 5 6 6 7 7 11 8 8 9 10 10 12 11 9 12
REMARK SMILES IDX 91 13 13 14 86 15 5 16 3 17 4 18 2 20 1 21 87 22 88 23 89 24
REMARK SMILES IDX 90 25 19 26 20 27 21 28 22 29 23 30 24 31 85 32 25 33 84 34
REMARK SMILES IDX 26 35 27 36 28 37 78 38 29 39 83 40 77 41 79 42 30 43 82 44
REMARK SMILES IDX 76 45 75 46 31 48 63 49 43 50 62 51 44 52 47 53 61 54 80 55
REMARK SMILES IDX 45 56 46 57 60 59 81 60 48 61 32 62 33 63 41 64 34 65 35 66
REMARK SMILES IDX 39 67 42 68 36 69 37 70 40 71 38 72 64 73 65 74 73 75 66 76
REMARK SMILES IDX 67 77 71 78 74 79 68 80 69 81 72 82 70 83 49 84 50 85 58 86
REMARK SMILES IDX 51 87 52 88 56 89 59 90 53 91 54 92 57 93 55 94
REMARK H PARENT 3 19 79 47 47 58
REMARK Flexibility Score: inf
ROOT
ATOM      1  C   UNL A   1      31.409  29.693  24.962  1.00  0.00     0.275 C 
ENDROOT
BRANCH   1   2
ATOM      2  O   UNL A   1      31.858  28.458  25.559  1.00  0.00    -0.459 OA
BRANCH   2   3
ATOM      3  C   UNL A   1      32.687  27.706  24.802  1.00  0.00     0.338 C 
ATOM      4  O   UNL A   1      33.478  28.105  23.962  1.00  0.00    -0.246 OA
BRANCH   3   5
ATOM      5  C   UNL A   1      32.554  26.285  25.171  1.00  0.00     0.087 C 
ATOM      6  C   UNL A   1      33.268  21.360  25.720  1.00  0.00     0.029 A 
ATOM      7  C   UNL A   1      32.155  22.214  25.842  1.00  0.00     0.058 A 
ATOM      8  C   UNL A   1      34.544  21.943  25.654  1.00  0.00     0.050 A 
ATOM      9  C   UNL A   1      32.284  23.591  25.715  1.00  0.00     0.128 A 
ATOM     10  C   UNL A   1      34.682  23.332  25.595  1.00  0.00     0.033 A 
ATOM     11  Cl  UNL A   1      36.000  21.014  25.609  1.00  0.00    -0.084 Cl
ATOM     12  C   UNL A   1      33.547  24.147  25.570  1.00  0.00     0.019 A 
ATOM     13  O   UNL A   1      31.131  24.324  25.732  1.00  0.00    -0.475 OA
ATOM     14  C   UNL A   1      33.671  25.570  25.345  1.00  0.00     0.027 C 
ATOM     15  C   UNL A   1      31.182  25.676  25.197  1.00  0.00     0.316 C 
BRANCH   6  16
ATOM     16  C   UNL A   1      33.040  19.866  25.585  1.00  0.00     0.300 C 
BRANCH  16  17
ATOM     17  N   UNL A   1      33.452  19.263  24.299  1.00  0.00    -0.334 N 
ATOM     18  C   UNL A   1      32.386  19.325  23.294  1.00  0.00     0.333 C 
ATOM     19  H   UNL A   1      34.231  19.857  24.015  1.00  0.00     0.348 HD
BRANCH  17  20
ATOM     20  C   UNL A   1      34.021  17.912  24.358  1.00  0.00     0.258 C 
ATOM     21  C   UNL A   1      33.922  17.127  23.053  1.00  0.00     0.071 C 
ENDBRANCH  17  20
ENDBRANCH  16  17
ENDBRANCH   6  16
BRANCH  15  22
ATOM     22  C   UNL A   1      30.549  25.708  23.796  1.00  0.00     0.430 C 
ATOM     23  F   UNL A   1      31.482  25.899  22.834  1.00  0.00    -0.167 F 
ATOM     24  F   UNL A   1      29.930  24.537  23.510  1.00  0.00    -0.167 F 
ATOM     25  F   UNL A   1      29.629  26.691  23.672  1.00  0.00    -0.167 F 
ENDBRANCH  15  22
ENDBRANCH   3   5
ENDBRANCH   2   3
ENDBRANCH   1   2
BRANCH   1  26
ATOM     26  C   UNL A   1      31.477  30.836  25.974  1.00  0.00     0.275 C 
BRANCH  26  27
ATOM     27  O   UNL A   1      32.573  30.626  26.885  1.00  0.00    -0.458 OA
BRANCH  27  28
ATOM     28  C   UNL A   1      33.244  31.738  27.258  1.00  0.00     0.338 C 
ATOM     29  O   UNL A   1      32.836  32.885  27.283  1.00  0.00    -0.246 OA
BRANCH  28  30
ATOM     30  C   UNL A   1      34.579  31.360  27.746  1.00  0.00     0.060 A 
ATOM     31  C   UNL A   1      35.525  32.322  28.080  1.00  0.00     0.016 A 
ATOM     32  C   UNL A   1      34.823  30.021  28.024  1.00  0.00     0.016 A 
ATOM     33  C   UNL A   1      36.722  31.919  28.685  1.00  0.00     0.010 A 
ATOM     34  C   UNL A   1      35.930  29.646  28.775  1.00  0.00     0.010 A 
ATOM     35  C   UNL A   1      36.922  30.581  29.084  1.00  0.00    -0.014 A 
BRANCH  35  36
ATOM     36  C   UNL A   1      38.153  30.140  29.806  1.00  0.00     0.031 A 
ATOM     37  C   UNL A   1      38.420  30.595  31.224  1.00  0.00     0.074 A 
ATOM     38  C   UNL A   1      39.068  29.380  29.172  1.00  0.00     0.049 A 
ATOM     39  N   UNL A   1      39.465  30.370  31.985  1.00  0.00    -0.248 NA
ATOM     40  C   UNL A   1      37.409  31.457  31.857  1.00  0.00     0.031 C 
ATOM     41  C   UNL A   1      38.989  28.945  27.776  1.00  0.00     0.029 A 
ATOM     42  N   UNL A   1      40.245  28.830  29.620  1.00  0.00    -0.354 N 
ATOM     43  C   UNL A   1      39.247  31.088  33.155  1.00  0.00     0.074 A 
ATOM     44  C   UNL A   1      38.013  31.817  32.979  1.00  0.00     0.031 C 
ATOM     45  C   UNL A   1      40.025  28.139  27.505  1.00  0.00     0.029 A 
ATOM     46  C   UNL A   1      40.872  28.037  28.688  1.00  0.00     0.049 A 
ATOM     47  H   UNL A   1      40.604  28.987  30.522  1.00  0.00     0.167 HD
ATOM     48  C   UNL A   1      39.981  31.107  34.294  1.00  0.00     0.037 A 
ATOM     49  C   UNL A   1      41.996  27.301  28.779  1.00  0.00     0.037 A 
ATOM     50  C   UNL A   1      41.173  30.328  34.497  1.00  0.00     0.049 A 
ATOM     51  C   UNL A   1      42.759  27.283  30.073  1.00  0.00     0.074 A 
ATOM     52  C   UNL A   1      41.952  30.223  35.637  1.00  0.00     0.029 A 
ATOM     53  N   UNL A   1      41.749  29.504  33.542  1.00  0.00    -0.354 N 
ATOM     54  N   UNL A   1      42.510  27.925  31.188  1.00  0.00    -0.248 NA
ATOM     55  C   UNL A   1      43.955  26.431  30.125  1.00  0.00     0.031 C 
ATOM     56  C   UNL A   1      43.015  29.357  35.361  1.00  0.00     0.029 A 
ATOM     57  C   UNL A   1      42.871  28.886  34.065  1.00  0.00     0.049 A 
ATOM     58  H   UNL A   1      41.408  29.378  32.626  1.00  0.00     0.167 HD
ATOM     59  C   UNL A   1      43.501  27.539  32.080  1.00  0.00     0.074 A 
ATOM     60  C   UNL A   1      44.345  26.590  31.382  1.00  0.00     0.031 C 
ATOM     61  C   UNL A   1      43.695  27.936  33.362  1.00  0.00     0.037 A 
BRANCH  48  62
ATOM     62  C   UNL A   1      39.495  31.968  35.428  1.00  0.00     0.064 A 
ATOM     63  C   UNL A   1      39.876  33.314  35.543  1.00  0.00     0.173 A 
ATOM     64  C   UNL A   1      38.600  31.460  36.382  1.00  0.00     0.173 A 
ATOM     65  F   UNL A   1      40.737  33.850  34.664  1.00  0.00    -0.203 F 
ATOM     66  C   UNL A   1      39.403  34.110  36.584  1.00  0.00     0.198 A 
ATOM     67  C   UNL A   1      38.102  32.268  37.402  1.00  0.00     0.198 A 
ATOM     68  F   UNL A   1      38.195  30.183  36.318  1.00  0.00    -0.203 F 
ATOM     69  F   UNL A   1      39.822  35.377  36.699  1.00  0.00    -0.200 F 
ATOM     70  C   UNL A   1      38.510  33.590  37.507  1.00  0.00     0.200 A 
ATOM     71  F   UNL A   1      37.224  31.769  38.284  1.00  0.00    -0.200 F 
ATOM     72  F   UNL A   1      38.044  34.361  38.500  1.00  0.00    -0.200 F 
ENDBRANCH  48  62
BRANCH  49  73
ATOM     73  C   UNL A   1      42.417  26.462  27.626  1.00  0.00     0.064 A 
ATOM     74  C   UNL A   1      43.387  26.924  26.725  1.00  0.00     0.173 A 
ATOM     75  C   UNL A   1      41.898  25.176  27.422  1.00  0.00     0.173 A 
ATOM     76  F   UNL A   1      43.901  28.154  26.867  1.00  0.00    -0.203 F 
ATOM     77  C   UNL A   1      43.818  26.134  25.662  1.00  0.00     0.198 A 
ATOM     78  C   UNL A   1      42.350  24.375  26.375  1.00  0.00     0.198 A 
ATOM     79  F   UNL A   1      40.973  24.685  28.261  1.00  0.00    -0.203 F 
ATOM     80  F   UNL A   1      44.726  26.611  24.800  1.00  0.00    -0.200 F 
ATOM     81  C   UNL A   1      43.306  24.855  25.493  1.00  0.00     0.200 A 
ATOM     82  F   UNL A   1      41.867  23.134  26.226  1.00  0.00    -0.200 F 
ATOM     83  F   UNL A   1      43.735  24.088  24.481  1.00  0.00    -0.200 F 
ENDBRANCH  49  73
BRANCH  61  84
ATOM     84  C   UNL A   1      44.839  27.319  34.111  1.00  0.00     0.064 A 
ATOM     85  C   UNL A   1      46.103  27.925  34.152  1.00  0.00     0.173 A 
ATOM     86  C   UNL A   1      44.653  26.134  34.838  1.00  0.00     0.173 A 
ATOM     87  F   UNL A   1      46.334  29.054  33.465  1.00  0.00    -0.203 F 
ATOM     88  C   UNL A   1      47.147  27.350  34.872  1.00  0.00     0.198 A 
ATOM     89  C   UNL A   1      45.690  25.580  35.582  1.00  0.00     0.198 A 
ATOM     90  F   UNL A   1      43.459  25.522  34.840  1.00  0.00    -0.203 F 
ATOM     91  F   UNL A   1      48.360  27.921  34.859  1.00  0.00    -0.200 F 
ATOM     92  C   UNL A   1      46.938  26.183  35.591  1.00  0.00     0.200 A 
ATOM     93  F   UNL A   1      45.482  24.461  36.290  1.00  0.00    -0.200 F 
ATOM     94  F   UNL A   1      47.942  25.638  36.291  1.00  0.00    -0.200 F 
ENDBRANCH  61  84
ENDBRANCH  35  36
ENDBRANCH  28  30
ENDBRANCH  27  28
ENDBRANCH  26  27
ENDBRANCH   1  26
TORSDOF 15
ENDMDL
