MODEL 1
REMARK VINA RESULT:     -10.0      0.000      0.000
REMARK SMILES N#CCCNC(=O)COc1ccc(C(=O)OCCOC(=O)c2ccc(-c3c4nc(c(-c5c(F)c(F)c(F)c(F)c5F)c5ccc([nH]5)c(-c5c(F)c(F)c(F)c(F)c5F)c5nc(c(-c6c(F)c(F)c(F)c(F)c6F)c6ccc3[nH]6)C=C5)C=C4)cc2)nc1
REMARK SMILES IDX 14 1 15 2 13 3 10 4 11 5 86 6 12 7 85 8 9 9 8 10 6 11 5 12
REMARK SMILES IDX 7 14 4 15 3 16 2 17 1 18 16 19 17 20 18 21 19 22 20 23 21 24
REMARK SMILES IDX 22 25 23 26 84 27 24 28 83 29 25 30 26 31 27 32 77 33 28 34
REMARK SMILES IDX 82 35 76 36 78 37 29 38 81 39 75 40 74 41 30 43 62 44 42 45
REMARK SMILES IDX 61 46 43 47 46 48 60 49 79 50 44 51 45 52 59 54 80 55 47 56
REMARK SMILES IDX 31 57 32 58 40 59 33 60 34 61 38 62 41 63 35 64 36 65 39 66
REMARK SMILES IDX 37 67 63 68 64 69 72 70 65 71 66 72 70 73 73 74 67 75 68 76
REMARK SMILES IDX 71 77 69 78 48 79 49 80 57 81 50 82 51 83 55 84 58 85 52 86
REMARK SMILES IDX 53 87 56 88 54 89
REMARK H PARENT 5 13 78 42 46 53
REMARK Flexibility Score: inf
ROOT
ATOM      1  C   UNL A   1      40.954  21.465  27.084  1.00  0.00     0.357 C 
ATOM      2  O   UNL A   1      41.733  21.927  27.905  1.00  0.00    -0.244 OA
ENDROOT
BRANCH   1   3
ATOM      3  C   UNL A   1      39.768  22.205  26.539  1.00  0.00     0.148 A 
ATOM      4  C   UNL A   1      37.388  23.315  25.743  1.00  0.00     0.138 A 
ATOM      5  C   UNL A   1      38.283  24.084  26.482  1.00  0.00     0.050 A 
ATOM      6  C   UNL A   1      37.755  22.024  25.407  1.00  0.00     0.158 A 
ATOM      7  C   UNL A   1      39.492  23.522  26.894  1.00  0.00     0.040 A 
ATOM      8  N   UNL A   1      38.932  21.463  25.759  1.00  0.00    -0.245 NA
BRANCH   4   9
ATOM      9  O   UNL A   1      36.114  23.722  25.473  1.00  0.00    -0.482 OA
BRANCH   9  10
ATOM     10  C   UNL A   1      35.254  22.650  25.110  1.00  0.00     0.329 C 
BRANCH  10  11
ATOM     11  C   UNL A   1      34.344  22.922  23.914  1.00  0.00     0.257 C 
ATOM     12  N   UNL A   1      32.987  22.848  24.061  1.00  0.00    -0.352 N 
ATOM     13  H   UNL A   1      32.465  23.037  23.249  1.00  0.00     0.163 HD
ATOM     14  O   UNL A   1      34.804  23.190  22.804  1.00  0.00    -0.271 OA
BRANCH  12  15
ATOM     15  C   UNL A   1      32.202  22.529  25.249  1.00  0.00     0.131 C 
BRANCH  15  16
ATOM     16  C   UNL A   1      31.583  23.758  25.924  1.00  0.00     0.141 C 
BRANCH  16  17
ATOM     17  C   UNL A   1      30.464  23.318  26.854  1.00  0.00     0.064 C 
ATOM     18  N   UNL A   1      29.536  22.953  27.626  1.00  0.00    -0.198 NA
ENDBRANCH  16  17
ENDBRANCH  15  16
ENDBRANCH  12  15
ENDBRANCH  10  11
ENDBRANCH   9  10
ENDBRANCH   4   9
ENDBRANCH   1   3
BRANCH   1  19
ATOM     19  O   UNL A   1      41.093  20.269  26.450  1.00  0.00    -0.457 OA
BRANCH  19  20
ATOM     20  C   UNL A   1      41.904  19.284  27.121  1.00  0.00     0.275 C 
BRANCH  20  21
ATOM     21  C   UNL A   1      42.764  18.496  26.126  1.00  0.00     0.275 C 
BRANCH  21  22
ATOM     22  O   UNL A   1      42.955  19.212  24.889  1.00  0.00    -0.458 OA
BRANCH  22  23
ATOM     23  C   UNL A   1      44.244  19.479  24.572  1.00  0.00     0.338 C 
ATOM     24  O   UNL A   1      45.040  18.733  24.026  1.00  0.00    -0.246 OA
BRANCH  23  25
ATOM     25  C   UNL A   1      44.551  20.892  24.858  1.00  0.00     0.060 A 
ATOM     26  C   UNL A   1      45.056  21.190  26.124  1.00  0.00     0.016 A 
ATOM     27  C   UNL A   1      44.274  21.919  23.955  1.00  0.00     0.016 A 
ATOM     28  C   UNL A   1      45.286  22.507  26.503  1.00  0.00     0.010 A 
ATOM     29  C   UNL A   1      44.510  23.249  24.333  1.00  0.00     0.010 A 
ATOM     30  C   UNL A   1      45.009  23.552  25.614  1.00  0.00    -0.014 A 
BRANCH  30  31
ATOM     31  C   UNL A   1      45.203  24.952  26.066  1.00  0.00     0.031 A 
ATOM     32  C   UNL A   1      46.543  25.614  25.912  1.00  0.00     0.074 A 
ATOM     33  C   UNL A   1      44.163  25.651  26.557  1.00  0.00     0.049 A 
ATOM     34  N   UNL A   1      46.926  26.809  26.284  1.00  0.00    -0.248 NA
ATOM     35  C   UNL A   1      47.591  24.828  25.243  1.00  0.00     0.031 C 
ATOM     36  C   UNL A   1      42.799  25.139  26.702  1.00  0.00     0.029 A 
ATOM     37  N   UNL A   1      44.087  26.943  27.015  1.00  0.00    -0.354 N 
ATOM     38  C   UNL A   1      48.262  26.910  25.921  1.00  0.00     0.074 A 
ATOM     39  C   UNL A   1      48.629  25.650  25.306  1.00  0.00     0.031 C 
ATOM     40  C   UNL A   1      42.019  26.111  27.203  1.00  0.00     0.029 A 
ATOM     41  C   UNL A   1      42.837  27.294  27.461  1.00  0.00     0.049 A 
ATOM     42  H   UNL A   1      44.855  27.557  27.024  1.00  0.00     0.167 HD
ATOM     43  C   UNL A   1      49.105  27.958  26.084  1.00  0.00     0.037 A 
ATOM     44  C   UNL A   1      42.404  28.433  28.036  1.00  0.00     0.037 A 
ATOM     45  C   UNL A   1      48.733  29.218  26.674  1.00  0.00     0.049 A 
ATOM     46  C   UNL A   1      43.375  29.561  28.254  1.00  0.00     0.074 A 
ATOM     47  C   UNL A   1      49.514  30.342  26.876  1.00  0.00     0.029 A 
ATOM     48  N   UNL A   1      47.467  29.521  27.155  1.00  0.00    -0.354 N 
ATOM     49  N   UNL A   1      44.641  29.641  27.926  1.00  0.00    -0.248 NA
ATOM     50  C   UNL A   1      42.855  30.758  28.933  1.00  0.00     0.031 C 
ATOM     51  C   UNL A   1      48.733  31.312  27.512  1.00  0.00     0.029 A 
ATOM     52  C   UNL A   1      47.451  30.808  27.668  1.00  0.00     0.049 A 
ATOM     53  H   UNL A   1      46.693  28.912  27.133  1.00  0.00     0.167 HD
ATOM     54  C   UNL A   1      45.066  30.895  28.342  1.00  0.00     0.074 A 
ATOM     55  C   UNL A   1      43.918  31.551  28.930  1.00  0.00     0.031 C 
ATOM     56  C   UNL A   1      46.298  31.449  28.248  1.00  0.00     0.037 A 
BRANCH  43  57
ATOM     57  C   UNL A   1      50.527  27.776  25.647  1.00  0.00     0.064 A 
ATOM     58  C   UNL A   1      50.911  27.903  24.304  1.00  0.00     0.173 A 
ATOM     59  C   UNL A   1      51.528  27.505  26.593  1.00  0.00     0.173 A 
ATOM     60  F   UNL A   1      49.989  28.147  23.360  1.00  0.00    -0.203 F 
ATOM     61  C   UNL A   1      52.240  27.743  23.921  1.00  0.00     0.198 A 
ATOM     62  C   UNL A   1      52.860  27.371  26.210  1.00  0.00     0.198 A 
ATOM     63  F   UNL A   1      51.214  27.380  27.891  1.00  0.00    -0.203 F 
ATOM     64  F   UNL A   1      52.578  27.826  22.627  1.00  0.00    -0.200 F 
ATOM     65  C   UNL A   1      53.213  27.483  24.874  1.00  0.00     0.200 A 
ATOM     66  F   UNL A   1      53.800  27.129  27.134  1.00  0.00    -0.200 F 
ATOM     67  F   UNL A   1      54.493  27.334  24.505  1.00  0.00    -0.200 F 
ENDBRANCH  43  57
BRANCH  44  68
ATOM     68  C   UNL A   1      40.989  28.550  28.470  1.00  0.00     0.064 A 
ATOM     69  C   UNL A   1      39.993  28.985  27.586  1.00  0.00     0.173 A 
ATOM     70  C   UNL A   1      40.605  28.233  29.782  1.00  0.00     0.173 A 
ATOM     71  F   UNL A   1      40.317  29.328  26.331  1.00  0.00    -0.203 F 
ATOM     72  C   UNL A   1      38.669  29.111  28.000  1.00  0.00     0.198 A 
ATOM     73  C   UNL A   1      39.276  28.332  30.187  1.00  0.00     0.198 A 
ATOM     74  F   UNL A   1      41.521  27.818  30.669  1.00  0.00    -0.203 F 
ATOM     75  F   UNL A   1      37.744  29.570  27.147  1.00  0.00    -0.200 F 
ATOM     76  C   UNL A   1      38.309  28.777  29.297  1.00  0.00     0.200 A 
ATOM     77  F   UNL A   1      38.932  28.000  31.439  1.00  0.00    -0.200 F 
ATOM     78  F   UNL A   1      37.035  28.893  29.693  1.00  0.00    -0.200 F 
ENDBRANCH  44  68
BRANCH  56  79
ATOM     79  C   UNL A   1      46.463  32.846  28.771  1.00  0.00     0.064 A 
ATOM     80  C   UNL A   1      46.232  33.965  27.958  1.00  0.00     0.173 A 
ATOM     81  C   UNL A   1      46.821  33.066  30.109  1.00  0.00     0.173 A 
ATOM     82  F   UNL A   1      45.903  33.804  26.667  1.00  0.00    -0.203 F 
ATOM     83  C   UNL A   1      46.375  35.255  28.460  1.00  0.00     0.198 A 
ATOM     84  C   UNL A   1      46.938  34.357  30.614  1.00  0.00     0.198 A 
ATOM     85  F   UNL A   1      47.047  32.029  30.928  1.00  0.00    -0.203 F 
ATOM     86  F   UNL A   1      46.189  36.310  27.655  1.00  0.00    -0.200 F 
ATOM     87  C   UNL A   1      46.721  35.450  29.789  1.00  0.00     0.200 A 
ATOM     88  F   UNL A   1      47.263  34.545  31.902  1.00  0.00    -0.200 F 
ATOM     89  F   UNL A   1      46.853  36.693  30.272  1.00  0.00    -0.200 F 
ENDBRANCH  56  79
ENDBRANCH  30  31
ENDBRANCH  23  25
ENDBRANCH  22  23
ENDBRANCH  21  22
ENDBRANCH  20  21
ENDBRANCH  19  20
ENDBRANCH   1  19
TORSDOF 17
ENDMDL
MODEL 2
REMARK VINA RESULT:      -9.9      5.494      9.502
REMARK SMILES N#CCCNC(=O)COc1ccc(C(=O)OCCOC(=O)c2ccc(-c3c4nc(c(-c5c(F)c(F)c(F)c(F)c5F)c5ccc([nH]5)c(-c5c(F)c(F)c(F)c(F)c5F)c5nc(c(-c6c(F)c(F)c(F)c(F)c6F)c6ccc3[nH]6)C=C5)C=C4)cc2)nc1
REMARK SMILES IDX 14 1 15 2 13 3 10 4 11 5 86 6 12 7 85 8 9 9 8 10 6 11 5 12
REMARK SMILES IDX 7 14 4 15 3 16 2 17 1 18 16 19 17 20 18 21 19 22 20 23 21 24
REMARK SMILES IDX 22 25 23 26 84 27 24 28 83 29 25 30 26 31 27 32 77 33 28 34
REMARK SMILES IDX 82 35 76 36 78 37 29 38 81 39 75 40 74 41 30 43 62 44 42 45
REMARK SMILES IDX 61 46 43 47 46 48 60 49 79 50 44 51 45 52 59 54 80 55 47 56
REMARK SMILES IDX 31 57 32 58 40 59 33 60 34 61 38 62 41 63 35 64 36 65 39 66
REMARK SMILES IDX 37 67 63 68 64 69 72 70 65 71 66 72 70 73 73 74 67 75 68 76
REMARK SMILES IDX 71 77 69 78 48 79 49 80 57 81 50 82 51 83 55 84 58 85 52 86
REMARK SMILES IDX 53 87 56 88 54 89
REMARK H PARENT 5 13 78 42 46 53
REMARK Flexibility Score: inf
ROOT
ATOM      1  C   UNL A   1      31.347  26.775  24.728  1.00  0.00     0.357 C 
ATOM      2  O   UNL A   1      30.140  26.769  24.921  1.00  0.00    -0.244 OA
ENDROOT
BRANCH   1   3
ATOM      3  C   UNL A   1      32.223  25.562  24.838  1.00  0.00     0.148 A 
ATOM      4  C   UNL A   1      33.776  23.307  24.664  1.00  0.00     0.138 A 
ATOM      5  C   UNL A   1      34.357  24.501  25.079  1.00  0.00     0.050 A 
ATOM      6  C   UNL A   1      32.419  23.298  24.390  1.00  0.00     0.158 A 
ATOM      7  C   UNL A   1      33.573  25.653  25.164  1.00  0.00     0.040 A 
ATOM      8  N   UNL A   1      31.626  24.386  24.496  1.00  0.00    -0.245 NA
BRANCH   4   9
ATOM      9  O   UNL A   1      34.508  22.194  24.370  1.00  0.00    -0.482 OA
BRANCH   9  10
ATOM     10  C   UNL A   1      35.004  21.533  25.527  1.00  0.00     0.329 C 
BRANCH  10  11
ATOM     11  C   UNL A   1      33.941  21.072  26.521  1.00  0.00     0.257 C 
ATOM     12  N   UNL A   1      33.089  20.059  26.184  1.00  0.00    -0.352 N 
ATOM     13  H   UNL A   1      32.432  19.814  26.875  1.00  0.00     0.163 HD
ATOM     14  O   UNL A   1      33.818  21.607  27.623  1.00  0.00    -0.271 OA
BRANCH  12  15
ATOM     15  C   UNL A   1      33.012  19.287  24.948  1.00  0.00     0.131 C 
BRANCH  15  16
ATOM     16  C   UNL A   1      33.197  17.779  25.153  1.00  0.00     0.141 C 
BRANCH  16  17
ATOM     17  C   UNL A   1      33.628  17.137  23.844  1.00  0.00     0.064 C 
ATOM     18  N   UNL A   1      33.985  16.604  22.758  1.00  0.00    -0.198 NA
ENDBRANCH  16  17
ENDBRANCH  15  16
ENDBRANCH  12  15
ENDBRANCH  10  11
ENDBRANCH   9  10
ENDBRANCH   4   9
ENDBRANCH   1   3
BRANCH   1  19
ATOM     19  O   UNL A   1      32.068  27.837  24.276  1.00  0.00    -0.457 OA
BRANCH  19  20
ATOM     20  C   UNL A   1      31.472  29.136  24.460  1.00  0.00     0.275 C 
BRANCH  20  21
ATOM     21  C   UNL A   1      31.801  29.712  25.842  1.00  0.00     0.275 C 
BRANCH  21  22
ATOM     22  O   UNL A   1      33.107  30.323  25.877  1.00  0.00    -0.458 OA
BRANCH  22  23
ATOM     23  C   UNL A   1      33.294  31.224  26.869  1.00  0.00     0.338 C 
ATOM     24  O   UNL A   1      32.502  32.067  27.260  1.00  0.00    -0.246 OA
BRANCH  23  25
ATOM     25  C   UNL A   1      34.579  30.972  27.543  1.00  0.00     0.060 A 
ATOM     26  C   UNL A   1      34.848  29.660  27.933  1.00  0.00     0.016 A 
ATOM     27  C   UNL A   1      35.469  31.996  27.872  1.00  0.00     0.016 A 
ATOM     28  C   UNL A   1      35.996  29.355  28.654  1.00  0.00     0.010 A 
ATOM     29  C   UNL A   1      36.632  31.691  28.596  1.00  0.00     0.010 A 
ATOM     30  C   UNL A   1      36.898  30.368  28.999  1.00  0.00    -0.014 A 
BRANCH  30  31
ATOM     31  C   UNL A   1      38.084  30.027  29.824  1.00  0.00     0.031 A 
ATOM     32  C   UNL A   1      39.159  29.139  29.265  1.00  0.00     0.074 A 
ATOM     33  C   UNL A   1      38.228  30.564  31.050  1.00  0.00     0.049 A 
ATOM     34  N   UNL A   1      40.245  28.688  29.840  1.00  0.00    -0.248 NA
ATOM     35  C   UNL A   1      38.992  28.704  27.870  1.00  0.00     0.031 C 
ATOM     36  C   UNL A   1      37.283  31.486  31.680  1.00  0.00     0.029 A 
ATOM     37  N   UNL A   1      39.226  30.418  31.980  1.00  0.00    -0.354 N 
ATOM     38  C   UNL A   1      40.877  27.898  28.890  1.00  0.00     0.074 A 
ATOM     39  C   UNL A   1      40.048  27.920  27.702  1.00  0.00     0.031 C 
ATOM     40  C   UNL A   1      37.753  31.834  32.889  1.00  0.00     0.029 A 
ATOM     41  C   UNL A   1      39.004  31.121  33.138  1.00  0.00     0.049 A 
ATOM     42  H   UNL A   1      40.025  29.863  31.831  1.00  0.00     0.167 HD
ATOM     43  C   UNL A   1      42.043  27.217  28.999  1.00  0.00     0.037 A 
ATOM     44  C   UNL A   1      39.714  31.167  34.281  1.00  0.00     0.037 A 
ATOM     45  C   UNL A   1      42.878  27.214  30.172  1.00  0.00     0.049 A 
ATOM     46  C   UNL A   1      40.978  30.358  34.394  1.00  0.00     0.074 A 
ATOM     47  C   UNL A   1      44.081  26.560  30.376  1.00  0.00     0.029 A 
ATOM     48  N   UNL A   1      42.596  27.903  31.343  1.00  0.00    -0.354 N 
ATOM     49  N   UNL A   1      41.557  29.597  33.499  1.00  0.00    -0.248 NA
ATOM     50  C   UNL A   1      41.682  30.408  35.685  1.00  0.00     0.031 C 
ATOM     51  C   UNL A   1      44.509  26.823  31.681  1.00  0.00     0.029 A 
ATOM     52  C   UNL A   1      43.594  27.676  32.277  1.00  0.00     0.049 A 
ATOM     53  H   UNL A   1      41.805  28.471  31.488  1.00  0.00     0.167 HD
ATOM     54  C   UNL A   1      42.698  29.091  34.107  1.00  0.00     0.074 A 
ATOM     55  C   UNL A   1      42.740  29.645  35.443  1.00  0.00     0.031 C 
ATOM     56  C   UNL A   1      43.623  28.239  33.604  1.00  0.00     0.037 A 
BRANCH  43  57
ATOM     57  C   UNL A   1      42.472  26.387  27.826  1.00  0.00     0.064 A 
ATOM     58  C   UNL A   1      43.326  26.892  26.835  1.00  0.00     0.173 A 
ATOM     59  C   UNL A   1      42.048  25.053  27.711  1.00  0.00     0.173 A 
ATOM     60  F   UNL A   1      43.747  28.164  26.892  1.00  0.00    -0.203 F 
ATOM     61  C   UNL A   1      43.722  26.099  25.760  1.00  0.00     0.198 A 
ATOM     62  C   UNL A   1      42.466  24.257  26.649  1.00  0.00     0.198 A 
ATOM     63  F   UNL A   1      41.234  24.521  28.635  1.00  0.00    -0.203 F 
ATOM     64  F   UNL A   1      44.505  26.615  24.802  1.00  0.00    -0.200 F 
ATOM     65  C   UNL A   1      43.297  24.783  25.671  1.00  0.00     0.200 A 
ATOM     66  F   UNL A   1      42.062  22.982  26.570  1.00  0.00    -0.200 F 
ATOM     67  F   UNL A   1      43.683  24.020  24.639  1.00  0.00    -0.200 F 
ENDBRANCH  43  57
BRANCH  44  68
ATOM     68  C   UNL A   1      39.231  31.988  35.420  1.00  0.00     0.064 A 
ATOM     69  C   UNL A   1      38.434  31.431  36.429  1.00  0.00     0.173 A 
ATOM     70  C   UNL A   1      39.553  33.350  35.519  1.00  0.00     0.173 A 
ATOM     71  F   UNL A   1      38.076  30.141  36.362  1.00  0.00    -0.203 F 
ATOM     72  C   UNL A   1      37.968  32.208  37.488  1.00  0.00     0.198 A 
ATOM     73  C   UNL A   1      39.110  34.119  36.592  1.00  0.00     0.198 A 
ATOM     74  F   UNL A   1      40.307  33.933  34.575  1.00  0.00    -0.203 F 
ATOM     75  F   UNL A   1      37.173  31.661  38.417  1.00  0.00    -0.200 F 
ATOM     76  C   UNL A   1      38.312  33.549  37.574  1.00  0.00     0.200 A 
ATOM     77  F   UNL A   1      39.452  35.412  36.675  1.00  0.00    -0.200 F 
ATOM     78  F   UNL A   1      37.867  34.293  38.594  1.00  0.00    -0.200 F 
ENDBRANCH  44  68
BRANCH  56  79
ATOM     79  C   UNL A   1      44.775  27.875  34.493  1.00  0.00     0.064 A 
ATOM     80  C   UNL A   1      44.736  26.741  35.317  1.00  0.00     0.173 A 
ATOM     81  C   UNL A   1      45.945  28.650  34.495  1.00  0.00     0.173 A 
ATOM     82  F   UNL A   1      43.633  25.978  35.361  1.00  0.00    -0.203 F 
ATOM     83  C   UNL A   1      45.817  26.408  36.127  1.00  0.00     0.198 A 
ATOM     84  C   UNL A   1      47.033  28.300  35.287  1.00  0.00     0.198 A 
ATOM     85  F   UNL A   1      46.033  29.742  33.720  1.00  0.00    -0.203 F 
ATOM     86  F   UNL A   1      45.743  25.343  36.937  1.00  0.00    -0.200 F 
ATOM     87  C   UNL A   1      46.967  27.184  36.106  1.00  0.00     0.200 A 
ATOM     88  F   UNL A   1      48.148  29.045  35.259  1.00  0.00    -0.200 F 
ATOM     89  F   UNL A   1      48.010  26.859  36.883  1.00  0.00    -0.200 F 
ENDBRANCH  56  79
ENDBRANCH  30  31
ENDBRANCH  23  25
ENDBRANCH  22  23
ENDBRANCH  21  22
ENDBRANCH  20  21
ENDBRANCH  19  20
ENDBRANCH   1  19
TORSDOF 17
ENDMDL
MODEL 3
REMARK VINA RESULT:      -9.9      7.420     12.761
REMARK SMILES N#CCCNC(=O)COc1ccc(C(=O)OCCOC(=O)c2ccc(-c3c4nc(c(-c5c(F)c(F)c(F)c(F)c5F)c5ccc([nH]5)c(-c5c(F)c(F)c(F)c(F)c5F)c5nc(c(-c6c(F)c(F)c(F)c(F)c6F)c6ccc3[nH]6)C=C5)C=C4)cc2)nc1
REMARK SMILES IDX 14 1 15 2 13 3 10 4 11 5 86 6 12 7 85 8 9 9 8 10 6 11 5 12
REMARK SMILES IDX 7 14 4 15 3 16 2 17 1 18 16 19 17 20 18 21 19 22 20 23 21 24
REMARK SMILES IDX 22 25 23 26 84 27 24 28 83 29 25 30 26 31 27 32 77 33 28 34
REMARK SMILES IDX 82 35 76 36 78 37 29 38 81 39 75 40 74 41 30 43 62 44 42 45
REMARK SMILES IDX 61 46 43 47 46 48 60 49 79 50 44 51 45 52 59 54 80 55 47 56
REMARK SMILES IDX 31 57 32 58 40 59 33 60 34 61 38 62 41 63 35 64 36 65 39 66
REMARK SMILES IDX 37 67 63 68 64 69 72 70 65 71 66 72 70 73 73 74 67 75 68 76
REMARK SMILES IDX 71 77 69 78 48 79 49 80 57 81 50 82 51 83 55 84 58 85 52 86
REMARK SMILES IDX 53 87 56 88 54 89
REMARK H PARENT 5 13 78 42 46 53
REMARK Flexibility Score: inf
ROOT
ATOM      1  C   UNL A   1      34.565  33.054  28.635  1.00  0.00     0.357 C 
ATOM      2  O   UNL A   1      35.423  33.202  29.493  1.00  0.00    -0.244 OA
ENDROOT
BRANCH   1   3
ATOM      3  C   UNL A   1      34.215  31.734  28.014  1.00  0.00     0.148 A 
ATOM      4  C   UNL A   1      33.531  29.514  26.554  1.00  0.00     0.138 A 
ATOM      5  C   UNL A   1      34.797  29.585  27.128  1.00  0.00     0.050 A 
ATOM      6  C   UNL A   1      32.650  30.558  26.776  1.00  0.00     0.158 A 
ATOM      7  C   UNL A   1      35.151  30.715  27.867  1.00  0.00     0.040 A 
ATOM      8  N   UNL A   1      32.950  31.647  27.514  1.00  0.00    -0.245 NA
BRANCH   4   9
ATOM      9  O   UNL A   1      33.180  28.542  25.662  1.00  0.00    -0.482 OA
BRANCH   9  10
ATOM     10  C   UNL A   1      32.262  28.998  24.676  1.00  0.00     0.329 C 
BRANCH  10  11
ATOM     11  C   UNL A   1      31.028  28.121  24.479  1.00  0.00     0.257 C 
ATOM     12  N   UNL A   1      30.100  28.456  23.533  1.00  0.00    -0.352 N 
ATOM     13  H   UNL A   1      29.333  27.844  23.461  1.00  0.00     0.163 HD
ATOM     14  O   UNL A   1      30.834  27.120  25.169  1.00  0.00    -0.271 OA
BRANCH  12  15
ATOM     15  C   UNL A   1      30.084  29.590  22.614  1.00  0.00     0.131 C 
BRANCH  15  16
ATOM     16  C   UNL A   1      28.707  29.859  21.995  1.00  0.00     0.141 C 
BRANCH  16  17
ATOM     17  C   UNL A   1      27.830  30.584  23.002  1.00  0.00     0.064 C 
ATOM     18  N   UNL A   1      27.102  31.186  23.838  1.00  0.00    -0.198 NA
ENDBRANCH  16  17
ENDBRANCH  15  16
ENDBRANCH  12  15
ENDBRANCH  10  11
ENDBRANCH   9  10
ENDBRANCH   4   9
ENDBRANCH   1   3
BRANCH   1  19
ATOM     19  O   UNL A   1      33.717  34.022  28.192  1.00  0.00    -0.457 OA
BRANCH  19  20
ATOM     20  C   UNL A   1      33.942  35.348  28.707  1.00  0.00     0.275 C 
BRANCH  20  21
ATOM     21  C   UNL A   1      32.762  35.823  29.563  1.00  0.00     0.275 C 
BRANCH  21  22
ATOM     22  O   UNL A   1      33.192  36.364  30.828  1.00  0.00    -0.458 OA
BRANCH  22  23
ATOM     23  C   UNL A   1      32.835  35.642  31.915  1.00  0.00     0.338 C 
ATOM     24  O   UNL A   1      31.714  35.510  32.379  1.00  0.00    -0.246 OA
BRANCH  23  25
ATOM     25  C   UNL A   1      33.995  34.887  32.422  1.00  0.00     0.060 A 
ATOM     26  C   UNL A   1      35.242  35.508  32.342  1.00  0.00     0.016 A 
ATOM     27  C   UNL A   1      33.894  33.574  32.884  1.00  0.00     0.016 A 
ATOM     28  C   UNL A   1      36.397  34.829  32.716  1.00  0.00     0.010 A 
ATOM     29  C   UNL A   1      35.058  32.889  33.266  1.00  0.00     0.010 A 
ATOM     30  C   UNL A   1      36.318  33.510  33.175  1.00  0.00    -0.014 A 
BRANCH  30  31
ATOM     31  C   UNL A   1      37.571  32.786  33.507  1.00  0.00     0.031 A 
ATOM     32  C   UNL A   1      38.257  33.033  34.821  1.00  0.00     0.074 A 
ATOM     33  C   UNL A   1      38.059  31.863  32.658  1.00  0.00     0.049 A 
ATOM     34  N   UNL A   1      39.380  32.538  35.276  1.00  0.00    -0.248 NA
ATOM     35  C   UNL A   1      37.587  33.956  35.749  1.00  0.00     0.031 C 
ATOM     36  C   UNL A   1      37.452  31.491  31.380  1.00  0.00     0.029 A 
ATOM     37  N   UNL A   1      39.171  31.064  32.747  1.00  0.00    -0.354 N 
ATOM     38  C   UNL A   1      39.565  33.107  36.528  1.00  0.00     0.074 A 
ATOM     39  C   UNL A   1      38.443  33.994  36.760  1.00  0.00     0.031 C 
ATOM     40  C   UNL A   1      38.193  30.527  30.809  1.00  0.00     0.029 A 
ATOM     41  C   UNL A   1      39.351  30.251  31.655  1.00  0.00     0.049 A 
ATOM     42  H   UNL A   1      39.781  31.073  33.519  1.00  0.00     0.167 HD
ATOM     43  C   UNL A   1      40.577  32.905  37.406  1.00  0.00     0.037 A 
ATOM     44  C   UNL A   1      40.349  29.397  31.358  1.00  0.00     0.037 A 
ATOM     45  C   UNL A   1      41.680  32.006  37.184  1.00  0.00     0.049 A 
ATOM     46  C   UNL A   1      41.489  29.233  32.326  1.00  0.00     0.074 A 
ATOM     47  C   UNL A   1      42.750  31.729  38.017  1.00  0.00     0.029 A 
ATOM     48  N   UNL A   1      41.851  31.232  36.045  1.00  0.00    -0.354 N 
ATOM     49  N   UNL A   1      41.667  29.790  33.499  1.00  0.00    -0.248 NA
ATOM     50  C   UNL A   1      42.575  28.326  31.923  1.00  0.00     0.031 C 
ATOM     51  C   UNL A   1      43.588  30.817  37.367  1.00  0.00     0.029 A 
ATOM     52  C   UNL A   1      43.018  30.491  36.147  1.00  0.00     0.049 A 
ATOM     53  H   UNL A   1      41.233  31.211  35.279  1.00  0.00     0.167 HD
ATOM     54  C   UNL A   1      42.870  29.293  33.981  1.00  0.00     0.074 A 
ATOM     55  C   UNL A   1      43.372  28.374  32.981  1.00  0.00     0.031 C 
ATOM     56  C   UNL A   1      43.503  29.577  35.144  1.00  0.00     0.037 A 
BRANCH  43  57
ATOM     57  C   UNL A   1      40.560  33.700  38.677  1.00  0.00     0.064 A 
ATOM     58  C   UNL A   1      41.315  34.873  38.826  1.00  0.00     0.173 A 
ATOM     59  C   UNL A   1      39.748  33.300  39.750  1.00  0.00     0.173 A 
ATOM     60  F   UNL A   1      42.117  35.289  37.835  1.00  0.00    -0.203 F 
ATOM     61  C   UNL A   1      41.274  35.603  40.011  1.00  0.00     0.198 A 
ATOM     62  C   UNL A   1      39.691  34.047  40.923  1.00  0.00     0.198 A 
ATOM     63  F   UNL A   1      39.003  32.189  39.655  1.00  0.00    -0.203 F 
ATOM     64  F   UNL A   1      42.035  36.698  40.148  1.00  0.00    -0.200 F 
ATOM     65  C   UNL A   1      40.459  35.193  41.055  1.00  0.00     0.200 A 
ATOM     66  F   UNL A   1      38.895  33.654  41.927  1.00  0.00    -0.200 F 
ATOM     67  F   UNL A   1      40.417  35.901  42.194  1.00  0.00    -0.200 F 
ENDBRANCH  43  57
BRANCH  44  68
ATOM     68  C   UNL A   1      40.328  28.652  30.074  1.00  0.00     0.064 A 
ATOM     69  C   UNL A   1      41.008  29.131  28.947  1.00  0.00     0.173 A 
ATOM     70  C   UNL A   1      39.621  27.447  29.947  1.00  0.00     0.173 A 
ATOM     71  F   UNL A   1      41.673  30.293  29.011  1.00  0.00    -0.203 F 
ATOM     72  C   UNL A   1      40.972  28.439  27.738  1.00  0.00     0.198 A 
ATOM     73  C   UNL A   1      39.609  26.742  28.746  1.00  0.00     0.198 A 
ATOM     74  F   UNL A   1      38.947  26.949  30.995  1.00  0.00    -0.203 F 
ATOM     75  F   UNL A   1      41.596  28.940  26.663  1.00  0.00    -0.200 F 
ATOM     76  C   UNL A   1      40.280  27.241  27.640  1.00  0.00     0.200 A 
ATOM     77  F   UNL A   1      38.945  25.581  28.659  1.00  0.00    -0.200 F 
ATOM     78  F   UNL A   1      40.250  26.575  26.479  1.00  0.00    -0.200 F 
ENDBRANCH  44  68
BRANCH  56  79
ATOM     79  C   UNL A   1      44.796  28.866  35.412  1.00  0.00     0.064 A 
ATOM     80  C   UNL A   1      46.028  29.418  35.034  1.00  0.00     0.173 A 
ATOM     81  C   UNL A   1      44.805  27.636  36.086  1.00  0.00     0.173 A 
ATOM     82  F   UNL A   1      46.070  30.585  34.372  1.00  0.00    -0.203 F 
ATOM     83  C   UNL A   1      47.222  28.754  35.301  1.00  0.00     0.198 A 
ATOM     84  C   UNL A   1      46.001  26.987  36.374  1.00  0.00     0.198 A 
ATOM     85  F   UNL A   1      43.653  27.069  36.474  1.00  0.00    -0.203 F 
ATOM     86  F   UNL A   1      48.385  29.280  34.894  1.00  0.00    -0.200 F 
ATOM     87  C   UNL A   1      47.208  27.543  35.976  1.00  0.00     0.200 A 
ATOM     88  F   UNL A   1      45.988  25.821  37.036  1.00  0.00    -0.200 F 
ATOM     89  F   UNL A   1      48.358  26.906  36.237  1.00  0.00    -0.200 F 
ENDBRANCH  56  79
ENDBRANCH  30  31
ENDBRANCH  23  25
ENDBRANCH  22  23
ENDBRANCH  21  22
ENDBRANCH  20  21
ENDBRANCH  19  20
ENDBRANCH   1  19
TORSDOF 17
ENDMDL
