MODEL 1
REMARK VINA RESULT:     -12.8      0.000      0.000
REMARK SMILES Cc1cc(NC(=O)[C@@H]2CCC[C@@H](C(=O)OCCOC(=O)c3ccc(-c4c5nc(c(-c6c(F)c(F)c(F)c(F)c6F)c6ccc([nH]6)c(-c6c(F)c(F)c(F)c(F)c6F)c6nc(c(-c7c(F)c(F)c(F)c(F)c7F)c7ccc4[nH]7)C=C6)C=C5)cc3)C2)ncc1Br
REMARK SMILES IDX 16 1 15 2 13 3 14 4 12 5 8 6 9 7 84 8 10 9 11 10 6 11 5 12
REMARK SMILES IDX 7 14 4 15 1 16 2 17 3 18 87 19 86 20 88 21 85 22 17 23 18 24
REMARK SMILES IDX 19 25 20 26 21 27 22 28 83 29 23 30 82 31 24 32 25 33 26 34
REMARK SMILES IDX 76 35 27 36 81 37 75 38 77 39 28 40 80 41 74 42 73 43 29 45
REMARK SMILES IDX 61 46 41 47 60 48 42 49 45 50 59 51 78 52 43 53 44 54 58 56
REMARK SMILES IDX 79 57 46 58 30 59 31 60 39 61 32 62 33 63 37 64 40 65 34 66
REMARK SMILES IDX 35 67 38 68 36 69 62 70 63 71 71 72 64 73 65 74 69 75 72 76
REMARK SMILES IDX 66 77 67 78 70 79 68 80 47 81 48 82 56 83 49 84 50 85 54 86
REMARK SMILES IDX 57 87 51 88 52 89 55 90 53 91
REMARK H PARENT 5 13 77 44 45 55
REMARK Flexibility Score: inf
ROOT
ATOM      1  C   UNL A   1      36.099  20.294  25.001  1.00  0.00     0.274 C 
ENDROOT
BRANCH   1   2
ATOM      2  O   UNL A   1      35.575  21.399  25.770  1.00  0.00    -0.462 OA
BRANCH   2   3
ATOM      3  C   UNL A   1      34.775  22.267  25.098  1.00  0.00     0.309 C 
ATOM      4  O   UNL A   1      35.065  23.439  24.874  1.00  0.00    -0.252 OA
BRANCH   3   5
ATOM      5  C   UNL A   1      33.422  21.676  24.706  1.00  0.00     0.100 C 
ATOM      6  C   UNL A   1      31.643  23.361  25.476  1.00  0.00     0.080 C 
ATOM      7  C   UNL A   1      31.031  23.316  24.076  1.00  0.00     0.013 C 
ATOM      8  C   UNL A   1      32.336  22.015  25.751  1.00  0.00     0.028 C 
ATOM      9  C   UNL A   1      32.153  23.207  23.055  1.00  0.00     0.002 C 
ATOM     10  C   UNL A   1      32.961  21.927  23.258  1.00  0.00     0.015 C 
BRANCH   6  11
ATOM     11  C   UNL A   1      30.590  23.715  26.526  1.00  0.00     0.228 C 
ATOM     12  N   UNL A   1      29.855  24.866  26.444  1.00  0.00    -0.310 N 
ATOM     13  H   UNL A   1      29.126  24.940  27.103  1.00  0.00     0.171 HD
ATOM     14  O   UNL A   1      30.367  22.966  27.484  1.00  0.00    -0.274 OA
BRANCH  12  15
ATOM     15  C   UNL A   1      29.977  25.954  25.574  1.00  0.00     0.132 A 
ATOM     16  C   UNL A   1      32.486  28.750  25.041  1.00  0.00     0.046 C 
ATOM     17  C   UNL A   1      31.271  27.885  24.864  1.00  0.00    -0.032 A 
ATOM     18  C   UNL A   1      31.026  26.846  25.785  1.00  0.00     0.051 A 
ATOM     19  C   UNL A   1      30.418  27.996  23.764  1.00  0.00     0.039 A 
ATOM     20  C   UNL A   1      29.366  27.102  23.662  1.00  0.00     0.129 A 
ATOM     21  Br  UNL A   1      30.649  29.275  22.391  1.00  0.00    -0.049 Br
ATOM     22  N   UNL A   1      29.142  26.092  24.535  1.00  0.00    -0.238 NA
ENDBRANCH  12  15
ENDBRANCH   6  11
ENDBRANCH   3   5
ENDBRANCH   2   3
ENDBRANCH   1   2
BRANCH   1  23
ATOM     23  C   UNL A   1      37.622  20.327  24.961  1.00  0.00     0.275 C 
BRANCH  23  24
ATOM     24  O   UNL A   1      38.091  21.376  25.824  1.00  0.00    -0.458 OA
BRANCH  24  25
ATOM     25  C   UNL A   1      39.357  21.246  26.278  1.00  0.00     0.338 C 
ATOM     26  O   UNL A   1      40.016  20.223  26.348  1.00  0.00    -0.246 OA
BRANCH  25  27
ATOM     27  C   UNL A   1      39.848  22.560  26.734  1.00  0.00     0.060 A 
ATOM     28  C   UNL A   1      40.920  22.614  27.623  1.00  0.00     0.016 A 
ATOM     29  C   UNL A   1      39.318  23.740  26.213  1.00  0.00     0.016 A 
ATOM     30  C   UNL A   1      41.442  23.853  28.003  1.00  0.00     0.010 A 
ATOM     31  C   UNL A   1      39.917  24.965  26.501  1.00  0.00     0.010 A 
ATOM     32  C   UNL A   1      40.972  25.045  27.419  1.00  0.00    -0.014 A 
BRANCH  32  33
ATOM     33  C   UNL A   1      41.588  26.362  27.744  1.00  0.00     0.031 A 
ATOM     34  C   UNL A   1      43.007  26.676  27.357  1.00  0.00     0.074 A 
ATOM     35  C   UNL A   1      40.897  27.276  28.455  1.00  0.00     0.049 A 
ATOM     36  N   UNL A   1      43.667  27.800  27.505  1.00  0.00    -0.248 NA
ATOM     37  C   UNL A   1      43.792  25.599  26.738  1.00  0.00     0.031 C 
ATOM     38  C   UNL A   1      39.538  27.099  28.951  1.00  0.00     0.029 A 
ATOM     39  N   UNL A   1      41.247  28.528  28.899  1.00  0.00    -0.354 N 
ATOM     40  C   UNL A   1      44.924  27.570  26.966  1.00  0.00     0.074 A 
ATOM     41  C   UNL A   1      44.979  26.171  26.603  1.00  0.00     0.031 C 
ATOM     42  C   UNL A   1      39.175  28.182  29.654  1.00  0.00     0.029 A 
ATOM     43  C   UNL A   1      40.267  29.145  29.636  1.00  0.00     0.049 A 
ATOM     44  H   UNL A   1      42.118  28.944  28.707  1.00  0.00     0.167 HD
ATOM     45  C   UNL A   1      45.917  28.457  26.721  1.00  0.00     0.037 A 
ATOM     46  C   UNL A   1      40.222  30.363  30.208  1.00  0.00     0.037 A 
ATOM     47  C   UNL A   1      45.866  29.852  27.064  1.00  0.00     0.049 A 
ATOM     48  C   UNL A   1      41.343  31.327  29.972  1.00  0.00     0.074 A 
ATOM     49  C   UNL A   1      46.772  30.852  26.760  1.00  0.00     0.029 A 
ATOM     50  N   UNL A   1      44.852  30.442  27.803  1.00  0.00    -0.354 N 
ATOM     51  N   UNL A   1      42.459  31.142  29.312  1.00  0.00    -0.248 NA
ATOM     52  C   UNL A   1      41.177  32.684  30.510  1.00  0.00     0.031 C 
ATOM     53  C   UNL A   1      46.319  32.044  27.341  1.00  0.00     0.029 A 
ATOM     54  C   UNL A   1      45.118  31.790  27.982  1.00  0.00     0.049 A 
ATOM     55  H   UNL A   1      44.059  29.971  28.151  1.00  0.00     0.167 HD
ATOM     56  C   UNL A   1      43.102  32.370  29.302  1.00  0.00     0.074 A 
ATOM     57  C   UNL A   1      42.260  33.290  30.041  1.00  0.00     0.031 C 
ATOM     58  C   UNL A   1      44.274  32.704  28.710  1.00  0.00     0.037 A 
BRANCH  45  59
ATOM     59  C   UNL A   1      47.110  27.939  25.975  1.00  0.00     0.064 A 
ATOM     60  C   UNL A   1      48.267  27.538  26.666  1.00  0.00     0.173 A 
ATOM     61  C   UNL A   1      47.112  27.841  24.578  1.00  0.00     0.173 A 
ATOM     62  F   UNL A   1      48.317  27.619  28.004  1.00  0.00    -0.203 F 
ATOM     63  C   UNL A   1      49.397  27.103  25.981  1.00  0.00     0.198 A 
ATOM     64  C   UNL A   1      48.236  27.379  23.898  1.00  0.00     0.198 A 
ATOM     65  F   UNL A   1      46.029  28.201  23.873  1.00  0.00    -0.203 F 
ATOM     66  F   UNL A   1      50.508  26.785  26.659  1.00  0.00    -0.200 F 
ATOM     67  C   UNL A   1      49.380  27.022  24.597  1.00  0.00     0.200 A 
ATOM     68  F   UNL A   1      48.217  27.287  22.560  1.00  0.00    -0.200 F 
ATOM     69  F   UNL A   1      50.469  26.607  23.938  1.00  0.00    -0.200 F 
ENDBRANCH  45  59
BRANCH  46  70
ATOM     70  C   UNL A   1      39.004  30.762  30.956  1.00  0.00     0.064 A 
ATOM     71  C   UNL A   1      38.931  30.588  32.345  1.00  0.00     0.173 A 
ATOM     72  C   UNL A   1      37.927  31.388  30.313  1.00  0.00     0.173 A 
ATOM     73  F   UNL A   1      39.940  29.995  32.997  1.00  0.00    -0.203 F 
ATOM     74  C   UNL A   1      37.821  31.023  33.065  1.00  0.00     0.198 A 
ATOM     75  C   UNL A   1      36.823  31.832  31.036  1.00  0.00     0.198 A 
ATOM     76  F   UNL A   1      37.965  31.596  28.989  1.00  0.00    -0.203 F 
ATOM     77  F   UNL A   1      37.774  30.842  34.391  1.00  0.00    -0.200 F 
ATOM     78  C   UNL A   1      36.770  31.650  32.411  1.00  0.00     0.200 A 
ATOM     79  F   UNL A   1      35.818  32.456  30.405  1.00  0.00    -0.200 F 
ATOM     80  F   UNL A   1      35.711  32.086  33.106  1.00  0.00    -0.200 F 
ENDBRANCH  46  70
BRANCH  58  81
ATOM     81  C   UNL A   1      44.706  34.134  28.796  1.00  0.00     0.064 A 
ATOM     82  C   UNL A   1      44.299  35.084  27.850  1.00  0.00     0.173 A 
ATOM     83  C   UNL A   1      45.497  34.570  29.870  1.00  0.00     0.173 A 
ATOM     84  F   UNL A   1      43.558  34.710  26.795  1.00  0.00    -0.203 F 
ATOM     85  C   UNL A   1      44.678  36.418  27.969  1.00  0.00     0.198 A 
ATOM     86  C   UNL A   1      45.856  35.908  29.998  1.00  0.00     0.198 A 
ATOM     87  F   UNL A   1      45.914  33.697  30.801  1.00  0.00    -0.203 F 
ATOM     88  F   UNL A   1      44.305  37.304  27.035  1.00  0.00    -0.200 F 
ATOM     89  C   UNL A   1      45.447  36.830  29.046  1.00  0.00     0.200 A 
ATOM     90  F   UNL A   1      46.593  36.307  31.044  1.00  0.00    -0.200 F 
ATOM     91  F   UNL A   1      45.803  38.117  29.164  1.00  0.00    -0.200 F 
ENDBRANCH  58  81
ENDBRANCH  32  33
ENDBRANCH  25  27
ENDBRANCH  24  25
ENDBRANCH  23  24
ENDBRANCH   1  23
TORSDOF 13
ENDMDL
MODEL 2
REMARK VINA RESULT:     -12.7      0.194      1.613
REMARK SMILES Cc1cc(NC(=O)[C@@H]2CCC[C@@H](C(=O)OCCOC(=O)c3ccc(-c4c5nc(c(-c6c(F)c(F)c(F)c(F)c6F)c6ccc([nH]6)c(-c6c(F)c(F)c(F)c(F)c6F)c6nc(c(-c7c(F)c(F)c(F)c(F)c7F)c7ccc4[nH]7)C=C6)C=C5)cc3)C2)ncc1Br
REMARK SMILES IDX 16 1 15 2 13 3 14 4 12 5 8 6 9 7 84 8 10 9 11 10 6 11 5 12
REMARK SMILES IDX 7 14 4 15 1 16 2 17 3 18 87 19 86 20 88 21 85 22 17 23 18 24
REMARK SMILES IDX 19 25 20 26 21 27 22 28 83 29 23 30 82 31 24 32 25 33 26 34
REMARK SMILES IDX 76 35 27 36 81 37 75 38 77 39 28 40 80 41 74 42 73 43 29 45
REMARK SMILES IDX 61 46 41 47 60 48 42 49 45 50 59 51 78 52 43 53 44 54 58 56
REMARK SMILES IDX 79 57 46 58 30 59 31 60 39 61 32 62 33 63 37 64 40 65 34 66
REMARK SMILES IDX 35 67 38 68 36 69 62 70 63 71 71 72 64 73 65 74 69 75 72 76
REMARK SMILES IDX 66 77 67 78 70 79 68 80 47 81 48 82 56 83 49 84 50 85 54 86
REMARK SMILES IDX 57 87 51 88 52 89 55 90 53 91
REMARK H PARENT 5 13 77 44 45 55
REMARK Flexibility Score: inf
ROOT
ATOM      1  C   UNL A   1      36.114  20.308  25.001  1.00  0.00     0.274 C 
ENDROOT
BRANCH   1   2
ATOM      2  O   UNL A   1      35.528  21.334  25.834  1.00  0.00    -0.462 OA
BRANCH   2   3
ATOM      3  C   UNL A   1      34.724  22.228  25.203  1.00  0.00     0.309 C 
ATOM      4  O   UNL A   1      35.007  23.411  25.034  1.00  0.00    -0.252 OA
BRANCH   3   5
ATOM      5  C   UNL A   1      33.375  21.648  24.781  1.00  0.00     0.100 C 
ATOM      6  C   UNL A   1      31.593  23.345  25.520  1.00  0.00     0.080 C 
ATOM      7  C   UNL A   1      31.009  23.307  24.108  1.00  0.00     0.013 C 
ATOM      8  C   UNL A   1      32.270  21.993  25.805  1.00  0.00     0.028 C 
ATOM      9  C   UNL A   1      32.151  23.193  23.109  1.00  0.00     0.002 C 
ATOM     10  C   UNL A   1      32.945  21.906  23.325  1.00  0.00     0.015 C 
BRANCH   6  11
ATOM     11  C   UNL A   1      30.522  23.704  26.549  1.00  0.00     0.228 C 
ATOM     12  N   UNL A   1      29.798  24.861  26.456  1.00  0.00    -0.310 N 
ATOM     13  H   UNL A   1      29.056  24.939  27.100  1.00  0.00     0.171 HD
ATOM     14  O   UNL A   1      30.273  22.954  27.500  1.00  0.00    -0.274 OA
BRANCH  12  15
ATOM     15  C   UNL A   1      29.947  25.951  25.592  1.00  0.00     0.132 A 
ATOM     16  C   UNL A   1      32.508  28.706  25.097  1.00  0.00     0.046 C 
ATOM     17  C   UNL A   1      31.280  27.863  24.905  1.00  0.00    -0.032 A 
ATOM     18  C   UNL A   1      31.009  26.825  25.817  1.00  0.00     0.051 A 
ATOM     19  C   UNL A   1      30.441  27.993  23.797  1.00  0.00     0.039 A 
ATOM     20  C   UNL A   1      29.375  27.117  23.680  1.00  0.00     0.129 A 
ATOM     21  Br  UNL A   1      30.706  29.275  22.432  1.00  0.00    -0.049 Br
ATOM     22  N   UNL A   1      29.125  26.107  24.546  1.00  0.00    -0.238 NA
ENDBRANCH  12  15
ENDBRANCH   6  11
ENDBRANCH   3   5
ENDBRANCH   2   3
ENDBRANCH   1   2
BRANCH   1  23
ATOM     23  C   UNL A   1      37.613  20.527  24.836  1.00  0.00     0.275 C 
BRANCH  23  24
ATOM     24  O   UNL A   1      38.046  21.532  25.766  1.00  0.00    -0.458 OA
BRANCH  24  25
ATOM     25  C   UNL A   1      39.301  21.389  26.248  1.00  0.00     0.338 C 
ATOM     26  O   UNL A   1      39.946  20.359  26.340  1.00  0.00    -0.246 OA
BRANCH  25  27
ATOM     27  C   UNL A   1      39.799  22.701  26.704  1.00  0.00     0.060 A 
ATOM     28  C   UNL A   1      40.842  22.748  27.626  1.00  0.00     0.016 A 
ATOM     29  C   UNL A   1      39.304  23.882  26.154  1.00  0.00     0.016 A 
ATOM     30  C   UNL A   1      41.373  23.983  28.008  1.00  0.00     0.010 A 
ATOM     31  C   UNL A   1      39.914  25.101  26.446  1.00  0.00     0.010 A 
ATOM     32  C   UNL A   1      40.941  25.175  27.396  1.00  0.00    -0.014 A 
BRANCH  32  33
ATOM     33  C   UNL A   1      41.568  26.487  27.725  1.00  0.00     0.031 A 
ATOM     34  C   UNL A   1      43.005  26.771  27.384  1.00  0.00     0.074 A 
ATOM     35  C   UNL A   1      40.868  27.422  28.399  1.00  0.00     0.049 A 
ATOM     36  N   UNL A   1      43.679  27.885  27.541  1.00  0.00    -0.248 NA
ATOM     37  C   UNL A   1      43.793  25.672  26.808  1.00  0.00     0.031 C 
ATOM     38  C   UNL A   1      39.490  27.274  28.849  1.00  0.00     0.029 A 
ATOM     39  N   UNL A   1      41.224  28.674  28.839  1.00  0.00    -0.354 N 
ATOM     40  C   UNL A   1      44.949  27.627  27.050  1.00  0.00     0.074 A 
ATOM     41  C   UNL A   1      44.993  26.223  26.707  1.00  0.00     0.031 C 
ATOM     42  C   UNL A   1      39.121  28.373  29.524  1.00  0.00     0.029 A 
ATOM     43  C   UNL A   1      40.229  29.317  29.532  1.00  0.00     0.049 A 
ATOM     44  H   UNL A   1      42.109  29.072  28.673  1.00  0.00     0.167 HD
ATOM     45  C   UNL A   1      45.966  28.494  26.828  1.00  0.00     0.037 A 
ATOM     46  C   UNL A   1      40.185  30.544  30.087  1.00  0.00     0.037 A 
ATOM     47  C   UNL A   1      45.926  29.894  27.151  1.00  0.00     0.049 A 
ATOM     48  C   UNL A   1      41.331  31.485  29.878  1.00  0.00     0.074 A 
ATOM     49  C   UNL A   1      46.860  30.875  26.867  1.00  0.00     0.029 A 
ATOM     50  N   UNL A   1      44.898  30.511  27.847  1.00  0.00    -0.354 N 
ATOM     51  N   UNL A   1      42.465  31.273  29.260  1.00  0.00    -0.248 NA
ATOM     52  C   UNL A   1      41.169  32.851  30.391  1.00  0.00     0.031 C 
ATOM     53  C   UNL A   1      46.408  32.082  27.415  1.00  0.00     0.029 A 
ATOM     54  C   UNL A   1      45.180  31.857  28.017  1.00  0.00     0.049 A 
ATOM     55  H   UNL A   1      44.085  30.059  28.172  1.00  0.00     0.167 HD
ATOM     56  C   UNL A   1      43.129  32.489  29.257  1.00  0.00     0.074 A 
ATOM     57  C   UNL A   1      42.279  33.433  29.953  1.00  0.00     0.031 C 
ATOM     58  C   UNL A   1      44.328  32.795  28.702  1.00  0.00     0.037 A 
BRANCH  45  59
ATOM     59  C   UNL A   1      47.175  27.946  26.133  1.00  0.00     0.064 A 
ATOM     60  C   UNL A   1      47.204  27.828  24.733  1.00  0.00     0.173 A 
ATOM     61  C   UNL A   1      48.306  27.534  26.850  1.00  0.00     0.173 A 
ATOM     62  F   UNL A   1      46.143  28.203  24.001  1.00  0.00    -0.203 F 
ATOM     63  C   UNL A   1      48.301  27.274  24.082  1.00  0.00     0.198 A 
ATOM     64  C   UNL A   1      49.414  27.006  26.192  1.00  0.00     0.198 A 
ATOM     65  F   UNL A   1      48.333  27.636  28.187  1.00  0.00    -0.203 F 
ATOM     66  F   UNL A   1      48.279  27.116  22.750  1.00  0.00    -0.200 F 
ATOM     67  C   UNL A   1      49.407  26.865  24.812  1.00  0.00     0.200 A 
ATOM     68  F   UNL A   1      50.489  26.622  26.895  1.00  0.00    -0.200 F 
ATOM     69  F   UNL A   1      50.461  26.329  24.184  1.00  0.00    -0.200 F 
ENDBRANCH  45  59
BRANCH  46  70
ATOM     70  C   UNL A   1      38.949  30.973  30.786  1.00  0.00     0.064 A 
ATOM     71  C   UNL A   1      37.882  31.531  30.070  1.00  0.00     0.173 A 
ATOM     72  C   UNL A   1      38.783  30.767  32.162  1.00  0.00     0.173 A 
ATOM     73  F   UNL A   1      38.000  31.743  28.752  1.00  0.00    -0.203 F 
ATOM     74  C   UNL A   1      36.691  31.872  30.706  1.00  0.00     0.198 A 
ATOM     75  C   UNL A   1      37.587  31.099  32.796  1.00  0.00     0.198 A 
ATOM     76  F   UNL A   1      39.769  30.214  32.883  1.00  0.00    -0.203 F 
ATOM     77  F   UNL A   1      35.686  32.406  30.000  1.00  0.00    -0.200 F 
ATOM     78  C   UNL A   1      36.542  31.650  32.068  1.00  0.00     0.200 A 
ATOM     79  F   UNL A   1      37.438  30.865  34.107  1.00  0.00    -0.200 F 
ATOM     80  F   UNL A   1      35.390  31.960  32.677  1.00  0.00    -0.200 F 
ENDBRANCH  46  70
BRANCH  58  81
ATOM     81  C   UNL A   1      44.781  34.219  28.785  1.00  0.00     0.064 A 
ATOM     82  C   UNL A   1      44.421  35.163  27.814  1.00  0.00     0.173 A 
ATOM     83  C   UNL A   1      45.545  34.655  29.878  1.00  0.00     0.173 A 
ATOM     84  F   UNL A   1      43.708  34.788  26.741  1.00  0.00    -0.203 F 
ATOM     85  C   UNL A   1      44.818  36.492  27.929  1.00  0.00     0.198 A 
ATOM     86  C   UNL A   1      45.922  35.988  30.002  1.00  0.00     0.198 A 
ATOM     87  F   UNL A   1      45.916  33.787  30.833  1.00  0.00    -0.203 F 
ATOM     88  F   UNL A   1      44.491  37.372  26.973  1.00  0.00    -0.200 F 
ATOM     89  C   UNL A   1      45.560  36.905  29.026  1.00  0.00     0.200 A 
ATOM     90  F   UNL A   1      46.632  36.388  31.065  1.00  0.00    -0.200 F 
ATOM     91  F   UNL A   1      45.933  38.187  29.139  1.00  0.00    -0.200 F 
ENDBRANCH  58  81
ENDBRANCH  32  33
ENDBRANCH  25  27
ENDBRANCH  24  25
ENDBRANCH  23  24
ENDBRANCH   1  23
TORSDOF 13
ENDMDL
MODEL 3
REMARK VINA RESULT:     -12.7      4.735     10.256
REMARK SMILES Cc1cc(NC(=O)[C@@H]2CCC[C@@H](C(=O)OCCOC(=O)c3ccc(-c4c5nc(c(-c6c(F)c(F)c(F)c(F)c6F)c6ccc([nH]6)c(-c6c(F)c(F)c(F)c(F)c6F)c6nc(c(-c7c(F)c(F)c(F)c(F)c7F)c7ccc4[nH]7)C=C6)C=C5)cc3)C2)ncc1Br
REMARK SMILES IDX 16 1 15 2 13 3 14 4 12 5 8 6 9 7 84 8 10 9 11 10 6 11 5 12
REMARK SMILES IDX 7 14 4 15 1 16 2 17 3 18 87 19 86 20 88 21 85 22 17 23 18 24
REMARK SMILES IDX 19 25 20 26 21 27 22 28 83 29 23 30 82 31 24 32 25 33 26 34
REMARK SMILES IDX 76 35 27 36 81 37 75 38 77 39 28 40 80 41 74 42 73 43 29 45
REMARK SMILES IDX 61 46 41 47 60 48 42 49 45 50 59 51 78 52 43 53 44 54 58 56
REMARK SMILES IDX 79 57 46 58 30 59 31 60 39 61 32 62 33 63 37 64 40 65 34 66
REMARK SMILES IDX 35 67 38 68 36 69 62 70 63 71 71 72 64 73 65 74 69 75 72 76
REMARK SMILES IDX 66 77 67 78 70 79 68 80 47 81 48 82 56 83 49 84 50 85 54 86
REMARK SMILES IDX 57 87 51 88 52 89 55 90 53 91
REMARK H PARENT 5 13 77 44 45 55
REMARK Flexibility Score: inf
ROOT
ATOM      1  C   UNL A   1      31.413  32.459  26.639  1.00  0.00     0.274 C 
ENDROOT
BRANCH   1   2
ATOM      2  O   UNL A   1      32.114  31.221  26.890  1.00  0.00    -0.462 OA
BRANCH   2   3
ATOM      3  C   UNL A   1      31.704  30.146  26.167  1.00  0.00     0.309 C 
ATOM      4  O   UNL A   1      31.094  30.221  25.105  1.00  0.00    -0.252 OA
BRANCH   3   5
ATOM      5  C   UNL A   1      32.000  28.806  26.840  1.00  0.00     0.100 C 
ATOM      6  C   UNL A   1      32.427  27.122  24.948  1.00  0.00     0.080 C 
ATOM      7  C   UNL A   1      33.724  26.709  25.644  1.00  0.00     0.013 C 
ATOM      8  C   UNL A   1      31.439  27.627  26.015  1.00  0.00     0.028 C 
ATOM      9  C   UNL A   1      34.366  27.945  26.256  1.00  0.00     0.002 C 
ATOM     10  C   UNL A   1      33.451  28.579  27.302  1.00  0.00     0.015 C 
BRANCH   6  11
ATOM     11  C   UNL A   1      31.863  25.976  24.108  1.00  0.00     0.228 C 
ATOM     12  N   UNL A   1      30.959  26.199  23.107  1.00  0.00    -0.310 N 
ATOM     13  H   UNL A   1      30.750  25.411  22.553  1.00  0.00     0.171 HD
ATOM     14  O   UNL A   1      32.212  24.807  24.308  1.00  0.00    -0.274 OA
BRANCH  12  15
ATOM     15  C   UNL A   1      30.283  27.369  22.746  1.00  0.00     0.132 A 
ATOM     16  C   UNL A   1      26.895  28.902  23.500  1.00  0.00     0.046 C 
ATOM     17  C   UNL A   1      28.274  28.723  22.930  1.00  0.00    -0.032 A 
ATOM     18  C   UNL A   1      28.959  27.513  23.156  1.00  0.00     0.051 A 
ATOM     19  C   UNL A   1      28.955  29.746  22.269  1.00  0.00     0.039 A 
ATOM     20  C   UNL A   1      30.250  29.498  21.846  1.00  0.00     0.129 A 
ATOM     21  Br  UNL A   1      28.219  31.460  21.957  1.00  0.00    -0.049 Br
ATOM     22  N   UNL A   1      30.916  28.343  22.079  1.00  0.00    -0.238 NA
ENDBRANCH  12  15
ENDBRANCH   6  11
ENDBRANCH   3   5
ENDBRANCH   2   3
ENDBRANCH   1   2
BRANCH   1  23
ATOM     23  C   UNL A   1      32.151  33.642  27.254  1.00  0.00     0.275 C 
BRANCH  23  24
ATOM     24  O   UNL A   1      33.281  33.154  27.995  1.00  0.00    -0.458 OA
BRANCH  24  25
ATOM     25  C   UNL A   1      34.423  33.866  27.867  1.00  0.00     0.338 C 
ATOM     26  O   UNL A   1      34.554  34.972  27.370  1.00  0.00    -0.246 OA
BRANCH  25  27
ATOM     27  C   UNL A   1      35.550  33.079  28.402  1.00  0.00     0.060 A 
ATOM     28  C   UNL A   1      36.809  33.669  28.491  1.00  0.00     0.016 A 
ATOM     29  C   UNL A   1      35.349  31.794  28.903  1.00  0.00     0.016 A 
ATOM     30  C   UNL A   1      37.868  32.960  29.064  1.00  0.00     0.010 A 
ATOM     31  C   UNL A   1      36.375  31.137  29.581  1.00  0.00     0.010 A 
ATOM     32  C   UNL A   1      37.657  31.697  29.650  1.00  0.00    -0.014 A 
BRANCH  32  33
ATOM     33  C   UNL A   1      38.756  30.975  30.351  1.00  0.00     0.031 A 
ATOM     34  C   UNL A   1      39.106  31.286  31.780  1.00  0.00     0.074 A 
ATOM     35  C   UNL A   1      39.503  30.070  29.687  1.00  0.00     0.049 A 
ATOM     36  N   UNL A   1      39.989  30.700  32.553  1.00  0.00    -0.248 NA
ATOM     37  C   UNL A   1      38.392  32.397  32.424  1.00  0.00     0.031 C 
ATOM     38  C   UNL A   1      39.326  29.702  28.287  1.00  0.00     0.029 A 
ATOM     39  N   UNL A   1      40.571  29.308  30.093  1.00  0.00    -0.354 N 
ATOM     40  C   UNL A   1      39.905  31.348  33.776  1.00  0.00     0.074 A 
ATOM     41  C   UNL A   1      38.981  32.448  33.609  1.00  0.00     0.031 C 
ATOM     42  C   UNL A   1      40.264  28.810  27.938  1.00  0.00     0.029 A 
ATOM     43  C   UNL A   1      41.096  28.520  29.098  1.00  0.00     0.049 A 
ATOM     44  H   UNL A   1      40.927  29.324  31.010  1.00  0.00     0.167 HD
ATOM     45  C   UNL A   1      40.481  31.013  34.955  1.00  0.00     0.037 A 
ATOM     46  C   UNL A   1      42.108  27.632  29.111  1.00  0.00     0.037 A 
ATOM     47  C   UNL A   1      41.388  29.913  35.134  1.00  0.00     0.049 A 
ATOM     48  C   UNL A   1      42.774  27.297  30.410  1.00  0.00     0.074 A 
ATOM     49  C   UNL A   1      41.938  29.427  36.307  1.00  0.00     0.029 A 
ATOM     50  N   UNL A   1      41.890  29.133  34.104  1.00  0.00    -0.354 N 
ATOM     51  N   UNL A   1      42.562  27.807  31.596  1.00  0.00    -0.248 NA
ATOM     52  C   UNL A   1      43.778  26.226  30.383  1.00  0.00     0.031 C 
ATOM     53  C   UNL A   1      42.796  28.368  35.982  1.00  0.00     0.029 A 
ATOM     54  C   UNL A   1      42.758  28.178  34.610  1.00  0.00     0.049 A 
ATOM     55  H   UNL A   1      41.663  29.241  33.151  1.00  0.00     0.167 HD
ATOM     56  C   UNL A   1      43.359  27.084  32.469  1.00  0.00     0.074 A 
ATOM     57  C   UNL A   1      44.077  26.110  31.671  1.00  0.00     0.031 C 
ATOM     58  C   UNL A   1      43.463  27.206  33.815  1.00  0.00     0.037 A 
BRANCH  45  59
ATOM     59  C   UNL A   1      40.074  31.817  36.153  1.00  0.00     0.064 A 
ATOM     60  C   UNL A   1      38.847  31.574  36.795  1.00  0.00     0.173 A 
ATOM     61  C   UNL A   1      40.894  32.830  36.666  1.00  0.00     0.173 A 
ATOM     62  F   UNL A   1      38.023  30.618  36.338  1.00  0.00    -0.203 F 
ATOM     63  C   UNL A   1      38.437  32.347  37.876  1.00  0.00     0.198 A 
ATOM     64  C   UNL A   1      40.492  33.584  37.766  1.00  0.00     0.198 A 
ATOM     65  F   UNL A   1      42.079  33.095  36.096  1.00  0.00    -0.203 F 
ATOM     66  F   UNL A   1      37.236  32.136  38.431  1.00  0.00    -0.200 F 
ATOM     67  C   UNL A   1      39.261  33.351  38.362  1.00  0.00     0.200 A 
ATOM     68  F   UNL A   1      41.293  34.546  38.246  1.00  0.00    -0.200 F 
ATOM     69  F   UNL A   1      38.864  34.097  39.401  1.00  0.00    -0.200 F 
ENDBRANCH  45  59
BRANCH  46  70
ATOM     70  C   UNL A   1      42.453  26.917  27.858  1.00  0.00     0.064 A 
ATOM     71  C   UNL A   1      43.438  27.420  26.998  1.00  0.00     0.173 A 
ATOM     72  C   UNL A   1      41.862  25.688  27.534  1.00  0.00     0.173 A 
ATOM     73  F   UNL A   1      44.028  28.592  27.272  1.00  0.00    -0.203 F 
ATOM     74  C   UNL A   1      43.819  26.721  25.855  1.00  0.00     0.198 A 
ATOM     75  C   UNL A   1      42.251  24.984  26.397  1.00  0.00     0.198 A 
ATOM     76  F   UNL A   1      40.932  25.157  28.341  1.00  0.00    -0.203 F 
ATOM     77  F   UNL A   1      44.761  27.224  25.048  1.00  0.00    -0.200 F 
ATOM     78  C   UNL A   1      43.229  25.500  25.559  1.00  0.00     0.200 A 
ATOM     79  F   UNL A   1      41.695  23.796  26.123  1.00  0.00    -0.200 F 
ATOM     80  F   UNL A   1      43.609  24.818  24.470  1.00  0.00    -0.200 F 
ENDBRANCH  46  70
BRANCH  58  81
ATOM     81  C   UNL A   1      44.355  26.237  34.526  1.00  0.00     0.064 A 
ATOM     82  C   UNL A   1      43.898  24.976  34.931  1.00  0.00     0.173 A 
ATOM     83  C   UNL A   1      45.701  26.558  34.761  1.00  0.00     0.173 A 
ATOM     84  F   UNL A   1      42.614  24.633  34.745  1.00  0.00    -0.203 F 
ATOM     85  C   UNL A   1      44.753  24.073  35.555  1.00  0.00     0.198 A 
ATOM     86  C   UNL A   1      46.559  25.644  35.365  1.00  0.00     0.198 A 
ATOM     87  F   UNL A   1      46.186  27.754  34.393  1.00  0.00    -0.203 F 
ATOM     88  F   UNL A   1      44.287  22.884  35.964  1.00  0.00    -0.200 F 
ATOM     89  C   UNL A   1      46.084  24.404  35.764  1.00  0.00     0.200 A 
ATOM     90  F   UNL A   1      47.846  25.962  35.560  1.00  0.00    -0.200 F 
ATOM     91  F   UNL A   1      46.908  23.529  36.357  1.00  0.00    -0.200 F 
ENDBRANCH  58  81
ENDBRANCH  32  33
ENDBRANCH  25  27
ENDBRANCH  24  25
ENDBRANCH  23  24
ENDBRANCH   1  23
TORSDOF 13
ENDMDL
