MODEL 1
REMARK VINA RESULT:     -13.3      0.000      0.000
REMARK SMILES C[C@@H](Oc1ccc2c(c1)OCO2)C(=O)N1CCn2nc(C(=O)OCCOC(=O)c3ccc(-c4c5nc(c(-c6c(F)c(F)c(F)c(F)c6F)c6ccc([nH]6)c(-c6c(F)c(F)c(F)c(F)c6F)c6nc(c(-c7c(F)c(F)c(F)c(F)c7F)c7ccc4[nH]7)C=C6)C=C5)cc3)cc2C1
REMARK SMILES IDX 24 1 23 2 21 3 22 4 20 5 15 6 16 7 94 8 17 9 93 10 18 11
REMARK SMILES IDX 92 12 19 13 13 14 14 15 2 16 1 17 3 18 4 19 5 20 9 21 6 22
REMARK SMILES IDX 8 23 7 24 10 25 12 26 11 27 25 28 26 29 27 30 28 31 29 32
REMARK SMILES IDX 30 33 91 34 31 35 90 36 32 37 33 38 34 39 84 40 35 41 89 42
REMARK SMILES IDX 83 43 85 44 36 45 88 46 82 47 81 48 37 50 69 51 49 52 68 53
REMARK SMILES IDX 50 54 53 55 67 56 86 57 51 58 52 59 66 61 87 62 54 63 38 64
REMARK SMILES IDX 39 65 47 66 40 67 41 68 45 69 48 70 42 71 43 72 46 73 44 74
REMARK SMILES IDX 70 75 71 76 79 77 72 78 73 79 77 80 80 81 74 82 75 83 78 84
REMARK SMILES IDX 76 85 55 86 56 87 64 88 57 89 58 90 62 91 65 92 59 93 60 94
REMARK SMILES IDX 63 95 61 96
REMARK H PARENT 85 49 53 60
REMARK Flexibility Score: inf
ROOT
ATOM      1  C   UNL A   1      42.434  18.825  26.185  1.00  0.00     0.275 C 
ENDROOT
BRANCH   1   2
ATOM      2  O   UNL A   1      41.382  19.654  25.660  1.00  0.00    -0.457 OA
BRANCH   2   3
ATOM      3  C   UNL A   1      41.060  20.756  26.412  1.00  0.00     0.358 C 
ATOM      4  O   UNL A   1      41.832  21.284  27.211  1.00  0.00    -0.244 OA
BRANCH   3   5
ATOM      5  C   UNL A   1      39.721  21.271  26.094  1.00  0.00     0.170 A 
ATOM      6  N   UNL A   1      35.442  22.533  24.920  1.00  0.00    -0.332 N 
ATOM      7  C   UNL A   1      36.008  23.819  25.344  1.00  0.00     0.143 C 
ATOM      8  C   UNL A   1      36.193  21.289  25.029  1.00  0.00     0.175 C 
ATOM      9  C   UNL A   1      37.371  23.853  26.022  1.00  0.00     0.166 C 
ATOM     10  C   UNL A   1      37.600  21.459  25.426  1.00  0.00     0.059 A 
ATOM     11  N   UNL A   1      38.092  22.618  25.921  1.00  0.00    -0.265 N 
ATOM     12  C   UNL A   1      38.664  20.584  25.433  1.00  0.00     0.063 A 
ATOM     13  N   UNL A   1      39.341  22.528  26.401  1.00  0.00    -0.165 NA
BRANCH   6  14
ATOM     14  C   UNL A   1      34.154  22.391  24.391  1.00  0.00     0.263 C 
ATOM     15  O   UNL A   1      33.885  22.814  23.259  1.00  0.00    -0.271 OA
BRANCH  14  16
ATOM     16  C   UNL A   1      33.034  21.759  25.242  1.00  0.00     0.259 C 
ATOM     17  C   UNL A   1      32.325  22.768  26.139  1.00  0.00     0.064 C 
BRANCH  16  18
ATOM     18  O   UNL A   1      32.150  21.122  24.308  1.00  0.00    -0.481 OA
BRANCH  18  19
ATOM     19  C   UNL A   1      32.350  19.779  24.175  1.00  0.00     0.124 A 
ATOM     20  C   UNL A   1      32.377  19.224  22.885  1.00  0.00     0.050 A 
ATOM     21  C   UNL A   1      32.710  19.027  25.294  1.00  0.00     0.097 A 
ATOM     22  C   UNL A   1      32.733  17.889  22.699  1.00  0.00     0.054 A 
ATOM     23  C   UNL A   1      33.076  17.714  25.077  1.00  0.00     0.169 A 
ATOM     24  C   UNL A   1      33.086  17.163  23.815  1.00  0.00     0.166 A 
ATOM     25  O   UNL A   1      33.492  16.832  26.026  1.00  0.00    -0.453 OA
ATOM     26  O   UNL A   1      33.505  15.870  23.813  1.00  0.00    -0.454 OA
ATOM     27  C   UNL A   1      33.798  15.678  25.212  1.00  0.00     0.468 C 
ENDBRANCH  18  19
ENDBRANCH  16  18
ENDBRANCH  14  16
ENDBRANCH   6  14
ENDBRANCH   3   5
ENDBRANCH   2   3
ENDBRANCH   1   2
BRANCH   1  28
ATOM     28  C   UNL A   1      43.649  18.821  25.264  1.00  0.00     0.275 C 
BRANCH  28  29
ATOM     29  O   UNL A   1      43.777  20.066  24.578  1.00  0.00    -0.458 OA
BRANCH  29  30
ATOM     30  C   UNL A   1      45.034  20.555  24.489  1.00  0.00     0.338 C 
ATOM     31  O   UNL A   1      46.071  19.914  24.507  1.00  0.00    -0.246 OA
BRANCH  30  32
ATOM     32  C   UNL A   1      44.985  22.020  24.600  1.00  0.00     0.060 A 
ATOM     33  C   UNL A   1      46.074  22.645  25.213  1.00  0.00     0.016 A 
ATOM     34  C   UNL A   1      43.763  22.683  24.408  1.00  0.00     0.016 A 
ATOM     35  C   UNL A   1      45.866  23.857  25.836  1.00  0.00     0.010 A 
ATOM     36  C   UNL A   1      43.552  23.882  25.045  1.00  0.00     0.010 A 
ATOM     37  C   UNL A   1      44.579  24.405  25.825  1.00  0.00    -0.014 A 
BRANCH  37  38
ATOM     38  C   UNL A   1      44.320  25.547  26.673  1.00  0.00     0.031 A 
ATOM     39  C   UNL A   1      45.276  26.663  26.516  1.00  0.00     0.074 A 
ATOM     40  C   UNL A   1      43.236  25.608  27.465  1.00  0.00     0.049 A 
ATOM     41  N   UNL A   1      46.088  27.138  27.400  1.00  0.00    -0.248 NA
ATOM     42  C   UNL A   1      45.425  27.249  25.178  1.00  0.00     0.031 C 
ATOM     43  C   UNL A   1      42.067  24.725  27.505  1.00  0.00     0.029 A 
ATOM     44  N   UNL A   1      42.924  26.572  28.368  1.00  0.00    -0.354 N 
ATOM     45  C   UNL A   1      46.777  28.170  26.772  1.00  0.00     0.074 A 
ATOM     46  C   UNL A   1      46.419  28.113  25.378  1.00  0.00     0.031 C 
ATOM     47  C   UNL A   1      41.088  25.323  28.224  1.00  0.00     0.029 A 
ATOM     48  C   UNL A   1      41.607  26.557  28.791  1.00  0.00     0.049 A 
ATOM     49  H   UNL A   1      43.580  27.228  28.694  1.00  0.00     0.167 HD
ATOM     50  C   UNL A   1      47.472  29.101  27.480  1.00  0.00     0.037 A 
ATOM     51  C   UNL A   1      40.993  27.553  29.475  1.00  0.00     0.037 A 
ATOM     52  C   UNL A   1      47.706  28.668  28.831  1.00  0.00     0.049 A 
ATOM     53  C   UNL A   1      42.060  28.381  30.105  1.00  0.00     0.074 A 
ATOM     54  C   UNL A   1      48.431  27.637  29.399  1.00  0.00     0.029 A 
ATOM     55  N   UNL A   1      46.859  29.114  29.815  1.00  0.00    -0.354 N 
ATOM     56  N   UNL A   1      42.829  27.959  31.071  1.00  0.00    -0.248 NA
ATOM     57  C   UNL A   1      42.582  29.509  29.343  1.00  0.00     0.031 C 
ATOM     58  C   UNL A   1      47.650  27.204  30.508  1.00  0.00     0.029 A 
ATOM     59  C   UNL A   1      46.523  28.024  30.578  1.00  0.00     0.049 A 
ATOM     60  H   UNL A   1      46.551  30.039  29.948  1.00  0.00     0.167 HD
ATOM     61  C   UNL A   1      44.085  28.474  30.779  1.00  0.00     0.074 A 
ATOM     62  C   UNL A   1      43.854  29.485  29.751  1.00  0.00     0.031 C 
ATOM     63  C   UNL A   1      45.225  27.839  31.183  1.00  0.00     0.037 A 
BRANCH  50  64
ATOM     64  C   UNL A   1      47.695  30.519  27.038  1.00  0.00     0.064 A 
ATOM     65  C   UNL A   1      48.996  31.060  27.079  1.00  0.00     0.173 A 
ATOM     66  C   UNL A   1      46.651  31.449  26.849  1.00  0.00     0.173 A 
ATOM     67  F   UNL A   1      50.060  30.266  27.270  1.00  0.00    -0.203 F 
ATOM     68  C   UNL A   1      49.223  32.436  27.006  1.00  0.00     0.198 A 
ATOM     69  C   UNL A   1      46.887  32.816  26.720  1.00  0.00     0.198 A 
ATOM     70  F   UNL A   1      45.363  31.088  26.892  1.00  0.00    -0.203 F 
ATOM     71  F   UNL A   1      50.464  32.913  27.169  1.00  0.00    -0.200 F 
ATOM     72  C   UNL A   1      48.168  33.313  26.831  1.00  0.00     0.200 A 
ATOM     73  F   UNL A   1      45.850  33.652  26.567  1.00  0.00    -0.200 F 
ATOM     74  F   UNL A   1      48.378  34.635  26.821  1.00  0.00    -0.200 F 
ENDBRANCH  50  64
BRANCH  51  75
ATOM     75  C   UNL A   1      39.599  28.032  29.303  1.00  0.00     0.064 A 
ATOM     76  C   UNL A   1      38.731  28.142  30.401  1.00  0.00     0.173 A 
ATOM     77  C   UNL A   1      39.172  28.642  28.106  1.00  0.00     0.173 A 
ATOM     78  F   UNL A   1      39.079  27.632  31.590  1.00  0.00    -0.203 F 
ATOM     79  C   UNL A   1      37.521  28.840  30.312  1.00  0.00     0.198 A 
ATOM     80  C   UNL A   1      37.962  29.329  28.015  1.00  0.00     0.198 A 
ATOM     81  F   UNL A   1      39.962  28.670  27.023  1.00  0.00    -0.203 F 
ATOM     82  F   UNL A   1      36.746  28.978  31.397  1.00  0.00    -0.200 F 
ATOM     83  C   UNL A   1      37.142  29.440  29.121  1.00  0.00     0.200 A 
ATOM     84  F   UNL A   1      37.627  29.934  26.866  1.00  0.00    -0.200 F 
ATOM     85  F   UNL A   1      36.013  30.157  29.051  1.00  0.00    -0.200 F 
ENDBRANCH  51  75
BRANCH  63  86
ATOM     86  C   UNL A   1      45.082  26.683  32.136  1.00  0.00     0.064 A 
ATOM     87  C   UNL A   1      44.994  26.833  33.531  1.00  0.00     0.173 A 
ATOM     88  C   UNL A   1      44.865  25.403  31.612  1.00  0.00     0.173 A 
ATOM     89  F   UNL A   1      45.078  28.041  34.101  1.00  0.00    -0.203 F 
ATOM     90  C   UNL A   1      44.750  25.743  34.364  1.00  0.00     0.198 A 
ATOM     91  C   UNL A   1      44.583  24.322  32.443  1.00  0.00     0.198 A 
ATOM     92  F   UNL A   1      44.871  25.209  30.285  1.00  0.00    -0.203 F 
ATOM     93  F   UNL A   1      44.681  25.914  35.692  1.00  0.00    -0.200 F 
ATOM     94  C   UNL A   1      44.536  24.489  33.818  1.00  0.00     0.200 A 
ATOM     95  F   UNL A   1      44.323  23.120  31.908  1.00  0.00    -0.200 F 
ATOM     96  F   UNL A   1      44.256  23.448  34.614  1.00  0.00    -0.200 F 
ENDBRANCH  63  86
ENDBRANCH  37  38
ENDBRANCH  30  32
ENDBRANCH  29  30
ENDBRANCH  28  29
ENDBRANCH   1  28
TORSDOF 15
ENDMDL
MODEL 2
REMARK VINA RESULT:     -13.0      2.576      3.973
REMARK SMILES C[C@@H](Oc1ccc2c(c1)OCO2)C(=O)N1CCn2nc(C(=O)OCCOC(=O)c3ccc(-c4c5nc(c(-c6c(F)c(F)c(F)c(F)c6F)c6ccc([nH]6)c(-c6c(F)c(F)c(F)c(F)c6F)c6nc(c(-c7c(F)c(F)c(F)c(F)c7F)c7ccc4[nH]7)C=C6)C=C5)cc3)cc2C1
REMARK SMILES IDX 24 1 23 2 21 3 22 4 20 5 15 6 16 7 94 8 17 9 93 10 18 11
REMARK SMILES IDX 92 12 19 13 13 14 14 15 2 16 1 17 3 18 4 19 5 20 9 21 6 22
REMARK SMILES IDX 8 23 7 24 10 25 12 26 11 27 25 28 26 29 27 30 28 31 29 32
REMARK SMILES IDX 30 33 91 34 31 35 90 36 32 37 33 38 34 39 84 40 35 41 89 42
REMARK SMILES IDX 83 43 85 44 36 45 88 46 82 47 81 48 37 50 69 51 49 52 68 53
REMARK SMILES IDX 50 54 53 55 67 56 86 57 51 58 52 59 66 61 87 62 54 63 38 64
REMARK SMILES IDX 39 65 47 66 40 67 41 68 45 69 48 70 42 71 43 72 46 73 44 74
REMARK SMILES IDX 70 75 71 76 79 77 72 78 73 79 77 80 80 81 74 82 75 83 78 84
REMARK SMILES IDX 76 85 55 86 56 87 64 88 57 89 58 90 62 91 65 92 59 93 60 94
REMARK SMILES IDX 63 95 61 96
REMARK H PARENT 85 49 53 60
REMARK Flexibility Score: inf
ROOT
ATOM      1  C   UNL A   1      43.017  19.996  25.751  1.00  0.00     0.275 C 
ENDROOT
BRANCH   1   2
ATOM      2  O   UNL A   1      41.625  19.814  25.439  1.00  0.00    -0.457 OA
BRANCH   2   3
ATOM      3  C   UNL A   1      40.752  19.989  26.484  1.00  0.00     0.358 C 
ATOM      4  O   UNL A   1      41.000  19.655  27.641  1.00  0.00    -0.244 OA
BRANCH   3   5
ATOM      5  C   UNL A   1      39.527  20.687  26.070  1.00  0.00     0.170 A 
ATOM      6  N   UNL A   1      35.560  22.530  24.607  1.00  0.00    -0.332 N 
ATOM      7  C   UNL A   1      36.296  23.734  25.011  1.00  0.00     0.143 C 
ATOM      8  C   UNL A   1      36.101  21.193  24.807  1.00  0.00     0.175 C 
ATOM      9  C   UNL A   1      37.613  23.591  25.763  1.00  0.00     0.166 C 
ATOM     10  C   UNL A   1      37.496  21.165  25.276  1.00  0.00     0.059 A 
ATOM     11  N   UNL A   1      38.138  22.257  25.753  1.00  0.00    -0.265 N 
ATOM     12  C   UNL A   1      38.410  20.139  25.378  1.00  0.00     0.063 A 
ATOM     13  N   UNL A   1      39.331  22.000  26.305  1.00  0.00    -0.165 NA
BRANCH   6  14
ATOM     14  C   UNL A   1      34.293  22.562  24.011  1.00  0.00     0.263 C 
ATOM     15  O   UNL A   1      34.105  23.182  22.957  1.00  0.00    -0.271 OA
BRANCH  14  16
ATOM     16  C   UNL A   1      33.098  21.873  24.700  1.00  0.00     0.259 C 
ATOM     17  C   UNL A   1      32.212  22.845  25.472  1.00  0.00     0.064 C 
BRANCH  16  18
ATOM     18  O   UNL A   1      32.394  21.182  23.658  1.00  0.00    -0.481 OA
BRANCH  18  19
ATOM     19  C   UNL A   1      32.481  19.822  23.730  1.00  0.00     0.124 A 
ATOM     20  C   UNL A   1      32.456  19.077  22.539  1.00  0.00     0.050 A 
ATOM     21  C   UNL A   1      32.781  19.220  24.953  1.00  0.00     0.097 A 
ATOM     22  C   UNL A   1      32.698  17.705  22.559  1.00  0.00     0.054 A 
ATOM     23  C   UNL A   1      33.034  17.863  24.940  1.00  0.00     0.169 A 
ATOM     24  C   UNL A   1      32.993  17.129  23.776  1.00  0.00     0.166 A 
ATOM     25  O   UNL A   1      33.379  17.103  26.015  1.00  0.00    -0.453 OA
ATOM     26  O   UNL A   1      33.303  15.820  23.972  1.00  0.00    -0.454 OA
ATOM     27  C   UNL A   1      33.584  15.819  25.387  1.00  0.00     0.468 C 
ENDBRANCH  18  19
ENDBRANCH  16  18
ENDBRANCH  14  16
ENDBRANCH   6  14
ENDBRANCH   3   5
ENDBRANCH   2   3
ENDBRANCH   1   2
BRANCH   1  28
ATOM     28  C   UNL A   1      43.468  21.424  25.465  1.00  0.00     0.275 C 
BRANCH  28  29
ATOM     29  O   UNL A   1      42.650  22.368  26.155  1.00  0.00    -0.458 OA
BRANCH  29  30
ATOM     30  C   UNL A   1      42.698  23.634  25.683  1.00  0.00     0.338 C 
ATOM     31  O   UNL A   1      43.399  24.051  24.777  1.00  0.00    -0.246 OA
BRANCH  30  32
ATOM     32  C   UNL A   1      41.936  24.509  26.586  1.00  0.00     0.060 A 
ATOM     33  C   UNL A   1      41.088  25.447  25.992  1.00  0.00     0.016 A 
ATOM     34  C   UNL A   1      42.317  24.604  27.933  1.00  0.00     0.016 A 
ATOM     35  C   UNL A   1      40.805  26.604  26.686  1.00  0.00     0.010 A 
ATOM     36  C   UNL A   1      42.049  25.765  28.618  1.00  0.00     0.010 A 
ATOM     37  C   UNL A   1      41.376  26.784  27.952  1.00  0.00    -0.014 A 
BRANCH  37  38
ATOM     38  C   UNL A   1      41.266  28.087  28.566  1.00  0.00     0.031 A 
ATOM     39  C   UNL A   1      42.360  29.023  28.232  1.00  0.00     0.074 A 
ATOM     40  C   UNL A   1      40.197  28.434  29.303  1.00  0.00     0.049 A 
ATOM     41  N   UNL A   1      43.224  29.547  29.035  1.00  0.00    -0.248 NA
ATOM     42  C   UNL A   1      42.589  29.324  26.813  1.00  0.00     0.031 C 
ATOM     43  C   UNL A   1      38.922  27.731  29.473  1.00  0.00     0.029 A 
ATOM     44  N   UNL A   1      40.010  29.581  30.002  1.00  0.00    -0.354 N 
ATOM     45  C   UNL A   1      44.045  30.347  28.246  1.00  0.00     0.074 A 
ATOM     46  C   UNL A   1      43.687  30.077  26.877  1.00  0.00     0.031 C 
ATOM     47  C   UNL A   1      38.027  28.573  30.042  1.00  0.00     0.029 A 
ATOM     48  C   UNL A   1      38.701  29.815  30.384  1.00  0.00     0.049 A 
ATOM     49  H   UNL A   1      40.745  30.198  30.220  1.00  0.00     0.167 HD
ATOM     50  C   UNL A   1      44.853  31.298  28.788  1.00  0.00     0.037 A 
ATOM     51  C   UNL A   1      38.220  30.991  30.855  1.00  0.00     0.037 A 
ATOM     52  C   UNL A   1      45.024  31.099  30.202  1.00  0.00     0.049 A 
ATOM     53  C   UNL A   1      39.384  31.779  31.350  1.00  0.00     0.074 A 
ATOM     54  C   UNL A   1      45.606  30.109  30.971  1.00  0.00     0.029 A 
ATOM     55  N   UNL A   1      44.239  31.825  31.063  1.00  0.00    -0.354 N 
ATOM     56  N   UNL A   1      40.088  31.450  32.399  1.00  0.00    -0.248 NA
ATOM     57  C   UNL A   1      40.052  32.668  30.407  1.00  0.00     0.031 C 
ATOM     58  C   UNL A   1      44.771  29.994  32.119  1.00  0.00     0.029 A 
ATOM     59  C   UNL A   1      43.760  30.950  32.005  1.00  0.00     0.049 A 
ATOM     60  H   UNL A   1      44.054  32.791  31.014  1.00  0.00     0.167 HD
ATOM     61  C   UNL A   1      41.402  31.737  32.051  1.00  0.00     0.074 A 
ATOM     62  C   UNL A   1      41.309  32.559  30.847  1.00  0.00     0.031 C 
ATOM     63  C   UNL A   1      42.447  31.049  32.597  1.00  0.00     0.037 A 
BRANCH  50  64
ATOM     64  C   UNL A   1      45.261  32.567  28.098  1.00  0.00     0.064 A 
ATOM     65  C   UNL A   1      44.295  33.564  27.855  1.00  0.00     0.173 A 
ATOM     66  C   UNL A   1      46.488  32.725  27.419  1.00  0.00     0.173 A 
ATOM     67  F   UNL A   1      43.088  33.503  28.437  1.00  0.00    -0.203 F 
ATOM     68  C   UNL A   1      44.519  34.599  26.944  1.00  0.00     0.198 A 
ATOM     69  C   UNL A   1      46.727  33.790  26.554  1.00  0.00     0.198 A 
ATOM     70  F   UNL A   1      47.455  31.801  27.478  1.00  0.00    -0.203 F 
ATOM     71  F   UNL A   1      43.529  35.454  26.655  1.00  0.00    -0.200 F 
ATOM     72  C   UNL A   1      45.733  34.708  26.291  1.00  0.00     0.200 A 
ATOM     73  F   UNL A   1      47.905  33.871  25.919  1.00  0.00    -0.200 F 
ATOM     74  F   UNL A   1      45.928  35.665  25.374  1.00  0.00    -0.200 F 
ENDBRANCH  50  64
BRANCH  51  75
ATOM     75  C   UNL A   1      36.902  31.603  30.559  1.00  0.00     0.064 A 
ATOM     76  C   UNL A   1      35.987  31.887  31.586  1.00  0.00     0.173 A 
ATOM     77  C   UNL A   1      36.617  32.167  29.298  1.00  0.00     0.173 A 
ATOM     78  F   UNL A   1      36.205  31.429  32.827  1.00  0.00    -0.203 F 
ATOM     79  C   UNL A   1      34.870  32.702  31.370  1.00  0.00     0.198 A 
ATOM     80  C   UNL A   1      35.499  32.972  29.081  1.00  0.00     0.198 A 
ATOM     81  F   UNL A   1      37.468  32.030  28.271  1.00  0.00    -0.203 F 
ATOM     82  F   UNL A   1      34.053  33.001  32.389  1.00  0.00    -0.200 F 
ATOM     83  C   UNL A   1      34.633  33.250  30.120  1.00  0.00     0.200 A 
ATOM     84  F   UNL A   1      35.303  33.524  27.875  1.00  0.00    -0.200 F 
ATOM     85  F   UNL A   1      33.597  34.078  29.927  1.00  0.00    -0.200 F 
ENDBRANCH  51  75
BRANCH  63  86
ATOM     86  C   UNL A   1      42.152  30.119  33.743  1.00  0.00     0.064 A 
ATOM     87  C   UNL A   1      41.768  28.777  33.575  1.00  0.00     0.173 A 
ATOM     88  C   UNL A   1      42.422  30.551  35.047  1.00  0.00     0.173 A 
ATOM     89  F   UNL A   1      41.600  28.256  32.353  1.00  0.00    -0.203 F 
ATOM     90  C   UNL A   1      41.615  27.923  34.665  1.00  0.00     0.198 A 
ATOM     91  C   UNL A   1      42.306  29.686  36.132  1.00  0.00     0.198 A 
ATOM     92  F   UNL A   1      42.856  31.802  35.265  1.00  0.00    -0.203 F 
ATOM     93  F   UNL A   1      41.238  26.651  34.476  1.00  0.00    -0.200 F 
ATOM     94  C   UNL A   1      41.892  28.378  35.943  1.00  0.00     0.200 A 
ATOM     95  F   UNL A   1      42.628  30.113  37.361  1.00  0.00    -0.200 F 
ATOM     96  F   UNL A   1      41.789  27.546  36.989  1.00  0.00    -0.200 F 
ENDBRANCH  63  86
ENDBRANCH  37  38
ENDBRANCH  30  32
ENDBRANCH  29  30
ENDBRANCH  28  29
ENDBRANCH   1  28
TORSDOF 15
ENDMDL
MODEL 3
REMARK VINA RESULT:     -12.9      4.008      7.762
REMARK SMILES C[C@@H](Oc1ccc2c(c1)OCO2)C(=O)N1CCn2nc(C(=O)OCCOC(=O)c3ccc(-c4c5nc(c(-c6c(F)c(F)c(F)c(F)c6F)c6ccc([nH]6)c(-c6c(F)c(F)c(F)c(F)c6F)c6nc(c(-c7c(F)c(F)c(F)c(F)c7F)c7ccc4[nH]7)C=C6)C=C5)cc3)cc2C1
REMARK SMILES IDX 24 1 23 2 21 3 22 4 20 5 15 6 16 7 94 8 17 9 93 10 18 11
REMARK SMILES IDX 92 12 19 13 13 14 14 15 2 16 1 17 3 18 4 19 5 20 9 21 6 22
REMARK SMILES IDX 8 23 7 24 10 25 12 26 11 27 25 28 26 29 27 30 28 31 29 32
REMARK SMILES IDX 30 33 91 34 31 35 90 36 32 37 33 38 34 39 84 40 35 41 89 42
REMARK SMILES IDX 83 43 85 44 36 45 88 46 82 47 81 48 37 50 69 51 49 52 68 53
REMARK SMILES IDX 50 54 53 55 67 56 86 57 51 58 52 59 66 61 87 62 54 63 38 64
REMARK SMILES IDX 39 65 47 66 40 67 41 68 45 69 48 70 42 71 43 72 46 73 44 74
REMARK SMILES IDX 70 75 71 76 79 77 72 78 73 79 77 80 80 81 74 82 75 83 78 84
REMARK SMILES IDX 76 85 55 86 56 87 64 88 57 89 58 90 62 91 65 92 59 93 60 94
REMARK SMILES IDX 63 95 61 96
REMARK H PARENT 85 49 53 60
REMARK Flexibility Score: inf
ROOT
ATOM      1  C   UNL A   1      42.261  19.196  26.847  1.00  0.00     0.275 C 
ENDROOT
BRANCH   1   2
ATOM      2  O   UNL A   1      42.545  19.212  25.438  1.00  0.00    -0.457 OA
BRANCH   2   3
ATOM      3  C   UNL A   1      43.866  19.361  25.098  1.00  0.00     0.358 C 
ATOM      4  O   UNL A   1      44.601  18.422  24.796  1.00  0.00    -0.244 OA
BRANCH   3   5
ATOM      5  C   UNL A   1      44.273  20.773  25.063  1.00  0.00     0.170 A 
ATOM      6  N   UNL A   1      45.923  25.081  25.043  1.00  0.00    -0.332 N 
ATOM      7  C   UNL A   1      44.478  25.333  25.005  1.00  0.00     0.143 C 
ATOM      8  C   UNL A   1      46.470  23.731  24.988  1.00  0.00     0.175 C 
ATOM      9  C   UNL A   1      43.518  24.171  24.789  1.00  0.00     0.166 C 
ATOM     10  C   UNL A   1      45.462  22.662  25.070  1.00  0.00     0.059 A 
ATOM     11  N   UNL A   1      44.135  22.884  24.924  1.00  0.00    -0.265 N 
ATOM     12  C   UNL A   1      45.579  21.302  25.261  1.00  0.00     0.063 A 
ATOM     13  N   UNL A   1      43.394  21.771  24.841  1.00  0.00    -0.165 NA
BRANCH   6  14
ATOM     14  C   UNL A   1      46.884  26.095  25.127  1.00  0.00     0.263 C 
ATOM     15  O   UNL A   1      47.604  26.365  24.158  1.00  0.00    -0.271 OA
BRANCH  14  16
ATOM     16  C   UNL A   1      47.100  26.847  26.455  1.00  0.00     0.259 C 
ATOM     17  C   UNL A   1      47.198  28.359  26.276  1.00  0.00     0.064 C 
BRANCH  16  18
ATOM     18  O   UNL A   1      46.014  26.454  27.306  1.00  0.00    -0.481 OA
BRANCH  18  19
ATOM     19  C   UNL A   1      46.389  26.122  28.575  1.00  0.00     0.124 A 
ATOM     20  C   UNL A   1      47.758  26.071  28.885  1.00  0.00     0.050 A 
ATOM     21  C   UNL A   1      45.418  26.029  29.573  1.00  0.00     0.097 A 
ATOM     22  C   UNL A   1      48.178  25.890  30.202  1.00  0.00     0.054 A 
ATOM     23  C   UNL A   1      45.863  25.869  30.870  1.00  0.00     0.169 A 
ATOM     24  C   UNL A   1      47.205  25.801  31.173  1.00  0.00     0.166 A 
ATOM     25  O   UNL A   1      45.081  25.795  31.981  1.00  0.00    -0.453 OA
ATOM     26  O   UNL A   1      47.433  25.674  32.507  1.00  0.00    -0.454 OA
ATOM     27  C   UNL A   1      46.085  25.710  33.017  1.00  0.00     0.468 C 
ENDBRANCH  18  19
ENDBRANCH  16  18
ENDBRANCH  14  16
ENDBRANCH   6  14
ENDBRANCH   3   5
ENDBRANCH   2   3
ENDBRANCH   1   2
BRANCH   1  28
ATOM     28  C   UNL A   1      41.072  20.088  27.184  1.00  0.00     0.275 C 
BRANCH  28  29
ATOM     29  O   UNL A   1      41.477  21.448  27.332  1.00  0.00    -0.458 OA
BRANCH  29  30
ATOM     30  C   UNL A   1      40.500  22.368  27.170  1.00  0.00     0.338 C 
ATOM     31  O   UNL A   1      39.347  22.158  26.833  1.00  0.00    -0.246 OA
BRANCH  30  32
ATOM     32  C   UNL A   1      41.092  23.712  27.238  1.00  0.00     0.060 A 
ATOM     33  C   UNL A   1      41.959  23.967  28.304  1.00  0.00     0.016 A 
ATOM     34  C   UNL A   1      40.538  24.747  26.471  1.00  0.00     0.016 A 
ATOM     35  C   UNL A   1      42.091  25.268  28.742  1.00  0.00     0.010 A 
ATOM     36  C   UNL A   1      40.655  26.041  26.919  1.00  0.00     0.010 A 
ATOM     37  C   UNL A   1      41.354  26.270  28.100  1.00  0.00    -0.014 A 
BRANCH  37  38
ATOM     38  C   UNL A   1      41.316  27.579  28.709  1.00  0.00     0.031 A 
ATOM     39  C   UNL A   1      42.429  28.472  28.326  1.00  0.00     0.074 A 
ATOM     40  C   UNL A   1      40.290  27.969  29.485  1.00  0.00     0.049 A 
ATOM     41  N   UNL A   1      43.344  28.969  29.090  1.00  0.00    -0.248 NA
ATOM     42  C   UNL A   1      42.612  28.758  26.897  1.00  0.00     0.031 C 
ATOM     43  C   UNL A   1      38.999  27.314  29.711  1.00  0.00     0.029 A 
ATOM     44  N   UNL A   1      40.174  29.126  30.184  1.00  0.00    -0.354 N 
ATOM     45  C   UNL A   1      44.160  29.734  28.264  1.00  0.00     0.074 A 
ATOM     46  C   UNL A   1      43.739  29.470  26.912  1.00  0.00     0.031 C 
ATOM     47  C   UNL A   1      38.159  28.192  30.309  1.00  0.00     0.029 A 
ATOM     48  C   UNL A   1      38.890  29.410  30.616  1.00  0.00     0.049 A 
ATOM     49  H   UNL A   1      40.939  29.716  30.368  1.00  0.00     0.167 HD
ATOM     50  C   UNL A   1      45.023  30.657  28.767  1.00  0.00     0.037 A 
ATOM     51  C   UNL A   1      38.472  30.606  31.097  1.00  0.00     0.037 A 
ATOM     52  C   UNL A   1      45.243  30.460  30.174  1.00  0.00     0.049 A 
ATOM     53  C   UNL A   1      39.682  31.353  31.541  1.00  0.00     0.074 A 
ATOM     54  C   UNL A   1      45.819  29.453  30.926  1.00  0.00     0.029 A 
ATOM     55  N   UNL A   1      44.520  31.220  31.060  1.00  0.00    -0.354 N 
ATOM     56  N   UNL A   1      40.416  31.004  32.562  1.00  0.00    -0.248 NA
ATOM     57  C   UNL A   1      40.344  32.212  30.566  1.00  0.00     0.031 C 
ATOM     58  C   UNL A   1      45.027  29.376  32.107  1.00  0.00     0.029 A 
ATOM     59  C   UNL A   1      44.048  30.367  32.027  1.00  0.00     0.049 A 
ATOM     60  H   UNL A   1      44.369  32.191  31.012  1.00  0.00     0.167 HD
ATOM     61  C   UNL A   1      41.724  31.241  32.161  1.00  0.00     0.074 A 
ATOM     62  C   UNL A   1      41.613  32.059  30.956  1.00  0.00     0.031 C 
ATOM     63  C   UNL A   1      42.764  30.517  32.670  1.00  0.00     0.037 A 
BRANCH  50  64
ATOM     64  C   UNL A   1      45.450  31.907  28.053  1.00  0.00     0.064 A 
ATOM     65  C   UNL A   1      44.477  32.856  27.678  1.00  0.00     0.173 A 
ATOM     66  C   UNL A   1      46.725  32.077  27.474  1.00  0.00     0.173 A 
ATOM     67  F   UNL A   1      43.227  32.780  28.158  1.00  0.00    -0.203 F 
ATOM     68  C   UNL A   1      44.747  33.856  26.741  1.00  0.00     0.198 A 
ATOM     69  C   UNL A   1      47.005  33.109  26.580  1.00  0.00     0.198 A 
ATOM     70  F   UNL A   1      47.712  31.193  27.660  1.00  0.00    -0.203 F 
ATOM     71  F   UNL A   1      43.760  34.661  26.326  1.00  0.00    -0.200 F 
ATOM     72  C   UNL A   1      46.009  33.978  26.189  1.00  0.00     0.200 A 
ATOM     73  F   UNL A   1      48.231  33.202  26.045  1.00  0.00    -0.200 F 
ATOM     74  F   UNL A   1      46.253  34.897  25.246  1.00  0.00    -0.200 F 
ENDBRANCH  50  64
BRANCH  51  75
ATOM     75  C   UNL A   1      37.166  31.264  30.849  1.00  0.00     0.064 A 
ATOM     76  C   UNL A   1      36.279  31.534  31.904  1.00  0.00     0.173 A 
ATOM     77  C   UNL A   1      36.874  31.881  29.616  1.00  0.00     0.173 A 
ATOM     78  F   UNL A   1      36.507  31.026  33.123  1.00  0.00    -0.203 F 
ATOM     79  C   UNL A   1      35.181  32.388  31.739  1.00  0.00     0.198 A 
ATOM     80  C   UNL A   1      35.775  32.724  29.450  1.00  0.00     0.198 A 
ATOM     81  F   UNL A   1      37.701  31.759  28.568  1.00  0.00    -0.203 F 
ATOM     82  F   UNL A   1      34.392  32.671  32.785  1.00  0.00    -0.200 F 
ATOM     83  C   UNL A   1      34.936  32.987  30.515  1.00  0.00     0.200 A 
ATOM     84  F   UNL A   1      35.571  33.325  28.269  1.00  0.00    -0.200 F 
ATOM     85  F   UNL A   1      33.921  33.850  30.372  1.00  0.00    -0.200 F 
ENDBRANCH  51  75
BRANCH  63  86
ATOM     86  C   UNL A   1      42.481  29.606  33.833  1.00  0.00     0.064 A 
ATOM     87  C   UNL A   1      41.980  28.300  33.691  1.00  0.00     0.173 A 
ATOM     88  C   UNL A   1      42.882  30.004  35.113  1.00  0.00     0.173 A 
ATOM     89  F   UNL A   1      41.680  27.803  32.485  1.00  0.00    -0.203 F 
ATOM     90  C   UNL A   1      41.840  27.453  34.788  1.00  0.00     0.198 A 
ATOM     91  C   UNL A   1      42.778  29.143  36.203  1.00  0.00     0.198 A 
ATOM     92  F   UNL A   1      43.429  31.215  35.301  1.00  0.00    -0.203 F 
ATOM     93  F   UNL A   1      41.349  26.216  34.626  1.00  0.00    -0.200 F 
ATOM     94  C   UNL A   1      42.247  27.873  36.043  1.00  0.00     0.200 A 
ATOM     95  F   UNL A   1      43.223  29.534  37.406  1.00  0.00    -0.200 F 
ATOM     96  F   UNL A   1      42.155  27.044  37.092  1.00  0.00    -0.200 F 
ENDBRANCH  63  86
ENDBRANCH  37  38
ENDBRANCH  30  32
ENDBRANCH  29  30
ENDBRANCH  28  29
ENDBRANCH   1  28
TORSDOF 15
ENDMDL
