MODEL 1
REMARK VINA RESULT:     -12.4      0.000      0.000
REMARK SMILES O=C(COc1ccc(/C=N/NC(=O)C(=O)Nc2ccc(F)cc2)cc1)OCCOC(=O)c1ccc(-c2c3nc(c(-c4c(F)c(F)c(F)c(F)c4F)c4ccc([nH]4)c(-c4c(F)c(F)c(F)c(F)c4F)c4nc(c(-c5c(F)c(F)c(F)c(F)c5F)c5ccc2[nH]5)C=C4)C=C3)cc1
REMARK SMILES IDX 1 1 2 2 3 3 4 4 5 5 6 6 25 7 7 8 24 9 8 10 9 11 10 12 11 13
REMARK SMILES IDX 12 14 13 16 14 17 15 18 16 19 17 21 18 22 23 23 19 24 22 25
REMARK SMILES IDX 20 26 21 27 26 28 27 29 28 30 29 31 30 32 31 33 32 34 33 35
REMARK SMILES IDX 94 36 34 37 93 38 35 39 36 40 37 41 87 42 38 43 92 44 86 45
REMARK SMILES IDX 88 46 39 47 91 48 85 49 84 50 40 52 72 53 52 54 71 55 53 56
REMARK SMILES IDX 56 57 70 58 89 59 54 60 55 61 69 63 90 64 57 65 41 66 42 67
REMARK SMILES IDX 50 68 43 69 44 70 48 71 51 72 45 73 46 74 49 75 47 76 73 77
REMARK SMILES IDX 74 78 82 79 75 80 76 81 80 82 83 83 77 84 78 85 81 86 79 87
REMARK SMILES IDX 58 88 59 89 67 90 60 91 61 92 65 93 68 94 62 95 63 96 66 97
REMARK SMILES IDX 64 98
REMARK H PARENT 11 15 16 20 88 51 56 62
REMARK Flexibility Score: inf
ROOT
ATOM      1  O   UNL A   1      40.587  21.379  27.829  1.00  0.00    -0.248 OA
ATOM      2  C   UNL A   1      40.320  21.440  26.630  1.00  0.00     0.344 C 
ENDROOT
BRANCH   2   3
ATOM      3  C   UNL A   1      38.919  21.812  26.154  1.00  0.00     0.351 C 
BRANCH   3   4
ATOM      4  O   UNL A   1      38.393  20.998  25.112  1.00  0.00    -0.482 OA
BRANCH   4   5
ATOM      5  C   UNL A   1      37.142  21.429  24.774  1.00  0.00     0.120 A 
ATOM      6  C   UNL A   1      36.046  20.644  25.136  1.00  0.00     0.047 A 
ATOM      7  C   UNL A   1      36.984  22.614  24.057  1.00  0.00     0.047 A 
ATOM      8  C   UNL A   1      34.760  21.072  24.811  1.00  0.00     0.013 A 
ATOM      9  C   UNL A   1      35.706  23.034  23.719  1.00  0.00     0.013 A 
ATOM     10  C   UNL A   1      34.606  22.260  24.097  1.00  0.00    -0.005 A 
BRANCH  10  11
ATOM     11  C   UNL A   1      33.288  22.736  23.676  1.00  0.00     0.141 C 
ATOM     12  N   UNL A   1      32.274  22.799  24.478  1.00  0.00    -0.180 NA
BRANCH  12  13
ATOM     13  N   UNL A   1      31.151  23.366  23.951  1.00  0.00    -0.239 N 
ATOM     14  C   UNL A   1      30.421  24.470  24.374  1.00  0.00     0.329 C 
ATOM     15  H   UNL A   1      30.802  22.923  23.143  1.00  0.00     0.194 HD
ATOM     16  O   UNL A   1      29.678  25.019  23.564  1.00  0.00    -0.262 OA
BRANCH  14  17
ATOM     17  C   UNL A   1      30.549  24.999  25.846  1.00  0.00     0.315 C 
ATOM     18  O   UNL A   1      29.945  24.494  26.788  1.00  0.00    -0.263 OA
ATOM     19  N   UNL A   1      31.492  25.966  26.143  1.00  0.00    -0.318 N 
ATOM     20  H   UNL A   1      31.804  25.962  27.077  1.00  0.00     0.170 HD
BRANCH  19  21
ATOM     21  C   UNL A   1      32.076  26.947  25.336  1.00  0.00     0.041 A 
ATOM     22  C   UNL A   1      33.415  26.771  24.969  1.00  0.00     0.029 A 
ATOM     23  C   UNL A   1      31.400  28.108  24.950  1.00  0.00     0.029 A 
ATOM     24  C   UNL A   1      34.043  27.707  24.147  1.00  0.00     0.041 A 
ATOM     25  C   UNL A   1      32.035  29.050  24.140  1.00  0.00     0.041 A 
ATOM     26  C   UNL A   1      33.344  28.834  23.734  1.00  0.00     0.123 A 
ATOM     27  F   UNL A   1      33.945  29.729  22.940  1.00  0.00    -0.207 F 
ENDBRANCH  19  21
ENDBRANCH  14  17
ENDBRANCH  12  13
ENDBRANCH  10  11
ENDBRANCH   4   5
ENDBRANCH   3   4
ENDBRANCH   2   3
BRANCH   2  28
ATOM     28  O   UNL A   1      41.278  21.200  25.703  1.00  0.00    -0.460 OA
BRANCH  28  29
ATOM     29  C   UNL A   1      42.588  20.678  26.012  1.00  0.00     0.274 C 
BRANCH  29  30
ATOM     30  C   UNL A   1      43.681  21.587  25.447  1.00  0.00     0.275 C 
BRANCH  30  31
ATOM     31  O   UNL A   1      43.087  22.784  24.911  1.00  0.00    -0.458 OA
BRANCH  31  32
ATOM     32  C   UNL A   1      43.850  23.907  24.969  1.00  0.00     0.338 C 
ATOM     33  O   UNL A   1      44.803  24.180  24.270  1.00  0.00    -0.246 OA
BRANCH  32  34
ATOM     34  C   UNL A   1      43.204  24.862  25.902  1.00  0.00     0.060 A 
ATOM     35  C   UNL A   1      43.631  26.196  25.887  1.00  0.00     0.016 A 
ATOM     36  C   UNL A   1      42.169  24.464  26.754  1.00  0.00     0.016 A 
ATOM     37  C   UNL A   1      43.054  27.126  26.757  1.00  0.00     0.010 A 
ATOM     38  C   UNL A   1      41.599  25.391  27.627  1.00  0.00     0.010 A 
ATOM     39  C   UNL A   1      42.062  26.718  27.658  1.00  0.00    -0.014 A 
BRANCH  39  40
ATOM     40  C   UNL A   1      41.648  27.601  28.774  1.00  0.00     0.031 A 
ATOM     41  C   UNL A   1      42.425  27.526  30.059  1.00  0.00     0.074 A 
ATOM     42  C   UNL A   1      40.593  28.428  28.672  1.00  0.00     0.049 A 
ATOM     43  N   UNL A   1      42.209  28.128  31.201  1.00  0.00    -0.248 NA
ATOM     44  C   UNL A   1      43.602  26.642  30.056  1.00  0.00     0.031 C 
ATOM     45  C   UNL A   1      39.776  28.616  27.477  1.00  0.00     0.029 A 
ATOM     46  N   UNL A   1      40.022  29.254  29.608  1.00  0.00    -0.354 N 
ATOM     47  C   UNL A   1      43.219  27.694  32.048  1.00  0.00     0.074 A 
ATOM     48  C   UNL A   1      44.029  26.756  31.303  1.00  0.00     0.031 C 
ATOM     49  C   UNL A   1      38.792  29.490  27.758  1.00  0.00     0.029 A 
ATOM     50  C   UNL A   1      38.898  29.901  29.159  1.00  0.00     0.049 A 
ATOM     51  H   UNL A   1      40.384  29.371  30.517  1.00  0.00     0.167 HD
ATOM     52  C   UNL A   1      43.457  28.051  33.332  1.00  0.00     0.037 A 
ATOM     53  C   UNL A   1      38.045  30.714  29.812  1.00  0.00     0.037 A 
ATOM     54  C   UNL A   1      42.651  28.975  34.082  1.00  0.00     0.049 A 
ATOM     55  C   UNL A   1      38.290  31.043  31.264  1.00  0.00     0.074 A 
ATOM     56  C   UNL A   1      42.821  29.408  35.384  1.00  0.00     0.029 A 
ATOM     57  N   UNL A   1      41.514  29.601  33.594  1.00  0.00    -0.354 N 
ATOM     58  N   UNL A   1      39.266  30.657  32.049  1.00  0.00    -0.248 NA
ATOM     59  C   UNL A   1      37.312  31.925  31.919  1.00  0.00     0.031 C 
ATOM     60  C   UNL A   1      41.762  30.266  35.700  1.00  0.00     0.029 A 
ATOM     61  C   UNL A   1      40.959  30.400  34.579  1.00  0.00     0.049 A 
ATOM     62  H   UNL A   1      41.156  29.493  32.684  1.00  0.00     0.167 HD
ATOM     63  C   UNL A   1      39.039  31.272  33.274  1.00  0.00     0.074 A 
ATOM     64  C   UNL A   1      37.834  32.060  33.131  1.00  0.00     0.031 C 
ATOM     65  C   UNL A   1      39.768  31.194  34.415  1.00  0.00     0.037 A 
BRANCH  52  66
ATOM     66  C   UNL A   1      44.631  27.413  34.010  1.00  0.00     0.064 A 
ATOM     67  C   UNL A   1      44.500  26.218  34.732  1.00  0.00     0.173 A 
ATOM     68  C   UNL A   1      45.901  28.002  33.934  1.00  0.00     0.173 A 
ATOM     69  F   UNL A   1      43.301  25.628  34.849  1.00  0.00    -0.203 F 
ATOM     70  C   UNL A   1      45.594  25.649  35.378  1.00  0.00     0.198 A 
ATOM     71  C   UNL A   1      46.998  27.417  34.559  1.00  0.00     0.198 A 
ATOM     72  F   UNL A   1      46.076  29.146  33.256  1.00  0.00    -0.203 F 
ATOM     73  F   UNL A   1      45.437  24.534  36.103  1.00  0.00    -0.200 F 
ATOM     74  C   UNL A   1      46.843  26.247  35.287  1.00  0.00     0.200 A 
ATOM     75  F   UNL A   1      48.206  27.991  34.466  1.00  0.00    -0.200 F 
ATOM     76  F   UNL A   1      47.895  25.698  35.909  1.00  0.00    -0.200 F 
ENDBRANCH  52  66
BRANCH  53  77
ATOM     77  C   UNL A   1      36.867  31.278  29.104  1.00  0.00     0.064 A 
ATOM     78  C   UNL A   1      36.819  32.632  28.749  1.00  0.00     0.173 A 
ATOM     79  C   UNL A   1      35.754  30.482  28.798  1.00  0.00     0.173 A 
ATOM     80  F   UNL A   1      37.847  33.439  29.051  1.00  0.00    -0.203 F 
ATOM     81  C   UNL A   1      35.694  33.174  28.130  1.00  0.00     0.198 A 
ATOM     82  C   UNL A   1      34.640  31.019  28.157  1.00  0.00     0.198 A 
ATOM     83  F   UNL A   1      35.748  29.181  29.124  1.00  0.00    -0.203 F 
ATOM     84  F   UNL A   1      35.655  34.483  27.843  1.00  0.00    -0.200 F 
ATOM     85  C   UNL A   1      34.608  32.367  27.830  1.00  0.00     0.200 A 
ATOM     86  F   UNL A   1      33.594  30.234  27.865  1.00  0.00    -0.200 F 
ATOM     87  F   UNL A   1      33.525  32.889  27.236  1.00  0.00    -0.200 F 
ENDBRANCH  53  77
BRANCH  65  88
ATOM     88  C   UNL A   1      39.316  32.014  35.588  1.00  0.00     0.064 A 
ATOM     89  C   UNL A   1      39.692  33.356  35.737  1.00  0.00     0.173 A 
ATOM     90  C   UNL A   1      38.443  31.464  36.540  1.00  0.00     0.173 A 
ATOM     91  F   UNL A   1      40.534  33.922  34.862  1.00  0.00    -0.203 F 
ATOM     92  C   UNL A   1      39.221  34.115  36.807  1.00  0.00     0.198 A 
ATOM     93  C   UNL A   1      37.954  32.232  37.593  1.00  0.00     0.198 A 
ATOM     94  F   UNL A   1      38.048  30.187  36.437  1.00  0.00    -0.203 F 
ATOM     95  F   UNL A   1      39.619  35.386  36.949  1.00  0.00    -0.200 F 
ATOM     96  C   UNL A   1      38.347  33.556  37.728  1.00  0.00     0.200 A 
ATOM     97  F   UNL A   1      37.099  31.695  38.474  1.00  0.00    -0.200 F 
ATOM     98  F   UNL A   1      37.886  34.291  38.748  1.00  0.00    -0.200 F 
ENDBRANCH  65  88
ENDBRANCH  39  40
ENDBRANCH  32  34
ENDBRANCH  31  32
ENDBRANCH  30  31
ENDBRANCH  29  30
ENDBRANCH  28  29
ENDBRANCH   2  28
TORSDOF 17
ENDMDL
MODEL 2
REMARK VINA RESULT:     -12.3      5.247     10.515
REMARK SMILES O=C(COc1ccc(/C=N/NC(=O)C(=O)Nc2ccc(F)cc2)cc1)OCCOC(=O)c1ccc(-c2c3nc(c(-c4c(F)c(F)c(F)c(F)c4F)c4ccc([nH]4)c(-c4c(F)c(F)c(F)c(F)c4F)c4nc(c(-c5c(F)c(F)c(F)c(F)c5F)c5ccc2[nH]5)C=C4)C=C3)cc1
REMARK SMILES IDX 1 1 2 2 3 3 4 4 5 5 6 6 25 7 7 8 24 9 8 10 9 11 10 12 11 13
REMARK SMILES IDX 12 14 13 16 14 17 15 18 16 19 17 21 18 22 23 23 19 24 22 25
REMARK SMILES IDX 20 26 21 27 26 28 27 29 28 30 29 31 30 32 31 33 32 34 33 35
REMARK SMILES IDX 94 36 34 37 93 38 35 39 36 40 37 41 87 42 38 43 92 44 86 45
REMARK SMILES IDX 88 46 39 47 91 48 85 49 84 50 40 52 72 53 52 54 71 55 53 56
REMARK SMILES IDX 56 57 70 58 89 59 54 60 55 61 69 63 90 64 57 65 41 66 42 67
REMARK SMILES IDX 50 68 43 69 44 70 48 71 51 72 45 73 46 74 49 75 47 76 73 77
REMARK SMILES IDX 74 78 82 79 75 80 76 81 80 82 83 83 77 84 78 85 81 86 79 87
REMARK SMILES IDX 58 88 59 89 67 90 60 91 61 92 65 93 68 94 62 95 63 96 66 97
REMARK SMILES IDX 64 98
REMARK H PARENT 11 15 16 20 88 51 56 62
REMARK Flexibility Score: inf
ROOT
ATOM      1  O   UNL A   1      34.679  35.049  28.248  1.00  0.00    -0.248 OA
ATOM      2  C   UNL A   1      34.114  34.017  28.603  1.00  0.00     0.344 C 
ENDROOT
BRANCH   2   3
ATOM      3  C   UNL A   1      33.970  32.831  27.654  1.00  0.00     0.351 C 
BRANCH   3   4
ATOM      4  O   UNL A   1      34.324  31.566  28.201  1.00  0.00    -0.482 OA
BRANCH   4   5
ATOM      5  C   UNL A   1      33.750  30.568  27.467  1.00  0.00     0.120 A 
ATOM      6  C   UNL A   1      32.487  30.787  26.914  1.00  0.00     0.047 A 
ATOM      7  C   UNL A   1      34.411  29.351  27.309  1.00  0.00     0.047 A 
ATOM      8  C   UNL A   1      31.889  29.786  26.152  1.00  0.00     0.013 A 
ATOM      9  C   UNL A   1      33.811  28.347  26.564  1.00  0.00     0.013 A 
ATOM     10  C   UNL A   1      32.556  28.571  25.992  1.00  0.00    -0.005 A 
BRANCH  10  11
ATOM     11  C   UNL A   1      31.959  27.460  25.252  1.00  0.00     0.141 C 
ATOM     12  N   UNL A   1      31.560  27.566  24.025  1.00  0.00    -0.180 NA
BRANCH  12  13
ATOM     13  N   UNL A   1      31.126  26.406  23.453  1.00  0.00    -0.239 N 
ATOM     14  C   UNL A   1      31.846  25.372  22.867  1.00  0.00     0.329 C 
ATOM     15  H   UNL A   1      30.150  26.282  23.457  1.00  0.00     0.194 HD
ATOM     16  O   UNL A   1      31.299  24.278  22.751  1.00  0.00    -0.262 OA
BRANCH  14  17
ATOM     17  C   UNL A   1      33.318  25.601  22.372  1.00  0.00     0.315 C 
ATOM     18  O   UNL A   1      33.588  26.285  21.389  1.00  0.00    -0.263 OA
ATOM     19  N   UNL A   1      34.374  25.157  23.146  1.00  0.00    -0.318 N 
ATOM     20  H   UNL A   1      35.214  25.655  23.018  1.00  0.00     0.170 HD
BRANCH  19  21
ATOM     21  C   UNL A   1      34.446  24.120  24.080  1.00  0.00     0.041 A 
ATOM     22  C   UNL A   1      34.488  24.469  25.434  1.00  0.00     0.029 A 
ATOM     23  C   UNL A   1      34.544  22.775  23.709  1.00  0.00     0.029 A 
ATOM     24  C   UNL A   1      34.538  23.474  26.412  1.00  0.00     0.041 A 
ATOM     25  C   UNL A   1      34.609  21.783  24.688  1.00  0.00     0.041 A 
ATOM     26  C   UNL A   1      34.590  22.140  26.029  1.00  0.00     0.123 A 
ATOM     27  F   UNL A   1      34.632  21.186  26.967  1.00  0.00    -0.207 F 
ENDBRANCH  19  21
ENDBRANCH  14  17
ENDBRANCH  12  13
ENDBRANCH  10  11
ENDBRANCH   4   5
ENDBRANCH   3   4
ENDBRANCH   2   3
BRANCH   2  28
ATOM     28  O   UNL A   1      33.628  33.902  29.863  1.00  0.00    -0.460 OA
BRANCH  28  29
ATOM     29  C   UNL A   1      33.825  34.889  30.898  1.00  0.00     0.274 C 
BRANCH  29  30
ATOM     30  C   UNL A   1      34.457  34.255  32.139  1.00  0.00     0.275 C 
BRANCH  30  31
ATOM     31  O   UNL A   1      35.058  32.995  31.787  1.00  0.00    -0.458 OA
BRANCH  31  32
ATOM     32  C   UNL A   1      35.912  32.465  32.701  1.00  0.00     0.338 C 
ATOM     33  O   UNL A   1      35.779  32.457  33.907  1.00  0.00    -0.246 OA
BRANCH  32  34
ATOM     34  C   UNL A   1      36.955  31.700  31.976  1.00  0.00     0.060 A 
ATOM     35  C   UNL A   1      37.912  31.005  32.728  1.00  0.00     0.016 A 
ATOM     36  C   UNL A   1      36.975  31.634  30.579  1.00  0.00     0.016 A 
ATOM     37  C   UNL A   1      38.918  30.279  32.082  1.00  0.00     0.010 A 
ATOM     38  C   UNL A   1      37.983  30.915  29.936  1.00  0.00     0.010 A 
ATOM     39  C   UNL A   1      38.980  30.263  30.683  1.00  0.00    -0.014 A 
BRANCH  39  40
ATOM     40  C   UNL A   1      40.186  29.753  29.988  1.00  0.00     0.031 A 
ATOM     41  C   UNL A   1      41.321  30.710  29.751  1.00  0.00     0.074 A 
ATOM     42  C   UNL A   1      40.268  28.487  29.546  1.00  0.00     0.049 A 
ATOM     43  N   UNL A   1      42.439  30.531  29.095  1.00  0.00    -0.248 NA
ATOM     44  C   UNL A   1      41.168  32.055  30.328  1.00  0.00     0.031 C 
ATOM     45  C   UNL A   1      39.254  27.454  29.734  1.00  0.00     0.029 A 
ATOM     46  N   UNL A   1      41.258  27.862  28.827  1.00  0.00    -0.354 N 
ATOM     47  C   UNL A   1      43.118  31.739  29.179  1.00  0.00     0.074 A 
ATOM     48  C   UNL A   1      42.276  32.652  29.920  1.00  0.00     0.031 C 
ATOM     49  C   UNL A   1      39.665  26.326  29.127  1.00  0.00     0.029 A 
ATOM     50  C   UNL A   1      40.958  26.567  28.487  1.00  0.00     0.049 A 
ATOM     51  H   UNL A   1      42.103  28.304  28.578  1.00  0.00     0.167 HD
ATOM     52  C   UNL A   1      44.338  32.059  28.688  1.00  0.00     0.037 A 
ATOM     53  C   UNL A   1      41.644  25.688  27.731  1.00  0.00     0.037 A 
ATOM     54  C   UNL A   1      45.176  31.160  27.943  1.00  0.00     0.049 A 
ATOM     55  C   UNL A   1      42.970  26.089  27.135  1.00  0.00     0.074 A 
ATOM     56  C   UNL A   1      46.434  31.390  27.416  1.00  0.00     0.029 A 
ATOM     57  N   UNL A   1      44.832  29.859  27.611  1.00  0.00    -0.354 N 
ATOM     58  N   UNL A   1      43.622  27.221  27.246  1.00  0.00    -0.248 NA
ATOM     59  C   UNL A   1      43.658  25.085  26.307  1.00  0.00     0.031 C 
ATOM     60  C   UNL A   1      46.835  30.240  26.728  1.00  0.00     0.029 A 
ATOM     61  C   UNL A   1      45.845  29.280  26.866  1.00  0.00     0.049 A 
ATOM     62  H   UNL A   1      43.993  29.413  27.866  1.00  0.00     0.167 HD
ATOM     63  C   UNL A   1      44.804  27.055  26.536  1.00  0.00     0.074 A 
ATOM     64  C   UNL A   1      44.784  25.711  25.997  1.00  0.00     0.031 C 
ATOM     65  C   UNL A   1      45.818  27.935  26.351  1.00  0.00     0.037 A 
BRANCH  52  66
ATOM     66  C   UNL A   1      44.824  33.456  28.929  1.00  0.00     0.064 A 
ATOM     67  C   UNL A   1      44.536  34.497  28.034  1.00  0.00     0.173 A 
ATOM     68  C   UNL A   1      45.585  33.756  30.068  1.00  0.00     0.173 A 
ATOM     69  F   UNL A   1      43.828  34.253  26.920  1.00  0.00    -0.203 F 
ATOM     70  C   UNL A   1      45.015  35.784  28.257  1.00  0.00     0.198 A 
ATOM     71  C   UNL A   1      46.041  35.051  30.301  1.00  0.00     0.198 A 
ATOM     72  F   UNL A   1      45.888  32.795  30.951  1.00  0.00    -0.203 F 
ATOM     73  F   UNL A   1      44.769  36.753  27.365  1.00  0.00    -0.200 F 
ATOM     74  C   UNL A   1      45.762  36.061  29.393  1.00  0.00     0.200 A 
ATOM     75  F   UNL A   1      46.757  35.319  31.401  1.00  0.00    -0.200 F 
ATOM     76  F   UNL A   1      46.223  37.301  29.606  1.00  0.00    -0.200 F 
ENDBRANCH  52  66
BRANCH  53  77
ATOM     77  C   UNL A   1      41.089  24.332  27.482  1.00  0.00     0.064 A 
ATOM     78  C   UNL A   1      41.653  23.200  28.085  1.00  0.00     0.173 A 
ATOM     79  C   UNL A   1      40.007  24.138  26.611  1.00  0.00     0.173 A 
ATOM     80  F   UNL A   1      42.709  23.334  28.900  1.00  0.00    -0.203 F 
ATOM     81  C   UNL A   1      41.166  21.923  27.815  1.00  0.00     0.198 A 
ATOM     82  C   UNL A   1      39.506  22.863  26.360  1.00  0.00     0.198 A 
ATOM     83  F   UNL A   1      39.438  25.189  26.003  1.00  0.00    -0.203 F 
ATOM     84  F   UNL A   1      41.753  20.853  28.369  1.00  0.00    -0.200 F 
ATOM     85  C   UNL A   1      40.091  21.756  26.956  1.00  0.00     0.200 A 
ATOM     86  F   UNL A   1      38.463  22.706  25.532  1.00  0.00    -0.200 F 
ATOM     87  F   UNL A   1      39.624  20.527  26.693  1.00  0.00    -0.200 F 
ENDBRANCH  53  77
BRANCH  65  88
ATOM     88  C   UNL A   1      47.014  27.468  25.573  1.00  0.00     0.064 A 
ATOM     89  C   UNL A   1      47.124  27.681  24.192  1.00  0.00     0.173 A 
ATOM     90  C   UNL A   1      48.093  26.858  26.233  1.00  0.00     0.173 A 
ATOM     91  F   UNL A   1      46.115  28.249  23.515  1.00  0.00    -0.203 F 
ATOM     92  C   UNL A   1      48.264  27.286  23.497  1.00  0.00     0.198 A 
ATOM     93  C   UNL A   1      49.241  26.487  25.539  1.00  0.00     0.198 A 
ATOM     94  F   UNL A   1      48.039  26.639  27.555  1.00  0.00    -0.203 F 
ATOM     95  F   UNL A   1      48.334  27.469  22.171  1.00  0.00    -0.200 F 
ATOM     96  C   UNL A   1      49.324  26.698  24.171  1.00  0.00     0.200 A 
ATOM     97  F   UNL A   1      50.269  25.932  26.195  1.00  0.00    -0.200 F 
ATOM     98  F   UNL A   1      50.424  26.330  23.502  1.00  0.00    -0.200 F 
ENDBRANCH  65  88
ENDBRANCH  39  40
ENDBRANCH  32  34
ENDBRANCH  31  32
ENDBRANCH  30  31
ENDBRANCH  29  30
ENDBRANCH  28  29
ENDBRANCH   2  28
TORSDOF 17
ENDMDL
MODEL 3
REMARK VINA RESULT:     -12.2      3.763      9.224
REMARK SMILES O=C(COc1ccc(/C=N/NC(=O)C(=O)Nc2ccc(F)cc2)cc1)OCCOC(=O)c1ccc(-c2c3nc(c(-c4c(F)c(F)c(F)c(F)c4F)c4ccc([nH]4)c(-c4c(F)c(F)c(F)c(F)c4F)c4nc(c(-c5c(F)c(F)c(F)c(F)c5F)c5ccc2[nH]5)C=C4)C=C3)cc1
REMARK SMILES IDX 1 1 2 2 3 3 4 4 5 5 6 6 25 7 7 8 24 9 8 10 9 11 10 12 11 13
REMARK SMILES IDX 12 14 13 16 14 17 15 18 16 19 17 21 18 22 23 23 19 24 22 25
REMARK SMILES IDX 20 26 21 27 26 28 27 29 28 30 29 31 30 32 31 33 32 34 33 35
REMARK SMILES IDX 94 36 34 37 93 38 35 39 36 40 37 41 87 42 38 43 92 44 86 45
REMARK SMILES IDX 88 46 39 47 91 48 85 49 84 50 40 52 72 53 52 54 71 55 53 56
REMARK SMILES IDX 56 57 70 58 89 59 54 60 55 61 69 63 90 64 57 65 41 66 42 67
REMARK SMILES IDX 50 68 43 69 44 70 48 71 51 72 45 73 46 74 49 75 47 76 73 77
REMARK SMILES IDX 74 78 82 79 75 80 76 81 80 82 83 83 77 84 78 85 81 86 79 87
REMARK SMILES IDX 58 88 59 89 67 90 60 91 61 92 65 93 68 94 62 95 63 96 66 97
REMARK SMILES IDX 64 98
REMARK H PARENT 11 15 16 20 88 51 56 62
REMARK Flexibility Score: inf
ROOT
ATOM      1  O   UNL A   1      36.084  33.698  29.325  1.00  0.00    -0.248 OA
ATOM      2  C   UNL A   1      34.993  33.207  29.043  1.00  0.00     0.344 C 
ENDROOT
BRANCH   2   3
ATOM      3  C   UNL A   1      34.865  31.733  28.670  1.00  0.00     0.351 C 
BRANCH   3   4
ATOM      4  O   UNL A   1      34.700  31.468  27.282  1.00  0.00    -0.482 OA
BRANCH   4   5
ATOM      5  C   UNL A   1      33.929  30.354  27.112  1.00  0.00     0.120 A 
ATOM      6  C   UNL A   1      34.562  29.136  26.859  1.00  0.00     0.047 A 
ATOM      7  C   UNL A   1      32.540  30.454  27.163  1.00  0.00     0.047 A 
ATOM      8  C   UNL A   1      33.795  27.985  26.695  1.00  0.00     0.013 A 
ATOM      9  C   UNL A   1      31.772  29.313  26.984  1.00  0.00     0.013 A 
ATOM     10  C   UNL A   1      32.405  28.089  26.750  1.00  0.00    -0.005 A 
BRANCH  10  11
ATOM     11  C   UNL A   1      31.540  26.930  26.530  1.00  0.00     0.141 C 
ATOM     12  N   UNL A   1      31.955  25.710  26.651  1.00  0.00    -0.180 NA
BRANCH  12  13
ATOM     13  N   UNL A   1      30.993  24.753  26.515  1.00  0.00    -0.239 N 
ATOM     14  C   UNL A   1      30.986  23.424  26.923  1.00  0.00     0.329 C 
ATOM     15  H   UNL A   1      30.174  25.050  26.056  1.00  0.00     0.194 HD
ATOM     16  O   UNL A   1      29.902  22.856  27.028  1.00  0.00    -0.262 OA
BRANCH  14  17
ATOM     17  C   UNL A   1      32.329  22.677  27.240  1.00  0.00     0.315 C 
ATOM     18  O   UNL A   1      32.700  22.435  28.384  1.00  0.00    -0.263 OA
ATOM     19  N   UNL A   1      33.059  22.121  26.205  1.00  0.00    -0.318 N 
ATOM     20  H   UNL A   1      33.626  21.359  26.467  1.00  0.00     0.170 HD
BRANCH  19  21
ATOM     21  C   UNL A   1      33.126  22.461  24.851  1.00  0.00     0.041 A 
ATOM     22  C   UNL A   1      32.445  21.643  23.943  1.00  0.00     0.029 A 
ATOM     23  C   UNL A   1      33.892  23.531  24.378  1.00  0.00     0.029 A 
ATOM     24  C   UNL A   1      32.459  21.947  22.581  1.00  0.00     0.041 A 
ATOM     25  C   UNL A   1      33.917  23.825  23.014  1.00  0.00     0.041 A 
ATOM     26  C   UNL A   1      33.188  23.041  22.131  1.00  0.00     0.123 A 
ATOM     27  F   UNL A   1      33.196  23.336  20.825  1.00  0.00    -0.207 F 
ENDBRANCH  19  21
ENDBRANCH  14  17
ENDBRANCH  12  13
ENDBRANCH  10  11
ENDBRANCH   4   5
ENDBRANCH   3   4
ENDBRANCH   2   3
BRANCH   2  28
ATOM     28  O   UNL A   1      33.871  33.965  29.083  1.00  0.00    -0.460 OA
BRANCH  28  29
ATOM     29  C   UNL A   1      33.825  35.360  28.713  1.00  0.00     0.274 C 
BRANCH  29  30
ATOM     30  C   UNL A   1      32.894  36.138  29.645  1.00  0.00     0.275 C 
BRANCH  30  31
ATOM     31  O   UNL A   1      32.427  35.273  30.697  1.00  0.00    -0.458 OA
BRANCH  31  32
ATOM     32  C   UNL A   1      32.628  35.714  31.966  1.00  0.00     0.338 C 
ATOM     33  O   UNL A   1      31.899  36.435  32.614  1.00  0.00    -0.246 OA
BRANCH  32  34
ATOM     34  C   UNL A   1      33.801  35.001  32.526  1.00  0.00     0.060 A 
ATOM     35  C   UNL A   1      35.052  35.630  32.467  1.00  0.00     0.016 A 
ATOM     36  C   UNL A   1      33.672  33.748  33.134  1.00  0.00     0.016 A 
ATOM     37  C   UNL A   1      36.184  34.987  32.976  1.00  0.00     0.010 A 
ATOM     38  C   UNL A   1      34.804  33.104  33.636  1.00  0.00     0.010 A 
ATOM     39  C   UNL A   1      36.071  33.705  33.528  1.00  0.00    -0.014 A 
BRANCH  39  40
ATOM     40  C   UNL A   1      37.281  32.893  33.803  1.00  0.00     0.031 A 
ATOM     41  C   UNL A   1      38.045  33.171  35.068  1.00  0.00     0.074 A 
ATOM     42  C   UNL A   1      37.716  31.955  32.945  1.00  0.00     0.049 A 
ATOM     43  N   UNL A   1      39.174  32.661  35.489  1.00  0.00    -0.248 NA
ATOM     44  C   UNL A   1      37.457  34.169  35.976  1.00  0.00     0.031 C 
ATOM     45  C   UNL A   1      37.055  31.570  31.702  1.00  0.00     0.029 A 
ATOM     46  N   UNL A   1      38.840  31.166  32.991  1.00  0.00    -0.354 N 
ATOM     47  C   UNL A   1      39.430  33.276  36.707  1.00  0.00     0.074 A 
ATOM     48  C   UNL A   1      38.359  34.220  36.943  1.00  0.00     0.031 C 
ATOM     49  C   UNL A   1      37.796  30.628  31.090  1.00  0.00     0.029 A 
ATOM     50  C   UNL A   1      38.995  30.366  31.887  1.00  0.00     0.049 A 
ATOM     51  H   UNL A   1      39.474  31.175  33.744  1.00  0.00     0.167 HD
ATOM     52  C   UNL A   1      40.462  33.070  37.558  1.00  0.00     0.037 A 
ATOM     53  C   UNL A   1      40.001  29.533  31.554  1.00  0.00     0.037 A 
ATOM     54  C   UNL A   1      41.535  32.142  37.326  1.00  0.00     0.049 A 
ATOM     55  C   UNL A   1      41.177  29.371  32.485  1.00  0.00     0.074 A 
ATOM     56  C   UNL A   1      42.617  31.855  38.137  1.00  0.00     0.029 A 
ATOM     57  N   UNL A   1      41.662  31.357  36.190  1.00  0.00    -0.354 N 
ATOM     58  N   UNL A   1      41.396  29.930  33.650  1.00  0.00    -0.248 NA
ATOM     59  C   UNL A   1      42.246  28.457  32.052  1.00  0.00     0.031 C 
ATOM     60  C   UNL A   1      43.424  30.925  37.472  1.00  0.00     0.029 A 
ATOM     61  C   UNL A   1      42.819  30.601  36.269  1.00  0.00     0.049 A 
ATOM     62  H   UNL A   1      41.025  31.340  35.440  1.00  0.00     0.167 HD
ATOM     63  C   UNL A   1      42.604  29.414  34.103  1.00  0.00     0.074 A 
ATOM     64  C   UNL A   1      43.072  28.494  33.089  1.00  0.00     0.031 C 
ATOM     65  C   UNL A   1      43.263  29.675  35.258  1.00  0.00     0.037 A 
BRANCH  52  66
ATOM     66  C   UNL A   1      40.484  33.889  38.812  1.00  0.00     0.064 A 
ATOM     67  C   UNL A   1      39.811  33.476  39.971  1.00  0.00     0.173 A 
ATOM     68  C   UNL A   1      41.191  35.100  38.856  1.00  0.00     0.173 A 
ATOM     69  F   UNL A   1      39.106  32.334  39.970  1.00  0.00    -0.203 F 
ATOM     70  C   UNL A   1      39.820  34.259  41.121  1.00  0.00     0.198 A 
ATOM     71  C   UNL A   1      41.219  35.868  40.017  1.00  0.00     0.198 A 
ATOM     72  F   UNL A   1      41.849  35.539  37.774  1.00  0.00    -0.203 F 
ATOM     73  F   UNL A   1      39.129  33.869  42.201  1.00  0.00    -0.200 F 
ATOM     74  C   UNL A   1      40.528  35.452  41.145  1.00  0.00     0.200 A 
ATOM     75  F   UNL A   1      41.908  37.017  40.042  1.00  0.00    -0.200 F 
ATOM     76  F   UNL A   1      40.535  36.205  42.253  1.00  0.00    -0.200 F 
ENDBRANCH  52  66
BRANCH  53  77
ATOM     77  C   UNL A   1      39.952  28.785  30.272  1.00  0.00     0.064 A 
ATOM     78  C   UNL A   1      39.385  27.506  30.205  1.00  0.00     0.173 A 
ATOM     79  C   UNL A   1      40.498  29.320  29.096  1.00  0.00     0.173 A 
ATOM     80  F   UNL A   1      38.878  26.940  31.310  1.00  0.00    -0.203 F 
ATOM     81  C   UNL A   1      39.382  26.781  29.014  1.00  0.00     0.198 A 
ATOM     82  C   UNL A   1      40.473  28.605  27.901  1.00  0.00     0.198 A 
ATOM     83  F   UNL A   1      41.059  30.538  29.110  1.00  0.00    -0.203 F 
ATOM     84  F   UNL A   1      38.875  25.541  28.988  1.00  0.00    -0.200 F 
ATOM     85  C   UNL A   1      39.921  27.333  27.863  1.00  0.00     0.200 A 
ATOM     86  F   UNL A   1      40.992  29.144  26.789  1.00  0.00    -0.200 F 
ATOM     87  F   UNL A   1      39.921  26.636  26.718  1.00  0.00    -0.200 F 
ENDBRANCH  53  77
BRANCH  65  88
ATOM     88  C   UNL A   1      44.539  28.928  35.518  1.00  0.00     0.064 A 
ATOM     89  C   UNL A   1      45.784  29.441  35.131  1.00  0.00     0.173 A 
ATOM     90  C   UNL A   1      44.516  27.714  36.221  1.00  0.00     0.173 A 
ATOM     91  F   UNL A   1      45.857  30.592  34.446  1.00  0.00    -0.203 F 
ATOM     92  C   UNL A   1      46.961  28.757  35.426  1.00  0.00     0.198 A 
ATOM     93  C   UNL A   1      45.696  27.045  36.536  1.00  0.00     0.198 A 
ATOM     94  F   UNL A   1      43.349  27.185  36.619  1.00  0.00    -0.203 F 
ATOM     95  F   UNL A   1      48.139  29.249  35.018  1.00  0.00    -0.200 F 
ATOM     96  C   UNL A   1      46.917  27.565  36.135  1.00  0.00     0.200 A 
ATOM     97  F   UNL A   1      45.652  25.901  37.233  1.00  0.00    -0.200 F 
ATOM     98  F   UNL A   1      48.051  26.916  36.428  1.00  0.00    -0.200 F 
ENDBRANCH  65  88
ENDBRANCH  39  40
ENDBRANCH  32  34
ENDBRANCH  31  32
ENDBRANCH  30  31
ENDBRANCH  29  30
ENDBRANCH  28  29
ENDBRANCH   2  28
TORSDOF 17
ENDMDL
