MODEL 1
REMARK VINA RESULT:     -14.0      0.000      0.000
REMARK SMILES Cc1nn([C@H]2CCS(=O)(=O)C2)c(C)c1/C=C(\CC(=O)OCCOC(=O)c1ccc(-c2c3nc(c(-c4c(F)c(F)c(F)c(F)c4F)c4ccc([nH]4)c(-c4c(F)c(F)c(F)c(F)c4F)c4nc(c(-c5c(F)c(F)c(F)c(F)c5F)c5ccc2[nH]5)C=C4)C=C3)cc1)c1nc2ccccc2s1
REMARK SMILES IDX 21 1 20 2 18 3 19 4 17 5 16 6 15 7 14 8 1 9 2 10 3 11 4 12
REMARK SMILES IDX 12 13 13 14 5 15 6 16 11 17 7 18 8 19 9 20 10 21 89 22 90 23
REMARK SMILES IDX 97 24 91 25 96 26 92 27 95 28 93 29 94 30 22 31 23 32 24 33
REMARK SMILES IDX 25 34 26 35 27 36 88 37 28 38 87 39 29 40 30 41 31 42 81 43
REMARK SMILES IDX 32 44 86 45 80 46 82 47 33 48 85 49 79 50 78 51 34 53 66 54
REMARK SMILES IDX 46 55 65 56 47 57 50 58 64 59 83 60 48 61 49 62 63 64 84 65
REMARK SMILES IDX 51 66 35 67 36 68 44 69 37 70 38 71 42 72 45 73 39 74 40 75
REMARK SMILES IDX 43 76 41 77 67 78 68 79 76 80 69 81 70 82 74 83 77 84 71 85
REMARK SMILES IDX 72 86 75 87 73 88 52 89 53 90 61 91 54 92 55 93 59 94 62 95
REMARK SMILES IDX 56 96 57 97 60 98 58 99
REMARK H PARENT 82 52 50 63
REMARK Flexibility Score: inf
ROOT
ATOM      1  C   UNL A   1      34.028  28.747  27.144  1.00  0.00     0.274 C 
ENDROOT
BRANCH   1   2
ATOM      2  O   UNL A   1      33.972  28.010  25.901  1.00  0.00    -0.462 OA
BRANCH   2   3
ATOM      3  C   UNL A   1      32.732  27.573  25.599  1.00  0.00     0.310 C 
ATOM      4  O   UNL A   1      31.699  28.162  25.931  1.00  0.00    -0.252 OA
BRANCH   3   5
ATOM      5  C   UNL A   1      32.604  26.298  24.789  1.00  0.00     0.161 C 
BRANCH   5   6
ATOM      6  C   UNL A   1      31.517  25.784  23.851  1.00  0.00    -0.000 C 
ATOM      7  C   UNL A   1      31.187  24.466  23.789  1.00  0.00     0.019 C 
BRANCH   7   8
ATOM      8  C   UNL A   1      31.887  23.430  24.474  1.00  0.00     0.019 A 
ATOM      9  C   UNL A   1      30.851  23.541  26.850  1.00  0.00     0.069 C 
ATOM     10  C   UNL A   1      31.639  22.913  25.762  1.00  0.00     0.067 A 
ATOM     11  N   UNL A   1      32.206  21.702  25.896  1.00  0.00    -0.177 NA
ATOM     12  N   UNL A   1      32.869  21.532  24.733  1.00  0.00    -0.265 N 
ATOM     13  C   UNL A   1      32.975  22.704  24.019  1.00  0.00     0.043 A 
ATOM     14  C   UNL A   1      33.950  22.923  22.911  1.00  0.00     0.067 C 
BRANCH  12  15
ATOM     15  C   UNL A   1      33.337  20.233  24.296  1.00  0.00     0.123 C 
ATOM     16  C   UNL A   1      34.614  19.686  24.960  1.00  0.00     0.044 C 
ATOM     17  C   UNL A   1      32.320  19.110  24.543  1.00  0.00     0.164 C 
ATOM     18  C   UNL A   1      34.830  18.297  24.354  1.00  0.00     0.139 C 
ATOM     19  S   UNL A   1      33.196  17.676  23.978  1.00  0.00     0.152 S 
ATOM     20  O   UNL A   1      33.049  17.615  22.539  1.00  0.00    -0.229 OA
ATOM     21  O   UNL A   1      32.890  16.551  24.838  1.00  0.00    -0.229 OA
ENDBRANCH  12  15
ENDBRANCH   7   8
BRANCH   6  22
ATOM     22  C   UNL A   1      30.587  26.688  23.229  1.00  0.00     0.121 A 
ATOM     23  N   UNL A   1      30.864  27.674  22.402  1.00  0.00    -0.236 NA
ATOM     24  S   UNL A   1      28.910  26.608  23.685  1.00  0.00    -0.114 S 
ATOM     25  C   UNL A   1      29.846  28.616  22.453  1.00  0.00     0.082 A 
ATOM     26  C   UNL A   1      28.686  28.214  23.114  1.00  0.00     0.055 A 
ATOM     27  C   UNL A   1      29.921  29.938  21.970  1.00  0.00     0.030 A 
ATOM     28  C   UNL A   1      27.586  29.070  23.290  1.00  0.00     0.021 A 
ATOM     29  C   UNL A   1      28.863  30.822  22.207  1.00  0.00     0.002 A 
ATOM     30  C   UNL A   1      27.712  30.393  22.859  1.00  0.00     0.002 A 
ENDBRANCH   6  22
ENDBRANCH   5   6
ENDBRANCH   3   5
ENDBRANCH   2   3
ENDBRANCH   1   2
BRANCH   1  31
ATOM     31  C   UNL A   1      35.233  29.690  27.211  1.00  0.00     0.275 C 
BRANCH  31  32
ATOM     32  O   UNL A   1      35.855  29.752  28.504  1.00  0.00    -0.458 OA
BRANCH  32  33
ATOM     33  C   UNL A   1      37.135  30.169  28.438  1.00  0.00     0.338 C 
ATOM     34  O   UNL A   1      37.537  31.312  28.560  1.00  0.00    -0.246 OA
BRANCH  33  35
ATOM     35  C   UNL A   1      38.046  29.172  27.912  1.00  0.00     0.060 A 
ATOM     36  C   UNL A   1      38.081  27.949  28.598  1.00  0.00     0.016 A 
ATOM     37  C   UNL A   1      39.128  29.664  27.184  1.00  0.00     0.016 A 
ATOM     38  C   UNL A   1      39.287  27.302  28.714  1.00  0.00     0.010 A 
ATOM     39  C   UNL A   1      40.338  29.038  27.337  1.00  0.00     0.010 A 
ATOM     40  C   UNL A   1      40.415  27.905  28.152  1.00  0.00    -0.014 A 
BRANCH  40  41
ATOM     41  C   UNL A   1      41.679  27.202  28.253  1.00  0.00     0.031 A 
ATOM     42  C   UNL A   1      42.395  27.567  29.502  1.00  0.00     0.074 A 
ATOM     43  C   UNL A   1      42.001  26.223  27.385  1.00  0.00     0.049 A 
ATOM     44  N   UNL A   1      43.604  27.988  29.660  1.00  0.00    -0.248 NA
ATOM     45  C   UNL A   1      41.577  27.627  30.734  1.00  0.00     0.031 C 
ATOM     46  C   UNL A   1      41.134  25.677  26.336  1.00  0.00     0.029 A 
ATOM     47  N   UNL A   1      43.094  25.412  27.325  1.00  0.00    -0.354 N 
ATOM     48  C   UNL A   1      43.746  28.159  31.037  1.00  0.00     0.074 A 
ATOM     49  C   UNL A   1      42.429  28.169  31.598  1.00  0.00     0.031 C 
ATOM     50  C   UNL A   1      41.649  24.512  25.890  1.00  0.00     0.029 A 
ATOM     51  C   UNL A   1      42.889  24.245  26.597  1.00  0.00     0.049 A 
ATOM     52  H   UNL A   1      43.950  25.632  27.758  1.00  0.00     0.167 HD
ATOM     53  C   UNL A   1      44.933  27.897  31.642  1.00  0.00     0.037 A 
ATOM     54  C   UNL A   1      43.604  23.093  26.676  1.00  0.00     0.037 A 
ATOM     55  C   UNL A   1      46.020  28.072  30.713  1.00  0.00     0.049 A 
ATOM     56  C   UNL A   1      44.856  23.396  27.417  1.00  0.00     0.074 A 
ATOM     57  C   UNL A   1      46.469  29.130  29.947  1.00  0.00     0.029 A 
ATOM     58  N   UNL A   1      46.604  26.948  30.187  1.00  0.00    -0.354 N 
ATOM     59  N   UNL A   1      45.833  24.124  26.954  1.00  0.00    -0.248 NA
ATOM     60  C   UNL A   1      44.822  23.251  28.866  1.00  0.00     0.031 C 
ATOM     61  C   UNL A   1      46.947  28.543  28.740  1.00  0.00     0.029 A 
ATOM     62  C   UNL A   1      46.823  27.159  28.853  1.00  0.00     0.049 A 
ATOM     63  H   UNL A   1      46.826  26.127  30.684  1.00  0.00     0.167 HD
ATOM     64  C   UNL A   1      46.262  24.870  28.044  1.00  0.00     0.074 A 
ATOM     65  C   UNL A   1      45.670  24.224  29.209  1.00  0.00     0.031 C 
ATOM     66  C   UNL A   1      46.813  26.106  27.866  1.00  0.00     0.037 A 
BRANCH  53  67
ATOM     67  C   UNL A   1      45.041  27.049  32.899  1.00  0.00     0.064 A 
ATOM     68  C   UNL A   1      45.758  27.571  33.993  1.00  0.00     0.173 A 
ATOM     69  C   UNL A   1      44.751  25.664  32.982  1.00  0.00     0.173 A 
ATOM     70  F   UNL A   1      46.093  28.869  34.032  1.00  0.00    -0.203 F 
ATOM     71  C   UNL A   1      46.242  26.755  35.019  1.00  0.00     0.198 A 
ATOM     72  C   UNL A   1      45.193  24.865  34.033  1.00  0.00     0.198 A 
ATOM     73  F   UNL A   1      44.123  24.987  32.017  1.00  0.00    -0.203 F 
ATOM     74  F   UNL A   1      47.040  27.278  35.958  1.00  0.00    -0.200 F 
ATOM     75  C   UNL A   1      45.971  25.400  35.031  1.00  0.00     0.200 A 
ATOM     76  F   UNL A   1      44.924  23.550  34.015  1.00  0.00    -0.200 F 
ATOM     77  F   UNL A   1      46.493  24.605  35.974  1.00  0.00    -0.200 F 
ENDBRANCH  53  67
BRANCH  54  78
ATOM     78  C   UNL A   1      43.134  21.699  26.446  1.00  0.00     0.064 A 
ATOM     79  C   UNL A   1      43.768  20.863  25.509  1.00  0.00     0.173 A 
ATOM     80  C   UNL A   1      42.202  21.071  27.296  1.00  0.00     0.173 A 
ATOM     81  F   UNL A   1      44.712  21.357  24.695  1.00  0.00    -0.203 F 
ATOM     82  C   UNL A   1      43.489  19.492  25.436  1.00  0.00     0.198 A 
ATOM     83  C   UNL A   1      41.906  19.710  27.206  1.00  0.00     0.198 A 
ATOM     84  F   UNL A   1      41.618  21.738  28.301  1.00  0.00    -0.203 F 
ATOM     85  F   UNL A   1      44.160  18.718  24.571  1.00  0.00    -0.200 F 
ATOM     86  C   UNL A   1      42.559  18.917  26.285  1.00  0.00     0.200 A 
ATOM     87  F   UNL A   1      41.025  19.167  28.059  1.00  0.00    -0.200 F 
ATOM     88  F   UNL A   1      42.323  17.599  26.248  1.00  0.00    -0.200 F 
ENDBRANCH  54  78
BRANCH  66  89
ATOM     89  C   UNL A   1      47.246  26.480  26.478  1.00  0.00     0.064 A 
ATOM     90  C   UNL A   1      46.441  27.169  25.557  1.00  0.00     0.173 A 
ATOM     91  C   UNL A   1      48.583  26.249  26.126  1.00  0.00     0.173 A 
ATOM     92  F   UNL A   1      45.183  27.516  25.861  1.00  0.00    -0.203 F 
ATOM     93  C   UNL A   1      46.944  27.568  24.320  1.00  0.00     0.198 A 
ATOM     94  C   UNL A   1      49.094  26.685  24.909  1.00  0.00     0.198 A 
ATOM     95  F   UNL A   1      49.412  25.643  26.992  1.00  0.00    -0.203 F 
ATOM     96  F   UNL A   1      46.154  28.213  23.449  1.00  0.00    -0.200 F 
ATOM     97  C   UNL A   1      48.272  27.332  24.001  1.00  0.00     0.200 A 
ATOM     98  F   UNL A   1      50.392  26.503  24.629  1.00  0.00    -0.200 F 
ATOM     99  F   UNL A   1      48.769  27.757  22.831  1.00  0.00    -0.200 F 
ENDBRANCH  66  89
ENDBRANCH  40  41
ENDBRANCH  33  35
ENDBRANCH  32  33
ENDBRANCH  31  32
ENDBRANCH   1  31
TORSDOF 15
ENDMDL
MODEL 2
REMARK VINA RESULT:     -13.8      5.915     11.278
REMARK SMILES Cc1nn([C@H]2CCS(=O)(=O)C2)c(C)c1/C=C(\CC(=O)OCCOC(=O)c1ccc(-c2c3nc(c(-c4c(F)c(F)c(F)c(F)c4F)c4ccc([nH]4)c(-c4c(F)c(F)c(F)c(F)c4F)c4nc(c(-c5c(F)c(F)c(F)c(F)c5F)c5ccc2[nH]5)C=C4)C=C3)cc1)c1nc2ccccc2s1
REMARK SMILES IDX 21 1 20 2 18 3 19 4 17 5 16 6 15 7 14 8 1 9 2 10 3 11 4 12
REMARK SMILES IDX 12 13 13 14 5 15 6 16 11 17 7 18 8 19 9 20 10 21 89 22 90 23
REMARK SMILES IDX 97 24 91 25 96 26 92 27 95 28 93 29 94 30 22 31 23 32 24 33
REMARK SMILES IDX 25 34 26 35 27 36 88 37 28 38 87 39 29 40 30 41 31 42 81 43
REMARK SMILES IDX 32 44 86 45 80 46 82 47 33 48 85 49 79 50 78 51 34 53 66 54
REMARK SMILES IDX 46 55 65 56 47 57 50 58 64 59 83 60 48 61 49 62 63 64 84 65
REMARK SMILES IDX 51 66 35 67 36 68 44 69 37 70 38 71 42 72 45 73 39 74 40 75
REMARK SMILES IDX 43 76 41 77 67 78 68 79 76 80 69 81 70 82 74 83 77 84 71 85
REMARK SMILES IDX 72 86 75 87 73 88 52 89 53 90 61 91 54 92 55 93 59 94 62 95
REMARK SMILES IDX 56 96 57 97 60 98 58 99
REMARK H PARENT 82 52 50 63
REMARK Flexibility Score: inf
ROOT
ATOM      1  C   UNL A   1      37.439  23.404  25.879  1.00  0.00     0.274 C 
ENDROOT
BRANCH   1   2
ATOM      2  O   UNL A   1      36.166  24.037  26.146  1.00  0.00    -0.462 OA
BRANCH   2   3
ATOM      3  C   UNL A   1      35.192  23.650  25.297  1.00  0.00     0.310 C 
ATOM      4  O   UNL A   1      35.207  23.887  24.085  1.00  0.00    -0.252 OA
BRANCH   3   5
ATOM      5  C   UNL A   1      34.027  22.861  25.860  1.00  0.00     0.161 C 
BRANCH   5   6
ATOM      6  C   UNL A   1      33.012  21.926  25.211  1.00  0.00    -0.000 C 
ATOM      7  C   UNL A   1      31.772  22.352  24.851  1.00  0.00     0.019 C 
BRANCH   7   8
ATOM      8  C   UNL A   1      31.249  23.645  25.149  1.00  0.00     0.019 A 
ATOM      9  C   UNL A   1      29.690  23.158  27.166  1.00  0.00     0.069 C 
ATOM     10  C   UNL A   1      30.464  24.035  26.253  1.00  0.00     0.067 A 
ATOM     11  N   UNL A   1      30.517  25.368  26.417  1.00  0.00    -0.177 NA
ATOM     12  N   UNL A   1      31.253  25.786  25.366  1.00  0.00    -0.265 N 
ATOM     13  C   UNL A   1      31.399  24.806  24.410  1.00  0.00     0.043 A 
ATOM     14  C   UNL A   1      31.818  25.066  23.003  1.00  0.00     0.067 C 
BRANCH  12  15
ATOM     15  C   UNL A   1      31.855  27.103  25.323  1.00  0.00     0.123 C 
ATOM     16  C   UNL A   1      30.985  28.258  24.793  1.00  0.00     0.044 C 
ATOM     17  C   UNL A   1      32.290  27.613  26.703  1.00  0.00     0.164 C 
ATOM     18  C   UNL A   1      31.848  29.515  24.918  1.00  0.00     0.139 C 
ATOM     19  S   UNL A   1      32.909  29.232  26.329  1.00  0.00     0.152 S 
ATOM     20  O   UNL A   1      34.269  29.080  25.857  1.00  0.00    -0.229 OA
ATOM     21  O   UNL A   1      32.556  30.145  27.398  1.00  0.00    -0.229 OA
ENDBRANCH  12  15
ENDBRANCH   7   8
BRANCH   6  22
ATOM     22  C   UNL A   1      33.415  20.656  24.670  1.00  0.00     0.121 A 
ATOM     23  N   UNL A   1      32.643  19.737  24.130  1.00  0.00    -0.236 NA
ATOM     24  S   UNL A   1      35.075  20.163  24.841  1.00  0.00    -0.114 S 
ATOM     25  C   UNL A   1      33.261  18.499  24.232  1.00  0.00     0.082 A 
ATOM     26  C   UNL A   1      34.604  18.526  24.608  1.00  0.00     0.055 A 
ATOM     27  C   UNL A   1      32.635  17.247  24.067  1.00  0.00     0.030 A 
ATOM     28  C   UNL A   1      35.355  17.355  24.800  1.00  0.00     0.021 A 
ATOM     29  C   UNL A   1      33.351  16.075  24.330  1.00  0.00     0.002 A 
ATOM     30  C   UNL A   1      34.693  16.128  24.693  1.00  0.00     0.002 A 
ENDBRANCH   6  22
ENDBRANCH   5   6
ENDBRANCH   3   5
ENDBRANCH   2   3
ENDBRANCH   1   2
BRANCH   1  31
ATOM     31  C   UNL A   1      38.626  24.282  26.287  1.00  0.00     0.275 C 
BRANCH  31  32
ATOM     32  O   UNL A   1      39.217  23.917  27.544  1.00  0.00    -0.458 OA
BRANCH  32  33
ATOM     33  C   UNL A   1      40.012  24.887  28.037  1.00  0.00     0.338 C 
ATOM     34  O   UNL A   1      41.188  24.785  28.335  1.00  0.00    -0.246 OA
BRANCH  33  35
ATOM     35  C   UNL A   1      39.289  26.062  28.481  1.00  0.00     0.060 A 
ATOM     36  C   UNL A   1      39.419  27.203  27.675  1.00  0.00     0.016 A 
ATOM     37  C   UNL A   1      39.015  26.125  29.845  1.00  0.00     0.016 A 
ATOM     38  C   UNL A   1      39.465  28.431  28.288  1.00  0.00     0.010 A 
ATOM     39  C   UNL A   1      39.103  27.348  30.459  1.00  0.00     0.010 A 
ATOM     40  C   UNL A   1      39.392  28.474  29.682  1.00  0.00    -0.014 A 
BRANCH  40  41
ATOM     41  C   UNL A   1      39.411  29.776  30.322  1.00  0.00     0.031 A 
ATOM     42  C   UNL A   1      40.777  30.359  30.305  1.00  0.00     0.074 A 
ATOM     43  C   UNL A   1      38.268  30.389  30.684  1.00  0.00     0.049 A 
ATOM     44  N   UNL A   1      41.479  30.829  31.280  1.00  0.00    -0.248 NA
ATOM     45  C   UNL A   1      41.527  30.240  29.034  1.00  0.00     0.031 C 
ATOM     46  C   UNL A   1      36.907  29.915  30.412  1.00  0.00     0.029 A 
ATOM     47  N   UNL A   1      38.054  31.613  31.244  1.00  0.00    -0.354 N 
ATOM     48  C   UNL A   1      42.670  31.253  30.691  1.00  0.00     0.074 A 
ATOM     49  C   UNL A   1      42.739  30.646  29.397  1.00  0.00     0.031 C 
ATOM     50  C   UNL A   1      36.031  30.920  30.620  1.00  0.00     0.029 A 
ATOM     51  C   UNL A   1      36.761  32.093  31.066  1.00  0.00     0.049 A 
ATOM     52  H   UNL A   1      38.750  32.110  31.729  1.00  0.00     0.167 HD
ATOM     53  C   UNL A   1      43.310  32.357  31.155  1.00  0.00     0.037 A 
ATOM     54  C   UNL A   1      36.349  33.386  31.140  1.00  0.00     0.037 A 
ATOM     55  C   UNL A   1      43.004  32.568  32.547  1.00  0.00     0.049 A 
ATOM     56  C   UNL A   1      37.440  34.164  31.783  1.00  0.00     0.074 A 
ATOM     57  C   UNL A   1      43.158  31.810  33.691  1.00  0.00     0.029 A 
ATOM     58  N   UNL A   1      42.109  33.558  32.866  1.00  0.00    -0.354 N 
ATOM     59  N   UNL A   1      37.781  34.063  33.037  1.00  0.00    -0.248 NA
ATOM     60  C   UNL A   1      38.454  34.737  30.908  1.00  0.00     0.031 C 
ATOM     61  C   UNL A   1      42.027  32.117  34.501  1.00  0.00     0.029 A 
ATOM     62  C   UNL A   1      41.273  33.087  33.841  1.00  0.00     0.049 A 
ATOM     63  H   UNL A   1      42.074  34.455  32.460  1.00  0.00     0.167 HD
ATOM     64  C   UNL A   1      39.167  34.144  33.032  1.00  0.00     0.074 A 
ATOM     65  C   UNL A   1      39.518  34.651  31.710  1.00  0.00     0.031 C 
ATOM     66  C   UNL A   1      39.903  33.515  33.994  1.00  0.00     0.037 A 
BRANCH  53  67
ATOM     67  C   UNL A   1      43.808  33.461  30.236  1.00  0.00     0.064 A 
ATOM     68  C   UNL A   1      42.877  34.086  29.384  1.00  0.00     0.173 A 
ATOM     69  C   UNL A   1      45.166  33.724  29.931  1.00  0.00     0.173 A 
ATOM     70  F   UNL A   1      41.560  33.915  29.571  1.00  0.00    -0.203 F 
ATOM     71  C   UNL A   1      43.274  34.812  28.258  1.00  0.00     0.198 A 
ATOM     72  C   UNL A   1      45.556  34.492  28.836  1.00  0.00     0.198 A 
ATOM     73  F   UNL A   1      46.187  33.181  30.598  1.00  0.00    -0.203 F 
ATOM     74  F   UNL A   1      42.348  35.262  27.402  1.00  0.00    -0.200 F 
ATOM     75  C   UNL A   1      44.613  35.003  27.977  1.00  0.00     0.200 A 
ATOM     76  F   UNL A   1      46.863  34.653  28.580  1.00  0.00    -0.200 F 
ATOM     77  F   UNL A   1      44.995  35.637  26.861  1.00  0.00    -0.200 F 
ENDBRANCH  53  67
BRANCH  54  78
ATOM     78  C   UNL A   1      35.232  34.042  30.406  1.00  0.00     0.064 A 
ATOM     79  C   UNL A   1      34.179  34.669  31.095  1.00  0.00     0.173 A 
ATOM     80  C   UNL A   1      35.279  34.272  29.016  1.00  0.00     0.173 A 
ATOM     81  F   UNL A   1      34.083  34.556  32.428  1.00  0.00    -0.203 F 
ATOM     82  C   UNL A   1      33.243  35.476  30.435  1.00  0.00     0.198 A 
ATOM     83  C   UNL A   1      34.333  35.056  28.355  1.00  0.00     0.198 A 
ATOM     84  F   UNL A   1      36.298  33.821  28.272  1.00  0.00    -0.203 F 
ATOM     85  F   UNL A   1      32.291  36.107  31.136  1.00  0.00    -0.200 F 
ATOM     86  C   UNL A   1      33.322  35.669  29.066  1.00  0.00     0.200 A 
ATOM     87  F   UNL A   1      34.446  35.256  27.034  1.00  0.00    -0.200 F 
ATOM     88  F   UNL A   1      32.455  36.477  28.440  1.00  0.00    -0.200 F 
ENDBRANCH  54  78
BRANCH  66  89
ATOM     89  C   UNL A   1      39.180  33.036  35.219  1.00  0.00     0.064 A 
ATOM     90  C   UNL A   1      38.728  31.720  35.406  1.00  0.00     0.173 A 
ATOM     91  C   UNL A   1      39.071  33.920  36.301  1.00  0.00     0.173 A 
ATOM     92  F   UNL A   1      38.891  30.790  34.454  1.00  0.00    -0.203 F 
ATOM     93  C   UNL A   1      38.150  31.323  36.611  1.00  0.00     0.198 A 
ATOM     94  C   UNL A   1      38.532  33.511  37.516  1.00  0.00     0.198 A 
ATOM     95  F   UNL A   1      39.538  35.175  36.194  1.00  0.00    -0.203 F 
ATOM     96  F   UNL A   1      37.712  30.065  36.763  1.00  0.00    -0.200 F 
ATOM     97  C   UNL A   1      38.061  32.217  37.666  1.00  0.00     0.200 A 
ATOM     98  F   UNL A   1      38.499  34.362  38.549  1.00  0.00    -0.200 F 
ATOM     99  F   UNL A   1      37.548  31.823  38.840  1.00  0.00    -0.200 F 
ENDBRANCH  66  89
ENDBRANCH  40  41
ENDBRANCH  33  35
ENDBRANCH  32  33
ENDBRANCH  31  32
ENDBRANCH   1  31
TORSDOF 15
ENDMDL
MODEL 3
REMARK VINA RESULT:     -13.6      3.974      9.423
REMARK SMILES Cc1nn([C@H]2CCS(=O)(=O)C2)c(C)c1/C=C(\CC(=O)OCCOC(=O)c1ccc(-c2c3nc(c(-c4c(F)c(F)c(F)c(F)c4F)c4ccc([nH]4)c(-c4c(F)c(F)c(F)c(F)c4F)c4nc(c(-c5c(F)c(F)c(F)c(F)c5F)c5ccc2[nH]5)C=C4)C=C3)cc1)c1nc2ccccc2s1
REMARK SMILES IDX 21 1 20 2 18 3 19 4 17 5 16 6 15 7 14 8 1 9 2 10 3 11 4 12
REMARK SMILES IDX 12 13 13 14 5 15 6 16 11 17 7 18 8 19 9 20 10 21 89 22 90 23
REMARK SMILES IDX 97 24 91 25 96 26 92 27 95 28 93 29 94 30 22 31 23 32 24 33
REMARK SMILES IDX 25 34 26 35 27 36 88 37 28 38 87 39 29 40 30 41 31 42 81 43
REMARK SMILES IDX 32 44 86 45 80 46 82 47 33 48 85 49 79 50 78 51 34 53 66 54
REMARK SMILES IDX 46 55 65 56 47 57 50 58 64 59 83 60 48 61 49 62 63 64 84 65
REMARK SMILES IDX 51 66 35 67 36 68 44 69 37 70 38 71 42 72 45 73 39 74 40 75
REMARK SMILES IDX 43 76 41 77 67 78 68 79 76 80 69 81 70 82 74 83 77 84 71 85
REMARK SMILES IDX 72 86 75 87 73 88 52 89 53 90 61 91 54 92 55 93 59 94 62 95
REMARK SMILES IDX 56 96 57 97 60 98 58 99
REMARK H PARENT 82 52 50 63
REMARK Flexibility Score: inf
ROOT
ATOM      1  C   UNL A   1      36.161  21.463  24.839  1.00  0.00     0.274 C 
ENDROOT
BRANCH   1   2
ATOM      2  O   UNL A   1      35.651  22.802  25.033  1.00  0.00    -0.462 OA
BRANCH   2   3
ATOM      3  C   UNL A   1      35.129  23.338  23.910  1.00  0.00     0.310 C 
ATOM      4  O   UNL A   1      35.706  23.337  22.818  1.00  0.00    -0.252 OA
BRANCH   3   5
ATOM      5  C   UNL A   1      33.748  23.957  23.992  1.00  0.00     0.161 C 
BRANCH   5   6
ATOM      6  C   UNL A   1      32.349  23.368  23.839  1.00  0.00    -0.000 C 
ATOM      7  C   UNL A   1      31.308  24.103  23.366  1.00  0.00     0.019 C 
BRANCH   7   8
ATOM      8  C   UNL A   1      31.373  25.501  23.090  1.00  0.00     0.019 A 
ATOM      9  C   UNL A   1      32.560  25.555  20.783  1.00  0.00     0.069 C 
ATOM     10  C   UNL A   1      31.774  26.138  21.898  1.00  0.00     0.067 A 
ATOM     11  N   UNL A   1      31.314  27.401  21.866  1.00  0.00    -0.177 NA
ATOM     12  N   UNL A   1      30.722  27.553  23.068  1.00  0.00    -0.265 N 
ATOM     13  C   UNL A   1      31.056  26.544  23.944  1.00  0.00     0.043 A 
ATOM     14  C   UNL A   1      30.878  26.627  25.423  1.00  0.00     0.067 C 
BRANCH  12  15
ATOM     15  C   UNL A   1      29.795  28.632  23.339  1.00  0.00     0.123 C 
ATOM     16  C   UNL A   1      30.392  29.967  23.822  1.00  0.00     0.044 C 
ATOM     17  C   UNL A   1      28.979  29.051  22.109  1.00  0.00     0.164 C 
ATOM     18  C   UNL A   1      29.203  30.920  23.966  1.00  0.00     0.139 C 
ATOM     19  S   UNL A   1      28.015  30.400  22.736  1.00  0.00     0.152 S 
ATOM     20  O   UNL A   1      26.868  29.837  23.416  1.00  0.00    -0.229 OA
ATOM     21  O   UNL A   1      27.888  31.421  21.715  1.00  0.00    -0.229 OA
ENDBRANCH  12  15
ENDBRANCH   7   8
BRANCH   6  22
ATOM     22  C   UNL A   1      32.136  21.946  23.889  1.00  0.00     0.121 A 
ATOM     23  N   UNL A   1      32.230  21.161  24.941  1.00  0.00    -0.236 NA
ATOM     24  S   UNL A   1      31.850  21.091  22.401  1.00  0.00    -0.114 S 
ATOM     25  C   UNL A   1      32.494  19.864  24.525  1.00  0.00     0.082 A 
ATOM     26  C   UNL A   1      32.336  19.627  23.159  1.00  0.00     0.055 A 
ATOM     27  C   UNL A   1      32.972  18.817  25.338  1.00  0.00     0.030 A 
ATOM     28  C   UNL A   1      32.610  18.378  22.577  1.00  0.00     0.021 A 
ATOM     29  C   UNL A   1      33.322  17.594  24.757  1.00  0.00     0.002 A 
ATOM     30  C   UNL A   1      33.144  17.378  23.394  1.00  0.00     0.002 A 
ENDBRANCH   6  22
ENDBRANCH   5   6
ENDBRANCH   3   5
ENDBRANCH   2   3
ENDBRANCH   1   2
BRANCH   1  31
ATOM     31  C   UNL A   1      37.639  21.340  25.223  1.00  0.00     0.275 C 
BRANCH  31  32
ATOM     32  O   UNL A   1      38.173  22.503  25.873  1.00  0.00    -0.458 OA
BRANCH  32  33
ATOM     33  C   UNL A   1      39.380  22.273  26.426  1.00  0.00     0.338 C 
ATOM     34  O   UNL A   1      39.732  21.270  27.020  1.00  0.00    -0.246 OA
BRANCH  33  35
ATOM     35  C   UNL A   1      40.210  23.458  26.525  1.00  0.00     0.060 A 
ATOM     36  C   UNL A   1      41.325  23.358  27.369  1.00  0.00     0.016 A 
ATOM     37  C   UNL A   1      39.574  24.667  26.250  1.00  0.00     0.016 A 
ATOM     38  C   UNL A   1      41.690  24.461  28.100  1.00  0.00     0.010 A 
ATOM     39  C   UNL A   1      39.914  25.755  27.012  1.00  0.00     0.010 A 
ATOM     40  C   UNL A   1      40.921  25.620  27.972  1.00  0.00    -0.014 A 
BRANCH  40  41
ATOM     41  C   UNL A   1      41.329  26.791  28.725  1.00  0.00     0.031 A 
ATOM     42  C   UNL A   1      42.636  27.307  28.243  1.00  0.00     0.074 A 
ATOM     43  C   UNL A   1      40.491  27.383  29.597  1.00  0.00     0.049 A 
ATOM     44  N   UNL A   1      43.708  27.571  28.909  1.00  0.00    -0.248 NA
ATOM     45  C   UNL A   1      42.814  27.374  26.775  1.00  0.00     0.031 C 
ATOM     46  C   UNL A   1      39.088  27.023  29.831  1.00  0.00     0.029 A 
ATOM     47  N   UNL A   1      40.646  28.500  30.361  1.00  0.00    -0.354 N 
ATOM     48  C   UNL A   1      44.615  28.036  27.957  1.00  0.00     0.074 A 
ATOM     49  C   UNL A   1      44.109  27.658  26.673  1.00  0.00     0.031 C 
ATOM     50  C   UNL A   1      38.478  28.015  30.511  1.00  0.00     0.029 A 
ATOM     51  C   UNL A   1      39.446  29.061  30.785  1.00  0.00     0.049 A 
ATOM     52  H   UNL A   1      41.526  28.876  30.590  1.00  0.00     0.167 HD
ATOM     53  C   UNL A   1      45.502  29.015  28.274  1.00  0.00     0.037 A 
ATOM     54  C   UNL A   1      39.240  30.339  31.199  1.00  0.00     0.037 A 
ATOM     55  C   UNL A   1      45.785  28.997  29.687  1.00  0.00     0.049 A 
ATOM     56  C   UNL A   1      40.573  30.946  31.451  1.00  0.00     0.074 A 
ATOM     57  C   UNL A   1      46.289  28.048  30.554  1.00  0.00     0.029 A 
ATOM     58  N   UNL A   1      45.199  29.957  30.472  1.00  0.00    -0.354 N 
ATOM     59  N   UNL A   1      41.361  30.617  32.436  1.00  0.00    -0.248 NA
ATOM     60  C   UNL A   1      41.222  31.615  30.332  1.00  0.00     0.031 C 
ATOM     61  C   UNL A   1      45.603  28.261  31.785  1.00  0.00     0.029 A 
ATOM     62  C   UNL A   1      44.762  29.363  31.625  1.00  0.00     0.049 A 
ATOM     63  H   UNL A   1      45.107  30.910  30.245  1.00  0.00     0.167 HD
ATOM     64  C   UNL A   1      42.636  30.635  31.886  1.00  0.00     0.074 A 
ATOM     65  C   UNL A   1      42.498  31.346  30.619  1.00  0.00     0.031 C 
ATOM     66  C   UNL A   1      43.615  29.819  32.373  1.00  0.00     0.037 A 
BRANCH  53  67
ATOM     67  C   UNL A   1      45.720  30.237  27.397  1.00  0.00     0.064 A 
ATOM     68  C   UNL A   1      47.042  30.655  27.158  1.00  0.00     0.173 A 
ATOM     69  C   UNL A   1      44.722  31.178  27.039  1.00  0.00     0.173 A 
ATOM     70  F   UNL A   1      48.075  29.853  27.454  1.00  0.00    -0.203 F 
ATOM     71  C   UNL A   1      47.343  31.944  26.709  1.00  0.00     0.198 A 
ATOM     72  C   UNL A   1      45.026  32.444  26.544  1.00  0.00     0.198 A 
ATOM     73  F   UNL A   1      43.417  30.976  27.238  1.00  0.00    -0.203 F 
ATOM     74  F   UNL A   1      48.620  32.337  26.636  1.00  0.00    -0.200 F 
ATOM     75  C   UNL A   1      46.334  32.842  26.416  1.00  0.00     0.200 A 
ATOM     76  F   UNL A   1      44.028  33.300  26.277  1.00  0.00    -0.200 F 
ATOM     77  F   UNL A   1      46.620  34.100  26.056  1.00  0.00    -0.200 F 
ENDBRANCH  53  67
BRANCH  54  78
ATOM     78  C   UNL A   1      38.004  31.160  31.075  1.00  0.00     0.064 A 
ATOM     79  C   UNL A   1      37.490  31.514  29.815  1.00  0.00     0.173 A 
ATOM     80  C   UNL A   1      37.166  31.427  32.176  1.00  0.00     0.173 A 
ATOM     81  F   UNL A   1      38.189  31.247  28.702  1.00  0.00    -0.203 F 
ATOM     82  C   UNL A   1      36.221  32.090  29.671  1.00  0.00     0.198 A 
ATOM     83  C   UNL A   1      35.912  32.023  32.035  1.00  0.00     0.198 A 
ATOM     84  F   UNL A   1      37.497  31.032  33.414  1.00  0.00    -0.203 F 
ATOM     85  F   UNL A   1      35.741  32.356  28.448  1.00  0.00    -0.200 F 
ATOM     86  C   UNL A   1      35.433  32.343  30.781  1.00  0.00     0.200 A 
ATOM     87  F   UNL A   1      35.152  32.230  33.120  1.00  0.00    -0.200 F 
ATOM     88  F   UNL A   1      34.202  32.852  30.642  1.00  0.00    -0.200 F 
ENDBRANCH  54  78
BRANCH  66  89
ATOM     89  C   UNL A   1      43.378  29.169  33.706  1.00  0.00     0.064 A 
ATOM     90  C   UNL A   1      42.665  27.973  33.886  1.00  0.00     0.173 A 
ATOM     91  C   UNL A   1      44.024  29.715  34.823  1.00  0.00     0.173 A 
ATOM     92  F   UNL A   1      42.106  27.336  32.847  1.00  0.00    -0.203 F 
ATOM     93  C   UNL A   1      42.568  27.377  35.142  1.00  0.00     0.198 A 
ATOM     94  C   UNL A   1      43.960  29.097  36.067  1.00  0.00     0.198 A 
ATOM     95  F   UNL A   1      44.764  30.829  34.695  1.00  0.00    -0.203 F 
ATOM     96  F   UNL A   1      41.870  26.242  35.296  1.00  0.00    -0.200 F 
ATOM     97  C   UNL A   1      43.223  27.936  36.229  1.00  0.00     0.200 A 
ATOM     98  F   UNL A   1      44.639  29.611  37.101  1.00  0.00    -0.200 F 
ATOM     99  F   UNL A   1      43.168  27.338  37.428  1.00  0.00    -0.200 F 
ENDBRANCH  66  89
ENDBRANCH  40  41
ENDBRANCH  33  35
ENDBRANCH  32  33
ENDBRANCH  31  32
ENDBRANCH   1  31
TORSDOF 15
ENDMDL
