MODEL 1
REMARK VINA RESULT:     -13.1      0.000      0.000
REMARK SMILES Cc1c(-c2nn(-c3ccccc3)cc2/C=N/O)nnn1-c1ccc(C(=O)OCCOC(=O)c2ccc(-c3c4nc(c(-c5c(F)c(F)c(F)c(F)c5F)c5ccc([nH]5)c(-c5c(F)c(F)c(F)c(F)c5F)c5nc(c(-c6c(F)c(F)c(F)c(F)c6F)c6ccc3[nH]6)C=C5)C=C4)cc2)cc1
REMARK SMILES IDX 28 1 27 2 25 3 26 4 24 5 21 6 22 7 97 8 23 9 96 10 20 11
REMARK SMILES IDX 1 12 2 13 3 14 18 15 19 16 4 17 5 18 14 19 6 20 13 21 15 22
REMARK SMILES IDX 16 23 17 24 7 26 8 27 12 28 9 29 11 30 10 31 29 32 30 33
REMARK SMILES IDX 31 34 32 35 33 36 34 37 95 38 35 39 94 40 36 41 37 42 38 43
REMARK SMILES IDX 88 44 39 45 93 46 87 47 89 48 40 49 92 50 86 51 85 52 41 54
REMARK SMILES IDX 73 55 53 56 72 57 54 58 57 59 71 60 90 61 55 62 56 63 70 65
REMARK SMILES IDX 91 66 58 67 42 68 43 69 51 70 44 71 45 72 49 73 52 74 46 75
REMARK SMILES IDX 47 76 50 77 48 78 74 79 75 80 83 81 76 82 77 83 81 84 84 85
REMARK SMILES IDX 78 86 79 87 82 88 80 89 59 90 60 91 68 92 61 93 62 94 66 95
REMARK SMILES IDX 69 96 63 97 64 98 67 99 65 100
REMARK H PARENT 17 25 89 53 57 64
REMARK Flexibility Score: inf
ROOT
ATOM      1  C   UNL A   1      43.675  18.808  25.610  1.00  0.00     0.275 C 
ENDROOT
BRANCH   1   2
ATOM      2  O   UNL A   1      42.309  19.199  25.393  1.00  0.00    -0.458 OA
BRANCH   2   3
ATOM      3  C   UNL A   1      41.662  19.702  26.484  1.00  0.00     0.338 C 
ATOM      4  O   UNL A   1      42.081  19.734  27.616  1.00  0.00    -0.246 OA
BRANCH   3   5
ATOM      5  C   UNL A   1      40.365  20.313  26.076  1.00  0.00     0.060 A 
ATOM      6  C   UNL A   1      37.881  21.475  25.556  1.00  0.00     0.067 A 
ATOM      7  C   UNL A   1      38.894  22.248  26.133  1.00  0.00     0.029 A 
ATOM      8  C   UNL A   1      38.146  20.165  25.136  1.00  0.00     0.029 A 
ATOM      9  C   UNL A   1      40.127  21.652  26.419  1.00  0.00     0.018 A 
ATOM     10  C   UNL A   1      39.391  19.588  25.385  1.00  0.00     0.018 A 
BRANCH   6  11
ATOM     11  N   UNL A   1      36.570  22.002  25.475  1.00  0.00    -0.217 N 
ATOM     12  C   UNL A   1      36.612  22.894  23.088  1.00  0.00     0.069 C 
ATOM     13  C   UNL A   1      35.996  22.693  24.422  1.00  0.00     0.071 A 
ATOM     14  C   UNL A   1      34.719  22.961  24.876  1.00  0.00     0.137 A 
ATOM     15  N   UNL A   1      34.523  22.390  26.098  1.00  0.00    -0.128 NA
ATOM     16  N   UNL A   1      35.640  21.748  26.427  1.00  0.00    -0.061 NA
BRANCH  14  17
ATOM     17  C   UNL A   1      33.651  23.638  24.151  1.00  0.00     0.124 A 
ATOM     18  N   UNL A   1      33.476  24.964  24.225  1.00  0.00    -0.165 NA
ATOM     19  C   UNL A   1      32.623  22.996  23.422  1.00  0.00     0.044 A 
ATOM     20  N   UNL A   1      32.268  25.174  23.660  1.00  0.00    -0.240 N 
ATOM     21  C   UNL A   1      31.720  24.011  23.170  1.00  0.00     0.125 A 
BRANCH  19  22
ATOM     22  C   UNL A   1      32.453  21.625  23.014  1.00  0.00     0.166 C 
ATOM     23  N   UNL A   1      31.830  21.349  21.917  1.00  0.00    -0.097 NA
BRANCH  23  24
ATOM     24  O   UNL A   1      31.756  19.960  21.765  1.00  0.00    -0.411 OA
ATOM     25  H   UNL A   1      30.938  19.556  21.551  1.00  0.00     0.330 HD
ENDBRANCH  23  24
ENDBRANCH  19  22
BRANCH  20  26
ATOM     26  C   UNL A   1      31.683  26.461  23.653  1.00  0.00     0.065 A 
ATOM     27  C   UNL A   1      31.137  26.959  22.463  1.00  0.00     0.028 A 
ATOM     28  C   UNL A   1      31.661  27.234  24.820  1.00  0.00     0.028 A 
ATOM     29  C   UNL A   1      30.534  28.217  22.453  1.00  0.00     0.002 A 
ATOM     30  C   UNL A   1      31.106  28.516  24.786  1.00  0.00     0.002 A 
ATOM     31  C   UNL A   1      30.529  28.999  23.610  1.00  0.00     0.000 A 
ENDBRANCH  20  26
ENDBRANCH  14  17
ENDBRANCH   6  11
ENDBRANCH   3   5
ENDBRANCH   2   3
ENDBRANCH   1   2
BRANCH   1  32
ATOM     32  C   UNL A   1      44.577  19.274  24.475  1.00  0.00     0.275 C 
BRANCH  32  33
ATOM     33  O   UNL A   1      45.159  20.547  24.755  1.00  0.00    -0.458 OA
BRANCH  33  34
ATOM     34  C   UNL A   1      44.523  21.599  24.193  1.00  0.00     0.338 C 
ATOM     35  O   UNL A   1      44.535  21.933  23.018  1.00  0.00    -0.246 OA
BRANCH  34  36
ATOM     36  C   UNL A   1      43.960  22.445  25.246  1.00  0.00     0.060 A 
ATOM     37  C   UNL A   1      42.983  23.374  24.874  1.00  0.00     0.016 A 
ATOM     38  C   UNL A   1      44.616  22.512  26.483  1.00  0.00     0.016 A 
ATOM     39  C   UNL A   1      42.783  24.479  25.675  1.00  0.00     0.010 A 
ATOM     40  C   UNL A   1      44.426  23.619  27.272  1.00  0.00     0.010 A 
ATOM     41  C   UNL A   1      43.569  24.623  26.819  1.00  0.00    -0.014 A 
BRANCH  41  42
ATOM     42  C   UNL A   1      43.456  25.847  27.588  1.00  0.00     0.031 A 
ATOM     43  C   UNL A   1      44.495  26.863  27.284  1.00  0.00     0.074 A 
ATOM     44  C   UNL A   1      42.368  26.074  28.349  1.00  0.00     0.049 A 
ATOM     45  N   UNL A   1      45.238  27.532  28.104  1.00  0.00    -0.248 NA
ATOM     46  C   UNL A   1      44.802  27.104  25.862  1.00  0.00     0.031 C 
ATOM     47  C   UNL A   1      41.156  25.251  28.447  1.00  0.00     0.029 A 
ATOM     48  N   UNL A   1      42.052  27.169  29.091  1.00  0.00    -0.354 N 
ATOM     49  C   UNL A   1      45.991  28.394  27.309  1.00  0.00     0.074 A 
ATOM     50  C   UNL A   1      45.786  27.995  25.943  1.00  0.00     0.031 C 
ATOM     51  C   UNL A   1      40.166  25.983  29.002  1.00  0.00     0.029 A 
ATOM     52  C   UNL A   1      40.704  27.274  29.397  1.00  0.00     0.049 A 
ATOM     53  H   UNL A   1      42.722  27.829  29.385  1.00  0.00     0.167 HD
ATOM     54  C   UNL A   1      46.545  29.527  27.816  1.00  0.00     0.037 A 
ATOM     55  C   UNL A   1      40.066  28.384  29.841  1.00  0.00     0.037 A 
ATOM     56  C   UNL A   1      46.739  29.431  29.236  1.00  0.00     0.049 A 
ATOM     57  C   UNL A   1      41.099  29.330  30.336  1.00  0.00     0.074 A 
ATOM     58  C   UNL A   1      47.462  28.582  30.052  1.00  0.00     0.029 A 
ATOM     59  N   UNL A   1      45.863  30.084  30.067  1.00  0.00    -0.354 N 
ATOM     60  N   UNL A   1      41.822  29.138  31.404  1.00  0.00    -0.248 NA
ATOM     61  C   UNL A   1      41.628  30.304  29.392  1.00  0.00     0.031 C 
ATOM     62  C   UNL A   1      46.662  28.419  31.221  1.00  0.00     0.029 A 
ATOM     63  C   UNL A   1      45.521  29.204  31.062  1.00  0.00     0.049 A 
ATOM     64  H   UNL A   1      45.541  31.008  29.967  1.00  0.00     0.167 HD
ATOM     65  C   UNL A   1      43.075  29.637  31.078  1.00  0.00     0.074 A 
ATOM     66  C   UNL A   1      42.868  30.431  29.871  1.00  0.00     0.031 C 
ATOM     67  C   UNL A   1      44.205  29.132  31.650  1.00  0.00     0.037 A 
BRANCH  54  68
ATOM     68  C   UNL A   1      46.567  30.836  27.067  1.00  0.00     0.064 A 
ATOM     69  C   UNL A   1      47.759  31.582  27.021  1.00  0.00     0.173 A 
ATOM     70  C   UNL A   1      45.402  31.524  26.656  1.00  0.00     0.173 A 
ATOM     71  F   UNL A   1      48.922  31.037  27.410  1.00  0.00    -0.203 F 
ATOM     72  C   UNL A   1      47.769  32.933  26.666  1.00  0.00     0.198 A 
ATOM     73  C   UNL A   1      45.425  32.855  26.249  1.00  0.00     0.198 A 
ATOM     74  F   UNL A   1      44.182  30.978  26.738  1.00  0.00    -0.203 F 
ATOM     75  F   UNL A   1      48.905  33.637  26.763  1.00  0.00    -0.200 F 
ATOM     76  C   UNL A   1      46.602  33.571  26.287  1.00  0.00     0.200 A 
ATOM     77  F   UNL A   1      44.278  33.458  25.904  1.00  0.00    -0.200 F 
ATOM     78  F   UNL A   1      46.598  34.881  26.010  1.00  0.00    -0.200 F 
ENDBRANCH  54  68
BRANCH  55  79
ATOM     79  C   UNL A   1      38.671  28.803  29.566  1.00  0.00     0.064 A 
ATOM     80  C   UNL A   1      37.791  29.121  30.611  1.00  0.00     0.173 A 
ATOM     81  C   UNL A   1      38.248  29.146  28.266  1.00  0.00     0.173 A 
ATOM     82  F   UNL A   1      38.137  28.875  31.883  1.00  0.00    -0.203 F 
ATOM     83  C   UNL A   1      36.567  29.755  30.372  1.00  0.00     0.198 A 
ATOM     84  C   UNL A   1      37.021  29.766  28.026  1.00  0.00     0.198 A 
ATOM     85  F   UNL A   1      39.054  28.972  27.209  1.00  0.00    -0.203 F 
ATOM     86  F   UNL A   1      35.778  30.098  31.400  1.00  0.00    -0.200 F 
ATOM     87  C   UNL A   1      36.186  30.083  29.080  1.00  0.00     0.200 A 
ATOM     88  F   UNL A   1      36.683  30.108  26.775  1.00  0.00    -0.200 F 
ATOM     89  F   UNL A   1      35.039  30.738  28.856  1.00  0.00    -0.200 F 
ENDBRANCH  55  79
BRANCH  67  90
ATOM     90  C   UNL A   1      44.040  28.211  32.825  1.00  0.00     0.064 A 
ATOM     91  C   UNL A   1      43.849  26.823  32.708  1.00  0.00     0.173 A 
ATOM     92  C   UNL A   1      44.226  28.729  34.113  1.00  0.00     0.173 A 
ATOM     93  F   UNL A   1      43.772  26.237  31.508  1.00  0.00    -0.203 F 
ATOM     94  C   UNL A   1      43.797  26.003  33.833  1.00  0.00     0.198 A 
ATOM     95  C   UNL A   1      44.213  27.901  35.232  1.00  0.00     0.198 A 
ATOM     96  F   UNL A   1      44.473  30.038  34.282  1.00  0.00    -0.203 F 
ATOM     97  F   UNL A   1      43.599  24.683  33.694  1.00  0.00    -0.200 F 
ATOM     98  C   UNL A   1      43.986  26.542  35.093  1.00  0.00     0.200 A 
ATOM     99  F   UNL A   1      44.446  28.419  36.447  1.00  0.00    -0.200 F 
ATOM    100  F   UNL A   1      43.978  25.746  36.173  1.00  0.00    -0.200 F 
ENDBRANCH  67  90
ENDBRANCH  41  42
ENDBRANCH  34  36
ENDBRANCH  33  34
ENDBRANCH  32  33
ENDBRANCH   1  32
TORSDOF 16
ENDMDL
MODEL 2
REMARK VINA RESULT:     -12.9      1.611      2.263
REMARK SMILES Cc1c(-c2nn(-c3ccccc3)cc2/C=N/O)nnn1-c1ccc(C(=O)OCCOC(=O)c2ccc(-c3c4nc(c(-c5c(F)c(F)c(F)c(F)c5F)c5ccc([nH]5)c(-c5c(F)c(F)c(F)c(F)c5F)c5nc(c(-c6c(F)c(F)c(F)c(F)c6F)c6ccc3[nH]6)C=C5)C=C4)cc2)cc1
REMARK SMILES IDX 28 1 27 2 25 3 26 4 24 5 21 6 22 7 97 8 23 9 96 10 20 11
REMARK SMILES IDX 1 12 2 13 3 14 18 15 19 16 4 17 5 18 14 19 6 20 13 21 15 22
REMARK SMILES IDX 16 23 17 24 7 26 8 27 12 28 9 29 11 30 10 31 29 32 30 33
REMARK SMILES IDX 31 34 32 35 33 36 34 37 95 38 35 39 94 40 36 41 37 42 38 43
REMARK SMILES IDX 88 44 39 45 93 46 87 47 89 48 40 49 92 50 86 51 85 52 41 54
REMARK SMILES IDX 73 55 53 56 72 57 54 58 57 59 71 60 90 61 55 62 56 63 70 65
REMARK SMILES IDX 91 66 58 67 42 68 43 69 51 70 44 71 45 72 49 73 52 74 46 75
REMARK SMILES IDX 47 76 50 77 48 78 74 79 75 80 83 81 76 82 77 83 81 84 84 85
REMARK SMILES IDX 78 86 79 87 82 88 80 89 59 90 60 91 68 92 61 93 62 94 66 95
REMARK SMILES IDX 69 96 63 97 64 98 67 99 65 100
REMARK H PARENT 17 25 89 53 57 64
REMARK Flexibility Score: inf
ROOT
ATOM      1  C   UNL A   1      43.401  19.404  25.614  1.00  0.00     0.275 C 
ENDROOT
BRANCH   1   2
ATOM      2  O   UNL A   1      41.983  19.464  25.385  1.00  0.00    -0.458 OA
BRANCH   2   3
ATOM      3  C   UNL A   1      41.224  19.763  26.478  1.00  0.00     0.338 C 
ATOM      4  O   UNL A   1      41.528  19.590  27.634  1.00  0.00    -0.246 OA
BRANCH   3   5
ATOM      5  C   UNL A   1      39.962  20.438  26.059  1.00  0.00     0.060 A 
ATOM      6  C   UNL A   1      37.675  21.668  25.037  1.00  0.00     0.067 A 
ATOM      7  C   UNL A   1      37.849  20.290  24.867  1.00  0.00     0.029 A 
ATOM      8  C   UNL A   1      38.582  22.403  25.812  1.00  0.00     0.029 A 
ATOM      9  C   UNL A   1      39.010  19.685  25.355  1.00  0.00     0.018 A 
ATOM     10  C   UNL A   1      39.719  21.786  26.333  1.00  0.00     0.018 A 
BRANCH   6  11
ATOM     11  N   UNL A   1      36.623  22.322  24.354  1.00  0.00    -0.217 N 
ATOM     12  C   UNL A   1      35.001  22.667  26.289  1.00  0.00     0.069 C 
ATOM     13  C   UNL A   1      35.398  22.721  24.861  1.00  0.00     0.071 A 
ATOM     14  C   UNL A   1      34.776  23.301  23.773  1.00  0.00     0.137 A 
ATOM     15  N   UNL A   1      35.617  23.317  22.701  1.00  0.00    -0.128 NA
ATOM     16  N   UNL A   1      36.770  22.776  23.085  1.00  0.00    -0.061 NA
BRANCH  14  17
ATOM     17  C   UNL A   1      33.465  23.937  23.744  1.00  0.00     0.124 A 
ATOM     18  N   UNL A   1      33.323  25.256  23.557  1.00  0.00    -0.165 NA
ATOM     19  C   UNL A   1      32.238  23.297  24.035  1.00  0.00     0.044 A 
ATOM     20  N   UNL A   1      32.030  25.499  23.857  1.00  0.00    -0.240 N 
ATOM     21  C   UNL A   1      31.345  24.344  24.155  1.00  0.00     0.125 A 
BRANCH  19  22
ATOM     22  C   UNL A   1      31.903  21.906  24.208  1.00  0.00     0.166 C 
ATOM     23  N   UNL A   1      32.096  21.331  25.347  1.00  0.00    -0.097 NA
BRANCH  23  24
ATOM     24  O   UNL A   1      31.739  19.981  25.249  1.00  0.00    -0.411 OA
ATOM     25  H   UNL A   1      32.078  19.361  25.864  1.00  0.00     0.330 HD
ENDBRANCH  23  24
ENDBRANCH  19  22
BRANCH  20  26
ATOM     26  C   UNL A   1      31.525  26.819  23.883  1.00  0.00     0.065 A 
ATOM     27  C   UNL A   1      30.499  27.178  22.999  1.00  0.00     0.028 A 
ATOM     28  C   UNL A   1      32.054  27.762  24.773  1.00  0.00     0.028 A 
ATOM     29  C   UNL A   1      29.978  28.472  23.035  1.00  0.00     0.002 A 
ATOM     30  C   UNL A   1      31.564  29.070  24.762  1.00  0.00     0.002 A 
ATOM     31  C   UNL A   1      30.517  29.419  23.908  1.00  0.00     0.000 A 
ENDBRANCH  20  26
ENDBRANCH  14  17
ENDBRANCH   6  11
ENDBRANCH   3   5
ENDBRANCH   2   3
ENDBRANCH   1   2
BRANCH   1  32
ATOM     32  C   UNL A   1      44.078  20.726  25.275  1.00  0.00     0.275 C 
BRANCH  32  33
ATOM     33  O   UNL A   1      43.566  21.797  26.067  1.00  0.00    -0.458 OA
BRANCH  33  34
ATOM     34  C   UNL A   1      43.082  22.844  25.362  1.00  0.00     0.338 C 
ATOM     35  O   UNL A   1      43.249  23.083  24.176  1.00  0.00    -0.246 OA
BRANCH  34  36
ATOM     36  C   UNL A   1      42.477  23.808  26.281  1.00  0.00     0.060 A 
ATOM     37  C   UNL A   1      41.823  24.911  25.721  1.00  0.00     0.016 A 
ATOM     38  C   UNL A   1      42.828  23.763  27.637  1.00  0.00     0.016 A 
ATOM     39  C   UNL A   1      41.674  26.049  26.486  1.00  0.00     0.010 A 
ATOM     40  C   UNL A   1      42.692  24.901  28.393  1.00  0.00     0.010 A 
ATOM     41  C   UNL A   1      42.187  26.051  27.784  1.00  0.00    -0.014 A 
BRANCH  41  42
ATOM     42  C   UNL A   1      42.152  27.287  28.541  1.00  0.00     0.031 A 
ATOM     43  C   UNL A   1      43.278  28.212  28.259  1.00  0.00     0.074 A 
ATOM     44  C   UNL A   1      41.065  27.609  29.269  1.00  0.00     0.049 A 
ATOM     45  N   UNL A   1      44.050  28.827  29.095  1.00  0.00    -0.248 NA
ATOM     46  C   UNL A   1      43.644  28.415  26.845  1.00  0.00     0.031 C 
ATOM     47  C   UNL A   1      39.788  26.887  29.339  1.00  0.00     0.029 A 
ATOM     48  N   UNL A   1      40.819  28.733  29.994  1.00  0.00    -0.354 N 
ATOM     49  C   UNL A   1      44.893  29.618  28.317  1.00  0.00     0.074 A 
ATOM     50  C   UNL A   1      44.695  29.224  26.949  1.00  0.00     0.031 C 
ATOM     51  C   UNL A   1      38.846  27.702  29.860  1.00  0.00     0.029 A 
ATOM     52  C   UNL A   1      39.477  28.949  30.261  1.00  0.00     0.049 A 
ATOM     53  H   UNL A   1      41.532  29.338  30.302  1.00  0.00     0.167 HD
ATOM     54  C   UNL A   1      45.522  30.706  28.831  1.00  0.00     0.037 A 
ATOM     55  C   UNL A   1      38.918  30.111  30.679  1.00  0.00     0.037 A 
ATOM     56  C   UNL A   1      45.668  30.608  30.257  1.00  0.00     0.049 A 
ATOM     57  C   UNL A   1      40.010  30.974  31.197  1.00  0.00     0.074 A 
ATOM     58  C   UNL A   1      46.298  29.711  31.099  1.00  0.00     0.029 A 
ATOM     59  N   UNL A   1      44.826  31.337  31.058  1.00  0.00    -0.354 N 
ATOM     60  N   UNL A   1      40.686  30.735  32.286  1.00  0.00    -0.248 NA
ATOM     61  C   UNL A   1      40.643  31.894  30.261  1.00  0.00     0.031 C 
ATOM     62  C   UNL A   1      45.455  29.624  32.246  1.00  0.00     0.029 A 
ATOM     63  C   UNL A   1      44.386  30.498  32.049  1.00  0.00     0.049 A 
ATOM     64  H   UNL A   1      44.583  32.284  30.943  1.00  0.00     0.167 HD
ATOM     65  C   UNL A   1      41.983  31.128  31.992  1.00  0.00     0.074 A 
ATOM     66  C   UNL A   1      41.876  31.924  30.774  1.00  0.00     0.031 C 
ATOM     67  C   UNL A   1      43.053  30.537  32.600  1.00  0.00     0.037 A 
BRANCH  54  68
ATOM     68  C   UNL A   1      45.672  32.002  28.074  1.00  0.00     0.064 A 
ATOM     69  C   UNL A   1      44.518  32.721  27.707  1.00  0.00     0.173 A 
ATOM     70  C   UNL A   1      46.869  32.407  27.439  1.00  0.00     0.173 A 
ATOM     71  F   UNL A   1      43.323  32.408  28.229  1.00  0.00    -0.203 F 
ATOM     72  C   UNL A   1      44.551  33.713  26.723  1.00  0.00     0.198 A 
ATOM     73  C   UNL A   1      46.906  33.434  26.501  1.00  0.00     0.198 A 
ATOM     74  F   UNL A   1      48.026  31.755  27.613  1.00  0.00    -0.203 F 
ATOM     75  F   UNL A   1      43.408  34.278  26.313  1.00  0.00    -0.200 F 
ATOM     76  C   UNL A   1      45.743  34.064  26.116  1.00  0.00     0.200 A 
ATOM     77  F   UNL A   1      48.070  33.745  25.912  1.00  0.00    -0.200 F 
ATOM     78  F   UNL A   1      45.766  34.968  25.129  1.00  0.00    -0.200 F 
ENDBRANCH  54  68
BRANCH  55  79
ATOM     79  C   UNL A   1      37.571  30.640  30.361  1.00  0.00     0.064 A 
ATOM     80  C   UNL A   1      36.700  31.060  31.378  1.00  0.00     0.173 A 
ATOM     81  C   UNL A   1      37.205  30.979  29.043  1.00  0.00     0.173 A 
ATOM     82  F   UNL A   1      36.999  30.823  32.663  1.00  0.00    -0.203 F 
ATOM     83  C   UNL A   1      35.540  31.790  31.094  1.00  0.00     0.198 A 
ATOM     84  C   UNL A   1      36.040  31.695  28.760  1.00  0.00     0.198 A 
ATOM     85  F   UNL A   1      38.014  30.707  28.010  1.00  0.00    -0.203 F 
ATOM     86  F   UNL A   1      34.762  32.227  32.095  1.00  0.00    -0.200 F 
ATOM     87  C   UNL A   1      35.215  32.112  29.786  1.00  0.00     0.200 A 
ATOM     88  F   UNL A   1      35.759  32.028  27.493  1.00  0.00    -0.200 F 
ATOM     89  F   UNL A   1      34.132  32.855  29.518  1.00  0.00    -0.200 F 
ENDBRANCH  55  79
BRANCH  67  90
ATOM     90  C   UNL A   1      42.780  29.644  33.776  1.00  0.00     0.064 A 
ATOM     91  C   UNL A   1      42.388  28.299  33.660  1.00  0.00     0.173 A 
ATOM     92  C   UNL A   1      43.067  30.122  35.061  1.00  0.00     0.173 A 
ATOM     93  F   UNL A   1      42.200  27.737  32.460  1.00  0.00    -0.203 F 
ATOM     94  C   UNL A   1      42.241  27.488  34.784  1.00  0.00     0.198 A 
ATOM     95  C   UNL A   1      42.958  29.299  36.178  1.00  0.00     0.198 A 
ATOM     96  F   UNL A   1      43.506  31.380  35.228  1.00  0.00    -0.203 F 
ATOM     97  F   UNL A   1      41.850  26.212  34.646  1.00  0.00    -0.200 F 
ATOM     98  C   UNL A   1      42.533  27.987  36.041  1.00  0.00     0.200 A 
ATOM     99  F   UNL A   1      43.291  29.770  37.388  1.00  0.00    -0.200 F 
ATOM    100  F   UNL A   1      42.433  27.195  37.118  1.00  0.00    -0.200 F 
ENDBRANCH  67  90
ENDBRANCH  41  42
ENDBRANCH  34  36
ENDBRANCH  33  34
ENDBRANCH  32  33
ENDBRANCH   1  32
TORSDOF 16
ENDMDL
MODEL 3
REMARK VINA RESULT:     -12.7      5.076     10.195
REMARK SMILES Cc1c(-c2nn(-c3ccccc3)cc2/C=N/O)nnn1-c1ccc(C(=O)OCCOC(=O)c2ccc(-c3c4nc(c(-c5c(F)c(F)c(F)c(F)c5F)c5ccc([nH]5)c(-c5c(F)c(F)c(F)c(F)c5F)c5nc(c(-c6c(F)c(F)c(F)c(F)c6F)c6ccc3[nH]6)C=C5)C=C4)cc2)cc1
REMARK SMILES IDX 28 1 27 2 25 3 26 4 24 5 21 6 22 7 97 8 23 9 96 10 20 11
REMARK SMILES IDX 1 12 2 13 3 14 18 15 19 16 4 17 5 18 14 19 6 20 13 21 15 22
REMARK SMILES IDX 16 23 17 24 7 26 8 27 12 28 9 29 11 30 10 31 29 32 30 33
REMARK SMILES IDX 31 34 32 35 33 36 34 37 95 38 35 39 94 40 36 41 37 42 38 43
REMARK SMILES IDX 88 44 39 45 93 46 87 47 89 48 40 49 92 50 86 51 85 52 41 54
REMARK SMILES IDX 73 55 53 56 72 57 54 58 57 59 71 60 90 61 55 62 56 63 70 65
REMARK SMILES IDX 91 66 58 67 42 68 43 69 51 70 44 71 45 72 49 73 52 74 46 75
REMARK SMILES IDX 47 76 50 77 48 78 74 79 75 80 83 81 76 82 77 83 81 84 84 85
REMARK SMILES IDX 78 86 79 87 82 88 80 89 59 90 60 91 68 92 61 93 62 94 66 95
REMARK SMILES IDX 69 96 63 97 64 98 67 99 65 100
REMARK H PARENT 17 25 89 53 57 64
REMARK Flexibility Score: inf
ROOT
ATOM      1  C   UNL A   1      33.151  36.039  28.952  1.00  0.00     0.275 C 
ENDROOT
BRANCH   1   2
ATOM      2  O   UNL A   1      32.924  34.688  28.518  1.00  0.00    -0.458 OA
BRANCH   2   3
ATOM      3  C   UNL A   1      34.040  33.910  28.412  1.00  0.00     0.338 C 
ATOM      4  O   UNL A   1      35.157  34.205  28.763  1.00  0.00    -0.246 OA
BRANCH   3   5
ATOM      5  C   UNL A   1      33.681  32.567  27.873  1.00  0.00     0.060 A 
ATOM      6  C   UNL A   1      32.830  30.044  27.038  1.00  0.00     0.067 A 
ATOM      7  C   UNL A   1      32.009  31.155  26.815  1.00  0.00     0.029 A 
ATOM      8  C   UNL A   1      34.115  30.212  27.570  1.00  0.00     0.029 A 
ATOM      9  C   UNL A   1      32.428  32.412  27.262  1.00  0.00     0.018 A 
ATOM     10  C   UNL A   1      34.545  31.475  27.976  1.00  0.00     0.018 A 
BRANCH   6  11
ATOM     11  N   UNL A   1      32.318  28.747  26.797  1.00  0.00    -0.217 N 
ATOM     12  C   UNL A   1      33.683  28.121  24.739  1.00  0.00     0.069 C 
ATOM     13  C   UNL A   1      32.625  27.893  25.752  1.00  0.00     0.071 A 
ATOM     14  C   UNL A   1      31.850  26.779  26.013  1.00  0.00     0.137 A 
ATOM     15  N   UNL A   1      31.182  26.933  27.190  1.00  0.00    -0.128 NA
ATOM     16  N   UNL A   1      31.527  28.114  27.697  1.00  0.00    -0.061 NA
BRANCH  14  17
ATOM     17  C   UNL A   1      31.808  25.538  25.249  1.00  0.00     0.124 A 
ATOM     18  N   UNL A   1      32.334  24.400  25.721  1.00  0.00    -0.165 NA
ATOM     19  C   UNL A   1      31.353  25.413  23.916  1.00  0.00     0.044 A 
ATOM     20  N   UNL A   1      32.344  23.570  24.656  1.00  0.00    -0.240 N 
ATOM     21  C   UNL A   1      31.767  24.147  23.548  1.00  0.00     0.125 A 
BRANCH  19  22
ATOM     22  C   UNL A   1      30.645  26.328  23.057  1.00  0.00     0.166 C 
ATOM     23  N   UNL A   1      31.293  27.231  22.399  1.00  0.00    -0.097 NA
BRANCH  23  24
ATOM     24  O   UNL A   1      30.386  28.018  21.681  1.00  0.00    -0.411 OA
ATOM     25  H   UNL A   1      29.606  28.329  22.095  1.00  0.00     0.330 HD
ENDBRANCH  23  24
ENDBRANCH  19  22
BRANCH  20  26
ATOM     26  C   UNL A   1      32.939  22.290  24.737  1.00  0.00     0.065 A 
ATOM     27  C   UNL A   1      34.335  22.180  24.704  1.00  0.00     0.028 A 
ATOM     28  C   UNL A   1      32.140  21.144  24.838  1.00  0.00     0.028 A 
ATOM     29  C   UNL A   1      34.930  20.923  24.810  1.00  0.00     0.002 A 
ATOM     30  C   UNL A   1      32.745  19.886  24.886  1.00  0.00     0.002 A 
ATOM     31  C   UNL A   1      34.137  19.777  24.889  1.00  0.00     0.000 A 
ENDBRANCH  20  26
ENDBRANCH  14  17
ENDBRANCH   6  11
ENDBRANCH   3   5
ENDBRANCH   2   3
ENDBRANCH   1   2
BRANCH   1  32
ATOM     32  C   UNL A   1      32.752  36.233  30.409  1.00  0.00     0.275 C 
BRANCH  32  33
ATOM     33  O   UNL A   1      32.933  35.037  31.167  1.00  0.00    -0.458 OA
BRANCH  33  34
ATOM     34  C   UNL A   1      33.260  35.230  32.464  1.00  0.00     0.338 C 
ATOM     35  O   UNL A   1      32.778  36.040  33.240  1.00  0.00    -0.246 OA
BRANCH  34  36
ATOM     36  C   UNL A   1      34.462  34.456  32.781  1.00  0.00     0.060 A 
ATOM     37  C   UNL A   1      35.573  35.157  33.262  1.00  0.00     0.016 A 
ATOM     38  C   UNL A   1      34.559  33.138  32.315  1.00  0.00     0.016 A 
ATOM     39  C   UNL A   1      36.823  34.593  33.114  1.00  0.00     0.010 A 
ATOM     40  C   UNL A   1      35.805  32.584  32.156  1.00  0.00     0.010 A 
ATOM     41  C   UNL A   1      36.924  33.350  32.487  1.00  0.00    -0.014 A 
BRANCH  41  42
ATOM     42  C   UNL A   1      38.244  32.818  32.211  1.00  0.00     0.031 A 
ATOM     43  C   UNL A   1      39.137  32.746  33.394  1.00  0.00     0.074 A 
ATOM     44  C   UNL A   1      38.517  32.262  31.015  1.00  0.00     0.049 A 
ATOM     45  N   UNL A   1      40.359  33.151  33.512  1.00  0.00    -0.248 NA
ATOM     46  C   UNL A   1      38.556  32.220  34.643  1.00  0.00     0.031 C 
ATOM     47  C   UNL A   1      37.584  32.015  29.908  1.00  0.00     0.029 A 
ATOM     48  N   UNL A   1      39.661  31.665  30.586  1.00  0.00    -0.354 N 
ATOM     49  C   UNL A   1      40.754  32.787  34.798  1.00  0.00     0.074 A 
ATOM     50  C   UNL A   1      39.573  32.347  35.491  1.00  0.00     0.031 C 
ATOM     51  C   UNL A   1      38.133  31.123  29.055  1.00  0.00     0.029 A 
ATOM     52  C   UNL A   1      39.487  30.830  29.494  1.00  0.00     0.049 A 
ATOM     53  H   UNL A   1      40.536  31.815  31.013  1.00  0.00     0.167 HD
ATOM     54  C   UNL A   1      42.064  32.648  35.128  1.00  0.00     0.037 A 
ATOM     55  C   UNL A   1      40.359  29.889  29.056  1.00  0.00     0.037 A 
ATOM     56  C   UNL A   1      42.912  33.414  34.256  1.00  0.00     0.049 A 
ATOM     57  C   UNL A   1      41.681  30.181  29.667  1.00  0.00     0.074 A 
ATOM     58  C   UNL A   1      43.018  34.759  33.956  1.00  0.00     0.029 A 
ATOM     59  N   UNL A   1      43.607  32.760  33.270  1.00  0.00    -0.354 N 
ATOM     60  N   UNL A   1      42.418  31.216  29.370  1.00  0.00    -0.248 NA
ATOM     61  C   UNL A   1      41.995  29.537  30.935  1.00  0.00     0.031 C 
ATOM     62  C   UNL A   1      43.344  34.805  32.569  1.00  0.00     0.029 A 
ATOM     63  C   UNL A   1      43.454  33.490  32.119  1.00  0.00     0.049 A 
ATOM     64  H   UNL A   1      44.118  31.925  33.370  1.00  0.00     0.167 HD
ATOM     65  C   UNL A   1      42.990  31.600  30.574  1.00  0.00     0.074 A 
ATOM     66  C   UNL A   1      42.776  30.475  31.477  1.00  0.00     0.031 C 
ATOM     67  C   UNL A   1      43.330  32.901  30.808  1.00  0.00     0.037 A 
BRANCH  54  68
ATOM     68  C   UNL A   1      42.576  31.536  36.009  1.00  0.00     0.064 A 
ATOM     69  C   UNL A   1      43.407  31.851  37.101  1.00  0.00     0.173 A 
ATOM     70  C   UNL A   1      42.532  30.169  35.652  1.00  0.00     0.173 A 
ATOM     71  F   UNL A   1      43.543  33.120  37.513  1.00  0.00    -0.203 F 
ATOM     72  C   UNL A   1      44.191  30.883  37.732  1.00  0.00     0.198 A 
ATOM     73  C   UNL A   1      43.273  29.198  36.320  1.00  0.00     0.198 A 
ATOM     74  F   UNL A   1      41.865  29.731  34.576  1.00  0.00    -0.203 F 
ATOM     75  F   UNL A   1      45.065  31.250  38.679  1.00  0.00    -0.200 F 
ATOM     76  C   UNL A   1      44.129  29.558  37.337  1.00  0.00     0.200 A 
ATOM     77  F   UNL A   1      43.211  27.923  35.908  1.00  0.00    -0.200 F 
ATOM     78  F   UNL A   1      44.928  28.641  37.897  1.00  0.00    -0.200 F 
ENDBRANCH  54  68
BRANCH  55  79
ATOM     79  C   UNL A   1      40.050  28.588  28.417  1.00  0.00     0.064 A 
ATOM     80  C   UNL A   1      40.579  28.254  27.161  1.00  0.00     0.173 A 
ATOM     81  C   UNL A   1      39.434  27.543  29.134  1.00  0.00     0.173 A 
ATOM     82  F   UNL A   1      41.226  29.178  26.435  1.00  0.00    -0.203 F 
ATOM     83  C   UNL A   1      40.510  26.950  26.660  1.00  0.00     0.198 A 
ATOM     84  C   UNL A   1      39.353  26.245  28.627  1.00  0.00     0.198 A 
ATOM     85  F   UNL A   1      38.981  27.734  30.381  1.00  0.00    -0.203 F 
ATOM     86  F   UNL A   1      41.080  26.654  25.482  1.00  0.00    -0.200 F 
ATOM     87  C   UNL A   1      39.903  25.945  27.396  1.00  0.00     0.200 A 
ATOM     88  F   UNL A   1      38.794  25.278  29.367  1.00  0.00    -0.200 F 
ATOM     89  F   UNL A   1      39.883  24.686  26.939  1.00  0.00    -0.200 F 
ENDBRANCH  55  79
BRANCH  67  90
ATOM     90  C   UNL A   1      43.312  33.847  29.641  1.00  0.00     0.064 A 
ATOM     91  C   UNL A   1      42.188  34.603  29.267  1.00  0.00     0.173 A 
ATOM     92  C   UNL A   1      44.514  34.105  28.969  1.00  0.00     0.173 A 
ATOM     93  F   UNL A   1      41.032  34.494  29.931  1.00  0.00    -0.203 F 
ATOM     94  C   UNL A   1      42.255  35.537  28.235  1.00  0.00     0.198 A 
ATOM     95  C   UNL A   1      44.588  35.066  27.965  1.00  0.00     0.198 A 
ATOM     96  F   UNL A   1      45.635  33.457  29.324  1.00  0.00    -0.203 F 
ATOM     97  F   UNL A   1      41.163  36.235  27.888  1.00  0.00    -0.200 F 
ATOM     98  C   UNL A   1      43.457  35.772  27.590  1.00  0.00     0.200 A 
ATOM     99  F   UNL A   1      45.764  35.327  27.378  1.00  0.00    -0.200 F 
ATOM    100  F   UNL A   1      43.531  36.701  26.625  1.00  0.00    -0.200 F 
ENDBRANCH  67  90
ENDBRANCH  41  42
ENDBRANCH  34  36
ENDBRANCH  33  34
ENDBRANCH  32  33
ENDBRANCH   1  32
TORSDOF 16
ENDMDL
