MODEL 1
REMARK VINA RESULT:     -12.3      0.000      0.000
REMARK SMILES O=C(OCCOC(=O)[C@H]1CC2(CC[NH+](S(=O)(=O)N3CCOCC3)CC2)C[NH2+]1)c1ccc(-c2c3nc(c(-c4c(F)c(F)c(F)c(F)c4F)c4ccc([nH]4)c(-c4c(F)c(F)c(F)c(F)c4F)c4nc(c(-c5c(F)c(F)c(F)c(F)c5F)c5ccc2[nH]5)C=C4)C=C3)cc1
REMARK SMILES IDX 4 1 3 2 2 3 1 4 28 5 29 6 90 7 30 8 89 9 31 10 32 11 33 12
REMARK SMILES IDX 83 13 34 14 88 15 82 16 84 17 35 18 87 19 81 20 80 21 36 23
REMARK SMILES IDX 68 24 48 25 67 26 49 27 52 28 66 29 85 30 50 31 51 32 65 34
REMARK SMILES IDX 86 35 53 36 37 37 38 38 46 39 39 40 40 41 44 42 47 43 41 44
REMARK SMILES IDX 42 45 45 46 43 47 69 48 70 49 78 50 71 51 72 52 76 53 79 54
REMARK SMILES IDX 73 55 74 56 77 57 75 58 54 59 55 60 63 61 56 62 57 63 61 64
REMARK SMILES IDX 64 65 58 66 59 67 62 68 60 69 5 70 6 71 7 72 8 73 9 74 10 75
REMARK SMILES IDX 27 76 11 77 26 78 12 81 25 82 13 83 24 84 14 85 15 87 16 88
REMARK SMILES IDX 17 89 18 90 19 91 23 92 20 93 22 94 21 95
REMARK H PARENT 84 22 52 33 27 79 27 80 14 86
REMARK Flexibility Score: inf
ROOT
ATOM      1  C   UNL A   1      33.102  36.072  29.550  1.00  0.00     0.275 C 
ENDROOT
BRANCH   1   2
ATOM      2  O   UNL A   1      32.319  36.169  30.745  1.00  0.00    -0.458 OA
BRANCH   2   3
ATOM      3  C   UNL A   1      32.712  36.021  32.029  1.00  0.00     0.338 C 
ATOM      4  O   UNL A   1      32.193  36.747  32.879  1.00  0.00    -0.246 OA
BRANCH   3   5
ATOM      5  C   UNL A   1      33.835  35.127  32.474  1.00  0.00     0.060 A 
ATOM      6  C   UNL A   1      33.761  33.800  32.908  1.00  0.00     0.016 A 
ATOM      7  C   UNL A   1      35.113  35.695  32.383  1.00  0.00     0.016 A 
ATOM      8  C   UNL A   1      34.911  33.032  33.126  1.00  0.00     0.010 A 
ATOM      9  C   UNL A   1      36.264  34.923  32.543  1.00  0.00     0.010 A 
ATOM     10  C   UNL A   1      36.172  33.575  32.908  1.00  0.00    -0.014 A 
BRANCH  10  11
ATOM     11  C   UNL A   1      37.399  32.801  33.203  1.00  0.00     0.031 A 
ATOM     12  C   UNL A   1      38.161  33.169  34.440  1.00  0.00     0.074 A 
ATOM     13  C   UNL A   1      37.826  31.812  32.394  1.00  0.00     0.049 A 
ATOM     14  N   UNL A   1      39.274  32.673  34.906  1.00  0.00    -0.248 NA
ATOM     15  C   UNL A   1      37.590  34.249  35.265  1.00  0.00     0.031 C 
ATOM     16  C   UNL A   1      37.136  31.337  31.197  1.00  0.00     0.029 A 
ATOM     17  N   UNL A   1      38.955  31.032  32.442  1.00  0.00    -0.354 N 
ATOM     18  C   UNL A   1      39.517  33.367  36.081  1.00  0.00     0.074 A 
ATOM     19  C   UNL A   1      38.515  34.399  36.194  1.00  0.00     0.031 C 
ATOM     20  C   UNL A   1      37.880  30.400  30.586  1.00  0.00     0.029 A 
ATOM     21  C   UNL A   1      39.088  30.180  31.369  1.00  0.00     0.049 A 
ATOM     22  H   UNL A   1      39.610  31.079  33.176  1.00  0.00     0.167 HD
ATOM     23  C   UNL A   1      40.453  33.117  37.023  1.00  0.00     0.037 A 
ATOM     24  C   UNL A   1      40.069  29.308  31.071  1.00  0.00     0.037 A 
ATOM     25  C   UNL A   1      41.432  32.077  36.899  1.00  0.00     0.049 A 
ATOM     26  C   UNL A   1      41.168  29.115  32.084  1.00  0.00     0.074 A 
ATOM     27  C   UNL A   1      42.421  31.710  37.789  1.00  0.00     0.029 A 
ATOM     28  N   UNL A   1      41.544  31.240  35.795  1.00  0.00    -0.354 N 
ATOM     29  N   UNL A   1      41.341  29.717  33.237  1.00  0.00    -0.248 NA
ATOM     30  C   UNL A   1      42.176  28.090  31.784  1.00  0.00     0.031 C 
ATOM     31  C   UNL A   1      43.171  30.688  37.196  1.00  0.00     0.029 A 
ATOM     32  C   UNL A   1      42.608  30.374  35.968  1.00  0.00     0.049 A 
ATOM     33  H   UNL A   1      40.954  31.261  35.007  1.00  0.00     0.167 HD
ATOM     34  C   UNL A   1      42.440  29.109  33.826  1.00  0.00     0.074 A 
ATOM     35  C   UNL A   1      42.891  28.088  32.901  1.00  0.00     0.031 C 
ATOM     36  C   UNL A   1      43.017  29.360  35.027  1.00  0.00     0.037 A 
BRANCH  23  37
ATOM     37  C   UNL A   1      40.431  33.991  38.240  1.00  0.00     0.064 A 
ATOM     38  C   UNL A   1      39.598  33.703  39.337  1.00  0.00     0.173 A 
ATOM     39  C   UNL A   1      41.193  35.165  38.286  1.00  0.00     0.173 A 
ATOM     40  F   UNL A   1      38.824  32.607  39.329  1.00  0.00    -0.203 F 
ATOM     41  C   UNL A   1      39.492  34.587  40.407  1.00  0.00     0.198 A 
ATOM     42  C   UNL A   1      41.111  36.027  39.376  1.00  0.00     0.198 A 
ATOM     43  F   UNL A   1      41.996  35.491  37.264  1.00  0.00    -0.203 F 
ATOM     44  F   UNL A   1      38.623  34.336  41.397  1.00  0.00    -0.200 F 
ATOM     45  C   UNL A   1      40.250  35.746  40.427  1.00  0.00     0.200 A 
ATOM     46  F   UNL A   1      41.847  37.147  39.397  1.00  0.00    -0.200 F 
ATOM     47  F   UNL A   1      40.137  36.604  41.450  1.00  0.00    -0.200 F 
ENDBRANCH  23  37
BRANCH  24  48
ATOM     48  C   UNL A   1      40.031  28.512  29.813  1.00  0.00     0.064 A 
ATOM     49  C   UNL A   1      39.426  27.246  29.770  1.00  0.00     0.173 A 
ATOM     50  C   UNL A   1      40.619  28.985  28.631  1.00  0.00     0.173 A 
ATOM     51  F   UNL A   1      38.856  26.741  30.873  1.00  0.00    -0.203 F 
ATOM     52  C   UNL A   1      39.446  26.472  28.610  1.00  0.00     0.198 A 
ATOM     53  C   UNL A   1      40.618  28.220  27.463  1.00  0.00     0.198 A 
ATOM     54  F   UNL A   1      41.201  30.193  28.607  1.00  0.00    -0.203 F 
ATOM     55  F   UNL A   1      38.906  25.245  28.616  1.00  0.00    -0.200 F 
ATOM     56  C   UNL A   1      40.041  26.960  27.456  1.00  0.00     0.200 A 
ATOM     57  F   UNL A   1      41.182  28.701  26.346  1.00  0.00    -0.200 F 
ATOM     58  F   UNL A   1      40.064  26.213  26.344  1.00  0.00    -0.200 F 
ENDBRANCH  24  48
BRANCH  36  59
ATOM     59  C   UNL A   1      44.167  28.487  35.428  1.00  0.00     0.064 A 
ATOM     60  C   UNL A   1      45.494  28.831  35.133  1.00  0.00     0.173 A 
ATOM     61  C   UNL A   1      43.938  27.324  36.182  1.00  0.00     0.173 A 
ATOM     62  F   UNL A   1      45.760  29.925  34.404  1.00  0.00    -0.203 F 
ATOM     63  C   UNL A   1      46.548  28.030  35.557  1.00  0.00     0.198 A 
ATOM     64  C   UNL A   1      44.997  26.548  36.637  1.00  0.00     0.198 A 
ATOM     65  F   UNL A   1      42.687  26.957  36.497  1.00  0.00    -0.203 F 
ATOM     66  F   UNL A   1      47.806  28.351  35.222  1.00  0.00    -0.200 F 
ATOM     67  C   UNL A   1      46.301  26.896  36.318  1.00  0.00     0.200 A 
ATOM     68  F   UNL A   1      44.757  25.465  37.390  1.00  0.00    -0.200 F 
ATOM     69  F   UNL A   1      47.320  26.138  36.743  1.00  0.00    -0.200 F 
ENDBRANCH  36  59
ENDBRANCH  10  11
ENDBRANCH   3   5
ENDBRANCH   2   3
ENDBRANCH   1   2
BRANCH   1  70
ATOM     70  C   UNL A   1      32.932  34.749  28.795  1.00  0.00     0.274 C 
BRANCH  70  71
ATOM     71  O   UNL A   1      33.805  33.690  29.230  1.00  0.00    -0.458 OA
BRANCH  71  72
ATOM     72  C   UNL A   1      34.609  33.139  28.272  1.00  0.00     0.364 C 
ATOM     73  O   UNL A   1      35.292  33.795  27.492  1.00  0.00    -0.245 OA
BRANCH  72  74
ATOM     74  C   UNL A   1      34.552  31.603  28.219  1.00  0.00     0.294 C 
ATOM     75  C   UNL A   1      33.357  31.101  27.426  1.00  0.00     0.090 C 
ATOM     76  N   UNL A   1      35.678  30.986  27.501  1.00  0.00    -0.334 N 
ATOM     77  C   UNL A   1      33.734  29.670  26.975  1.00  0.00     0.036 C 
ATOM     78  C   UNL A   1      35.264  29.630  27.137  1.00  0.00     0.268 C 
ATOM     79  H   UNL A   1      36.500  30.952  28.102  1.00  0.00     0.347 HD
ATOM     80  H   UNL A   1      35.918  31.528  26.670  1.00  0.00     0.347 HD
ATOM     81  C   UNL A   1      33.302  29.447  25.518  1.00  0.00     0.076 C 
ATOM     82  C   UNL A   1      33.103  28.568  27.859  1.00  0.00     0.076 C 
ATOM     83  C   UNL A   1      31.801  29.295  25.399  1.00  0.00     0.280 C 
ATOM     84  C   UNL A   1      31.609  28.342  27.613  1.00  0.00     0.280 C 
ATOM     85  N   UNL A   1      31.316  28.141  26.167  1.00  0.00    -0.215 N 
ATOM     86  H   UNL A   1      30.306  28.149  26.020  1.00  0.00     0.367 HD
BRANCH  85  87
ATOM     87  S   UNL A   1      31.569  26.574  25.574  1.00  0.00     0.371 S 
ATOM     88  O   UNL A   1      32.991  26.354  25.434  1.00  0.00    -0.157 OA
ATOM     89  O   UNL A   1      30.763  25.690  26.381  1.00  0.00    -0.157 OA
BRANCH  87  90
ATOM     90  N   UNL A   1      30.887  26.644  24.066  1.00  0.00    -0.151 NA
ATOM     91  C   UNL A   1      29.432  26.759  23.898  1.00  0.00     0.136 C 
ATOM     92  C   UNL A   1      31.650  26.860  22.822  1.00  0.00     0.136 C 
ATOM     93  C   UNL A   1      29.121  28.124  23.289  1.00  0.00     0.177 C 
ATOM     94  C   UNL A   1      31.177  28.116  22.067  1.00  0.00     0.177 C 
ATOM     95  O   UNL A   1      29.751  28.260  22.004  1.00  0.00    -0.379 OA
ENDBRANCH  87  90
ENDBRANCH  85  87
ENDBRANCH  72  74
ENDBRANCH  71  72
ENDBRANCH  70  71
ENDBRANCH   1  70
TORSDOF 13
ENDMDL
MODEL 2
REMARK VINA RESULT:     -12.1      7.151     12.607
REMARK SMILES O=C(OCCOC(=O)[C@H]1CC2(CC[NH+](S(=O)(=O)N3CCOCC3)CC2)C[NH2+]1)c1ccc(-c2c3nc(c(-c4c(F)c(F)c(F)c(F)c4F)c4ccc([nH]4)c(-c4c(F)c(F)c(F)c(F)c4F)c4nc(c(-c5c(F)c(F)c(F)c(F)c5F)c5ccc2[nH]5)C=C4)C=C3)cc1
REMARK SMILES IDX 4 1 3 2 2 3 1 4 28 5 29 6 90 7 30 8 89 9 31 10 32 11 33 12
REMARK SMILES IDX 83 13 34 14 88 15 82 16 84 17 35 18 87 19 81 20 80 21 36 23
REMARK SMILES IDX 68 24 48 25 67 26 49 27 52 28 66 29 85 30 50 31 51 32 65 34
REMARK SMILES IDX 86 35 53 36 37 37 38 38 46 39 39 40 40 41 44 42 47 43 41 44
REMARK SMILES IDX 42 45 45 46 43 47 69 48 70 49 78 50 71 51 72 52 76 53 79 54
REMARK SMILES IDX 73 55 74 56 77 57 75 58 54 59 55 60 63 61 56 62 57 63 61 64
REMARK SMILES IDX 64 65 58 66 59 67 62 68 60 69 5 70 6 71 7 72 8 73 9 74 10 75
REMARK SMILES IDX 27 76 11 77 26 78 12 81 25 82 13 83 24 84 14 85 15 87 16 88
REMARK SMILES IDX 17 89 18 90 19 91 23 92 20 93 22 94 21 95
REMARK H PARENT 84 22 52 33 27 79 27 80 14 86
REMARK Flexibility Score: inf
ROOT
ATOM      1  C   UNL A   1      42.810  18.520  25.938  1.00  0.00     0.275 C 
ENDROOT
BRANCH   1   2
ATOM      2  O   UNL A   1      43.476  18.757  24.692  1.00  0.00    -0.458 OA
BRANCH   2   3
ATOM      3  C   UNL A   1      44.609  19.454  24.458  1.00  0.00     0.338 C 
ATOM      4  O   UNL A   1      45.607  18.828  24.097  1.00  0.00    -0.246 OA
BRANCH   3   5
ATOM      5  C   UNL A   1      44.774  20.922  24.734  1.00  0.00     0.060 A 
ATOM      6  C   UNL A   1      44.483  21.997  23.889  1.00  0.00     0.016 A 
ATOM      7  C   UNL A   1      45.223  21.232  26.025  1.00  0.00     0.016 A 
ATOM      8  C   UNL A   1      44.522  23.321  24.344  1.00  0.00     0.010 A 
ATOM      9  C   UNL A   1      45.210  22.542  26.504  1.00  0.00     0.010 A 
ATOM     10  C   UNL A   1      44.848  23.602  25.665  1.00  0.00    -0.014 A 
BRANCH  10  11
ATOM     11  C   UNL A   1      44.964  24.999  26.143  1.00  0.00     0.031 A 
ATOM     12  C   UNL A   1      46.328  25.619  26.126  1.00  0.00     0.074 A 
ATOM     13  C   UNL A   1      43.894  25.689  26.586  1.00  0.00     0.049 A 
ATOM     14  N   UNL A   1      46.705  26.805  26.517  1.00  0.00    -0.248 NA
ATOM     15  C   UNL A   1      47.422  24.782  25.599  1.00  0.00     0.031 C 
ATOM     16  C   UNL A   1      42.516  25.203  26.597  1.00  0.00     0.029 A 
ATOM     17  N   UNL A   1      43.794  26.946  27.131  1.00  0.00    -0.354 N 
ATOM     18  C   UNL A   1      48.066  26.856  26.262  1.00  0.00     0.074 A 
ATOM     19  C   UNL A   1      48.475  25.550  25.805  1.00  0.00     0.031 C 
ATOM     20  C   UNL A   1      41.719  26.114  27.179  1.00  0.00     0.029 A 
ATOM     21  C   UNL A   1      42.525  27.269  27.552  1.00  0.00     0.049 A 
ATOM     22  H   UNL A   1      44.561  27.558  27.212  1.00  0.00     0.167 HD
ATOM     23  C   UNL A   1      48.892  27.924  26.332  1.00  0.00     0.037 A 
ATOM     24  C   UNL A   1      42.069  28.384  28.154  1.00  0.00     0.037 A 
ATOM     25  C   UNL A   1      48.463  29.218  26.774  1.00  0.00     0.049 A 
ATOM     26  C   UNL A   1      43.030  29.532  28.324  1.00  0.00     0.074 A 
ATOM     27  C   UNL A   1      49.195  30.384  26.874  1.00  0.00     0.029 A 
ATOM     28  N   UNL A   1      47.173  29.508  27.204  1.00  0.00    -0.354 N 
ATOM     29  N   UNL A   1      44.299  29.600  27.998  1.00  0.00    -0.248 NA
ATOM     30  C   UNL A   1      42.488  30.773  28.894  1.00  0.00     0.031 C 
ATOM     31  C   UNL A   1      48.363  31.366  27.420  1.00  0.00     0.029 A 
ATOM     32  C   UNL A   1      47.095  30.831  27.599  1.00  0.00     0.049 A 
ATOM     33  H   UNL A   1      46.427  28.866  27.224  1.00  0.00     0.167 HD
ATOM     34  C   UNL A   1      44.694  30.902  28.268  1.00  0.00     0.074 A 
ATOM     35  C   UNL A   1      43.527  31.589  28.784  1.00  0.00     0.031 C 
ATOM     36  C   UNL A   1      45.908  31.482  28.095  1.00  0.00     0.037 A 
BRANCH  23  37
ATOM     37  C   UNL A   1      50.314  27.701  25.916  1.00  0.00     0.064 A 
ATOM     38  C   UNL A   1      50.686  27.651  24.561  1.00  0.00     0.173 A 
ATOM     39  C   UNL A   1      51.306  27.465  26.877  1.00  0.00     0.173 A 
ATOM     40  F   UNL A   1      49.767  27.839  23.601  1.00  0.00    -0.203 F 
ATOM     41  C   UNL A   1      51.984  27.319  24.185  1.00  0.00     0.198 A 
ATOM     42  C   UNL A   1      52.612  27.170  26.496  1.00  0.00     0.198 A 
ATOM     43  F   UNL A   1      51.004  27.492  28.183  1.00  0.00    -0.203 F 
ATOM     44  F   UNL A   1      52.291  27.186  22.887  1.00  0.00    -0.200 F 
ATOM     45  C   UNL A   1      52.947  27.082  25.153  1.00  0.00     0.200 A 
ATOM     46  F   UNL A   1      53.545  26.944  27.432  1.00  0.00    -0.200 F 
ATOM     47  F   UNL A   1      54.193  26.748  24.791  1.00  0.00    -0.200 F 
ENDBRANCH  23  37
BRANCH  24  48
ATOM     48  C   UNL A   1      40.644  28.500  28.574  1.00  0.00     0.064 A 
ATOM     49  C   UNL A   1      39.662  28.979  27.694  1.00  0.00     0.173 A 
ATOM     50  C   UNL A   1      40.236  28.160  29.873  1.00  0.00     0.173 A 
ATOM     51  F   UNL A   1      39.999  29.327  26.443  1.00  0.00    -0.203 F 
ATOM     52  C   UNL A   1      38.341  29.149  28.106  1.00  0.00     0.198 A 
ATOM     53  C   UNL A   1      38.908  28.308  30.277  1.00  0.00     0.198 A 
ATOM     54  F   UNL A   1      41.127  27.684  30.755  1.00  0.00    -0.203 F 
ATOM     55  F   UNL A   1      37.437  29.658  27.257  1.00  0.00    -0.200 F 
ATOM     56  C   UNL A   1      37.964  28.813  29.397  1.00  0.00     0.200 A 
ATOM     57  F   UNL A   1      38.545  27.968  31.522  1.00  0.00    -0.200 F 
ATOM     58  F   UNL A   1      36.694  28.982  29.793  1.00  0.00    -0.200 F 
ENDBRANCH  24  48
BRANCH  36  59
ATOM     59  C   UNL A   1      46.021  32.941  28.420  1.00  0.00     0.064 A 
ATOM     60  C   UNL A   1      45.765  33.933  27.464  1.00  0.00     0.173 A 
ATOM     61  C   UNL A   1      46.321  33.347  29.730  1.00  0.00     0.173 A 
ATOM     62  F   UNL A   1      45.487  33.592  26.196  1.00  0.00    -0.203 F 
ATOM     63  C   UNL A   1      45.828  35.280  27.801  1.00  0.00     0.198 A 
ATOM     64  C   UNL A   1      46.344  34.695  30.072  1.00  0.00     0.198 A 
ATOM     65  F   UNL A   1      46.565  32.435  30.684  1.00  0.00    -0.203 F 
ATOM     66  F   UNL A   1      45.628  36.214  26.860  1.00  0.00    -0.200 F 
ATOM     67  C   UNL A   1      46.106  35.660  29.107  1.00  0.00     0.200 A 
ATOM     68  F   UNL A   1      46.591  35.058  31.338  1.00  0.00    -0.200 F 
ATOM     69  F   UNL A   1      46.146  36.959  29.433  1.00  0.00    -0.200 F 
ENDBRANCH  36  59
ENDBRANCH  10  11
ENDBRANCH   3   5
ENDBRANCH   2   3
ENDBRANCH   1   2
BRANCH   1  70
ATOM     70  C   UNL A   1      41.446  19.210  26.061  1.00  0.00     0.274 C 
BRANCH  70  71
ATOM     71  O   UNL A   1      41.488  20.646  25.964  1.00  0.00    -0.458 OA
BRANCH  71  72
ATOM     72  C   UNL A   1      40.746  21.334  26.884  1.00  0.00     0.364 C 
ATOM     73  O   UNL A   1      40.779  21.115  28.090  1.00  0.00    -0.245 OA
BRANCH  72  74
ATOM     74  C   UNL A   1      39.816  22.393  26.268  1.00  0.00     0.294 C 
ATOM     75  C   UNL A   1      38.583  21.772  25.633  1.00  0.00     0.090 C 
ATOM     76  N   UNL A   1      39.225  23.314  27.251  1.00  0.00    -0.334 N 
ATOM     77  C   UNL A   1      37.526  22.901  25.599  1.00  0.00     0.036 C 
ATOM     78  C   UNL A   1      38.057  23.927  26.617  1.00  0.00     0.268 C 
ATOM     79  H   UNL A   1      39.901  24.033  27.508  1.00  0.00     0.347 HD
ATOM     80  H   UNL A   1      38.958  22.816  28.100  1.00  0.00     0.347 HD
ATOM     81  C   UNL A   1      36.151  22.347  26.001  1.00  0.00     0.076 C 
ATOM     82  C   UNL A   1      37.407  23.580  24.213  1.00  0.00     0.076 C 
ATOM     83  C   UNL A   1      35.553  21.492  24.905  1.00  0.00     0.280 C 
ATOM     84  C   UNL A   1      36.669  22.743  23.164  1.00  0.00     0.280 C 
ATOM     85  N   UNL A   1      35.355  22.262  23.670  1.00  0.00    -0.215 N 
ATOM     86  H   UNL A   1      34.963  21.587  23.014  1.00  0.00     0.367 HD
BRANCH  85  87
ATOM     87  S   UNL A   1      34.076  23.369  23.570  1.00  0.00     0.371 S 
ATOM     88  O   UNL A   1      34.254  24.380  24.589  1.00  0.00    -0.157 OA
ATOM     89  O   UNL A   1      33.956  23.739  22.180  1.00  0.00    -0.157 OA
BRANCH  87  90
ATOM     90  N   UNL A   1      32.762  22.440  23.961  1.00  0.00    -0.151 NA
ATOM     91  C   UNL A   1      32.304  21.363  23.072  1.00  0.00     0.136 C 
ATOM     92  C   UNL A   1      32.126  22.424  25.292  1.00  0.00     0.136 C 
ATOM     93  C   UNL A   1      32.527  20.027  23.775  1.00  0.00     0.177 C 
ATOM     94  C   UNL A   1      32.129  21.017  25.915  1.00  0.00     0.177 C 
ATOM     95  O   UNL A   1      31.778  19.969  25.001  1.00  0.00    -0.379 OA
ENDBRANCH  87  90
ENDBRANCH  85  87
ENDBRANCH  72  74
ENDBRANCH  71  72
ENDBRANCH  70  71
ENDBRANCH   1  70
TORSDOF 13
ENDMDL
MODEL 3
REMARK VINA RESULT:     -12.1      7.088     12.592
REMARK SMILES O=C(OCCOC(=O)[C@H]1CC2(CC[NH+](S(=O)(=O)N3CCOCC3)CC2)C[NH2+]1)c1ccc(-c2c3nc(c(-c4c(F)c(F)c(F)c(F)c4F)c4ccc([nH]4)c(-c4c(F)c(F)c(F)c(F)c4F)c4nc(c(-c5c(F)c(F)c(F)c(F)c5F)c5ccc2[nH]5)C=C4)C=C3)cc1
REMARK SMILES IDX 4 1 3 2 2 3 1 4 28 5 29 6 90 7 30 8 89 9 31 10 32 11 33 12
REMARK SMILES IDX 83 13 34 14 88 15 82 16 84 17 35 18 87 19 81 20 80 21 36 23
REMARK SMILES IDX 68 24 48 25 67 26 49 27 52 28 66 29 85 30 50 31 51 32 65 34
REMARK SMILES IDX 86 35 53 36 37 37 38 38 46 39 39 40 40 41 44 42 47 43 41 44
REMARK SMILES IDX 42 45 45 46 43 47 69 48 70 49 78 50 71 51 72 52 76 53 79 54
REMARK SMILES IDX 73 55 74 56 77 57 75 58 54 59 55 60 63 61 56 62 57 63 61 64
REMARK SMILES IDX 64 65 58 66 59 67 62 68 60 69 5 70 6 71 7 72 8 73 9 74 10 75
REMARK SMILES IDX 27 76 11 77 26 78 12 81 25 82 13 83 24 84 14 85 15 87 16 88
REMARK SMILES IDX 17 89 18 90 19 91 23 92 20 93 22 94 21 95
REMARK H PARENT 84 22 52 33 27 79 27 80 14 86
REMARK Flexibility Score: inf
ROOT
ATOM      1  C   UNL A   1      42.934  18.733  26.186  1.00  0.00     0.275 C 
ENDROOT
BRANCH   1   2
ATOM      2  O   UNL A   1      43.600  18.652  24.921  1.00  0.00    -0.458 OA
BRANCH   2   3
ATOM      3  C   UNL A   1      44.623  19.400  24.453  1.00  0.00     0.338 C 
ATOM      4  O   UNL A   1      45.531  18.825  23.851  1.00  0.00    -0.246 OA
BRANCH   3   5
ATOM      5  C   UNL A   1      44.797  20.867  24.731  1.00  0.00     0.060 A 
ATOM      6  C   UNL A   1      44.514  21.945  23.887  1.00  0.00     0.016 A 
ATOM      7  C   UNL A   1      45.246  21.173  26.023  1.00  0.00     0.016 A 
ATOM      8  C   UNL A   1      44.560  23.268  24.342  1.00  0.00     0.010 A 
ATOM      9  C   UNL A   1      45.240  22.483  26.503  1.00  0.00     0.010 A 
ATOM     10  C   UNL A   1      44.886  23.545  25.665  1.00  0.00    -0.014 A 
BRANCH  10  11
ATOM     11  C   UNL A   1      45.011  24.941  26.144  1.00  0.00     0.031 A 
ATOM     12  C   UNL A   1      46.380  25.550  26.135  1.00  0.00     0.074 A 
ATOM     13  C   UNL A   1      43.944  25.639  26.581  1.00  0.00     0.049 A 
ATOM     14  N   UNL A   1      46.763  26.733  26.528  1.00  0.00    -0.248 NA
ATOM     15  C   UNL A   1      47.469  24.706  25.612  1.00  0.00     0.031 C 
ATOM     16  C   UNL A   1      42.562  25.164  26.585  1.00  0.00     0.029 A 
ATOM     17  N   UNL A   1      43.851  26.896  27.127  1.00  0.00    -0.354 N 
ATOM     18  C   UNL A   1      48.126  26.775  26.281  1.00  0.00     0.074 A 
ATOM     19  C   UNL A   1      48.527  25.466  25.825  1.00  0.00     0.031 C 
ATOM     20  C   UNL A   1      41.768  26.080  27.163  1.00  0.00     0.029 A 
ATOM     21  C   UNL A   1      42.581  27.229  27.542  1.00  0.00     0.049 A 
ATOM     22  H   UNL A   1      44.621  27.503  27.213  1.00  0.00     0.167 HD
ATOM     23  C   UNL A   1      48.959  27.836  26.355  1.00  0.00     0.037 A 
ATOM     24  C   UNL A   1      42.131  28.346  28.142  1.00  0.00     0.037 A 
ATOM     25  C   UNL A   1      48.538  29.133  26.796  1.00  0.00     0.049 A 
ATOM     26  C   UNL A   1      43.099  29.487  28.317  1.00  0.00     0.074 A 
ATOM     27  C   UNL A   1      49.279  30.294  26.900  1.00  0.00     0.029 A 
ATOM     28  N   UNL A   1      47.249  29.432  27.219  1.00  0.00    -0.354 N 
ATOM     29  N   UNL A   1      44.370  29.546  27.998  1.00  0.00    -0.248 NA
ATOM     30  C   UNL A   1      42.564  30.732  28.885  1.00  0.00     0.031 C 
ATOM     31  C   UNL A   1      48.451  31.282  27.443  1.00  0.00     0.029 A 
ATOM     32  C   UNL A   1      47.179  30.755  27.615  1.00  0.00     0.049 A 
ATOM     33  H   UNL A   1      46.497  28.796  27.235  1.00  0.00     0.167 HD
ATOM     34  C   UNL A   1      44.775  30.844  28.271  1.00  0.00     0.074 A 
ATOM     35  C   UNL A   1      43.610  31.540  28.781  1.00  0.00     0.031 C 
ATOM     36  C   UNL A   1      45.994  31.416  28.105  1.00  0.00     0.037 A 
BRANCH  23  37
ATOM     37  C   UNL A   1      50.382  27.603  25.947  1.00  0.00     0.064 A 
ATOM     38  C   UNL A   1      50.764  27.572  24.594  1.00  0.00     0.173 A 
ATOM     39  C   UNL A   1      51.363  27.337  26.911  1.00  0.00     0.173 A 
ATOM     40  F   UNL A   1      49.855  27.789  23.630  1.00  0.00    -0.203 F 
ATOM     41  C   UNL A   1      52.061  27.230  24.223  1.00  0.00     0.198 A 
ATOM     42  C   UNL A   1      52.669  27.032  26.536  1.00  0.00     0.198 A 
ATOM     43  F   UNL A   1      51.051  27.345  28.215  1.00  0.00    -0.203 F 
ATOM     44  F   UNL A   1      52.377  27.117  22.925  1.00  0.00    -0.200 F 
ATOM     45  C   UNL A   1      53.013  26.964  25.193  1.00  0.00     0.200 A 
ATOM     46  F   UNL A   1      53.591  26.778  27.475  1.00  0.00    -0.200 F 
ATOM     47  F   UNL A   1      54.258  26.620  24.836  1.00  0.00    -0.200 F 
ENDBRANCH  23  37
BRANCH  24  48
ATOM     48  C   UNL A   1      40.705  28.473  28.555  1.00  0.00     0.064 A 
ATOM     49  C   UNL A   1      39.736  28.987  27.679  1.00  0.00     0.173 A 
ATOM     50  C   UNL A   1      40.282  28.108  29.842  1.00  0.00     0.173 A 
ATOM     51  F   UNL A   1      40.087  29.359  26.439  1.00  0.00    -0.203 F 
ATOM     52  C   UNL A   1      38.414  29.166  28.085  1.00  0.00     0.198 A 
ATOM     53  C   UNL A   1      38.954  28.266  30.240  1.00  0.00     0.198 A 
ATOM     54  F   UNL A   1      41.160  27.600  30.718  1.00  0.00    -0.203 F 
ATOM     55  F   UNL A   1      37.524  29.708  27.242  1.00  0.00    -0.200 F 
ATOM     56  C   UNL A   1      38.023  28.805  29.365  1.00  0.00     0.200 A 
ATOM     57  F   UNL A   1      38.577  27.902  31.474  1.00  0.00    -0.200 F 
ATOM     58  F   UNL A   1      36.753  28.983  29.756  1.00  0.00    -0.200 F 
ENDBRANCH  24  48
BRANCH  36  59
ATOM     59  C   UNL A   1      46.115  32.874  28.432  1.00  0.00     0.064 A 
ATOM     60  C   UNL A   1      46.487  33.315  29.710  1.00  0.00     0.173 A 
ATOM     61  C   UNL A   1      45.925  33.837  27.429  1.00  0.00     0.173 A 
ATOM     62  F   UNL A   1      46.667  32.431  30.703  1.00  0.00    -0.203 F 
ATOM     63  C   UNL A   1      46.641  34.670  29.977  1.00  0.00     0.198 A 
ATOM     64  C   UNL A   1      46.118  35.189  27.692  1.00  0.00     0.198 A 
ATOM     65  F   UNL A   1      45.577  33.464  26.188  1.00  0.00    -0.203 F 
ATOM     66  F   UNL A   1      46.949  35.074  31.218  1.00  0.00    -0.200 F 
ATOM     67  C   UNL A   1      46.468  35.605  28.967  1.00  0.00     0.200 A 
ATOM     68  F   UNL A   1      45.971  36.088  26.708  1.00  0.00    -0.200 F 
ATOM     69  F   UNL A   1      46.637  36.909  29.223  1.00  0.00    -0.200 F 
ENDBRANCH  36  59
ENDBRANCH  10  11
ENDBRANCH   3   5
ENDBRANCH   2   3
ENDBRANCH   1   2
BRANCH   1  70
ATOM     70  C   UNL A   1      41.480  19.211  26.099  1.00  0.00     0.274 C 
BRANCH  70  71
ATOM     71  O   UNL A   1      41.324  20.618  25.835  1.00  0.00    -0.458 OA
BRANCH  71  72
ATOM     72  C   UNL A   1      40.615  21.330  26.763  1.00  0.00     0.364 C 
ATOM     73  O   UNL A   1      40.692  21.144  27.973  1.00  0.00    -0.245 OA
BRANCH  72  74
ATOM     74  C   UNL A   1      39.662  22.372  26.153  1.00  0.00     0.294 C 
ATOM     75  C   UNL A   1      38.355  21.750  25.689  1.00  0.00     0.090 C 
ATOM     76  N   UNL A   1      39.196  23.389  27.108  1.00  0.00    -0.334 N 
ATOM     77  C   UNL A   1      37.334  22.912  25.662  1.00  0.00     0.036 C 
ATOM     78  C   UNL A   1      37.991  23.993  26.538  1.00  0.00     0.268 C 
ATOM     79  H   UNL A   1      39.915  24.100  27.241  1.00  0.00     0.347 HD
ATOM     80  H   UNL A   1      38.997  22.969  28.016  1.00  0.00     0.347 HD
ATOM     81  C   UNL A   1      35.988  22.443  26.235  1.00  0.00     0.076 C 
ATOM     82  C   UNL A   1      37.102  23.484  24.243  1.00  0.00     0.076 C 
ATOM     83  C   UNL A   1      35.262  21.527  25.274  1.00  0.00     0.280 C 
ATOM     84  C   UNL A   1      36.242  22.595  23.339  1.00  0.00     0.280 C 
ATOM     85  N   UNL A   1      34.969  22.205  24.004  1.00  0.00    -0.215 N 
ATOM     86  H   UNL A   1      34.496  21.495  23.444  1.00  0.00     0.367 HD
BRANCH  85  87
ATOM     87  S   UNL A   1      33.720  23.348  23.934  1.00  0.00     0.371 S 
ATOM     88  O   UNL A   1      34.302  24.671  23.882  1.00  0.00    -0.157 OA
ATOM     89  O   UNL A   1      32.809  22.904  22.907  1.00  0.00    -0.157 OA
BRANCH  87  90
ATOM     90  N   UNL A   1      32.967  23.151  25.397  1.00  0.00    -0.151 NA
ATOM     91  C   UNL A   1      33.034  24.194  26.429  1.00  0.00     0.136 C 
ATOM     92  C   UNL A   1      31.986  22.088  25.685  1.00  0.00     0.136 C 
ATOM     93  C   UNL A   1      31.635  24.772  26.625  1.00  0.00     0.177 C 
ATOM     94  C   UNL A   1      30.626  22.663  26.122  1.00  0.00     0.177 C 
ATOM     95  O   UNL A   1      30.720  23.750  27.054  1.00  0.00    -0.379 OA
ENDBRANCH  87  90
ENDBRANCH  85  87
ENDBRANCH  72  74
ENDBRANCH  71  72
ENDBRANCH  70  71
ENDBRANCH   1  70
TORSDOF 13
ENDMDL
