MODEL 1
REMARK VINA RESULT:     -11.7      0.000      0.000
REMARK SMILES C[C@H](C(=O)OCCOC(=O)c1ccc(-c2c3nc(c(-c4c(F)c(F)c(F)c(F)c4F)c4ccc([nH]4)c(-c4c(F)c(F)c(F)c(F)c4F)c4nc(c(-c5c(F)c(F)c(F)c(F)c5F)c5ccc2[nH]5)C=C4)C=C3)cc1)[C@H](C)[N@H+]1CC[C@H]([NH+]2CCCCC2)C1
REMARK SMILES IDX 6 1 5 2 3 3 4 4 2 5 1 6 74 7 75 8 76 9 77 10 86 11 78 13
REMARK SMILES IDX 79 14 80 15 81 16 85 17 82 19 84 20 83 21 7 22 8 23 9 24
REMARK SMILES IDX 10 25 11 26 12 27 73 28 13 29 72 30 14 31 15 32 16 33 66 34
REMARK SMILES IDX 17 35 71 36 65 37 67 38 18 39 70 40 64 41 63 42 19 44 51 45
REMARK SMILES IDX 31 46 50 47 32 48 35 49 49 50 68 51 33 52 34 53 48 55 69 56
REMARK SMILES IDX 36 57 20 58 21 59 29 60 22 61 23 62 27 63 30 64 24 65 25 66
REMARK SMILES IDX 28 67 26 68 52 69 53 70 61 71 54 72 55 73 59 74 62 75 56 76
REMARK SMILES IDX 57 77 60 78 58 79 37 80 38 81 46 82 39 83 40 84 44 85 47 86
REMARK SMILES IDX 41 87 42 88 45 89 43 90
REMARK H PARENT 76 12 80 18 67 43 35 54
REMARK Flexibility Score: inf
ROOT
ATOM      1  C   UNL A   1      36.654  22.547  23.500  1.00  0.00     0.274 C 
ENDROOT
BRANCH   1   2
ATOM      2  O   UNL A   1      35.996  23.671  24.153  1.00  0.00    -0.462 OA
BRANCH   2   3
ATOM      3  C   UNL A   1      34.875  24.084  23.522  1.00  0.00     0.314 C 
ATOM      4  O   UNL A   1      34.617  23.712  22.401  1.00  0.00    -0.252 OA
BRANCH   3   5
ATOM      5  C   UNL A   1      33.951  25.038  24.241  1.00  0.00     0.154 C 
ATOM      6  C   UNL A   1      33.477  26.210  23.400  1.00  0.00     0.026 C 
BRANCH   5   7
ATOM      7  C   UNL A   1      32.734  24.251  24.910  1.00  0.00     0.195 C 
ATOM      8  C   UNL A   1      32.406  25.019  26.222  1.00  0.00     0.076 C 
BRANCH   7   9
ATOM      9  N   UNL A   1      32.911  22.813  25.200  1.00  0.00    -0.327 N 
ATOM     10  C   UNL A   1      32.951  22.378  26.594  1.00  0.00     0.269 C 
ATOM     11  C   UNL A   1      32.047  21.818  24.548  1.00  0.00     0.328 C 
ATOM     12  H   UNL A   1      33.837  22.812  24.770  1.00  0.00     0.348 HD
ATOM     13  C   UNL A   1      33.276  20.894  26.431  1.00  0.00     0.132 C 
ATOM     14  C   UNL A   1      32.493  20.457  25.177  1.00  0.00     0.245 C 
BRANCH  14  15
ATOM     15  N   UNL A   1      33.166  19.472  24.278  1.00  0.00    -0.328 N 
ATOM     16  C   UNL A   1      34.075  18.566  24.999  1.00  0.00     0.262 C 
ATOM     17  C   UNL A   1      32.205  18.708  23.466  1.00  0.00     0.262 C 
ATOM     18  H   UNL A   1      33.737  20.030  23.644  1.00  0.00     0.348 HD
ATOM     19  C   UNL A   1      34.780  17.538  24.110  1.00  0.00     0.062 C 
ATOM     20  C   UNL A   1      32.899  17.723  22.516  1.00  0.00     0.062 C 
ATOM     21  C   UNL A   1      33.784  16.750  23.283  1.00  0.00     0.012 C 
ENDBRANCH  14  15
ENDBRANCH   7   9
ENDBRANCH   5   7
ENDBRANCH   3   5
ENDBRANCH   2   3
ENDBRANCH   1   2
BRANCH   1  22
ATOM     22  C   UNL A   1      37.166  21.368  24.381  1.00  0.00     0.275 C 
BRANCH  22  23
ATOM     23  O   UNL A   1      37.538  21.732  25.743  1.00  0.00    -0.458 OA
BRANCH  23  24
ATOM     24  C   UNL A   1      38.837  21.543  26.110  1.00  0.00     0.338 C 
ATOM     25  O   UNL A   1      39.521  20.561  25.863  1.00  0.00    -0.246 OA
BRANCH  24  26
ATOM     26  C   UNL A   1      39.414  22.752  26.774  1.00  0.00     0.060 A 
ATOM     27  C   UNL A   1      38.925  24.016  26.427  1.00  0.00     0.016 A 
ATOM     28  C   UNL A   1      40.539  22.688  27.592  1.00  0.00     0.016 A 
ATOM     29  C   UNL A   1      39.521  25.196  26.850  1.00  0.00     0.010 A 
ATOM     30  C   UNL A   1      41.154  23.883  28.030  1.00  0.00     0.010 A 
ATOM     31  C   UNL A   1      40.667  25.150  27.635  1.00  0.00    -0.014 A 
BRANCH  31  32
ATOM     32  C   UNL A   1      41.431  26.416  27.832  1.00  0.00     0.031 A 
ATOM     33  C   UNL A   1      40.817  27.507  28.668  1.00  0.00     0.074 A 
ATOM     34  C   UNL A   1      42.706  26.552  27.414  1.00  0.00     0.049 A 
ATOM     35  N   UNL A   1      41.236  28.727  28.893  1.00  0.00    -0.248 NA
ATOM     36  C   UNL A   1      39.559  27.170  29.354  1.00  0.00     0.031 C 
ATOM     37  C   UNL A   1      43.487  25.524  26.726  1.00  0.00     0.029 A 
ATOM     38  N   UNL A   1      43.580  27.610  27.528  1.00  0.00    -0.354 N 
ATOM     39  C   UNL A   1      40.268  29.316  29.698  1.00  0.00     0.074 A 
ATOM     40  C   UNL A   1      39.238  28.325  29.917  1.00  0.00     0.031 C 
ATOM     41  C   UNL A   1      44.724  25.996  26.491  1.00  0.00     0.029 A 
ATOM     42  C   UNL A   1      44.801  27.385  26.937  1.00  0.00     0.049 A 
ATOM     43  H   UNL A   1      43.351  28.448  27.990  1.00  0.00     0.167 HD
ATOM     44  C   UNL A   1      40.242  30.571  30.208  1.00  0.00     0.037 A 
ATOM     45  C   UNL A   1      45.842  28.217  26.734  1.00  0.00     0.037 A 
ATOM     46  C   UNL A   1      41.290  31.540  30.026  1.00  0.00     0.049 A 
ATOM     47  C   UNL A   1      45.746  29.643  27.216  1.00  0.00     0.074 A 
ATOM     48  C   UNL A   1      41.347  32.846  30.475  1.00  0.00     0.029 A 
ATOM     49  N   UNL A   1      42.476  31.299  29.344  1.00  0.00    -0.354 N 
ATOM     50  N   UNL A   1      44.790  30.226  27.900  1.00  0.00    -0.248 NA
ATOM     51  C   UNL A   1      46.867  30.535  26.883  1.00  0.00     0.031 C 
ATOM     52  C   UNL A   1      42.539  33.415  30.018  1.00  0.00     0.029 A 
ATOM     53  C   UNL A   1      43.259  32.442  29.342  1.00  0.00     0.049 A 
ATOM     54  H   UNL A   1      42.723  30.443  28.926  1.00  0.00     0.167 HD
ATOM     55  C   UNL A   1      45.204  31.537  28.101  1.00  0.00     0.074 A 
ATOM     56  C   UNL A   1      46.507  31.661  27.483  1.00  0.00     0.031 C 
ATOM     57  C   UNL A   1      44.562  32.548  28.736  1.00  0.00     0.037 A 
BRANCH  44  58
ATOM     58  C   UNL A   1      39.007  30.985  30.956  1.00  0.00     0.064 A 
ATOM     59  C   UNL A   1      37.899  31.561  30.317  1.00  0.00     0.173 A 
ATOM     60  C   UNL A   1      38.935  30.795  32.344  1.00  0.00     0.173 A 
ATOM     61  F   UNL A   1      37.921  31.781  28.993  1.00  0.00    -0.203 F 
ATOM     62  C   UNL A   1      36.782  31.966  31.046  1.00  0.00     0.198 A 
ATOM     63  C   UNL A   1      37.804  31.167  33.065  1.00  0.00     0.198 A 
ATOM     64  F   UNL A   1      39.963  30.243  33.006  1.00  0.00    -0.203 F 
ATOM     65  F   UNL A   1      35.761  32.571  30.424  1.00  0.00    -0.200 F 
ATOM     66  C   UNL A   1      36.733  31.762  32.417  1.00  0.00     0.200 A 
ATOM     67  F   UNL A   1      37.753  30.955  34.387  1.00  0.00    -0.200 F 
ATOM     68  F   UNL A   1      35.657  32.149  33.116  1.00  0.00    -0.200 F 
ENDBRANCH  44  58
BRANCH  45  69
ATOM     69  C   UNL A   1      47.042  27.755  25.978  1.00  0.00     0.064 A 
ATOM     70  C   UNL A   1      47.075  27.772  24.576  1.00  0.00     0.173 A 
ATOM     71  C   UNL A   1      48.165  27.241  26.645  1.00  0.00     0.173 A 
ATOM     72  F   UNL A   1      46.017  28.219  23.886  1.00  0.00    -0.203 F 
ATOM     73  C   UNL A   1      48.174  27.276  23.874  1.00  0.00     0.198 A 
ATOM     74  C   UNL A   1      49.278  26.781  25.944  1.00  0.00     0.198 A 
ATOM     75  F   UNL A   1      48.186  27.187  27.985  1.00  0.00    -0.203 F 
ATOM     76  F   UNL A   1      48.154  27.249  22.534  1.00  0.00    -0.200 F 
ATOM     77  C   UNL A   1      49.278  26.788  24.558  1.00  0.00     0.200 A 
ATOM     78  F   UNL A   1      50.346  26.324  26.611  1.00  0.00    -0.200 F 
ATOM     79  F   UNL A   1      50.334  26.315  23.883  1.00  0.00    -0.200 F 
ENDBRANCH  45  69
BRANCH  57  80
ATOM     80  C   UNL A   1      45.275  33.867  28.843  1.00  0.00     0.064 A 
ATOM     81  C   UNL A   1      46.158  34.149  29.896  1.00  0.00     0.173 A 
ATOM     82  C   UNL A   1      45.108  34.843  27.848  1.00  0.00     0.173 A 
ATOM     83  F   UNL A   1      46.343  33.255  30.879  1.00  0.00    -0.203 F 
ATOM     84  C   UNL A   1      46.825  35.370  29.963  1.00  0.00     0.198 A 
ATOM     85  C   UNL A   1      45.804  36.048  27.900  1.00  0.00     0.198 A 
ATOM     86  F   UNL A   1      44.283  34.622  26.814  1.00  0.00    -0.203 F 
ATOM     87  F   UNL A   1      47.624  35.637  31.005  1.00  0.00    -0.200 F 
ATOM     88  C   UNL A   1      46.655  36.313  28.961  1.00  0.00     0.200 A 
ATOM     89  F   UNL A   1      45.651  36.950  26.922  1.00  0.00    -0.200 F 
ATOM     90  F   UNL A   1      47.307  37.483  29.022  1.00  0.00    -0.200 F 
ENDBRANCH  57  80
ENDBRANCH  31  32
ENDBRANCH  24  26
ENDBRANCH  23  24
ENDBRANCH  22  23
ENDBRANCH   1  22
TORSDOF 14
ENDMDL
MODEL 2
REMARK VINA RESULT:     -11.7      4.817     10.136
REMARK SMILES C[C@H](C(=O)OCCOC(=O)c1ccc(-c2c3nc(c(-c4c(F)c(F)c(F)c(F)c4F)c4ccc([nH]4)c(-c4c(F)c(F)c(F)c(F)c4F)c4nc(c(-c5c(F)c(F)c(F)c(F)c5F)c5ccc2[nH]5)C=C4)C=C3)cc1)[C@H](C)[N@H+]1CC[C@H]([NH+]2CCCCC2)C1
REMARK SMILES IDX 6 1 5 2 3 3 4 4 2 5 1 6 74 7 75 8 76 9 77 10 86 11 78 13
REMARK SMILES IDX 79 14 80 15 81 16 85 17 82 19 84 20 83 21 7 22 8 23 9 24
REMARK SMILES IDX 10 25 11 26 12 27 73 28 13 29 72 30 14 31 15 32 16 33 66 34
REMARK SMILES IDX 17 35 71 36 65 37 67 38 18 39 70 40 64 41 63 42 19 44 51 45
REMARK SMILES IDX 31 46 50 47 32 48 35 49 49 50 68 51 33 52 34 53 48 55 69 56
REMARK SMILES IDX 36 57 20 58 21 59 29 60 22 61 23 62 27 63 30 64 24 65 25 66
REMARK SMILES IDX 28 67 26 68 52 69 53 70 61 71 54 72 55 73 59 74 62 75 56 76
REMARK SMILES IDX 57 77 60 78 58 79 37 80 38 81 46 82 39 83 40 84 44 85 47 86
REMARK SMILES IDX 41 87 42 88 45 89 43 90
REMARK H PARENT 76 12 80 18 67 43 35 54
REMARK Flexibility Score: inf
ROOT
ATOM      1  C   UNL A   1      31.797  28.320  27.514  1.00  0.00     0.274 C 
ENDROOT
BRANCH   1   2
ATOM      2  O   UNL A   1      32.472  27.170  26.926  1.00  0.00    -0.462 OA
BRANCH   2   3
ATOM      3  C   UNL A   1      31.633  26.172  26.572  1.00  0.00     0.314 C 
ATOM      4  O   UNL A   1      30.444  26.253  26.779  1.00  0.00    -0.252 OA
BRANCH   3   5
ATOM      5  C   UNL A   1      32.212  24.938  25.923  1.00  0.00     0.154 C 
ATOM      6  C   UNL A   1      31.257  23.760  25.847  1.00  0.00     0.026 C 
BRANCH   5   7
ATOM      7  C   UNL A   1      32.843  25.288  24.500  1.00  0.00     0.195 C 
ATOM      8  C   UNL A   1      34.382  25.329  24.719  1.00  0.00     0.076 C 
BRANCH   7   9
ATOM      9  N   UNL A   1      32.397  26.527  23.827  1.00  0.00    -0.327 N 
ATOM     10  C   UNL A   1      33.346  27.628  23.686  1.00  0.00     0.269 C 
ATOM     11  C   UNL A   1      31.745  26.457  22.513  1.00  0.00     0.328 C 
ATOM     12  H   UNL A   1      31.706  26.706  24.556  1.00  0.00     0.348 HD
ATOM     13  C   UNL A   1      32.453  28.711  23.083  1.00  0.00     0.132 C 
ATOM     14  C   UNL A   1      31.514  27.955  22.123  1.00  0.00     0.245 C 
BRANCH  14  15
ATOM     15  N   UNL A   1      30.102  28.437  22.051  1.00  0.00    -0.328 N 
ATOM     16  C   UNL A   1      29.279  27.969  23.177  1.00  0.00     0.262 C 
ATOM     17  C   UNL A   1      30.017  29.900  21.916  1.00  0.00     0.262 C 
ATOM     18  H   UNL A   1      29.717  28.022  21.203  1.00  0.00     0.348 HD
ATOM     19  C   UNL A   1      27.825  28.448  23.140  1.00  0.00     0.062 C 
ATOM     20  C   UNL A   1      28.568  30.392  21.805  1.00  0.00     0.062 C 
ATOM     21  C   UNL A   1      27.745  29.956  23.009  1.00  0.00     0.012 C 
ENDBRANCH  14  15
ENDBRANCH   7   9
ENDBRANCH   5   7
ENDBRANCH   3   5
ENDBRANCH   2   3
ENDBRANCH   1   2
BRANCH   1  22
ATOM     22  C   UNL A   1      31.675  29.624  26.670  1.00  0.00     0.275 C 
BRANCH  22  23
ATOM     23  O   UNL A   1      32.943  30.242  26.301  1.00  0.00    -0.458 OA
BRANCH  23  24
ATOM     24  C   UNL A   1      33.403  31.252  27.093  1.00  0.00     0.338 C 
ATOM     25  O   UNL A   1      32.759  32.216  27.479  1.00  0.00    -0.246 OA
BRANCH  24  26
ATOM     26  C   UNL A   1      34.800  31.004  27.564  1.00  0.00     0.060 A 
ATOM     27  C   UNL A   1      35.194  29.695  27.860  1.00  0.00     0.016 A 
ATOM     28  C   UNL A   1      35.671  32.039  27.891  1.00  0.00     0.016 A 
ATOM     29  C   UNL A   1      36.402  29.393  28.475  1.00  0.00     0.010 A 
ATOM     30  C   UNL A   1      36.904  31.744  28.516  1.00  0.00     0.010 A 
ATOM     31  C   UNL A   1      37.266  30.417  28.843  1.00  0.00    -0.014 A 
BRANCH  31  32
ATOM     32  C   UNL A   1      38.406  30.080  29.742  1.00  0.00     0.031 A 
ATOM     33  C   UNL A   1      39.523  29.225  29.203  1.00  0.00     0.074 A 
ATOM     34  C   UNL A   1      38.541  30.637  30.963  1.00  0.00     0.049 A 
ATOM     35  N   UNL A   1      40.559  28.714  29.819  1.00  0.00    -0.248 NA
ATOM     36  C   UNL A   1      39.466  28.912  27.766  1.00  0.00     0.031 C 
ATOM     37  C   UNL A   1      37.620  31.604  31.560  1.00  0.00     0.029 A 
ATOM     38  N   UNL A   1      39.524  30.485  31.916  1.00  0.00    -0.354 N 
ATOM     39  C   UNL A   1      41.243  27.978  28.858  1.00  0.00     0.074 A 
ATOM     40  C   UNL A   1      40.502  28.101  27.623  1.00  0.00     0.031 C 
ATOM     41  C   UNL A   1      38.086  31.966  32.768  1.00  0.00     0.029 A 
ATOM     42  C   UNL A   1      39.293  31.200  33.067  1.00  0.00     0.049 A 
ATOM     43  H   UNL A   1      40.317  29.917  31.784  1.00  0.00     0.167 HD
ATOM     44  C   UNL A   1      42.385  27.263  28.996  1.00  0.00     0.037 A 
ATOM     45  C   UNL A   1      39.950  31.200  34.245  1.00  0.00     0.037 A 
ATOM     46  C   UNL A   1      43.144  27.178  30.216  1.00  0.00     0.049 A 
ATOM     47  C   UNL A   1      41.159  30.312  34.410  1.00  0.00     0.074 A 
ATOM     48  C   UNL A   1      44.297  26.459  30.468  1.00  0.00     0.029 A 
ATOM     49  N   UNL A   1      42.828  27.851  31.389  1.00  0.00    -0.354 N 
ATOM     50  N   UNL A   1      41.753  29.546  33.527  1.00  0.00    -0.248 NA
ATOM     51  C   UNL A   1      41.779  30.274  35.743  1.00  0.00     0.031 C 
ATOM     52  C   UNL A   1      44.647  26.648  31.808  1.00  0.00     0.029 A 
ATOM     53  C   UNL A   1      43.752  27.542  32.374  1.00  0.00     0.049 A 
ATOM     54  H   UNL A   1      42.061  28.457  31.503  1.00  0.00     0.167 HD
ATOM     55  C   UNL A   1      42.827  28.959  34.186  1.00  0.00     0.074 A 
ATOM     56  C   UNL A   1      42.815  29.472  35.539  1.00  0.00     0.031 C 
ATOM     57  C   UNL A   1      43.737  28.072  33.714  1.00  0.00     0.037 A 
BRANCH  44  58
ATOM     58  C   UNL A   1      42.844  26.461  27.811  1.00  0.00     0.064 A 
ATOM     59  C   UNL A   1      42.424  25.142  27.588  1.00  0.00     0.173 A 
ATOM     60  C   UNL A   1      43.722  27.035  26.879  1.00  0.00     0.173 A 
ATOM     61  F   UNL A   1      41.597  24.540  28.457  1.00  0.00    -0.203 F 
ATOM     62  C   UNL A   1      42.896  24.415  26.497  1.00  0.00     0.198 A 
ATOM     63  C   UNL A   1      44.164  26.318  25.770  1.00  0.00     0.198 A 
ATOM     64  F   UNL A   1      44.152  28.295  27.040  1.00  0.00    -0.203 F 
ATOM     65  F   UNL A   1      42.530  23.136  26.338  1.00  0.00    -0.200 F 
ATOM     66  C   UNL A   1      43.759  25.005  25.586  1.00  0.00     0.200 A 
ATOM     67  F   UNL A   1      44.986  26.897  24.884  1.00  0.00    -0.200 F 
ATOM     68  F   UNL A   1      44.210  24.305  24.536  1.00  0.00    -0.200 F 
ENDBRANCH  44  58
BRANCH  45  69
ATOM     69  C   UNL A   1      39.446  32.010  35.391  1.00  0.00     0.064 A 
ATOM     70  C   UNL A   1      39.886  33.324  35.608  1.00  0.00     0.173 A 
ATOM     71  C   UNL A   1      38.547  31.467  36.322  1.00  0.00     0.173 A 
ATOM     72  F   UNL A   1      40.771  33.882  34.771  1.00  0.00    -0.203 F 
ATOM     73  C   UNL A   1      39.461  34.053  36.720  1.00  0.00     0.198 A 
ATOM     74  C   UNL A   1      38.094  32.209  37.411  1.00  0.00     0.198 A 
ATOM     75  F   UNL A   1      38.102  30.210  36.174  1.00  0.00    -0.203 F 
ATOM     76  F   UNL A   1      39.943  35.285  36.935  1.00  0.00    -0.200 F 
ATOM     77  C   UNL A   1      38.559  33.497  37.616  1.00  0.00     0.200 A 
ATOM     78  F   UNL A   1      37.212  31.672  38.265  1.00  0.00    -0.200 F 
ATOM     79  F   UNL A   1      38.150  34.199  38.681  1.00  0.00    -0.200 F 
ENDBRANCH  45  69
BRANCH  57  80
ATOM     80  C   UNL A   1      44.831  27.635  34.648  1.00  0.00     0.064 A 
ATOM     81  C   UNL A   1      46.036  28.343  34.761  1.00  0.00     0.173 A 
ATOM     82  C   UNL A   1      44.647  26.517  35.477  1.00  0.00     0.173 A 
ATOM     83  F   UNL A   1      46.268  29.411  33.983  1.00  0.00    -0.203 F 
ATOM     84  C   UNL A   1      47.027  27.932  35.650  1.00  0.00     0.198 A 
ATOM     85  C   UNL A   1      45.626  26.131  36.389  1.00  0.00     0.198 A 
ATOM     86  F   UNL A   1      43.510  25.808  35.416  1.00  0.00    -0.203 F 
ATOM     87  F   UNL A   1      48.191  28.594  35.704  1.00  0.00    -0.200 F 
ATOM     88  C   UNL A   1      46.817  26.833  36.469  1.00  0.00     0.200 A 
ATOM     89  F   UNL A   1      45.413  25.079  37.192  1.00  0.00    -0.200 F 
ATOM     90  F   UNL A   1      47.768  26.446  37.331  1.00  0.00    -0.200 F 
ENDBRANCH  57  80
ENDBRANCH  31  32
ENDBRANCH  24  26
ENDBRANCH  23  24
ENDBRANCH  22  23
ENDBRANCH   1  22
TORSDOF 14
ENDMDL
MODEL 3
REMARK VINA RESULT:     -11.7      4.940     10.303
REMARK SMILES C[C@H](C(=O)OCCOC(=O)c1ccc(-c2c3nc(c(-c4c(F)c(F)c(F)c(F)c4F)c4ccc([nH]4)c(-c4c(F)c(F)c(F)c(F)c4F)c4nc(c(-c5c(F)c(F)c(F)c(F)c5F)c5ccc2[nH]5)C=C4)C=C3)cc1)[C@H](C)[N@H+]1CC[C@H]([NH+]2CCCCC2)C1
REMARK SMILES IDX 6 1 5 2 3 3 4 4 2 5 1 6 74 7 75 8 76 9 77 10 86 11 78 13
REMARK SMILES IDX 79 14 80 15 81 16 85 17 82 19 84 20 83 21 7 22 8 23 9 24
REMARK SMILES IDX 10 25 11 26 12 27 73 28 13 29 72 30 14 31 15 32 16 33 66 34
REMARK SMILES IDX 17 35 71 36 65 37 67 38 18 39 70 40 64 41 63 42 19 44 51 45
REMARK SMILES IDX 31 46 50 47 32 48 35 49 49 50 68 51 33 52 34 53 48 55 69 56
REMARK SMILES IDX 36 57 20 58 21 59 29 60 22 61 23 62 27 63 30 64 24 65 25 66
REMARK SMILES IDX 28 67 26 68 52 69 53 70 61 71 54 72 55 73 59 74 62 75 56 76
REMARK SMILES IDX 57 77 60 78 58 79 37 80 38 81 46 82 39 83 40 84 44 85 47 86
REMARK SMILES IDX 41 87 42 88 45 89 43 90
REMARK H PARENT 76 12 80 18 67 43 35 54
REMARK Flexibility Score: inf
ROOT
ATOM      1  C   UNL A   1      31.782  28.351  27.419  1.00  0.00     0.274 C 
ENDROOT
BRANCH   1   2
ATOM      2  O   UNL A   1      32.306  27.315  26.539  1.00  0.00    -0.462 OA
BRANCH   2   3
ATOM      3  C   UNL A   1      31.415  26.340  26.257  1.00  0.00     0.314 C 
ATOM      4  O   UNL A   1      30.366  26.262  26.854  1.00  0.00    -0.252 OA
BRANCH   3   5
ATOM      5  C   UNL A   1      31.761  25.332  25.188  1.00  0.00     0.154 C 
ATOM      6  C   UNL A   1      31.396  23.899  25.531  1.00  0.00     0.026 C 
BRANCH   5   7
ATOM      7  C   UNL A   1      31.167  25.779  23.775  1.00  0.00     0.195 C 
ATOM      8  C   UNL A   1      31.774  24.798  22.733  1.00  0.00     0.076 C 
BRANCH   7   9
ATOM      9  N   UNL A   1      31.382  27.174  23.340  1.00  0.00    -0.327 N 
ATOM     10  C   UNL A   1      32.747  27.623  23.074  1.00  0.00     0.269 C 
ATOM     11  C   UNL A   1      30.609  27.724  22.217  1.00  0.00     0.328 C 
ATOM     12  H   UNL A   1      31.024  27.535  24.225  1.00  0.00     0.348 HD
ATOM     13  C   UNL A   1      32.521  29.108  22.798  1.00  0.00     0.132 C 
ATOM     14  C   UNL A   1      31.188  29.165  22.027  1.00  0.00     0.245 C 
BRANCH  14  15
ATOM     15  N   UNL A   1      30.285  30.315  22.335  1.00  0.00    -0.328 N 
ATOM     16  C   UNL A   1      29.107  30.370  21.456  1.00  0.00     0.262 C 
ATOM     17  C   UNL A   1      29.881  30.344  23.750  1.00  0.00     0.262 C 
ATOM     18  H   UNL A   1      30.838  31.151  22.151  1.00  0.00     0.348 HD
ATOM     19  C   UNL A   1      28.154  31.534  21.746  1.00  0.00     0.062 C 
ATOM     20  C   UNL A   1      28.983  31.545  24.076  1.00  0.00     0.062 C 
ATOM     21  C   UNL A   1      27.736  31.552  23.203  1.00  0.00     0.012 C 
ENDBRANCH  14  15
ENDBRANCH   7   9
ENDBRANCH   5   7
ENDBRANCH   3   5
ENDBRANCH   2   3
ENDBRANCH   1   2
BRANCH   1  22
ATOM     22  C   UNL A   1      31.736  29.819  26.898  1.00  0.00     0.275 C 
BRANCH  22  23
ATOM     23  O   UNL A   1      33.018  30.361  26.466  1.00  0.00    -0.458 OA
BRANCH  23  24
ATOM     24  C   UNL A   1      33.555  31.370  27.209  1.00  0.00     0.338 C 
ATOM     25  O   UNL A   1      32.980  32.385  27.571  1.00  0.00    -0.246 OA
BRANCH  24  26
ATOM     26  C   UNL A   1      34.945  31.054  27.661  1.00  0.00     0.060 A 
ATOM     27  C   UNL A   1      35.263  29.738  28.011  1.00  0.00     0.016 A 
ATOM     28  C   UNL A   1      35.889  32.045  27.919  1.00  0.00     0.016 A 
ATOM     29  C   UNL A   1      36.464  29.387  28.613  1.00  0.00     0.010 A 
ATOM     30  C   UNL A   1      37.115  31.701  28.530  1.00  0.00     0.010 A 
ATOM     31  C   UNL A   1      37.400  30.370  28.911  1.00  0.00    -0.014 A 
BRANCH  31  32
ATOM     32  C   UNL A   1      38.540  30.002  29.801  1.00  0.00     0.031 A 
ATOM     33  C   UNL A   1      39.630  29.122  29.250  1.00  0.00     0.074 A 
ATOM     34  C   UNL A   1      38.698  30.551  31.022  1.00  0.00     0.049 A 
ATOM     35  N   UNL A   1      40.658  28.583  29.856  1.00  0.00    -0.248 NA
ATOM     36  C   UNL A   1      39.554  28.814  27.813  1.00  0.00     0.031 C 
ATOM     37  C   UNL A   1      37.806  31.539  31.629  1.00  0.00     0.029 A 
ATOM     38  N   UNL A   1      39.684  30.373  31.966  1.00  0.00    -0.354 N 
ATOM     39  C   UNL A   1      41.316  27.833  28.888  1.00  0.00     0.074 A 
ATOM     40  C   UNL A   1      40.569  27.979  27.659  1.00  0.00     0.031 C 
ATOM     41  C   UNL A   1      38.290  31.887  32.834  1.00  0.00     0.029 A 
ATOM     42  C   UNL A   1      39.481  31.090  33.121  1.00  0.00     0.049 A 
ATOM     43  H   UNL A   1      40.462  29.786  31.826  1.00  0.00     0.167 HD
ATOM     44  C   UNL A   1      42.442  27.090  29.015  1.00  0.00     0.037 A 
ATOM     45  C   UNL A   1      40.147  31.070  34.293  1.00  0.00     0.037 A 
ATOM     46  C   UNL A   1      43.208  26.983  30.228  1.00  0.00     0.049 A 
ATOM     47  C   UNL A   1      41.335  30.152  34.447  1.00  0.00     0.074 A 
ATOM     48  C   UNL A   1      44.345  26.234  30.469  1.00  0.00     0.029 A 
ATOM     49  N   UNL A   1      42.918  27.660  31.405  1.00  0.00    -0.354 N 
ATOM     50  N   UNL A   1      41.903  29.374  33.556  1.00  0.00    -0.248 NA
ATOM     51  C   UNL A   1      41.965  30.096  35.774  1.00  0.00     0.031 C 
ATOM     52  C   UNL A   1      44.711  26.411  31.807  1.00  0.00     0.029 A 
ATOM     53  C   UNL A   1      43.843  27.325  32.382  1.00  0.00     0.049 A 
ATOM     54  H   UNL A   1      42.167  28.285  31.528  1.00  0.00     0.167 HD
ATOM     55  C   UNL A   1      42.967  28.759  34.205  1.00  0.00     0.074 A 
ATOM     56  C   UNL A   1      42.979  29.269  35.559  1.00  0.00     0.031 C 
ATOM     57  C   UNL A   1      43.851  27.852  33.723  1.00  0.00     0.037 A 
BRANCH  44  58
ATOM     58  C   UNL A   1      42.871  26.281  27.824  1.00  0.00     0.064 A 
ATOM     59  C   UNL A   1      43.781  26.766  26.874  1.00  0.00     0.173 A 
ATOM     60  C   UNL A   1      42.358  24.988  27.637  1.00  0.00     0.173 A 
ATOM     61  F   UNL A   1      44.290  28.002  26.995  1.00  0.00    -0.203 F 
ATOM     62  C   UNL A   1      44.132  26.003  25.762  1.00  0.00     0.198 A 
ATOM     63  C   UNL A   1      42.737  24.213  26.545  1.00  0.00     0.198 A 
ATOM     64  F   UNL A   1      41.487  24.471  28.518  1.00  0.00    -0.203 F 
ATOM     65  F   UNL A   1      44.954  26.511  24.835  1.00  0.00    -0.200 F 
ATOM     66  C   UNL A   1      43.615  24.725  25.602  1.00  0.00     0.200 A 
ATOM     67  F   UNL A   1      42.248  22.974  26.402  1.00  0.00    -0.200 F 
ATOM     68  F   UNL A   1      43.956  23.992  24.534  1.00  0.00    -0.200 F 
ENDBRANCH  44  58
BRANCH  45  69
ATOM     69  C   UNL A   1      39.673  31.889  35.446  1.00  0.00     0.064 A 
ATOM     70  C   UNL A   1      38.655  31.434  36.298  1.00  0.00     0.173 A 
ATOM     71  C   UNL A   1      40.196  33.168  35.691  1.00  0.00     0.173 A 
ATOM     72  F   UNL A   1      38.094  30.235  36.090  1.00  0.00    -0.203 F 
ATOM     73  C   UNL A   1      38.170  32.233  37.334  1.00  0.00     0.198 A 
ATOM     74  C   UNL A   1      39.737  33.950  36.749  1.00  0.00     0.198 A 
ATOM     75  F   UNL A   1      41.162  33.663  34.902  1.00  0.00    -0.203 F 
ATOM     76  F   UNL A   1      37.156  31.797  38.094  1.00  0.00    -0.200 F 
ATOM     77  C   UNL A   1      38.716  33.487  37.563  1.00  0.00     0.200 A 
ATOM     78  F   UNL A   1      40.279  35.154  36.975  1.00  0.00    -0.200 F 
ATOM     79  F   UNL A   1      38.251  34.252  38.560  1.00  0.00    -0.200 F 
ENDBRANCH  45  69
BRANCH  57  80
ATOM     80  C   UNL A   1      44.941  27.385  34.647  1.00  0.00     0.064 A 
ATOM     81  C   UNL A   1      44.799  26.238  35.443  1.00  0.00     0.173 A 
ATOM     82  C   UNL A   1      46.165  28.071  34.701  1.00  0.00     0.173 A 
ATOM     83  F   UNL A   1      43.645  25.554  35.439  1.00  0.00    -0.203 F 
ATOM     84  C   UNL A   1      45.831  25.812  36.275  1.00  0.00     0.198 A 
ATOM     85  C   UNL A   1      47.206  27.622  35.508  1.00  0.00     0.198 A 
ATOM     86  F   UNL A   1      46.358  29.170  33.955  1.00  0.00    -0.203 F 
ATOM     87  F   UNL A   1      45.653  24.743  37.065  1.00  0.00    -0.200 F 
ATOM     88  C   UNL A   1      47.035  26.498  36.301  1.00  0.00     0.200 A 
ATOM     89  F   UNL A   1      48.375  28.276  35.517  1.00  0.00    -0.200 F 
ATOM     90  F   UNL A   1      48.030  26.079  37.095  1.00  0.00    -0.200 F 
ENDBRANCH  57  80
ENDBRANCH  31  32
ENDBRANCH  24  26
ENDBRANCH  23  24
ENDBRANCH  22  23
ENDBRANCH   1  22
TORSDOF 14
ENDMDL
