MODEL 1
REMARK VINA RESULT:     -13.1      0.000      0.000
REMARK SMILES Cc1cc2c(c(C)c1Cl)C=C(C(=O)OCCOC(=O)c1ccc(-c3c4nc(c(-c5c(F)c(F)c(F)c(F)c5F)c5ccc([nH]5)c(-c5c(F)c(F)c(F)c(F)c5F)c5nc(c(-c6c(F)c(F)c(F)c(F)c6F)c6ccc3[nH]6)C=C5)C=C4)cc1)[C@H](C(F)(F)F)O2
REMARK SMILES IDX 16 1 15 2 14 3 12 4 13 5 11 6 1 7 2 8 3 9 8 10 4 11 6 12
REMARK SMILES IDX 9 13 5 14 88 15 7 16 10 17 83 18 84 19 85 20 86 21 87 22
REMARK SMILES IDX 17 23 18 24 19 25 20 26 21 27 82 28 22 29 81 30 23 31 24 32
REMARK SMILES IDX 25 33 75 34 26 35 80 36 74 37 76 38 27 39 79 40 73 41 72 42
REMARK SMILES IDX 28 44 60 45 40 46 59 47 41 48 44 49 58 50 77 51 42 52 43 53
REMARK SMILES IDX 57 55 78 56 45 57 29 58 30 59 38 60 31 61 32 62 36 63 39 64
REMARK SMILES IDX 33 65 34 66 37 67 35 68 61 69 62 70 70 71 63 72 64 73 68 74
REMARK SMILES IDX 71 75 65 76 66 77 69 78 67 79 46 80 47 81 55 82 48 83 49 84
REMARK SMILES IDX 53 85 56 86 50 87 51 88 54 89 52 90
REMARK H PARENT 76 43 44 54
REMARK Flexibility Score: inf
ROOT
ATOM      1  C   UNL A   1      32.011  30.011  25.371  1.00  0.00     0.275 C 
ENDROOT
BRANCH   1   2
ATOM      2  C   UNL A   1      33.084  29.265  24.577  1.00  0.00     0.275 C 
BRANCH   2   3
ATOM      3  O   UNL A   1      32.574  28.892  23.279  1.00  0.00    -0.459 OA
BRANCH   3   4
ATOM      4  C   UNL A   1      33.299  27.987  22.588  1.00  0.00     0.338 C 
ATOM      5  O   UNL A   1      34.212  28.235  21.819  1.00  0.00    -0.246 OA
BRANCH   4   6
ATOM      6  C   UNL A   1      32.887  26.611  22.939  1.00  0.00     0.087 C 
ATOM      7  C   UNL A   1      32.414  20.186  23.749  1.00  0.00     0.046 C 
ATOM      8  C   UNL A   1      32.816  21.636  23.703  1.00  0.00    -0.028 A 
ATOM      9  C   UNL A   1      31.930  22.569  23.148  1.00  0.00     0.052 A 
ATOM     10  C   UNL A   1      34.065  22.076  24.187  1.00  0.00     0.047 A 
ATOM     11  C   UNL A   1      32.277  23.915  23.066  1.00  0.00     0.128 A 
ATOM     12  C   UNL A   1      34.438  23.435  24.100  1.00  0.00    -0.021 A 
ATOM     13  Cl  UNL A   1      35.146  20.902  24.877  1.00  0.00    -0.084 Cl
ATOM     14  C   UNL A   1      33.528  24.353  23.517  1.00  0.00     0.022 A 
ATOM     15  O   UNL A   1      31.362  24.742  22.464  1.00  0.00    -0.475 OA
ATOM     16  C   UNL A   1      35.768  23.923  24.624  1.00  0.00     0.047 C 
ATOM     17  C   UNL A   1      33.864  25.755  23.273  1.00  0.00     0.027 C 
ATOM     18  C   UNL A   1      31.463  26.167  22.768  1.00  0.00     0.316 C 
BRANCH  18  19
ATOM     19  C   UNL A   1      30.511  26.508  23.929  1.00  0.00     0.430 C 
ATOM     20  F   UNL A   1      29.849  27.671  23.742  1.00  0.00    -0.167 F 
ATOM     21  F   UNL A   1      29.557  25.548  24.053  1.00  0.00    -0.167 F 
ATOM     22  F   UNL A   1      31.153  26.592  25.114  1.00  0.00    -0.167 F 
ENDBRANCH  18  19
ENDBRANCH   4   6
ENDBRANCH   3   4
ENDBRANCH   2   3
ENDBRANCH   1   2
BRANCH   1  23
ATOM     23  O   UNL A   1      32.415  30.089  26.751  1.00  0.00    -0.458 OA
BRANCH  23  24
ATOM     24  C   UNL A   1      33.032  31.229  27.132  1.00  0.00     0.338 C 
ATOM     25  O   UNL A   1      32.560  32.356  27.163  1.00  0.00    -0.246 OA
BRANCH  24  26
ATOM     26  C   UNL A   1      34.408  30.934  27.571  1.00  0.00     0.060 A 
ATOM     27  C   UNL A   1      34.780  29.620  27.836  1.00  0.00     0.016 A 
ATOM     28  C   UNL A   1      35.287  31.973  27.868  1.00  0.00     0.016 A 
ATOM     29  C   UNL A   1      35.968  29.355  28.514  1.00  0.00     0.010 A 
ATOM     30  C   UNL A   1      36.531  31.691  28.450  1.00  0.00     0.010 A 
ATOM     31  C   UNL A   1      36.865  30.381  28.842  1.00  0.00    -0.014 A 
BRANCH  31  32
ATOM     32  C   UNL A   1      38.091  30.101  29.657  1.00  0.00     0.031 A 
ATOM     33  C   UNL A   1      39.231  29.303  29.066  1.00  0.00     0.074 A 
ATOM     34  C   UNL A   1      38.238  30.595  30.906  1.00  0.00     0.049 A 
ATOM     35  N   UNL A   1      40.266  28.761  29.664  1.00  0.00    -0.248 NA
ATOM     36  C   UNL A   1      39.200  29.070  27.613  1.00  0.00     0.031 C 
ATOM     37  C   UNL A   1      37.275  31.445  31.604  1.00  0.00     0.029 A 
ATOM     38  N   UNL A   1      39.274  30.470  31.803  1.00  0.00    -0.354 N 
ATOM     39  C   UNL A   1      40.954  28.062  28.679  1.00  0.00     0.074 A 
ATOM     40  C   UNL A   1      40.232  28.255  27.441  1.00  0.00     0.031 C 
ATOM     41  C   UNL A   1      37.796  31.831  32.777  1.00  0.00     0.029 A 
ATOM     42  C   UNL A   1      39.073  31.155  32.977  1.00  0.00     0.049 A 
ATOM     43  H   UNL A   1      40.084  29.940  31.621  1.00  0.00     0.167 HD
ATOM     44  C   UNL A   1      42.084  27.323  28.799  1.00  0.00     0.037 A 
ATOM     45  C   UNL A   1      39.799  31.200  34.112  1.00  0.00     0.037 A 
ATOM     46  C   UNL A   1      42.859  27.206  30.008  1.00  0.00     0.049 A 
ATOM     47  C   UNL A   1      41.035  30.354  34.233  1.00  0.00     0.074 A 
ATOM     48  C   UNL A   1      44.016  26.477  30.224  1.00  0.00     0.029 A 
ATOM     49  N   UNL A   1      42.579  27.868  31.192  1.00  0.00    -0.354 N 
ATOM     50  N   UNL A   1      41.599  29.583  33.338  1.00  0.00    -0.248 NA
ATOM     51  C   UNL A   1      41.711  30.352  35.539  1.00  0.00     0.031 C 
ATOM     52  C   UNL A   1      44.423  26.676  31.547  1.00  0.00     0.029 A 
ATOM     53  C   UNL A   1      43.539  27.561  32.143  1.00  0.00     0.049 A 
ATOM     54  H   UNL A   1      41.812  28.468  31.337  1.00  0.00     0.167 HD
ATOM     55  C   UNL A   1      42.687  28.999  33.970  1.00  0.00     0.074 A 
ATOM     56  C   UNL A   1      42.726  29.529  35.316  1.00  0.00     0.031 C 
ATOM     57  C   UNL A   1      43.565  28.089  33.482  1.00  0.00     0.037 A 
BRANCH  44  58
ATOM     58  C   UNL A   1      42.551  26.548  27.601  1.00  0.00     0.064 A 
ATOM     59  C   UNL A   1      43.538  27.037  26.734  1.00  0.00     0.173 A 
ATOM     60  C   UNL A   1      42.049  25.257  27.364  1.00  0.00     0.173 A 
ATOM     61  F   UNL A   1      44.039  28.268  26.909  1.00  0.00    -0.203 F 
ATOM     62  C   UNL A   1      43.997  26.267  25.668  1.00  0.00     0.198 A 
ATOM     63  C   UNL A   1      42.532  24.480  26.315  1.00  0.00     0.198 A 
ATOM     64  F   UNL A   1      41.110  24.738  28.170  1.00  0.00    -0.203 F 
ATOM     65  F   UNL A   1      44.921  26.765  24.834  1.00  0.00    -0.200 F 
ATOM     66  C   UNL A   1      43.503  24.987  25.465  1.00  0.00     0.200 A 
ATOM     67  F   UNL A   1      42.063  23.238  26.131  1.00  0.00    -0.200 F 
ATOM     68  F   UNL A   1      43.962  24.241  24.451  1.00  0.00    -0.200 F 
ENDBRANCH  44  58
BRANCH  45  69
ATOM     69  C   UNL A   1      39.336  32.037  35.250  1.00  0.00     0.064 A 
ATOM     70  C   UNL A   1      39.699  33.388  35.345  1.00  0.00     0.173 A 
ATOM     71  C   UNL A   1      38.510  31.513  36.255  1.00  0.00     0.173 A 
ATOM     72  F   UNL A   1      40.516  33.927  34.428  1.00  0.00    -0.203 F 
ATOM     73  C   UNL A   1      39.248  34.182  36.397  1.00  0.00     0.198 A 
ATOM     74  C   UNL A   1      38.031  32.316  37.287  1.00  0.00     0.198 A 
ATOM     75  F   UNL A   1      38.140  30.224  36.217  1.00  0.00    -0.203 F 
ATOM     76  F   UNL A   1      39.634  35.462  36.481  1.00  0.00    -0.200 F 
ATOM     77  C   UNL A   1      38.403  33.649  37.359  1.00  0.00     0.200 A 
ATOM     78  F   UNL A   1      37.203  31.799  38.206  1.00  0.00    -0.200 F 
ATOM     79  F   UNL A   1      37.953  34.419  38.360  1.00  0.00    -0.200 F 
ENDBRANCH  45  69
BRANCH  57  80
ATOM     80  C   UNL A   1      44.644  27.609  34.405  1.00  0.00     0.064 A 
ATOM     81  C   UNL A   1      45.859  28.298  34.523  1.00  0.00     0.173 A 
ATOM     82  C   UNL A   1      44.445  26.479  35.211  1.00  0.00     0.173 A 
ATOM     83  F   UNL A   1      46.100  29.376  33.762  1.00  0.00    -0.203 F 
ATOM     84  C   UNL A   1      46.845  27.862  35.403  1.00  0.00     0.198 A 
ATOM     85  C   UNL A   1      45.425  26.059  36.107  1.00  0.00     0.198 A 
ATOM     86  F   UNL A   1      43.296  25.790  35.139  1.00  0.00    -0.203 F 
ATOM     87  F   UNL A   1      48.015  28.513  35.474  1.00  0.00    -0.200 F 
ATOM     88  C   UNL A   1      46.625  26.748  36.199  1.00  0.00     0.200 A 
ATOM     89  F   UNL A   1      45.206  24.988  36.883  1.00  0.00    -0.200 F 
ATOM     90  F   UNL A   1      47.573  26.332  37.050  1.00  0.00    -0.200 F 
ENDBRANCH  57  80
ENDBRANCH  31  32
ENDBRANCH  24  26
ENDBRANCH  23  24
ENDBRANCH   1  23
TORSDOF 12
ENDMDL
MODEL 2
REMARK VINA RESULT:     -13.0      0.746      1.852
REMARK SMILES Cc1cc2c(c(C)c1Cl)C=C(C(=O)OCCOC(=O)c1ccc(-c3c4nc(c(-c5c(F)c(F)c(F)c(F)c5F)c5ccc([nH]5)c(-c5c(F)c(F)c(F)c(F)c5F)c5nc(c(-c6c(F)c(F)c(F)c(F)c6F)c6ccc3[nH]6)C=C5)C=C4)cc1)[C@H](C(F)(F)F)O2
REMARK SMILES IDX 16 1 15 2 14 3 12 4 13 5 11 6 1 7 2 8 3 9 8 10 4 11 6 12
REMARK SMILES IDX 9 13 5 14 88 15 7 16 10 17 83 18 84 19 85 20 86 21 87 22
REMARK SMILES IDX 17 23 18 24 19 25 20 26 21 27 82 28 22 29 81 30 23 31 24 32
REMARK SMILES IDX 25 33 75 34 26 35 80 36 74 37 76 38 27 39 79 40 73 41 72 42
REMARK SMILES IDX 28 44 60 45 40 46 59 47 41 48 44 49 58 50 77 51 42 52 43 53
REMARK SMILES IDX 57 55 78 56 45 57 29 58 30 59 38 60 31 61 32 62 36 63 39 64
REMARK SMILES IDX 33 65 34 66 37 67 35 68 61 69 62 70 70 71 63 72 64 73 68 74
REMARK SMILES IDX 71 75 65 76 66 77 69 78 67 79 46 80 47 81 55 82 48 83 49 84
REMARK SMILES IDX 53 85 56 86 50 87 51 88 54 89 52 90
REMARK H PARENT 76 43 44 54
REMARK Flexibility Score: inf
ROOT
ATOM      1  C   UNL A   1      31.776  29.863  25.510  1.00  0.00     0.275 C 
ENDROOT
BRANCH   1   2
ATOM      2  C   UNL A   1      32.876  29.354  24.579  1.00  0.00     0.275 C 
BRANCH   2   3
ATOM      3  O   UNL A   1      33.105  27.946  24.801  1.00  0.00    -0.459 OA
BRANCH   3   4
ATOM      4  C   UNL A   1      33.093  27.157  23.706  1.00  0.00     0.338 C 
ATOM      5  O   UNL A   1      33.183  27.531  22.550  1.00  0.00    -0.246 OA
BRANCH   4   6
ATOM      6  C   UNL A   1      33.025  25.731  24.092  1.00  0.00     0.087 C 
ATOM      7  C   UNL A   1      33.839  19.316  24.689  1.00  0.00     0.046 C 
ATOM      8  C   UNL A   1      33.973  20.813  24.601  1.00  0.00    -0.028 A 
ATOM      9  C   UNL A   1      32.828  21.586  24.368  1.00  0.00     0.052 A 
ATOM     10  C   UNL A   1      35.222  21.455  24.730  1.00  0.00     0.047 A 
ATOM     11  C   UNL A   1      32.916  22.970  24.256  1.00  0.00     0.128 A 
ATOM     12  C   UNL A   1      35.332  22.858  24.607  1.00  0.00    -0.021 A 
ATOM     13  Cl  UNL A   1      36.629  20.478  25.026  1.00  0.00    -0.084 Cl
ATOM     14  C   UNL A   1      34.158  23.611  24.352  1.00  0.00     0.022 A 
ATOM     15  O   UNL A   1      31.747  23.634  23.981  1.00  0.00    -0.475 OA
ATOM     16  C   UNL A   1      36.660  23.561  24.754  1.00  0.00     0.047 C 
ATOM     17  C   UNL A   1      34.181  25.050  24.092  1.00  0.00     0.027 C 
ATOM     18  C   UNL A   1      31.702  25.055  24.312  1.00  0.00     0.316 C 
BRANCH  18  19
ATOM     19  C   UNL A   1      31.085  25.231  25.711  1.00  0.00     0.430 C 
ATOM     20  F   UNL A   1      32.012  25.281  26.693  1.00  0.00    -0.167 F 
ATOM     21  F   UNL A   1      30.401  26.404  25.780  1.00  0.00    -0.167 F 
ATOM     22  F   UNL A   1      30.218  24.242  26.021  1.00  0.00    -0.167 F 
ENDBRANCH  18  19
ENDBRANCH   4   6
ENDBRANCH   3   4
ENDBRANCH   2   3
ENDBRANCH   1   2
BRANCH   1  23
ATOM     23  O   UNL A   1      32.318  30.026  26.835  1.00  0.00    -0.458 OA
BRANCH  23  24
ATOM     24  C   UNL A   1      32.946  31.196  27.085  1.00  0.00     0.338 C 
ATOM     25  O   UNL A   1      32.478  32.322  27.008  1.00  0.00    -0.246 OA
BRANCH  24  26
ATOM     26  C   UNL A   1      34.327  30.940  27.531  1.00  0.00     0.060 A 
ATOM     27  C   UNL A   1      34.758  29.631  27.724  1.00  0.00     0.016 A 
ATOM     28  C   UNL A   1      35.151  32.000  27.905  1.00  0.00     0.016 A 
ATOM     29  C   UNL A   1      35.946  29.382  28.407  1.00  0.00     0.010 A 
ATOM     30  C   UNL A   1      36.398  31.742  28.492  1.00  0.00     0.010 A 
ATOM     31  C   UNL A   1      36.789  30.428  28.811  1.00  0.00    -0.014 A 
BRANCH  31  32
ATOM     32  C   UNL A   1      38.014  30.157  29.630  1.00  0.00     0.031 A 
ATOM     33  C   UNL A   1      39.160  29.363  29.043  1.00  0.00     0.074 A 
ATOM     34  C   UNL A   1      38.155  30.655  30.877  1.00  0.00     0.049 A 
ATOM     35  N   UNL A   1      40.196  28.829  29.646  1.00  0.00    -0.248 NA
ATOM     36  C   UNL A   1      39.134  29.127  27.591  1.00  0.00     0.031 C 
ATOM     37  C   UNL A   1      37.186  31.502  31.571  1.00  0.00     0.029 A 
ATOM     38  N   UNL A   1      39.190  30.539  31.777  1.00  0.00    -0.354 N 
ATOM     39  C   UNL A   1      40.891  28.131  28.665  1.00  0.00     0.074 A 
ATOM     40  C   UNL A   1      40.170  28.317  27.425  1.00  0.00     0.031 C 
ATOM     41  C   UNL A   1      37.702  31.895  32.744  1.00  0.00     0.029 A 
ATOM     42  C   UNL A   1      38.982  31.226  32.949  1.00  0.00     0.049 A 
ATOM     43  H   UNL A   1      40.003  30.013  31.599  1.00  0.00     0.167 HD
ATOM     44  C   UNL A   1      42.025  27.399  28.790  1.00  0.00     0.037 A 
ATOM     45  C   UNL A   1      39.705  31.279  34.085  1.00  0.00     0.037 A 
ATOM     46  C   UNL A   1      42.797  27.290  30.001  1.00  0.00     0.049 A 
ATOM     47  C   UNL A   1      40.945  30.440  34.212  1.00  0.00     0.074 A 
ATOM     48  C   UNL A   1      43.958  26.568  30.222  1.00  0.00     0.029 A 
ATOM     49  N   UNL A   1      42.511  27.954  31.182  1.00  0.00    -0.354 N 
ATOM     50  N   UNL A   1      41.516  29.670  33.320  1.00  0.00    -0.248 NA
ATOM     51  C   UNL A   1      41.618  30.446  35.520  1.00  0.00     0.031 C 
ATOM     52  C   UNL A   1      44.360  26.774  31.545  1.00  0.00     0.029 A 
ATOM     53  C   UNL A   1      43.470  27.655  32.136  1.00  0.00     0.049 A 
ATOM     54  H   UNL A   1      41.740  28.550  31.323  1.00  0.00     0.167 HD
ATOM     55  C   UNL A   1      42.605  29.094  33.957  1.00  0.00     0.074 A 
ATOM     56  C   UNL A   1      42.639  29.628  35.301  1.00  0.00     0.031 C 
ATOM     57  C   UNL A   1      43.489  28.187  33.474  1.00  0.00     0.037 A 
BRANCH  44  58
ATOM     58  C   UNL A   1      42.498  26.623  27.595  1.00  0.00     0.064 A 
ATOM     59  C   UNL A   1      43.485  27.114  26.729  1.00  0.00     0.173 A 
ATOM     60  C   UNL A   1      42.004  25.329  27.361  1.00  0.00     0.173 A 
ATOM     61  F   UNL A   1      43.979  28.349  26.902  1.00  0.00    -0.203 F 
ATOM     62  C   UNL A   1      43.952  26.344  25.667  1.00  0.00     0.198 A 
ATOM     63  C   UNL A   1      42.494  24.551  26.315  1.00  0.00     0.198 A 
ATOM     64  F   UNL A   1      41.065  24.807  28.165  1.00  0.00    -0.203 F 
ATOM     65  F   UNL A   1      44.875  26.845  24.834  1.00  0.00    -0.200 F 
ATOM     66  C   UNL A   1      43.464  25.061  25.466  1.00  0.00     0.200 A 
ATOM     67  F   UNL A   1      42.032  23.306  26.134  1.00  0.00    -0.200 F 
ATOM     68  F   UNL A   1      43.930  24.315  24.455  1.00  0.00    -0.200 F 
ENDBRANCH  44  58
BRANCH  45  69
ATOM     69  C   UNL A   1      39.235  32.117  35.220  1.00  0.00     0.064 A 
ATOM     70  C   UNL A   1      38.451  31.567  36.244  1.00  0.00     0.173 A 
ATOM     71  C   UNL A   1      39.573  33.475  35.316  1.00  0.00     0.173 A 
ATOM     72  F   UNL A   1      38.072  30.282  36.180  1.00  0.00    -0.203 F 
ATOM     73  C   UNL A   1      38.029  32.342  37.322  1.00  0.00     0.198 A 
ATOM     74  C   UNL A   1      39.179  34.241  36.411  1.00  0.00     0.198 A 
ATOM     75  F   UNL A   1      40.314  34.052  34.359  1.00  0.00    -0.203 F 
ATOM     76  F   UNL A   1      37.254  31.801  38.271  1.00  0.00    -0.200 F 
ATOM     77  C   UNL A   1      38.405  33.675  37.412  1.00  0.00     0.200 A 
ATOM     78  F   UNL A   1      39.558  35.523  36.500  1.00  0.00    -0.200 F 
ATOM     79  F   UNL A   1      38.015  34.415  38.458  1.00  0.00    -0.200 F 
ENDBRANCH  45  69
BRANCH  57  80
ATOM     80  C   UNL A   1      44.569  27.716  34.400  1.00  0.00     0.064 A 
ATOM     81  C   UNL A   1      44.406  26.564  35.182  1.00  0.00     0.173 A 
ATOM     82  C   UNL A   1      45.794  28.395  34.474  1.00  0.00     0.173 A 
ATOM     83  F   UNL A   1      43.246  25.890  35.156  1.00  0.00    -0.203 F 
ATOM     84  C   UNL A   1      45.425  26.118  36.019  1.00  0.00     0.198 A 
ATOM     85  C   UNL A   1      46.820  27.933  35.295  1.00  0.00     0.198 A 
ATOM     86  F   UNL A   1      46.001  29.499  33.741  1.00  0.00    -0.203 F 
ATOM     87  F   UNL A   1      45.234  25.035  36.786  1.00  0.00    -0.200 F 
ATOM     88  C   UNL A   1      46.632  26.797  36.069  1.00  0.00     0.200 A 
ATOM     89  F   UNL A   1      47.990  28.585  35.334  1.00  0.00    -0.200 F 
ATOM     90  F   UNL A   1      47.615  26.363  36.871  1.00  0.00    -0.200 F 
ENDBRANCH  57  80
ENDBRANCH  31  32
ENDBRANCH  24  26
ENDBRANCH  23  24
ENDBRANCH   1  23
TORSDOF 12
ENDMDL
MODEL 3
REMARK VINA RESULT:     -12.9      4.467      9.580
REMARK SMILES Cc1cc2c(c(C)c1Cl)C=C(C(=O)OCCOC(=O)c1ccc(-c3c4nc(c(-c5c(F)c(F)c(F)c(F)c5F)c5ccc([nH]5)c(-c5c(F)c(F)c(F)c(F)c5F)c5nc(c(-c6c(F)c(F)c(F)c(F)c6F)c6ccc3[nH]6)C=C5)C=C4)cc1)[C@H](C(F)(F)F)O2
REMARK SMILES IDX 16 1 15 2 14 3 12 4 13 5 11 6 1 7 2 8 3 9 8 10 4 11 6 12
REMARK SMILES IDX 9 13 5 14 88 15 7 16 10 17 83 18 84 19 85 20 86 21 87 22
REMARK SMILES IDX 17 23 18 24 19 25 20 26 21 27 82 28 22 29 81 30 23 31 24 32
REMARK SMILES IDX 25 33 75 34 26 35 80 36 74 37 76 38 27 39 79 40 73 41 72 42
REMARK SMILES IDX 28 44 60 45 40 46 59 47 41 48 44 49 58 50 77 51 42 52 43 53
REMARK SMILES IDX 57 55 78 56 45 57 29 58 30 59 38 60 31 61 32 62 36 63 39 64
REMARK SMILES IDX 33 65 34 66 37 67 35 68 61 69 62 70 70 71 63 72 64 73 68 74
REMARK SMILES IDX 71 75 65 76 66 77 69 78 67 79 46 80 47 81 55 82 48 83 49 84
REMARK SMILES IDX 53 85 56 86 50 87 51 88 54 89 52 90
REMARK H PARENT 76 43 44 54
REMARK Flexibility Score: inf
ROOT
ATOM      1  C   UNL A   1      36.744  20.318  24.912  1.00  0.00     0.275 C 
ENDROOT
BRANCH   1   2
ATOM      2  C   UNL A   1      35.308  20.566  25.374  1.00  0.00     0.275 C 
BRANCH   2   3
ATOM      3  O   UNL A   1      35.189  21.887  25.942  1.00  0.00    -0.459 OA
BRANCH   3   4
ATOM      4  C   UNL A   1      34.042  22.155  26.601  1.00  0.00     0.338 C 
ATOM      5  O   UNL A   1      33.765  21.803  27.734  1.00  0.00    -0.246 OA
BRANCH   4   6
ATOM      6  C   UNL A   1      33.159  23.014  25.782  1.00  0.00     0.087 C 
ATOM      7  C   UNL A   1      29.198  27.629  23.506  1.00  0.00     0.046 C 
ATOM      8  C   UNL A   1      30.307  26.812  24.113  1.00  0.00    -0.028 A 
ATOM      9  C   UNL A   1      30.188  25.415  24.139  1.00  0.00     0.052 A 
ATOM     10  C   UNL A   1      31.455  27.414  24.668  1.00  0.00     0.047 A 
ATOM     11  C   UNL A   1      31.182  24.629  24.714  1.00  0.00     0.128 A 
ATOM     12  C   UNL A   1      32.467  26.632  25.266  1.00  0.00    -0.021 A 
ATOM     13  Cl  UNL A   1      31.587  29.147  24.618  1.00  0.00    -0.084 Cl
ATOM     14  C   UNL A   1      32.309  25.224  25.295  1.00  0.00     0.022 A 
ATOM     15  O   UNL A   1      30.951  23.276  24.733  1.00  0.00    -0.475 OA
ATOM     16  C   UNL A   1      33.706  27.263  25.856  1.00  0.00     0.047 C 
ATOM     17  C   UNL A   1      33.239  24.336  25.991  1.00  0.00     0.027 C 
ATOM     18  C   UNL A   1      32.117  22.411  24.883  1.00  0.00     0.316 C 
BRANCH  18  19
ATOM     19  C   UNL A   1      32.607  21.971  23.491  1.00  0.00     0.430 C 
ATOM     20  F   UNL A   1      31.738  22.284  22.505  1.00  0.00    -0.167 F 
ATOM     21  F   UNL A   1      33.770  22.600  23.181  1.00  0.00    -0.167 F 
ATOM     22  F   UNL A   1      32.837  20.642  23.423  1.00  0.00    -0.167 F 
ENDBRANCH  18  19
ENDBRANCH   4   6
ENDBRANCH   3   4
ENDBRANCH   2   3
ENDBRANCH   1   2
BRANCH   1  23
ATOM     23  O   UNL A   1      37.554  21.457  25.259  1.00  0.00    -0.458 OA
BRANCH  23  24
ATOM     24  C   UNL A   1      38.756  21.191  25.816  1.00  0.00     0.338 C 
ATOM     25  O   UNL A   1      39.376  20.138  25.779  1.00  0.00    -0.246 OA
BRANCH  24  26
ATOM     26  C   UNL A   1      39.283  22.399  26.477  1.00  0.00     0.060 A 
ATOM     27  C   UNL A   1      38.751  23.645  26.161  1.00  0.00     0.016 A 
ATOM     28  C   UNL A   1      40.408  22.316  27.296  1.00  0.00     0.016 A 
ATOM     29  C   UNL A   1      39.414  24.805  26.552  1.00  0.00     0.010 A 
ATOM     30  C   UNL A   1      41.007  23.487  27.779  1.00  0.00     0.010 A 
ATOM     31  C   UNL A   1      40.558  24.754  27.363  1.00  0.00    -0.014 A 
BRANCH  31  32
ATOM     32  C   UNL A   1      41.321  25.999  27.696  1.00  0.00     0.031 A 
ATOM     33  C   UNL A   1      40.707  27.050  28.595  1.00  0.00     0.074 A 
ATOM     34  C   UNL A   1      42.584  26.193  27.259  1.00  0.00     0.049 A 
ATOM     35  N   UNL A   1      41.096  28.282  28.820  1.00  0.00    -0.248 NA
ATOM     36  C   UNL A   1      39.488  26.671  29.327  1.00  0.00     0.031 C 
ATOM     37  C   UNL A   1      43.358  25.255  26.448  1.00  0.00     0.029 A 
ATOM     38  N   UNL A   1      43.452  27.242  27.461  1.00  0.00    -0.354 N 
ATOM     39  C   UNL A   1      40.130  28.843  29.648  1.00  0.00     0.074 A 
ATOM     40  C   UNL A   1      39.142  27.817  29.898  1.00  0.00     0.031 C 
ATOM     41  C   UNL A   1      44.603  25.728  26.292  1.00  0.00     0.029 A 
ATOM     42  C   UNL A   1      44.683  27.060  26.878  1.00  0.00     0.049 A 
ATOM     43  H   UNL A   1      43.214  28.048  27.975  1.00  0.00     0.167 HD
ATOM     44  C   UNL A   1      40.073  30.101  30.150  1.00  0.00     0.037 A 
ATOM     45  C   UNL A   1      45.745  27.884  26.774  1.00  0.00     0.037 A 
ATOM     46  C   UNL A   1      41.101  31.095  29.983  1.00  0.00     0.049 A 
ATOM     47  C   UNL A   1      45.650  29.283  27.316  1.00  0.00     0.074 A 
ATOM     48  C   UNL A   1      41.127  32.397  30.453  1.00  0.00     0.029 A 
ATOM     49  N   UNL A   1      42.304  30.884  29.328  1.00  0.00    -0.354 N 
ATOM     50  N   UNL A   1      44.671  29.849  27.975  1.00  0.00    -0.248 NA
ATOM     51  C   UNL A   1      46.794  30.171  27.060  1.00  0.00     0.031 C 
ATOM     52  C   UNL A   1      42.335  32.984  30.059  1.00  0.00     0.029 A 
ATOM     53  C   UNL A   1      43.076  32.033  29.378  1.00  0.00     0.049 A 
ATOM     54  H   UNL A   1      42.570  30.043  28.891  1.00  0.00     0.167 HD
ATOM     55  C   UNL A   1      45.073  31.157  28.205  1.00  0.00     0.074 A 
ATOM     56  C   UNL A   1      46.401  31.294  27.645  1.00  0.00     0.031 C 
ATOM     57  C   UNL A   1      44.394  32.160  28.811  1.00  0.00     0.037 A 
BRANCH  44  58
ATOM     58  C   UNL A   1      38.841  30.500  30.911  1.00  0.00     0.064 A 
ATOM     59  C   UNL A   1      38.771  30.426  32.308  1.00  0.00     0.173 A 
ATOM     60  C   UNL A   1      37.740  31.039  30.225  1.00  0.00     0.173 A 
ATOM     61  F   UNL A   1      39.790  29.907  33.008  1.00  0.00    -0.203 F 
ATOM     62  C   UNL A   1      37.639  30.866  32.991  1.00  0.00     0.198 A 
ATOM     63  C   UNL A   1      36.623  31.504  30.912  1.00  0.00     0.198 A 
ATOM     64  F   UNL A   1      37.760  31.141  28.887  1.00  0.00    -0.203 F 
ATOM     65  F   UNL A   1      37.581  30.760  34.326  1.00  0.00    -0.200 F 
ATOM     66  C   UNL A   1      36.571  31.414  32.295  1.00  0.00     0.200 A 
ATOM     67  F   UNL A   1      35.599  32.047  30.238  1.00  0.00    -0.200 F 
ATOM     68  F   UNL A   1      35.492  31.855  32.957  1.00  0.00    -0.200 F 
ENDBRANCH  44  58
BRANCH  45  69
ATOM     69  C   UNL A   1      46.972  27.422  26.073  1.00  0.00     0.064 A 
ATOM     70  C   UNL A   1      47.121  27.601  24.691  1.00  0.00     0.173 A 
ATOM     71  C   UNL A   1      48.025  26.810  26.769  1.00  0.00     0.173 A 
ATOM     72  F   UNL A   1      46.127  28.149  23.976  1.00  0.00    -0.203 F 
ATOM     73  C   UNL A   1      48.279  27.192  24.033  1.00  0.00     0.198 A 
ATOM     74  C   UNL A   1      49.197  26.433  26.117  1.00  0.00     0.198 A 
ATOM     75  F   UNL A   1      47.930  26.608  28.091  1.00  0.00    -0.203 F 
ATOM     76  F   UNL A   1      48.384  27.345  22.707  1.00  0.00    -0.200 F 
ATOM     77  C   UNL A   1      49.322  26.620  24.749  1.00  0.00     0.200 A 
ATOM     78  F   UNL A   1      50.206  25.895  26.815  1.00  0.00    -0.200 F 
ATOM     79  F   UNL A   1      50.443  26.245  24.119  1.00  0.00    -0.200 F 
ENDBRANCH  45  69
BRANCH  57  80
ATOM     80  C   UNL A   1      45.072  33.493  28.905  1.00  0.00     0.064 A 
ATOM     81  C   UNL A   1      44.870  34.482  27.932  1.00  0.00     0.173 A 
ATOM     82  C   UNL A   1      45.893  33.803  29.999  1.00  0.00     0.173 A 
ATOM     83  F   UNL A   1      44.105  34.227  26.860  1.00  0.00    -0.203 F 
ATOM     84  C   UNL A   1      45.481  35.728  28.041  1.00  0.00     0.198 A 
ATOM     85  C   UNL A   1      46.484  35.059  30.117  1.00  0.00     0.198 A 
ATOM     86  F   UNL A   1      46.111  32.892  30.960  1.00  0.00    -0.203 F 
ATOM     87  F   UNL A   1      45.305  36.646  27.080  1.00  0.00    -0.200 F 
ATOM     88  C   UNL A   1      46.281  36.018  29.136  1.00  0.00     0.200 A 
ATOM     89  F   UNL A   1      47.248  35.340  31.182  1.00  0.00    -0.200 F 
ATOM     90  F   UNL A   1      46.864  37.220  29.243  1.00  0.00    -0.200 F 
ENDBRANCH  57  80
ENDBRANCH  31  32
ENDBRANCH  24  26
ENDBRANCH  23  24
ENDBRANCH   1  23
TORSDOF 12
ENDMDL
