MODEL 1
REMARK VINA RESULT:     -12.3      0.000      0.000
REMARK SMILES O=C(OCCOC(=O)c1ccc(-c2c3nc(c(-c4c(F)c(F)c(F)c(F)c4F)c4ccc([nH]4)c(-c4c(F)c(F)c(F)c(F)c4F)c4nc(c(-c5c(F)c(F)c(F)c(F)c5F)c5ccc2[nH]5)C=C4)C=C3)cc1)C1=Cc2cc(S(F)(F)(F)(F)F)cc(Br)c2O[C@H]1C(F)(F)F
REMARK SMILES IDX 5 1 4 2 3 3 2 4 1 5 72 6 73 7 88 8 74 9 87 10 75 11 86 12
REMARK SMILES IDX 76 13 84 14 83 15 85 16 89 17 90 18 91 19 92 20 77 21 78 22
REMARK SMILES IDX 79 23 80 24 81 25 82 26 6 27 7 28 8 29 9 30 10 31 71 32
REMARK SMILES IDX 11 33 70 34 12 35 13 36 14 37 64 38 15 39 69 40 63 41 65 42
REMARK SMILES IDX 16 43 68 44 62 45 61 46 17 48 49 49 29 50 48 51 30 52 33 53
REMARK SMILES IDX 47 54 66 55 31 56 32 57 46 59 67 60 34 61 18 62 19 63 27 64
REMARK SMILES IDX 20 65 21 66 25 67 28 68 22 69 23 70 26 71 24 72 50 73 51 74
REMARK SMILES IDX 59 75 52 76 53 77 57 78 60 79 54 80 55 81 58 82 56 83 35 84
REMARK SMILES IDX 36 85 44 86 37 87 38 88 42 89 45 90 39 91 40 92 43 93 41 94
REMARK H PARENT 65 47 33 58
REMARK Flexibility Score: inf
ROOT
ATOM      1  C   UNL A   1      32.364  29.760  27.299  1.00  0.00     0.275 C 
ENDROOT
BRANCH   1   2
ATOM      2  C   UNL A   1      31.687  28.431  27.012  1.00  0.00     0.275 C 
BRANCH   2   3
ATOM      3  O   UNL A   1      32.369  27.770  25.956  1.00  0.00    -0.459 OA
BRANCH   3   4
ATOM      4  C   UNL A   1      31.634  27.176  24.898  1.00  0.00     0.338 C 
ATOM      5  O   UNL A   1      30.434  26.802  25.088  1.00  0.00    -0.246 OA
BRANCH   4   6
ATOM      6  C   UNL A   1      32.282  26.986  23.535  1.00  0.00     0.087 C 
ATOM      7  C   UNL A   1      33.214  26.013  23.355  1.00  0.00     0.027 C 
ATOM      8  C   UNL A   1      31.886  27.883  22.374  1.00  0.00     0.316 C 
ATOM      9  C   UNL A   1      33.609  25.115  24.517  1.00  0.00     0.020 A 
ATOM     10  O   UNL A   1      31.321  25.003  25.150  1.00  0.00    -0.474 OA
ATOM     11  C   UNL A   1      34.953  24.859  24.734  1.00  0.00     0.036 A 
ATOM     12  C   UNL A   1      32.673  24.594  25.301  1.00  0.00     0.142 A 
ATOM     13  C   UNL A   1      35.195  23.799  25.640  1.00  0.00     0.109 A 
ATOM     14  C   UNL A   1      32.999  23.662  26.257  1.00  0.00     0.062 A 
ATOM     15  C   UNL A   1      34.303  23.318  26.486  1.00  0.00     0.044 A 
ATOM     16  Br  UNL A   1      31.577  22.815  27.306  1.00  0.00    -0.047 Br
BRANCH   8  17
ATOM     17  C   UNL A   1      30.834  28.878  22.838  1.00  0.00     0.430 C 
ATOM     18  F   UNL A   1      29.688  28.230  23.027  1.00  0.00    -0.167 F 
ATOM     19  F   UNL A   1      31.167  29.527  23.951  1.00  0.00    -0.167 F 
ATOM     20  F   UNL A   1      30.692  29.750  21.843  1.00  0.00    -0.167 F 
ENDBRANCH   8  17
BRANCH  13  21
ATOM     21  S   UNL A   1      36.843  23.049  25.638  1.00  0.00     0.310 S 
ATOM     22  F   UNL A   1      37.258  23.813  24.312  1.00  0.00    -0.094 F 
ATOM     23  F   UNL A   1      36.287  21.897  24.719  1.00  0.00    -0.094 F 
ATOM     24  F   UNL A   1      38.258  22.405  25.637  1.00  0.00    -0.094 F 
ATOM     25  F   UNL A   1      37.415  24.283  26.441  1.00  0.00    -0.094 F 
ATOM     26  F   UNL A   1      35.440  23.772  25.554  1.00  0.00    -0.094 F 
ENDBRANCH  13  21
ENDBRANCH   4   6
ENDBRANCH   3   4
ENDBRANCH   2   3
ENDBRANCH   1   2
BRANCH   1  27
ATOM     27  O   UNL A   1      33.773  29.596  27.239  1.00  0.00    -0.458 OA
BRANCH  27  28
ATOM     28  C   UNL A   1      34.622  30.491  27.941  1.00  0.00     0.338 C 
ATOM     29  O   UNL A   1      34.192  31.635  28.288  1.00  0.00    -0.246 OA
BRANCH  28  30
ATOM     30  C   UNL A   1      36.047  30.081  28.278  1.00  0.00     0.060 A 
ATOM     31  C   UNL A   1      37.043  30.327  27.348  1.00  0.00     0.016 A 
ATOM     32  C   UNL A   1      36.319  29.506  29.444  1.00  0.00     0.016 A 
ATOM     33  C   UNL A   1      38.262  29.663  27.624  1.00  0.00     0.010 A 
ATOM     34  C   UNL A   1      37.572  29.000  29.699  1.00  0.00     0.010 A 
ATOM     35  C   UNL A   1      38.589  29.154  28.798  1.00  0.00    -0.014 A 
BRANCH  35  36
ATOM     36  C   UNL A   1      40.020  28.763  29.131  1.00  0.00     0.031 A 
ATOM     37  C   UNL A   1      40.488  27.534  28.664  1.00  0.00     0.074 A 
ATOM     38  C   UNL A   1      40.778  29.647  29.879  1.00  0.00     0.049 A 
ATOM     39  N   UNL A   1      41.710  27.019  28.812  1.00  0.00    -0.248 NA
ATOM     40  C   UNL A   1      39.675  26.579  27.897  1.00  0.00     0.031 C 
ATOM     41  C   UNL A   1      40.315  30.892  30.348  1.00  0.00     0.029 A 
ATOM     42  N   UNL A   1      42.080  29.496  30.301  1.00  0.00    -0.354 N 
ATOM     43  C   UNL A   1      41.786  25.831  28.209  1.00  0.00     0.074 A 
ATOM     44  C   UNL A   1      40.476  25.528  27.617  1.00  0.00     0.031 C 
ATOM     45  C   UNL A   1      41.319  31.478  31.051  1.00  0.00     0.029 A 
ATOM     46  C   UNL A   1      42.427  30.609  31.034  1.00  0.00     0.049 A 
ATOM     47  H   UNL A   1      42.663  28.725  30.112  1.00  0.00     0.167 HD
ATOM     48  C   UNL A   1      42.896  24.989  28.129  1.00  0.00     0.037 A 
ATOM     49  C   UNL A   1      43.636  30.870  31.660  1.00  0.00     0.037 A 
ATOM     50  C   UNL A   1      44.118  25.271  28.719  1.00  0.00     0.049 A 
ATOM     51  C   UNL A   1      44.729  30.002  31.629  1.00  0.00     0.074 A 
ATOM     52  C   UNL A   1      45.250  24.437  28.640  1.00  0.00     0.029 A 
ATOM     53  N   UNL A   1      44.457  26.373  29.472  1.00  0.00    -0.354 N 
ATOM     54  N   UNL A   1      44.817  28.833  30.993  1.00  0.00    -0.248 NA
ATOM     55  C   UNL A   1      46.002  30.253  32.317  1.00  0.00     0.031 C 
ATOM     56  C   UNL A   1      46.255  25.023  29.344  1.00  0.00     0.029 A 
ATOM     57  C   UNL A   1      45.767  26.233  29.874  1.00  0.00     0.049 A 
ATOM     58  H   UNL A   1      43.866  27.131  29.685  1.00  0.00     0.167 HD
ATOM     59  C   UNL A   1      46.026  28.298  31.178  1.00  0.00     0.074 A 
ATOM     60  C   UNL A   1      46.803  29.201  32.038  1.00  0.00     0.031 C 
ATOM     61  C   UNL A   1      46.513  27.097  30.661  1.00  0.00     0.037 A 
BRANCH  48  62
ATOM     62  C   UNL A   1      42.758  23.693  27.349  1.00  0.00     0.064 A 
ATOM     63  C   UNL A   1      42.264  22.565  27.985  1.00  0.00     0.173 A 
ATOM     64  C   UNL A   1      43.118  23.660  26.071  1.00  0.00     0.173 A 
ATOM     65  F   UNL A   1      41.661  22.607  29.170  1.00  0.00    -0.203 F 
ATOM     66  C   UNL A   1      42.461  21.366  27.261  1.00  0.00     0.198 A 
ATOM     67  C   UNL A   1      43.157  22.470  25.385  1.00  0.00     0.198 A 
ATOM     68  F   UNL A   1      43.445  24.789  25.449  1.00  0.00    -0.203 F 
ATOM     69  F   UNL A   1      42.356  20.218  27.925  1.00  0.00    -0.200 F 
ATOM     70  C   UNL A   1      42.739  21.307  25.971  1.00  0.00     0.200 A 
ATOM     71  F   UNL A   1      43.607  22.448  24.134  1.00  0.00    -0.200 F 
ATOM     72  F   UNL A   1      42.622  20.177  25.279  1.00  0.00    -0.200 F 
ENDBRANCH  48  62
BRANCH  49  73
ATOM     73  C   UNL A   1      43.778  32.177  32.426  1.00  0.00     0.064 A 
ATOM     74  C   UNL A   1      43.452  32.212  33.772  1.00  0.00     0.173 A 
ATOM     75  C   UNL A   1      44.216  33.258  31.794  1.00  0.00     0.173 A 
ATOM     76  F   UNL A   1      43.254  31.117  34.500  1.00  0.00    -0.203 F 
ATOM     77  C   UNL A   1      43.347  33.520  34.301  1.00  0.00     0.198 A 
ATOM     78  C   UNL A   1      44.213  34.483  32.418  1.00  0.00     0.198 A 
ATOM     79  F   UNL A   1      44.663  33.157  30.545  1.00  0.00    -0.203 F 
ATOM     80  F   UNL A   1      42.701  33.672  35.454  1.00  0.00    -0.200 F 
ATOM     81  C   UNL A   1      43.846  34.602  33.730  1.00  0.00     0.200 A 
ATOM     82  F   UNL A   1      44.572  35.567  31.737  1.00  0.00    -0.200 F 
ATOM     83  F   UNL A   1      43.985  35.745  34.395  1.00  0.00    -0.200 F 
ENDBRANCH  49  73
BRANCH  61  84
ATOM     84  C   UNL A   1      47.948  26.713  30.979  1.00  0.00     0.064 A 
ATOM     85  C   UNL A   1      48.957  27.187  30.155  1.00  0.00     0.173 A 
ATOM     86  C   UNL A   1      48.219  25.944  32.027  1.00  0.00     0.173 A 
ATOM     87  F   UNL A   1      48.768  28.152  29.260  1.00  0.00    -0.203 F 
ATOM     88  C   UNL A   1      50.206  26.553  30.355  1.00  0.00     0.198 A 
ATOM     89  C   UNL A   1      49.492  25.470  32.236  1.00  0.00     0.198 A 
ATOM     90  F   UNL A   1      47.250  25.629  32.881  1.00  0.00    -0.203 F 
ATOM     91  F   UNL A   1      51.121  26.672  29.397  1.00  0.00    -0.200 F 
ATOM     92  C   UNL A   1      50.526  25.850  31.427  1.00  0.00     0.200 A 
ATOM     93  F   UNL A   1      49.721  24.629  33.241  1.00  0.00    -0.200 F 
ATOM     94  F   UNL A   1      51.787  25.529  31.703  1.00  0.00    -0.200 F 
ENDBRANCH  61  84
ENDBRANCH  35  36
ENDBRANCH  28  30
ENDBRANCH  27  28
ENDBRANCH   1  27
TORSDOF 13
ENDMDL
MODEL 2
REMARK VINA RESULT:     -12.2      3.420      8.714
REMARK SMILES O=C(OCCOC(=O)c1ccc(-c2c3nc(c(-c4c(F)c(F)c(F)c(F)c4F)c4ccc([nH]4)c(-c4c(F)c(F)c(F)c(F)c4F)c4nc(c(-c5c(F)c(F)c(F)c(F)c5F)c5ccc2[nH]5)C=C4)C=C3)cc1)C1=Cc2cc(S(F)(F)(F)(F)F)cc(Br)c2O[C@H]1C(F)(F)F
REMARK SMILES IDX 5 1 4 2 3 3 2 4 1 5 72 6 73 7 88 8 74 9 87 10 75 11 86 12
REMARK SMILES IDX 76 13 84 14 83 15 85 16 89 17 90 18 91 19 92 20 77 21 78 22
REMARK SMILES IDX 79 23 80 24 81 25 82 26 6 27 7 28 8 29 9 30 10 31 71 32
REMARK SMILES IDX 11 33 70 34 12 35 13 36 14 37 64 38 15 39 69 40 63 41 65 42
REMARK SMILES IDX 16 43 68 44 62 45 61 46 17 48 49 49 29 50 48 51 30 52 33 53
REMARK SMILES IDX 47 54 66 55 31 56 32 57 46 59 67 60 34 61 18 62 19 63 27 64
REMARK SMILES IDX 20 65 21 66 25 67 28 68 22 69 23 70 26 71 24 72 50 73 51 74
REMARK SMILES IDX 59 75 52 76 53 77 57 78 60 79 54 80 55 81 58 82 56 83 35 84
REMARK SMILES IDX 36 85 44 86 37 87 38 88 42 89 45 90 39 91 40 92 43 93 41 94
REMARK H PARENT 65 47 33 58
REMARK Flexibility Score: inf
ROOT
ATOM      1  C   UNL A   1      37.409  22.053  24.686  1.00  0.00     0.275 C 
ENDROOT
BRANCH   1   2
ATOM      2  C   UNL A   1      36.344  22.678  23.800  1.00  0.00     0.275 C 
BRANCH   2   3
ATOM      3  O   UNL A   1      35.269  23.138  24.606  1.00  0.00    -0.459 OA
BRANCH   3   4
ATOM      4  C   UNL A   1      33.931  22.820  24.255  1.00  0.00     0.338 C 
ATOM      5  O   UNL A   1      33.636  22.556  23.047  1.00  0.00    -0.246 OA
BRANCH   4   6
ATOM      6  C   UNL A   1      32.851  22.792  25.325  1.00  0.00     0.087 C 
ATOM      7  C   UNL A   1      32.365  23.958  25.830  1.00  0.00     0.027 C 
ATOM      8  C   UNL A   1      32.313  21.463  25.829  1.00  0.00     0.316 C 
ATOM      9  C   UNL A   1      32.902  25.288  25.324  1.00  0.00     0.020 A 
ATOM     10  O   UNL A   1      32.890  24.403  23.119  1.00  0.00    -0.474 OA
ATOM     11  C   UNL A   1      33.213  26.274  26.246  1.00  0.00     0.036 A 
ATOM     12  C   UNL A   1      33.066  25.485  24.022  1.00  0.00     0.142 A 
ATOM     13  C   UNL A   1      33.423  27.550  25.670  1.00  0.00     0.109 A 
ATOM     14  C   UNL A   1      33.403  26.726  23.539  1.00  0.00     0.062 A 
ATOM     15  C   UNL A   1      33.667  27.763  24.391  1.00  0.00     0.044 A 
ATOM     16  Br  UNL A   1      33.507  27.015  21.603  1.00  0.00    -0.047 Br
BRANCH   8  17
ATOM     17  C   UNL A   1      33.018  20.325  25.108  1.00  0.00     0.430 C 
ATOM     18  F   UNL A   1      32.597  20.293  23.847  1.00  0.00    -0.167 F 
ATOM     19  F   UNL A   1      34.345  20.420  25.130  1.00  0.00    -0.167 F 
ATOM     20  F   UNL A   1      32.643  19.211  25.730  1.00  0.00    -0.167 F 
ENDBRANCH   8  17
BRANCH  13  21
ATOM     21  S   UNL A   1      33.348  28.990  26.765  1.00  0.00     0.310 S 
ATOM     22  F   UNL A   1      32.797  28.122  27.973  1.00  0.00    -0.094 F 
ATOM     23  F   UNL A   1      31.851  29.210  26.328  1.00  0.00    -0.094 F 
ATOM     24  F   UNL A   1      33.285  30.227  27.704  1.00  0.00    -0.094 F 
ATOM     25  F   UNL A   1      34.802  28.672  27.296  1.00  0.00    -0.094 F 
ATOM     26  F   UNL A   1      33.390  27.667  25.901  1.00  0.00    -0.094 F 
ENDBRANCH  13  21
ENDBRANCH   4   6
ENDBRANCH   3   4
ENDBRANCH   2   3
ENDBRANCH   1   2
BRANCH   1  27
ATOM     27  O   UNL A   1      37.690  22.922  25.773  1.00  0.00    -0.458 OA
BRANCH  27  28
ATOM     28  C   UNL A   1      39.022  23.061  26.243  1.00  0.00     0.338 C 
ATOM     29  O   UNL A   1      39.858  22.120  26.073  1.00  0.00    -0.246 OA
BRANCH  28  30
ATOM     30  C   UNL A   1      39.449  24.337  26.951  1.00  0.00     0.060 A 
ATOM     31  C   UNL A   1      39.145  24.480  28.295  1.00  0.00     0.016 A 
ATOM     32  C   UNL A   1      40.103  25.284  26.288  1.00  0.00     0.016 A 
ATOM     33  C   UNL A   1      39.323  25.795  28.786  1.00  0.00     0.010 A 
ATOM     34  C   UNL A   1      40.363  26.498  26.877  1.00  0.00     0.010 A 
ATOM     35  C   UNL A   1      40.036  26.730  28.184  1.00  0.00    -0.014 A 
BRANCH  35  36
ATOM     36  C   UNL A   1      40.472  27.995  28.906  1.00  0.00     0.031 A 
ATOM     37  C   UNL A   1      39.523  28.998  29.100  1.00  0.00     0.074 A 
ATOM     38  C   UNL A   1      41.787  28.079  29.332  1.00  0.00     0.049 A 
ATOM     39  N   UNL A   1      39.685  30.161  29.733  1.00  0.00    -0.248 NA
ATOM     40  C   UNL A   1      38.135  28.924  28.620  1.00  0.00     0.031 C 
ATOM     41  C   UNL A   1      42.749  27.068  29.148  1.00  0.00     0.029 A 
ATOM     42  N   UNL A   1      42.396  29.124  29.991  1.00  0.00    -0.354 N 
ATOM     43  C   UNL A   1      38.542  30.851  29.731  1.00  0.00     0.074 A 
ATOM     44  C   UNL A   1      37.530  30.068  29.010  1.00  0.00     0.031 C 
ATOM     45  C   UNL A   1      43.923  27.500  29.677  1.00  0.00     0.029 A 
ATOM     46  C   UNL A   1      43.714  28.790  30.202  1.00  0.00     0.049 A 
ATOM     47  H   UNL A   1      41.962  29.966  30.264  1.00  0.00     0.167 HD
ATOM     48  C   UNL A   1      38.304  32.101  30.304  1.00  0.00     0.037 A 
ATOM     49  C   UNL A   1      44.696  29.553  30.815  1.00  0.00     0.037 A 
ATOM     50  C   UNL A   1      39.276  32.845  30.955  1.00  0.00     0.049 A 
ATOM     51  C   UNL A   1      44.473  30.829  31.337  1.00  0.00     0.074 A 
ATOM     52  C   UNL A   1      39.051  34.104  31.545  1.00  0.00     0.029 A 
ATOM     53  N   UNL A   1      40.601  32.521  31.145  1.00  0.00    -0.354 N 
ATOM     54  N   UNL A   1      43.321  31.502  31.370  1.00  0.00    -0.248 NA
ATOM     55  C   UNL A   1      45.513  31.660  31.958  1.00  0.00     0.031 C 
ATOM     56  C   UNL A   1      40.225  34.537  32.075  1.00  0.00     0.029 A 
ATOM     57  C   UNL A   1      41.204  33.556  31.824  1.00  0.00     0.049 A 
ATOM     58  H   UNL A   1      41.041  31.692  30.847  1.00  0.00     0.167 HD
ATOM     59  C   UNL A   1      43.495  32.683  31.966  1.00  0.00     0.074 A 
ATOM     60  C   UNL A   1      44.909  32.804  32.347  1.00  0.00     0.031 C 
ATOM     61  C   UNL A   1      42.531  33.661  32.212  1.00  0.00     0.037 A 
BRANCH  48  62
ATOM     62  C   UNL A   1      36.902  32.678  30.211  1.00  0.00     0.064 A 
ATOM     63  C   UNL A   1      36.546  33.426  29.099  1.00  0.00     0.173 A 
ATOM     64  C   UNL A   1      36.041  32.460  31.198  1.00  0.00     0.173 A 
ATOM     65  F   UNL A   1      37.272  33.459  27.986  1.00  0.00    -0.203 F 
ATOM     66  C   UNL A   1      35.342  34.150  29.258  1.00  0.00     0.198 A 
ATOM     67  C   UNL A   1      34.824  33.098  31.220  1.00  0.00     0.198 A 
ATOM     68  F   UNL A   1      36.359  31.617  32.176  1.00  0.00    -0.203 F 
ATOM     69  F   UNL A   1      35.107  35.153  28.416  1.00  0.00    -0.200 F 
ATOM     70  C   UNL A   1      34.432  33.899  30.182  1.00  0.00     0.200 A 
ATOM     71  F   UNL A   1      34.016  32.935  32.263  1.00  0.00    -0.200 F 
ATOM     72  F   UNL A   1      33.201  34.399  30.110  1.00  0.00    -0.200 F 
ENDBRANCH  48  62
BRANCH  49  73
ATOM     73  C   UNL A   1      46.095  28.968  30.923  1.00  0.00     0.064 A 
ATOM     74  C   UNL A   1      46.424  28.196  32.025  1.00  0.00     0.173 A 
ATOM     75  C   UNL A   1      46.976  29.202  29.958  1.00  0.00     0.173 A 
ATOM     76  F   UNL A   1      45.518  27.728  32.880  1.00  0.00    -0.203 F 
ATOM     77  C   UNL A   1      47.811  27.952  32.160  1.00  0.00     0.198 A 
ATOM     78  C   UNL A   1      48.287  28.814  30.099  1.00  0.00     0.198 A 
ATOM     79  F   UNL A   1      46.587  29.818  28.845  1.00  0.00    -0.203 F 
ATOM     80  F   UNL A   1      48.255  27.544  33.346  1.00  0.00    -0.200 F 
ATOM     81  C   UNL A   1      48.696  28.099  31.191  1.00  0.00     0.200 A 
ATOM     82  F   UNL A   1      49.171  29.138  29.159  1.00  0.00    -0.200 F 
ATOM     83  F   UNL A   1      49.918  27.581  31.271  1.00  0.00    -0.200 F 
ENDBRANCH  49  73
BRANCH  61  84
ATOM     84  C   UNL A   1      42.962  34.919  32.949  1.00  0.00     0.064 A 
ATOM     85  C   UNL A   1      42.875  34.936  34.332  1.00  0.00     0.173 A 
ATOM     86  C   UNL A   1      43.413  35.969  32.274  1.00  0.00     0.173 A 
ATOM     87  F   UNL A   1      42.674  33.842  35.059  1.00  0.00    -0.203 F 
ATOM     88  C   UNL A   1      43.020  36.225  34.899  1.00  0.00     0.198 A 
ATOM     89  C   UNL A   1      43.663  37.158  32.916  1.00  0.00     0.198 A 
ATOM     90  F   UNL A   1      43.626  35.869  30.964  1.00  0.00    -0.203 F 
ATOM     91  F   UNL A   1      42.601  36.401  36.149  1.00  0.00    -0.200 F 
ATOM     92  C   UNL A   1      43.542  37.264  34.273  1.00  0.00     0.200 A 
ATOM     93  F   UNL A   1      44.030  38.222  32.205  1.00  0.00    -0.200 F 
ATOM     94  F   UNL A   1      43.927  38.356  34.929  1.00  0.00    -0.200 F 
ENDBRANCH  61  84
ENDBRANCH  35  36
ENDBRANCH  28  30
ENDBRANCH  27  28
ENDBRANCH   1  27
TORSDOF 13
ENDMDL
MODEL 3
REMARK VINA RESULT:     -12.1      0.255      7.024
REMARK SMILES O=C(OCCOC(=O)c1ccc(-c2c3nc(c(-c4c(F)c(F)c(F)c(F)c4F)c4ccc([nH]4)c(-c4c(F)c(F)c(F)c(F)c4F)c4nc(c(-c5c(F)c(F)c(F)c(F)c5F)c5ccc2[nH]5)C=C4)C=C3)cc1)C1=Cc2cc(S(F)(F)(F)(F)F)cc(Br)c2O[C@H]1C(F)(F)F
REMARK SMILES IDX 5 1 4 2 3 3 2 4 1 5 72 6 73 7 88 8 74 9 87 10 75 11 86 12
REMARK SMILES IDX 76 13 84 14 83 15 85 16 89 17 90 18 91 19 92 20 77 21 78 22
REMARK SMILES IDX 79 23 80 24 81 25 82 26 6 27 7 28 8 29 9 30 10 31 71 32
REMARK SMILES IDX 11 33 70 34 12 35 13 36 14 37 64 38 15 39 69 40 63 41 65 42
REMARK SMILES IDX 16 43 68 44 62 45 61 46 17 48 49 49 29 50 48 51 30 52 33 53
REMARK SMILES IDX 47 54 66 55 31 56 32 57 46 59 67 60 34 61 18 62 19 63 27 64
REMARK SMILES IDX 20 65 21 66 25 67 28 68 22 69 23 70 26 71 24 72 50 73 51 74
REMARK SMILES IDX 59 75 52 76 53 77 57 78 60 79 54 80 55 81 58 82 56 83 35 84
REMARK SMILES IDX 36 85 44 86 37 87 38 88 42 89 45 90 39 91 40 92 43 93 41 94
REMARK H PARENT 65 47 33 58
REMARK Flexibility Score: inf
ROOT
ATOM      1  C   UNL A   1      32.413  29.486  27.214  1.00  0.00     0.275 C 
ENDROOT
BRANCH   1   2
ATOM      2  C   UNL A   1      32.032  28.019  27.112  1.00  0.00     0.275 C 
BRANCH   2   3
ATOM      3  O   UNL A   1      32.561  27.475  25.912  1.00  0.00    -0.459 OA
BRANCH   3   4
ATOM      4  C   UNL A   1      31.699  26.836  24.982  1.00  0.00     0.338 C 
ATOM      5  O   UNL A   1      30.525  26.498  25.332  1.00  0.00    -0.246 OA
BRANCH   4   6
ATOM      6  C   UNL A   1      32.182  26.556  23.568  1.00  0.00     0.087 C 
ATOM      7  C   UNL A   1      33.112  25.589  23.345  1.00  0.00     0.027 C 
ATOM      8  C   UNL A   1      31.623  27.356  22.402  1.00  0.00     0.316 C 
ATOM      9  C   UNL A   1      33.670  24.789  24.512  1.00  0.00     0.020 A 
ATOM     10  O   UNL A   1      31.479  24.683  25.428  1.00  0.00    -0.474 OA
ATOM     11  C   UNL A   1      35.036  24.575  24.580  1.00  0.00     0.036 A 
ATOM     12  C   UNL A   1      32.850  24.311  25.441  1.00  0.00     0.142 A 
ATOM     13  C   UNL A   1      35.416  23.590  25.523  1.00  0.00     0.109 A 
ATOM     14  C   UNL A   1      33.316  23.461  26.414  1.00  0.00     0.062 A 
ATOM     15  C   UNL A   1      34.646  23.159  26.505  1.00  0.00     0.044 A 
ATOM     16  Br  UNL A   1      32.055  22.669  27.690  1.00  0.00    -0.047 Br
BRANCH   8  17
ATOM     17  C   UNL A   1      30.608  28.363  22.919  1.00  0.00     0.430 C 
ATOM     18  F   UNL A   1      29.496  27.716  23.252  1.00  0.00    -0.167 F 
ATOM     19  F   UNL A   1      31.040  29.069  23.961  1.00  0.00    -0.167 F 
ATOM     20  F   UNL A   1      30.357  29.183  21.901  1.00  0.00    -0.167 F 
ENDBRANCH   8  17
BRANCH  13  21
ATOM     21  S   UNL A   1      37.071  22.873  25.373  1.00  0.00     0.310 S 
ATOM     22  F   UNL A   1      37.341  23.625  24.003  1.00  0.00    -0.094 F 
ATOM     23  F   UNL A   1      36.453  21.696  24.527  1.00  0.00    -0.094 F 
ATOM     24  F   UNL A   1      38.492  22.257  25.244  1.00  0.00    -0.094 F 
ATOM     25  F   UNL A   1      37.691  24.130  26.100  1.00  0.00    -0.094 F 
ATOM     26  F   UNL A   1      35.651  23.567  25.414  1.00  0.00    -0.094 F 
ENDBRANCH  13  21
ENDBRANCH   4   6
ENDBRANCH   3   4
ENDBRANCH   2   3
ENDBRANCH   1   2
BRANCH   1  27
ATOM     27  O   UNL A   1      33.812  29.627  27.011  1.00  0.00    -0.458 OA
BRANCH  27  28
ATOM     28  C   UNL A   1      34.574  30.457  27.874  1.00  0.00     0.338 C 
ATOM     29  O   UNL A   1      34.061  31.515  28.356  1.00  0.00    -0.246 OA
BRANCH  28  30
ATOM     30  C   UNL A   1      36.005  30.079  28.223  1.00  0.00     0.060 A 
ATOM     31  C   UNL A   1      36.995  30.300  27.281  1.00  0.00     0.016 A 
ATOM     32  C   UNL A   1      36.288  29.556  29.411  1.00  0.00     0.016 A 
ATOM     33  C   UNL A   1      38.223  29.664  27.579  1.00  0.00     0.010 A 
ATOM     34  C   UNL A   1      37.548  29.077  29.682  1.00  0.00     0.010 A 
ATOM     35  C   UNL A   1      38.560  29.207  28.772  1.00  0.00    -0.014 A 
BRANCH  35  36
ATOM     36  C   UNL A   1      39.997  28.849  29.117  1.00  0.00     0.031 A 
ATOM     37  C   UNL A   1      40.736  29.760  29.871  1.00  0.00     0.074 A 
ATOM     38  C   UNL A   1      40.491  27.638  28.662  1.00  0.00     0.049 A 
ATOM     39  N   UNL A   1      41.990  29.627  30.307  1.00  0.00    -0.248 NA
ATOM     40  C   UNL A   1      40.224  31.061  30.327  1.00  0.00     0.031 C 
ATOM     41  C   UNL A   1      39.749  26.709  27.907  1.00  0.00     0.029 A 
ATOM     42  N   UNL A   1      41.753  27.118  28.845  1.00  0.00    -0.354 N 
ATOM     43  C   UNL A   1      42.348  30.701  31.016  1.00  0.00     0.074 A 
ATOM     44  C   UNL A   1      41.220  31.641  31.033  1.00  0.00     0.031 C 
ATOM     45  C   UNL A   1      40.554  25.651  27.630  1.00  0.00     0.029 A 
ATOM     46  C   UNL A   1      41.814  25.900  28.207  1.00  0.00     0.049 A 
ATOM     47  H   UNL A   1      42.486  27.545  29.347  1.00  0.00     0.167 HD
ATOM     48  C   UNL A   1      43.571  30.931  31.648  1.00  0.00     0.037 A 
ATOM     49  C   UNL A   1      42.897  25.040  28.121  1.00  0.00     0.037 A 
ATOM     50  C   UNL A   1      44.640  30.051  31.598  1.00  0.00     0.049 A 
ATOM     51  C   UNL A   1      44.139  25.296  28.705  1.00  0.00     0.074 A 
ATOM     52  C   UNL A   1      45.876  30.264  32.236  1.00  0.00     0.029 A 
ATOM     53  N   UNL A   1      44.708  28.843  30.939  1.00  0.00    -0.354 N 
ATOM     54  N   UNL A   1      44.485  26.351  29.446  1.00  0.00    -0.248 NA
ATOM     55  C   UNL A   1      45.304  24.409  28.592  1.00  0.00     0.031 C 
ATOM     56  C   UNL A   1      46.682  29.206  31.959  1.00  0.00     0.029 A 
ATOM     57  C   UNL A   1      45.963  28.313  31.142  1.00  0.00     0.049 A 
ATOM     58  H   UNL A   1      43.985  28.430  30.414  1.00  0.00     0.167 HD
ATOM     59  C   UNL A   1      45.753  26.237  29.846  1.00  0.00     0.074 A 
ATOM     60  C   UNL A   1      46.300  24.989  29.297  1.00  0.00     0.031 C 
ATOM     61  C   UNL A   1      46.473  27.122  30.650  1.00  0.00     0.037 A 
BRANCH  48  62
ATOM     62  C   UNL A   1      43.738  32.219  32.437  1.00  0.00     0.064 A 
ATOM     63  C   UNL A   1      43.408  32.240  33.783  1.00  0.00     0.173 A 
ATOM     64  C   UNL A   1      44.192  33.305  31.822  1.00  0.00     0.173 A 
ATOM     65  F   UNL A   1      43.196  31.138  34.495  1.00  0.00    -0.203 F 
ATOM     66  C   UNL A   1      43.319  33.541  34.330  1.00  0.00     0.198 A 
ATOM     67  C   UNL A   1      44.202  34.520  32.464  1.00  0.00     0.198 A 
ATOM     68  F   UNL A   1      44.641  33.216  30.573  1.00  0.00    -0.203 F 
ATOM     69  F   UNL A   1      42.672  33.684  35.484  1.00  0.00    -0.200 F 
ATOM     70  C   UNL A   1      43.834  34.624  33.777  1.00  0.00     0.200 A 
ATOM     71  F   UNL A   1      44.576  35.610  31.799  1.00  0.00    -0.200 F 
ATOM     72  F   UNL A   1      43.985  35.757  34.458  1.00  0.00    -0.200 F 
ENDBRANCH  48  62
BRANCH  49  73
ATOM     73  C   UNL A   1      42.723  23.743  27.345  1.00  0.00     0.064 A 
ATOM     74  C   UNL A   1      42.232  22.624  27.997  1.00  0.00     0.173 A 
ATOM     75  C   UNL A   1      43.039  23.707  26.057  1.00  0.00     0.173 A 
ATOM     76  F   UNL A   1      41.671  22.674  29.202  1.00  0.00    -0.203 F 
ATOM     77  C   UNL A   1      42.384  21.423  27.265  1.00  0.00     0.198 A 
ATOM     78  C   UNL A   1      43.035  22.518  25.368  1.00  0.00     0.198 A 
ATOM     79  F   UNL A   1      43.363  24.832  25.425  1.00  0.00    -0.203 F 
ATOM     80  F   UNL A   1      42.283  20.275  27.931  1.00  0.00    -0.200 F 
ATOM     81  C   UNL A   1      42.618  21.361  25.967  1.00  0.00     0.200 A 
ATOM     82  F   UNL A   1      43.441  22.491  24.102  1.00  0.00    -0.200 F 
ATOM     83  F   UNL A   1      42.457  20.235  25.278  1.00  0.00    -0.200 F 
ENDBRANCH  49  73
BRANCH  61  84
ATOM     84  C   UNL A   1      47.904  26.756  31.009  1.00  0.00     0.064 A 
ATOM     85  C   UNL A   1      48.930  27.245  30.216  1.00  0.00     0.173 A 
ATOM     86  C   UNL A   1      48.154  25.988  32.063  1.00  0.00     0.173 A 
ATOM     87  F   UNL A   1      48.754  28.209  29.317  1.00  0.00    -0.203 F 
ATOM     88  C   UNL A   1      50.181  26.627  30.450  1.00  0.00     0.198 A 
ATOM     89  C   UNL A   1      49.427  25.530  32.307  1.00  0.00     0.198 A 
ATOM     90  F   UNL A   1      47.165  25.658  32.888  1.00  0.00    -0.203 F 
ATOM     91  F   UNL A   1      51.121  26.760  29.520  1.00  0.00    -0.200 F 
ATOM     92  C   UNL A   1      50.478  25.926  31.530  1.00  0.00     0.200 A 
ATOM     93  F   UNL A   1      49.638  24.690  33.318  1.00  0.00    -0.200 F 
ATOM     94  F   UNL A   1      51.735  25.621  31.842  1.00  0.00    -0.200 F 
ENDBRANCH  61  84
ENDBRANCH  35  36
ENDBRANCH  28  30
ENDBRANCH  27  28
ENDBRANCH   1  27
TORSDOF 13
ENDMDL
