MODEL 1
REMARK VINA RESULT:      -9.0      0.000      0.000
REMARK SMILES CC/C=C/C/C=C/C/C=C/C/C=C/CCSCCCC(=O)OCCOC(=O)c1ccc(-c2c3nc(c(-c4c(F)c(F)c(F)c(F)c4F)c4ccc([nH]4)c(-c4c(F)c(F)c(F)c(F)c4F)c4nc(c(-c5c(F)c(F)c(F)c(F)c5F)c5ccc2[nH]5)C=C4)C=C3)cc1
REMARK SMILES IDX 17 1 16 2 15 3 14 4 13 5 12 6 11 7 10 8 9 9 8 10 7 11 6 12
REMARK SMILES IDX 5 13 4 14 3 15 2 16 1 17 18 18 19 19 20 20 21 21 22 22 23 23
REMARK SMILES IDX 24 24 25 25 26 26 27 27 28 28 29 29 90 30 30 31 89 32 31 33
REMARK SMILES IDX 32 34 33 35 83 36 34 37 88 38 82 39 84 40 35 41 87 42 81 43
REMARK SMILES IDX 80 44 36 46 68 47 48 48 67 49 49 50 52 51 66 52 85 53 50 54
REMARK SMILES IDX 51 55 65 57 86 58 53 59 37 60 38 61 46 62 39 63 40 64 44 65
REMARK SMILES IDX 47 66 41 67 42 68 45 69 43 70 69 71 70 72 78 73 71 74 72 75
REMARK SMILES IDX 76 76 79 77 73 78 74 79 77 80 75 81 54 82 55 83 63 84 56 85
REMARK SMILES IDX 57 86 61 87 64 88 58 89 59 90 62 91 60 92
REMARK H PARENT 84 45 52 56
REMARK Flexibility Score: inf
ROOT
ATOM      1  C   UNL A   1      33.739  27.574  24.148  1.00  0.00     0.070 C 
ENDROOT
BRANCH   1   2
ATOM      2  S   UNL A   1      33.317  27.513  22.370  1.00  0.00    -0.162 SA
BRANCH   2   3
ATOM      3  C   UNL A   1      31.935  26.320  22.200  1.00  0.00     0.073 C 
BRANCH   3   4
ATOM      4  C   UNL A   1      32.247  24.822  22.371  1.00  0.00     0.038 C 
BRANCH   4   5
ATOM      5  C   UNL A   1      32.108  24.273  23.770  1.00  0.00    -0.030 C 
ATOM      6  C   UNL A   1      31.551  24.942  24.801  1.00  0.00    -0.027 C 
BRANCH   6   7
ATOM      7  C   UNL A   1      31.373  24.437  26.220  1.00  0.00     0.054 C 
BRANCH   7   8
ATOM      8  C   UNL A   1      32.631  23.817  26.773  1.00  0.00    -0.027 C 
ATOM      9  C   UNL A   1      32.999  22.534  26.598  1.00  0.00    -0.027 C 
BRANCH   9  10
ATOM     10  C   UNL A   1      34.302  21.976  27.099  1.00  0.00     0.054 C 
BRANCH  10  11
ATOM     11  C   UNL A   1      35.419  22.157  26.119  1.00  0.00    -0.027 C 
ATOM     12  C   UNL A   1      36.001  21.155  25.441  1.00  0.00    -0.027 C 
BRANCH  12  13
ATOM     13  C   UNL A   1      37.182  21.350  24.535  1.00  0.00     0.054 C 
BRANCH  13  14
ATOM     14  C   UNL A   1      38.268  22.045  25.301  1.00  0.00    -0.027 C 
ATOM     15  C   UNL A   1      39.104  21.445  26.161  1.00  0.00    -0.031 C 
BRANCH  15  16
ATOM     16  C   UNL A   1      40.101  22.198  26.993  1.00  0.00     0.023 C 
ATOM     17  C   UNL A   1      41.471  21.546  26.905  1.00  0.00     0.008 C 
ENDBRANCH  15  16
ENDBRANCH  13  14
ENDBRANCH  12  13
ENDBRANCH  10  11
ENDBRANCH   9  10
ENDBRANCH   7   8
ENDBRANCH   6   7
ENDBRANCH   4   5
ENDBRANCH   3   4
ENDBRANCH   2   3
ENDBRANCH   1   2
BRANCH   1  18
ATOM     18  C   UNL A   1      33.446  28.830  24.977  1.00  0.00     0.023 C 
BRANCH  18  19
ATOM     19  C   UNL A   1      32.085  28.942  25.638  1.00  0.00     0.123 C 
BRANCH  19  20
ATOM     20  C   UNL A   1      31.093  29.818  24.919  1.00  0.00     0.305 C 
ATOM     21  O   UNL A   1      30.466  29.413  23.950  1.00  0.00    -0.252 OA
BRANCH  20  22
ATOM     22  O   UNL A   1      31.044  31.082  25.411  1.00  0.00    -0.462 OA
BRANCH  22  23
ATOM     23  C   UNL A   1      31.625  31.306  26.705  1.00  0.00     0.274 C 
BRANCH  23  24
ATOM     24  C   UNL A   1      31.884  32.775  27.019  1.00  0.00     0.275 C 
BRANCH  24  25
ATOM     25  O   UNL A   1      33.207  32.996  27.523  1.00  0.00    -0.458 OA
BRANCH  25  26
ATOM     26  C   UNL A   1      33.315  34.052  28.363  1.00  0.00     0.338 C 
ATOM     27  O   UNL A   1      32.597  35.032  28.437  1.00  0.00    -0.246 OA
BRANCH  26  28
ATOM     28  C   UNL A   1      34.417  33.801  29.293  1.00  0.00     0.060 A 
ATOM     29  C   UNL A   1      35.690  34.292  28.984  1.00  0.00     0.016 A 
ATOM     30  C   UNL A   1      34.201  33.016  30.422  1.00  0.00     0.016 A 
ATOM     31  C   UNL A   1      36.771  33.981  29.793  1.00  0.00     0.010 A 
ATOM     32  C   UNL A   1      35.284  32.710  31.240  1.00  0.00     0.010 A 
ATOM     33  C   UNL A   1      36.575  33.165  30.908  1.00  0.00    -0.014 A 
BRANCH  33  34
ATOM     34  C   UNL A   1      37.746  32.604  31.606  1.00  0.00     0.031 A 
ATOM     35  C   UNL A   1      38.470  31.477  30.933  1.00  0.00     0.074 A 
ATOM     36  C   UNL A   1      38.161  33.102  32.781  1.00  0.00     0.049 A 
ATOM     37  N   UNL A   1      39.417  30.705  31.393  1.00  0.00    -0.248 NA
ATOM     38  C   UNL A   1      38.050  31.166  29.556  1.00  0.00     0.031 C 
ATOM     39  C   UNL A   1      37.574  34.245  33.475  1.00  0.00     0.029 A 
ATOM     40  N   UNL A   1      39.177  32.693  33.604  1.00  0.00    -0.354 N 
ATOM     41  C   UNL A   1      39.675  29.796  30.377  1.00  0.00     0.074 A 
ATOM     42  C   UNL A   1      38.759  30.081  29.297  1.00  0.00     0.031 C 
ATOM     43  C   UNL A   1      38.227  34.436  34.633  1.00  0.00     0.029 A 
ATOM     44  C   UNL A   1      39.248  33.403  34.776  1.00  0.00     0.049 A 
ATOM     45  H   UNL A   1      39.795  31.962  33.377  1.00  0.00     0.167 HD
ATOM     46  C   UNL A   1      40.610  28.819  30.347  1.00  0.00     0.037 A 
ATOM     47  C   UNL A   1      40.035  33.208  35.850  1.00  0.00     0.037 A 
ATOM     48  C   UNL A   1      41.531  28.573  31.421  1.00  0.00     0.049 A 
ATOM     49  C   UNL A   1      41.027  32.074  35.821  1.00  0.00     0.074 A 
ATOM     50  C   UNL A   1      42.522  27.616  31.508  1.00  0.00     0.029 A 
ATOM     51  N   UNL A   1      41.571  29.307  32.599  1.00  0.00    -0.354 N 
ATOM     52  N   UNL A   1      41.263  31.203  34.868  1.00  0.00    -0.248 NA
ATOM     53  C   UNL A   1      41.863  31.895  37.014  1.00  0.00     0.031 C 
ATOM     54  C   UNL A   1      43.133  27.740  32.760  1.00  0.00     0.029 A 
ATOM     55  C   UNL A   1      42.562  28.813  33.429  1.00  0.00     0.049 A 
ATOM     56  H   UNL A   1      40.981  30.066  32.813  1.00  0.00     0.167 HD
ATOM     57  C   UNL A   1      42.295  30.398  35.330  1.00  0.00     0.074 A 
ATOM     58  C   UNL A   1      42.648  30.893  36.646  1.00  0.00     0.031 C 
ATOM     59  C   UNL A   1      42.900  29.344  34.727  1.00  0.00     0.037 A 
BRANCH  46  60
ATOM     60  C   UNL A   1      40.642  27.942  29.130  1.00  0.00     0.064 A 
ATOM     61  C   UNL A   1      41.488  28.213  28.043  1.00  0.00     0.173 A 
ATOM     62  C   UNL A   1      39.790  26.833  29.037  1.00  0.00     0.173 A 
ATOM     63  F   UNL A   1      42.304  29.278  28.071  1.00  0.00    -0.203 F 
ATOM     64  C   UNL A   1      41.447  27.431  26.891  1.00  0.00     0.198 A 
ATOM     65  C   UNL A   1      39.778  26.032  27.898  1.00  0.00     0.198 A 
ATOM     66  F   UNL A   1      38.959  26.531  30.046  1.00  0.00    -0.203 F 
ATOM     67  F   UNL A   1      42.209  27.755  25.837  1.00  0.00    -0.200 F 
ATOM     68  C   UNL A   1      40.596  26.339  26.822  1.00  0.00     0.200 A 
ATOM     69  F   UNL A   1      38.961  24.971  27.837  1.00  0.00    -0.200 F 
ATOM     70  F   UNL A   1      40.555  25.590  25.712  1.00  0.00    -0.200 F 
ENDBRANCH  46  60
BRANCH  47  71
ATOM     71  C   UNL A   1      39.910  34.090  37.041  1.00  0.00     0.064 A 
ATOM     72  C   UNL A   1      39.052  33.756  38.098  1.00  0.00     0.173 A 
ATOM     73  C   UNL A   1      40.623  35.294  37.137  1.00  0.00     0.173 A 
ATOM     74  F   UNL A   1      38.334  32.624  38.046  1.00  0.00    -0.203 F 
ATOM     75  C   UNL A   1      38.891  34.606  39.191  1.00  0.00     0.198 A 
ATOM     76  C   UNL A   1      40.484  36.129  38.245  1.00  0.00     0.198 A 
ATOM     77  F   UNL A   1      41.461  35.661  36.156  1.00  0.00    -0.203 F 
ATOM     78  F   UNL A   1      38.021  34.288  40.161  1.00  0.00    -0.200 F 
ATOM     79  C   UNL A   1      39.608  35.789  39.265  1.00  0.00     0.200 A 
ATOM     80  F   UNL A   1      41.190  37.265  38.318  1.00  0.00    -0.200 F 
ATOM     81  F   UNL A   1      39.450  36.608  40.315  1.00  0.00    -0.200 F 
ENDBRANCH  47  71
BRANCH  59  82
ATOM     82  C   UNL A   1      44.035  28.691  35.457  1.00  0.00     0.064 A 
ATOM     83  C   UNL A   1      45.362  29.116  35.293  1.00  0.00     0.173 A 
ATOM     84  C   UNL A   1      43.782  27.666  36.383  1.00  0.00     0.173 A 
ATOM     85  F   UNL A   1      45.657  30.082  34.409  1.00  0.00    -0.203 F 
ATOM     86  C   UNL A   1      46.396  28.522  36.011  1.00  0.00     0.198 A 
ATOM     87  C   UNL A   1      44.814  27.100  37.125  1.00  0.00     0.198 A 
ATOM     88  F   UNL A   1      42.530  27.231  36.584  1.00  0.00    -0.203 F 
ATOM     89  F   UNL A   1      47.661  28.911  35.803  1.00  0.00    -0.200 F 
ATOM     90  C   UNL A   1      46.120  27.522  36.932  1.00  0.00     0.200 A 
ATOM     91  F   UNL A   1      44.543  26.148  38.029  1.00  0.00    -0.200 F 
ATOM     92  F   UNL A   1      47.115  26.964  37.634  1.00  0.00    -0.200 F 
ENDBRANCH  59  82
ENDBRANCH  33  34
ENDBRANCH  26  28
ENDBRANCH  25  26
ENDBRANCH  24  25
ENDBRANCH  23  24
ENDBRANCH  22  23
ENDBRANCH  20  22
ENDBRANCH  19  20
ENDBRANCH  18  19
ENDBRANCH   1  18
TORSDOF 24
ENDMDL
MODEL 2
REMARK VINA RESULT:      -9.0      1.080      7.485
REMARK SMILES CC/C=C/C/C=C/C/C=C/C/C=C/CCSCCCC(=O)OCCOC(=O)c1ccc(-c2c3nc(c(-c4c(F)c(F)c(F)c(F)c4F)c4ccc([nH]4)c(-c4c(F)c(F)c(F)c(F)c4F)c4nc(c(-c5c(F)c(F)c(F)c(F)c5F)c5ccc2[nH]5)C=C4)C=C3)cc1
REMARK SMILES IDX 17 1 16 2 15 3 14 4 13 5 12 6 11 7 10 8 9 9 8 10 7 11 6 12
REMARK SMILES IDX 5 13 4 14 3 15 2 16 1 17 18 18 19 19 20 20 21 21 22 22 23 23
REMARK SMILES IDX 24 24 25 25 26 26 27 27 28 28 29 29 90 30 30 31 89 32 31 33
REMARK SMILES IDX 32 34 33 35 83 36 34 37 88 38 82 39 84 40 35 41 87 42 81 43
REMARK SMILES IDX 80 44 36 46 68 47 48 48 67 49 49 50 52 51 66 52 85 53 50 54
REMARK SMILES IDX 51 55 65 57 86 58 53 59 37 60 38 61 46 62 39 63 40 64 44 65
REMARK SMILES IDX 47 66 41 67 42 68 45 69 43 70 69 71 70 72 78 73 71 74 72 75
REMARK SMILES IDX 76 76 79 77 73 78 74 79 77 80 75 81 54 82 55 83 63 84 56 85
REMARK SMILES IDX 57 86 61 87 64 88 58 89 59 90 62 91 60 92
REMARK H PARENT 84 45 52 56
REMARK Flexibility Score: inf
ROOT
ATOM      1  C   UNL A   1      33.676  27.759  24.211  1.00  0.00     0.070 C 
ENDROOT
BRANCH   1   2
ATOM      2  S   UNL A   1      33.453  27.977  22.409  1.00  0.00    -0.162 SA
BRANCH   2   3
ATOM      3  C   UNL A   1      31.740  27.450  22.025  1.00  0.00     0.073 C 
BRANCH   3   4
ATOM      4  C   UNL A   1      31.428  25.943  22.027  1.00  0.00     0.038 C 
BRANCH   4   5
ATOM      5  C   UNL A   1      30.903  25.378  23.325  1.00  0.00    -0.030 C 
ATOM      6  C   UNL A   1      30.477  26.124  24.365  1.00  0.00    -0.027 C 
BRANCH   6   7
ATOM      7  C   UNL A   1      29.929  25.614  25.684  1.00  0.00     0.054 C 
BRANCH   7   8
ATOM      8  C   UNL A   1      30.971  24.894  26.501  1.00  0.00    -0.027 C 
ATOM      9  C   UNL A   1      31.273  23.587  26.387  1.00  0.00    -0.027 C 
BRANCH   9  10
ATOM     10  C   UNL A   1      32.375  22.926  27.166  1.00  0.00     0.054 C 
BRANCH  10  11
ATOM     11  C   UNL A   1      33.338  22.190  26.287  1.00  0.00    -0.027 C 
ATOM     12  C   UNL A   1      33.099  20.985  25.745  1.00  0.00    -0.027 C 
BRANCH  12  13
ATOM     13  C   UNL A   1      34.118  20.226  24.945  1.00  0.00     0.054 C 
BRANCH  13  14
ATOM     14  C   UNL A   1      35.262  21.141  24.626  1.00  0.00    -0.027 C 
ATOM     15  C   UNL A   1      36.339  21.321  25.404  1.00  0.00    -0.031 C 
BRANCH  15  16
ATOM     16  C   UNL A   1      37.405  22.333  25.104  1.00  0.00     0.023 C 
ATOM     17  C   UNL A   1      37.042  23.685  25.697  1.00  0.00     0.008 C 
ENDBRANCH  15  16
ENDBRANCH  13  14
ENDBRANCH  12  13
ENDBRANCH  10  11
ENDBRANCH   9  10
ENDBRANCH   7   8
ENDBRANCH   6   7
ENDBRANCH   4   5
ENDBRANCH   3   4
ENDBRANCH   2   3
ENDBRANCH   1   2
BRANCH   1  18
ATOM     18  C   UNL A   1      33.592  28.961  25.158  1.00  0.00     0.023 C 
BRANCH  18  19
ATOM     19  C   UNL A   1      32.300  29.171  25.925  1.00  0.00     0.123 C 
BRANCH  19  20
ATOM     20  C   UNL A   1      31.248  29.970  25.202  1.00  0.00     0.305 C 
ATOM     21  O   UNL A   1      30.715  29.552  24.184  1.00  0.00    -0.252 OA
BRANCH  20  22
ATOM     22  O   UNL A   1      31.033  31.192  25.753  1.00  0.00    -0.462 OA
BRANCH  22  23
ATOM     23  C   UNL A   1      31.853  31.560  26.874  1.00  0.00     0.274 C 
BRANCH  23  24
ATOM     24  C   UNL A   1      31.801  33.045  27.215  1.00  0.00     0.275 C 
BRANCH  24  25
ATOM     25  O   UNL A   1      33.108  33.612  27.358  1.00  0.00    -0.458 OA
BRANCH  25  26
ATOM     26  C   UNL A   1      33.252  34.419  28.436  1.00  0.00     0.338 C 
ATOM     27  O   UNL A   1      32.570  35.375  28.757  1.00  0.00    -0.246 OA
BRANCH  26  28
ATOM     28  C   UNL A   1      34.338  33.901  29.270  1.00  0.00     0.060 A 
ATOM     29  C   UNL A   1      35.657  34.243  28.955  1.00  0.00     0.016 A 
ATOM     30  C   UNL A   1      34.049  33.018  30.307  1.00  0.00     0.016 A 
ATOM     31  C   UNL A   1      36.709  33.685  29.662  1.00  0.00     0.010 A 
ATOM     32  C   UNL A   1      35.104  32.462  31.024  1.00  0.00     0.010 A 
ATOM     33  C   UNL A   1      36.435  32.770  30.680  1.00  0.00    -0.014 A 
BRANCH  33  34
ATOM     34  C   UNL A   1      37.537  31.967  31.243  1.00  0.00     0.031 A 
ATOM     35  C   UNL A   1      37.961  32.273  32.647  1.00  0.00     0.074 A 
ATOM     36  C   UNL A   1      38.114  30.985  30.534  1.00  0.00     0.049 A 
ATOM     37  N   UNL A   1      38.993  31.838  33.317  1.00  0.00    -0.248 NA
ATOM     38  C   UNL A   1      37.113  33.222  33.388  1.00  0.00     0.031 C 
ATOM     39  C   UNL A   1      37.720  30.558  29.193  1.00  0.00     0.029 A 
ATOM     40  N   UNL A   1      39.171  30.172  30.849  1.00  0.00    -0.354 N 
ATOM     41  C   UNL A   1      38.936  32.489  34.541  1.00  0.00     0.074 A 
ATOM     42  C   UNL A   1      37.800  33.380  34.507  1.00  0.00     0.031 C 
ATOM     43  C   UNL A   1      38.539  29.573  28.789  1.00  0.00     0.029 A 
ATOM     44  C   UNL A   1      39.536  29.332  29.827  1.00  0.00     0.049 A 
ATOM     45  H   UNL A   1      39.624  30.189  31.722  1.00  0.00     0.167 HD
ATOM     46  C   UNL A   1      39.757  32.339  35.606  1.00  0.00     0.037 A 
ATOM     47  C   UNL A   1      40.583  28.490  29.742  1.00  0.00     0.037 A 
ATOM     48  C   UNL A   1      40.863  31.424  35.629  1.00  0.00     0.049 A 
ATOM     49  C   UNL A   1      41.521  28.386  30.917  1.00  0.00     0.074 A 
ATOM     50  C   UNL A   1      41.764  31.182  36.647  1.00  0.00     0.029 A 
ATOM     51  N   UNL A   1      41.211  30.593  34.573  1.00  0.00    -0.354 N 
ATOM     52  N   UNL A   1      41.480  29.011  32.071  1.00  0.00    -0.248 NA
ATOM     53  C   UNL A   1      42.651  27.458  30.781  1.00  0.00     0.031 C 
ATOM     54  C   UNL A   1      42.687  30.235  36.190  1.00  0.00     0.029 A 
ATOM     55  C   UNL A   1      42.326  29.844  34.909  1.00  0.00     0.049 A 
ATOM     56  H   UNL A   1      40.736  30.542  33.712  1.00  0.00     0.167 HD
ATOM     57  C   UNL A   1      42.552  28.528  32.808  1.00  0.00     0.074 A 
ATOM     58  C   UNL A   1      43.219  27.548  31.975  1.00  0.00     0.031 C 
ATOM     59  C   UNL A   1      42.953  28.862  34.060  1.00  0.00     0.037 A 
BRANCH  46  60
ATOM     60  C   UNL A   1      39.493  33.209  36.799  1.00  0.00     0.064 A 
ATOM     61  C   UNL A   1      38.601  32.826  37.814  1.00  0.00     0.173 A 
ATOM     62  C   UNL A   1      40.116  34.460  36.912  1.00  0.00     0.173 A 
ATOM     63  F   UNL A   1      37.959  31.650  37.741  1.00  0.00    -0.203 F 
ATOM     64  C   UNL A   1      38.311  33.682  38.874  1.00  0.00     0.198 A 
ATOM     65  C   UNL A   1      39.850  35.298  37.992  1.00  0.00     0.198 A 
ATOM     66  F   UNL A   1      40.973  34.877  35.968  1.00  0.00    -0.203 F 
ATOM     67  F   UNL A   1      37.399  33.326  39.790  1.00  0.00    -0.200 F 
ATOM     68  C   UNL A   1      38.940  34.914  38.964  1.00  0.00     0.200 A 
ATOM     69  F   UNL A   1      40.466  36.485  38.082  1.00  0.00    -0.200 F 
ATOM     70  F   UNL A   1      38.657  35.739  39.982  1.00  0.00    -0.200 F 
ENDBRANCH  46  60
BRANCH  47  71
ATOM     71  C   UNL A   1      40.807  27.696  28.505  1.00  0.00     0.064 A 
ATOM     72  C   UNL A   1      41.594  28.199  27.459  1.00  0.00     0.173 A 
ATOM     73  C   UNL A   1      40.223  26.433  28.331  1.00  0.00     0.173 A 
ATOM     74  F   UNL A   1      42.160  29.410  27.569  1.00  0.00    -0.203 F 
ATOM     75  C   UNL A   1      41.763  27.481  26.276  1.00  0.00     0.198 A 
ATOM     76  C   UNL A   1      40.417  25.703  27.160  1.00  0.00     0.198 A 
ATOM     77  F   UNL A   1      39.464  25.902  29.302  1.00  0.00    -0.203 F 
ATOM     78  F   UNL A   1      42.474  28.011  25.270  1.00  0.00    -0.200 F 
ATOM     79  C   UNL A   1      41.177  26.234  26.129  1.00  0.00     0.200 A 
ATOM     80  F   UNL A   1      39.860  24.492  27.027  1.00  0.00    -0.200 F 
ATOM     81  F   UNL A   1      41.337  25.546  24.989  1.00  0.00    -0.200 F 
ENDBRANCH  47  71
BRANCH  59  82
ATOM     82  C   UNL A   1      44.133  28.126  34.624  1.00  0.00     0.064 A 
ATOM     83  C   UNL A   1      45.439  28.628  34.512  1.00  0.00     0.173 A 
ATOM     84  C   UNL A   1      43.944  26.934  35.340  1.00  0.00     0.173 A 
ATOM     85  F   UNL A   1      45.672  29.757  33.826  1.00  0.00    -0.203 F 
ATOM     86  C   UNL A   1      46.514  27.949  35.077  1.00  0.00     0.198 A 
ATOM     87  C   UNL A   1      45.018  26.277  35.933  1.00  0.00     0.198 A 
ATOM     88  F   UNL A   1      42.715  26.418  35.483  1.00  0.00    -0.203 F 
ATOM     89  F   UNL A   1      47.758  28.421  34.919  1.00  0.00    -0.200 F 
ATOM     90  C   UNL A   1      46.302  26.781  35.795  1.00  0.00     0.200 A 
ATOM     91  F   UNL A   1      44.808  25.159  36.643  1.00  0.00    -0.200 F 
ATOM     92  F   UNL A   1      47.338  26.138  36.351  1.00  0.00    -0.200 F 
ENDBRANCH  59  82
ENDBRANCH  33  34
ENDBRANCH  26  28
ENDBRANCH  25  26
ENDBRANCH  24  25
ENDBRANCH  23  24
ENDBRANCH  22  23
ENDBRANCH  20  22
ENDBRANCH  19  20
ENDBRANCH  18  19
ENDBRANCH   1  18
TORSDOF 24
ENDMDL
MODEL 3
REMARK VINA RESULT:      -8.3      9.785     15.838
REMARK SMILES CC/C=C/C/C=C/C/C=C/C/C=C/CCSCCCC(=O)OCCOC(=O)c1ccc(-c2c3nc(c(-c4c(F)c(F)c(F)c(F)c4F)c4ccc([nH]4)c(-c4c(F)c(F)c(F)c(F)c4F)c4nc(c(-c5c(F)c(F)c(F)c(F)c5F)c5ccc2[nH]5)C=C4)C=C3)cc1
REMARK SMILES IDX 17 1 16 2 15 3 14 4 13 5 12 6 11 7 10 8 9 9 8 10 7 11 6 12
REMARK SMILES IDX 5 13 4 14 3 15 2 16 1 17 18 18 19 19 20 20 21 21 22 22 23 23
REMARK SMILES IDX 24 24 25 25 26 26 27 27 28 28 29 29 90 30 30 31 89 32 31 33
REMARK SMILES IDX 32 34 33 35 83 36 34 37 88 38 82 39 84 40 35 41 87 42 81 43
REMARK SMILES IDX 80 44 36 46 68 47 48 48 67 49 49 50 52 51 66 52 85 53 50 54
REMARK SMILES IDX 51 55 65 57 86 58 53 59 37 60 38 61 46 62 39 63 40 64 44 65
REMARK SMILES IDX 47 66 41 67 42 68 45 69 43 70 69 71 70 72 78 73 71 74 72 75
REMARK SMILES IDX 76 76 79 77 73 78 74 79 77 80 75 81 54 82 55 83 63 84 56 85
REMARK SMILES IDX 57 86 61 87 64 88 58 89 59 90 62 91 60 92
REMARK H PARENT 84 45 52 56
REMARK Flexibility Score: inf
ROOT
ATOM      1  C   UNL A   1      45.584  44.720  24.936  1.00  0.00     0.070 C 
ENDROOT
BRANCH   1   2
ATOM      2  S   UNL A   1      44.521  44.017  23.625  1.00  0.00    -0.162 SA
BRANCH   2   3
ATOM      3  C   UNL A   1      44.718  45.094  22.156  1.00  0.00     0.073 C 
BRANCH   3   4
ATOM      4  C   UNL A   1      45.924  44.846  21.232  1.00  0.00     0.038 C 
BRANCH   4   5
ATOM      5  C   UNL A   1      46.435  46.047  20.474  1.00  0.00    -0.030 C 
ATOM      6  C   UNL A   1      46.560  47.284  20.998  1.00  0.00    -0.027 C 
BRANCH   6   7
ATOM      7  C   UNL A   1      47.078  48.522  20.291  1.00  0.00     0.054 C 
BRANCH   7   8
ATOM      8  C   UNL A   1      46.007  49.219  19.492  1.00  0.00    -0.027 C 
ATOM      9  C   UNL A   1      44.712  48.851  19.451  1.00  0.00    -0.027 C 
BRANCH   9  10
ATOM     10  C   UNL A   1      43.660  49.621  18.704  1.00  0.00     0.054 C 
BRANCH  10  11
ATOM     11  C   UNL A   1      42.706  48.729  17.973  1.00  0.00    -0.027 C 
ATOM     12  C   UNL A   1      43.077  47.722  17.167  1.00  0.00    -0.027 C 
BRANCH  12  13
ATOM     13  C   UNL A   1      42.103  46.902  16.372  1.00  0.00     0.054 C 
BRANCH  13  14
ATOM     14  C   UNL A   1      42.033  45.526  16.965  1.00  0.00    -0.027 C 
ATOM     15  C   UNL A   1      41.214  45.163  17.963  1.00  0.00    -0.031 C 
BRANCH  15  16
ATOM     16  C   UNL A   1      41.258  43.807  18.604  1.00  0.00     0.023 C 
ATOM     17  C   UNL A   1      42.029  43.859  19.913  1.00  0.00     0.008 C 
ENDBRANCH  15  16
ENDBRANCH  13  14
ENDBRANCH  12  13
ENDBRANCH  10  11
ENDBRANCH   9  10
ENDBRANCH   7   8
ENDBRANCH   6   7
ENDBRANCH   4   5
ENDBRANCH   3   4
ENDBRANCH   2   3
ENDBRANCH   1   2
BRANCH   1  18
ATOM     18  C   UNL A   1      45.556  44.144  26.356  1.00  0.00     0.023 C 
BRANCH  18  19
ATOM     19  C   UNL A   1      45.514  42.635  26.510  1.00  0.00     0.123 C 
BRANCH  19  20
ATOM     20  C   UNL A   1      45.376  42.139  27.926  1.00  0.00     0.305 C 
ATOM     21  O   UNL A   1      44.902  42.842  28.807  1.00  0.00    -0.252 OA
BRANCH  20  22
ATOM     22  O   UNL A   1      45.895  40.898  28.108  1.00  0.00    -0.462 OA
BRANCH  22  23
ATOM     23  C   UNL A   1      45.044  39.780  27.809  1.00  0.00     0.274 C 
BRANCH  23  24
ATOM     24  C   UNL A   1      44.750  38.889  29.011  1.00  0.00     0.275 C 
BRANCH  24  25
ATOM     25  O   UNL A   1      45.778  37.916  29.227  1.00  0.00    -0.458 OA
BRANCH  25  26
ATOM     26  C   UNL A   1      45.557  37.096  30.282  1.00  0.00     0.338 C 
ATOM     27  O   UNL A   1      45.410  37.398  31.452  1.00  0.00    -0.246 OA
BRANCH  26  28
ATOM     28  C   UNL A   1      45.412  35.725  29.790  1.00  0.00     0.060 A 
ATOM     29  C   UNL A   1      44.866  35.515  28.519  1.00  0.00     0.016 A 
ATOM     30  C   UNL A   1      45.742  34.657  30.619  1.00  0.00     0.016 A 
ATOM     31  C   UNL A   1      44.621  34.227  28.071  1.00  0.00     0.010 A 
ATOM     32  C   UNL A   1      45.505  33.362  30.167  1.00  0.00     0.010 A 
ATOM     33  C   UNL A   1      44.914  33.149  28.907  1.00  0.00    -0.014 A 
BRANCH  33  34
ATOM     34  C   UNL A   1      44.404  31.809  28.560  1.00  0.00     0.031 A 
ATOM     35  C   UNL A   1      43.057  31.428  29.096  1.00  0.00     0.074 A 
ATOM     36  C   UNL A   1      45.106  30.979  27.774  1.00  0.00     0.049 A 
ATOM     37  N   UNL A   1      42.452  30.271  29.080  1.00  0.00    -0.248 NA
ATOM     38  C   UNL A   1      42.298  32.500  29.762  1.00  0.00     0.031 C 
ATOM     39  C   UNL A   1      46.386  31.286  27.140  1.00  0.00     0.029 A 
ATOM     40  N   UNL A   1      44.839  29.693  27.385  1.00  0.00    -0.354 N 
ATOM     41  C   UNL A   1      41.263  30.470  29.766  1.00  0.00     0.074 A 
ATOM     42  C   UNL A   1      41.249  31.840  30.223  1.00  0.00     0.031 C 
ATOM     43  C   UNL A   1      46.805  30.210  26.455  1.00  0.00     0.029 A 
ATOM     44  C   UNL A   1      45.843  29.129  26.639  1.00  0.00     0.049 A 
ATOM     45  H   UNL A   1      44.008  29.220  27.618  1.00  0.00     0.167 HD
ATOM     46  C   UNL A   1      40.263  29.584  29.978  1.00  0.00     0.037 A 
ATOM     47  C   UNL A   1      45.970  27.867  26.188  1.00  0.00     0.037 A 
ATOM     48  C   UNL A   1      40.285  28.235  29.487  1.00  0.00     0.049 A 
ATOM     49  C   UNL A   1      44.873  26.879  26.491  1.00  0.00     0.074 A 
ATOM     50  C   UNL A   1      39.333  27.245  29.636  1.00  0.00     0.029 A 
ATOM     51  N   UNL A   1      41.322  27.692  28.741  1.00  0.00    -0.354 N 
ATOM     52  N   UNL A   1      43.753  27.058  27.152  1.00  0.00    -0.248 NA
ATOM     53  C   UNL A   1      45.054  25.513  25.983  1.00  0.00     0.031 C 
ATOM     54  C   UNL A   1      39.816  26.087  29.018  1.00  0.00     0.029 A 
ATOM     55  C   UNL A   1      41.041  26.372  28.433  1.00  0.00     0.049 A 
ATOM     56  H   UNL A   1      42.137  28.174  28.470  1.00  0.00     0.167 HD
ATOM     57  C   UNL A   1      43.083  25.844  27.110  1.00  0.00     0.074 A 
ATOM     58  C   UNL A   1      43.917  24.938  26.347  1.00  0.00     0.031 C 
ATOM     59  C   UNL A   1      41.887  25.503  27.653  1.00  0.00     0.037 A 
BRANCH  46  60
ATOM     60  C   UNL A   1      39.099  30.053  30.799  1.00  0.00     0.064 A 
ATOM     61  C   UNL A   1      38.010  30.728  30.225  1.00  0.00     0.173 A 
ATOM     62  C   UNL A   1      39.088  29.853  32.187  1.00  0.00     0.173 A 
ATOM     63  F   UNL A   1      37.984  30.968  28.905  1.00  0.00    -0.203 F 
ATOM     64  C   UNL A   1      36.976  31.223  31.015  1.00  0.00     0.198 A 
ATOM     65  C   UNL A   1      38.034  30.318  32.970  1.00  0.00     0.198 A 
ATOM     66  F   UNL A   1      40.105  29.218  32.788  1.00  0.00    -0.203 F 
ATOM     67  F   UNL A   1      35.986  31.931  30.454  1.00  0.00    -0.200 F 
ATOM     68  C   UNL A   1      36.987  31.013  32.386  1.00  0.00     0.200 A 
ATOM     69  F   UNL A   1      38.042  30.106  34.293  1.00  0.00    -0.200 F 
ATOM     70  F   UNL A   1      35.993  31.494  33.146  1.00  0.00    -0.200 F 
ENDBRANCH  46  60
BRANCH  47  71
ATOM     71  C   UNL A   1      47.179  27.464  25.422  1.00  0.00     0.064 A 
ATOM     72  C   UNL A   1      48.260  26.838  26.059  1.00  0.00     0.173 A 
ATOM     73  C   UNL A   1      47.291  27.715  24.047  1.00  0.00     0.173 A 
ATOM     74  F   UNL A   1      48.210  26.591  27.376  1.00  0.00    -0.203 F 
ATOM     75  C   UNL A   1      49.417  26.507  25.355  1.00  0.00     0.198 A 
ATOM     76  C   UNL A   1      48.436  27.357  23.338  1.00  0.00     0.198 A 
ATOM     77  F   UNL A   1      46.284  28.307  23.386  1.00  0.00    -0.203 F 
ATOM     78  F   UNL A   1      50.457  25.961  26.001  1.00  0.00    -0.200 F 
ATOM     79  C   UNL A   1      49.503  26.764  23.996  1.00  0.00     0.200 A 
ATOM     80  F   UNL A   1      48.509  27.594  22.022  1.00  0.00    -0.200 F 
ATOM     81  F   UNL A   1      50.617  26.449  23.321  1.00  0.00    -0.200 F 
ENDBRANCH  47  71
BRANCH  59  82
ATOM     82  C   UNL A   1      41.386  24.112  27.396  1.00  0.00     0.064 A 
ATOM     83  C   UNL A   1      41.969  22.992  28.007  1.00  0.00     0.173 A 
ATOM     84  C   UNL A   1      40.266  23.907  26.575  1.00  0.00     0.173 A 
ATOM     85  F   UNL A   1      43.050  23.136  28.789  1.00  0.00    -0.203 F 
ATOM     86  C   UNL A   1      41.463  21.715  27.786  1.00  0.00     0.198 A 
ATOM     87  C   UNL A   1      39.742  22.633  26.385  1.00  0.00     0.198 A 
ATOM     88  F   UNL A   1      39.667  24.946  25.976  1.00  0.00    -0.203 F 
ATOM     89  F   UNL A   1      42.064  20.654  28.342  1.00  0.00    -0.200 F 
ATOM     90  C   UNL A   1      40.345  21.537  26.984  1.00  0.00     0.200 A 
ATOM     91  F   UNL A   1      38.650  22.465  25.626  1.00  0.00    -0.200 F 
ATOM     92  F   UNL A   1      39.850  20.308  26.786  1.00  0.00    -0.200 F 
ENDBRANCH  59  82
ENDBRANCH  33  34
ENDBRANCH  26  28
ENDBRANCH  25  26
ENDBRANCH  24  25
ENDBRANCH  23  24
ENDBRANCH  22  23
ENDBRANCH  20  22
ENDBRANCH  19  20
ENDBRANCH  18  19
ENDBRANCH   1  18
TORSDOF 24
ENDMDL
