MODEL 1
REMARK VINA RESULT:     -11.2      0.000      0.000
REMARK SMILES CCC[NH2+][C@@]1(C(=O)OCCOC(=O)c2ccc(-c3c4nc(c(-c5c(F)c(F)c(F)c(F)c5F)c5ccc([nH]5)c(-c5c(F)c(F)c(F)c(F)c5F)c5nc(c(-c6c(F)c(F)c(F)c(F)c6F)c6ccc3[nH]6)C=C5)C=C4)cc2)CCC[C@@H]1CC[NH+]1CC[NH+](C)CC1
REMARK SMILES IDX 9 1 8 2 6 3 7 4 5 5 77 6 80 7 78 8 79 9 4 10 3 13 2 14 1 15
REMARK SMILES IDX 81 16 82 17 83 18 84 19 89 20 85 22 88 23 86 24 87 25 10 27
REMARK SMILES IDX 11 28 12 29 13 30 14 31 15 32 76 33 16 34 75 35 17 36 18 37
REMARK SMILES IDX 19 38 69 39 20 40 74 41 68 42 70 43 21 44 73 45 67 46 66 47
REMARK SMILES IDX 22 49 54 50 34 51 53 52 35 53 38 54 52 55 71 56 36 57 37 58
REMARK SMILES IDX 51 60 72 61 39 62 23 63 24 64 32 65 25 66 26 67 30 68 33 69
REMARK SMILES IDX 27 70 28 71 31 72 29 73 55 74 56 75 64 76 57 77 58 78 62 79
REMARK SMILES IDX 65 80 59 81 60 82 63 83 61 84 40 85 41 86 49 87 42 88 43 89
REMARK SMILES IDX 47 90 50 91 44 92 45 93 48 94 46 95
REMARK H PARENT 4 11 4 12 83 21 86 26 70 48 38 59
REMARK Flexibility Score: inf
ROOT
ATOM      1  C   UNL A   1      31.706  28.701  26.977  1.00  0.00     0.274 C 
ENDROOT
BRANCH   1   2
ATOM      2  O   UNL A   1      31.231  28.032  25.785  1.00  0.00    -0.457 OA
BRANCH   2   3
ATOM      3  C   UNL A   1      31.107  26.678  25.843  1.00  0.00     0.368 C 
ATOM      4  O   UNL A   1      30.658  26.080  26.822  1.00  0.00    -0.245 OA
BRANCH   3   5
ATOM      5  C   UNL A   1      31.717  25.925  24.611  1.00  0.00     0.197 C 
ATOM      6  C   UNL A   1      33.254  25.934  24.836  1.00  0.00     0.081 C 
ATOM      7  C   UNL A   1      31.579  26.536  23.174  1.00  0.00     0.068 C 
ATOM      8  C   UNL A   1      33.737  27.216  24.201  1.00  0.00     0.008 C 
ATOM      9  C   UNL A   1      32.881  27.359  22.958  1.00  0.00     0.011 C 
BRANCH   5  10
ATOM     10  N   UNL A   1      31.417  24.463  24.740  1.00  0.00    -0.332 N 
ATOM     11  H   UNL A   1      32.200  24.031  25.230  1.00  0.00     0.347 HD
ATOM     12  H   UNL A   1      30.524  24.419  25.232  1.00  0.00     0.347 HD
BRANCH  10  13
ATOM     13  C   UNL A   1      31.206  23.721  23.512  1.00  0.00     0.261 C 
BRANCH  13  14
ATOM     14  C   UNL A   1      32.416  22.834  23.167  1.00  0.00     0.058 C 
ATOM     15  C   UNL A   1      33.276  23.315  22.002  1.00  0.00     0.010 C 
ENDBRANCH  13  14
ENDBRANCH  10  13
ENDBRANCH   5  10
BRANCH   7  16
ATOM     16  C   UNL A   1      30.362  27.401  22.746  1.00  0.00     0.072 C 
BRANCH  16  17
ATOM     17  C   UNL A   1      30.647  28.867  22.382  1.00  0.00     0.263 C 
BRANCH  17  18
ATOM     18  N   UNL A   1      29.386  29.645  22.324  1.00  0.00    -0.326 N 
ATOM     19  C   UNL A   1      29.416  30.656  21.246  1.00  0.00     0.324 C 
ATOM     20  C   UNL A   1      29.078  30.291  23.609  1.00  0.00     0.324 C 
ATOM     21  H   UNL A   1      28.645  28.976  22.118  1.00  0.00     0.348 HD
ATOM     22  C   UNL A   1      28.207  31.622  21.215  1.00  0.00     0.324 C 
ATOM     23  C   UNL A   1      27.809  31.178  23.531  1.00  0.00     0.324 C 
ATOM     24  N   UNL A   1      27.855  32.239  22.506  1.00  0.00    -0.328 N 
ATOM     25  C   UNL A   1      28.782  33.306  22.871  1.00  0.00     0.333 C 
ATOM     26  H   UNL A   1      26.939  32.681  22.431  1.00  0.00     0.348 HD
ENDBRANCH  17  18
ENDBRANCH  16  17
ENDBRANCH   7  16
ENDBRANCH   3   5
ENDBRANCH   2   3
ENDBRANCH   1   2
BRANCH   1  27
ATOM     27  C   UNL A   1      31.781  30.230  26.822  1.00  0.00     0.275 C 
BRANCH  27  28
ATOM     28  O   UNL A   1      33.061  30.697  26.327  1.00  0.00    -0.458 OA
BRANCH  28  29
ATOM     29  C   UNL A   1      33.682  31.530  27.174  1.00  0.00     0.338 C 
ATOM     30  O   UNL A   1      33.233  32.555  27.645  1.00  0.00    -0.246 OA
BRANCH  29  31
ATOM     31  C   UNL A   1      34.994  31.088  27.629  1.00  0.00     0.060 A 
ATOM     32  C   UNL A   1      35.058  29.754  28.025  1.00  0.00     0.016 A 
ATOM     33  C   UNL A   1      35.994  31.993  28.001  1.00  0.00     0.016 A 
ATOM     34  C   UNL A   1      36.075  29.335  28.862  1.00  0.00     0.010 A 
ATOM     35  C   UNL A   1      37.070  31.544  28.780  1.00  0.00     0.010 A 
ATOM     36  C   UNL A   1      37.102  30.216  29.232  1.00  0.00    -0.014 A 
BRANCH  36  37
ATOM     37  C   UNL A   1      38.210  29.648  30.037  1.00  0.00     0.031 A 
ATOM     38  C   UNL A   1      39.306  28.839  29.413  1.00  0.00     0.074 A 
ATOM     39  C   UNL A   1      38.307  30.055  31.318  1.00  0.00     0.049 A 
ATOM     40  N   UNL A   1      40.389  28.362  29.972  1.00  0.00    -0.248 NA
ATOM     41  C   UNL A   1      39.186  28.534  27.979  1.00  0.00     0.031 C 
ATOM     42  C   UNL A   1      37.338  30.924  31.991  1.00  0.00     0.029 A 
ATOM     43  N   UNL A   1      39.300  29.882  32.245  1.00  0.00    -0.354 N 
ATOM     44  C   UNL A   1      41.068  27.682  28.973  1.00  0.00     0.074 A 
ATOM     45  C   UNL A   1      40.282  27.815  27.763  1.00  0.00     0.031 C 
ATOM     46  C   UNL A   1      37.840  31.306  33.172  1.00  0.00     0.029 A 
ATOM     47  C   UNL A   1      39.121  30.642  33.376  1.00  0.00     0.049 A 
ATOM     48  H   UNL A   1      40.064  29.276  32.115  1.00  0.00     0.167 HD
ATOM     49  C   UNL A   1      42.235  27.001  29.069  1.00  0.00     0.037 A 
ATOM     50  C   UNL A   1      39.904  30.787  34.460  1.00  0.00     0.037 A 
ATOM     51  C   UNL A   1      43.016  26.885  30.274  1.00  0.00     0.049 A 
ATOM     52  C   UNL A   1      41.163  29.984  34.553  1.00  0.00     0.074 A 
ATOM     53  C   UNL A   1      44.169  26.151  30.494  1.00  0.00     0.029 A 
ATOM     54  N   UNL A   1      42.732  27.545  31.460  1.00  0.00    -0.354 N 
ATOM     55  N   UNL A   1      41.728  29.231  33.643  1.00  0.00    -0.248 NA
ATOM     56  C   UNL A   1      41.863  30.008  35.843  1.00  0.00     0.031 C 
ATOM     57  C   UNL A   1      44.571  26.351  31.821  1.00  0.00     0.029 A 
ATOM     58  C   UNL A   1      43.679  27.224  32.419  1.00  0.00     0.049 A 
ATOM     59  H   UNL A   1      41.968  28.150  31.601  1.00  0.00     0.167 HD
ATOM     60  C   UNL A   1      42.823  28.652  34.260  1.00  0.00     0.074 A 
ATOM     61  C   UNL A   1      42.877  29.185  35.607  1.00  0.00     0.031 C 
ATOM     62  C   UNL A   1      43.688  27.735  33.765  1.00  0.00     0.037 A 
BRANCH  49  63
ATOM     63  C   UNL A   1      42.726  26.284  27.850  1.00  0.00     0.064 A 
ATOM     64  C   UNL A   1      43.630  26.881  26.962  1.00  0.00     0.173 A 
ATOM     65  C   UNL A   1      42.345  24.955  27.612  1.00  0.00     0.173 A 
ATOM     66  F   UNL A   1      44.014  28.153  27.145  1.00  0.00    -0.203 F 
ATOM     67  C   UNL A   1      44.136  26.171  25.875  1.00  0.00     0.198 A 
ATOM     68  C   UNL A   1      42.860  24.245  26.531  1.00  0.00     0.198 A 
ATOM     69  F   UNL A   1      41.483  24.342  28.437  1.00  0.00    -0.203 F 
ATOM     70  F   UNL A   1      44.992  26.762  25.029  1.00  0.00    -0.200 F 
ATOM     71  C   UNL A   1      43.756  24.853  25.664  1.00  0.00     0.200 A 
ATOM     72  F   UNL A   1      42.496  22.971  26.332  1.00  0.00    -0.200 F 
ATOM     73  F   UNL A   1      44.252  24.169  24.624  1.00  0.00    -0.200 F 
ENDBRANCH  49  63
BRANCH  50  74
ATOM     74  C   UNL A   1      39.488  31.708  35.543  1.00  0.00     0.064 A 
ATOM     75  C   UNL A   1      39.991  33.013  35.605  1.00  0.00     0.173 A 
ATOM     76  C   UNL A   1      38.542  31.319  36.505  1.00  0.00     0.173 A 
ATOM     77  F   UNL A   1      40.910  33.420  34.719  1.00  0.00    -0.203 F 
ATOM     78  C   UNL A   1      39.552  33.902  36.584  1.00  0.00     0.198 A 
ATOM     79  C   UNL A   1      38.088  32.216  37.467  1.00  0.00     0.198 A 
ATOM     80  F   UNL A   1      38.035  30.078  36.482  1.00  0.00    -0.203 F 
ATOM     81  F   UNL A   1      40.054  35.143  36.633  1.00  0.00    -0.200 F 
ATOM     82  C   UNL A   1      38.593  33.506  37.506  1.00  0.00     0.200 A 
ATOM     83  F   UNL A   1      37.152  31.833  38.346  1.00  0.00    -0.200 F 
ATOM     84  F   UNL A   1      38.157  34.368  38.435  1.00  0.00    -0.200 F 
ENDBRANCH  50  74
BRANCH  62  85
ATOM     85  C   UNL A   1      44.715  27.208  34.714  1.00  0.00     0.064 A 
ATOM     86  C   UNL A   1      45.950  27.856  34.856  1.00  0.00     0.173 A 
ATOM     87  C   UNL A   1      44.469  26.065  35.486  1.00  0.00     0.173 A 
ATOM     88  F   UNL A   1      46.231  28.942  34.122  1.00  0.00    -0.203 F 
ATOM     89  C   UNL A   1      46.916  27.365  35.729  1.00  0.00     0.198 A 
ATOM     90  C   UNL A   1      45.433  25.584  36.368  1.00  0.00     0.198 A 
ATOM     91  F   UNL A   1      43.302  25.414  35.378  1.00  0.00    -0.203 F 
ATOM     92  F   UNL A   1      48.104  27.976  35.826  1.00  0.00    -0.200 F 
ATOM     93  C   UNL A   1      46.656  26.230  36.485  1.00  0.00     0.200 A 
ATOM     94  F   UNL A   1      45.184  24.488  37.097  1.00  0.00    -0.200 F 
ATOM     95  F   UNL A   1      47.589  25.755  37.320  1.00  0.00    -0.200 F 
ENDBRANCH  62  85
ENDBRANCH  36  37
ENDBRANCH  29  31
ENDBRANCH  28  29
ENDBRANCH  27  28
ENDBRANCH   1  27
TORSDOF 17
ENDMDL
MODEL 2
REMARK VINA RESULT:     -11.2      1.313      3.771
REMARK SMILES CCC[NH2+][C@@]1(C(=O)OCCOC(=O)c2ccc(-c3c4nc(c(-c5c(F)c(F)c(F)c(F)c5F)c5ccc([nH]5)c(-c5c(F)c(F)c(F)c(F)c5F)c5nc(c(-c6c(F)c(F)c(F)c(F)c6F)c6ccc3[nH]6)C=C5)C=C4)cc2)CCC[C@@H]1CC[NH+]1CC[NH+](C)CC1
REMARK SMILES IDX 9 1 8 2 6 3 7 4 5 5 77 6 80 7 78 8 79 9 4 10 3 13 2 14 1 15
REMARK SMILES IDX 81 16 82 17 83 18 84 19 89 20 85 22 88 23 86 24 87 25 10 27
REMARK SMILES IDX 11 28 12 29 13 30 14 31 15 32 76 33 16 34 75 35 17 36 18 37
REMARK SMILES IDX 19 38 69 39 20 40 74 41 68 42 70 43 21 44 73 45 67 46 66 47
REMARK SMILES IDX 22 49 54 50 34 51 53 52 35 53 38 54 52 55 71 56 36 57 37 58
REMARK SMILES IDX 51 60 72 61 39 62 23 63 24 64 32 65 25 66 26 67 30 68 33 69
REMARK SMILES IDX 27 70 28 71 31 72 29 73 55 74 56 75 64 76 57 77 58 78 62 79
REMARK SMILES IDX 65 80 59 81 60 82 63 83 61 84 40 85 41 86 49 87 42 88 43 89
REMARK SMILES IDX 47 90 50 91 44 92 45 93 48 94 46 95
REMARK H PARENT 4 11 4 12 83 21 86 26 70 48 38 59
REMARK Flexibility Score: inf
ROOT
ATOM      1  C   UNL A   1      31.748  28.812  27.350  1.00  0.00     0.274 C 
ENDROOT
BRANCH   1   2
ATOM      2  O   UNL A   1      32.151  27.869  26.329  1.00  0.00    -0.457 OA
BRANCH   2   3
ATOM      3  C   UNL A   1      31.171  27.109  25.768  1.00  0.00     0.368 C 
ATOM      4  O   UNL A   1      30.474  26.322  26.409  1.00  0.00    -0.245 OA
BRANCH   3   5
ATOM      5  C   UNL A   1      31.096  27.212  24.207  1.00  0.00     0.197 C 
ATOM      6  C   UNL A   1      29.734  26.577  23.812  1.00  0.00     0.081 C 
ATOM      7  C   UNL A   1      32.113  26.415  23.319  1.00  0.00     0.068 C 
ATOM      8  C   UNL A   1      30.024  25.107  23.630  1.00  0.00     0.008 C 
ATOM      9  C   UNL A   1      31.395  25.077  22.984  1.00  0.00     0.011 C 
BRANCH   5  10
ATOM     10  N   UNL A   1      30.866  28.643  23.826  1.00  0.00    -0.332 N 
ATOM     11  H   UNL A   1      30.894  29.197  24.683  1.00  0.00     0.347 HD
ATOM     12  H   UNL A   1      31.598  28.858  23.150  1.00  0.00     0.347 HD
BRANCH  10  13
ATOM     13  C   UNL A   1      29.623  28.954  23.146  1.00  0.00     0.261 C 
BRANCH  13  14
ATOM     14  C   UNL A   1      29.142  30.382  23.461  1.00  0.00     0.058 C 
ATOM     15  C   UNL A   1      27.662  30.651  23.209  1.00  0.00     0.010 C 
ENDBRANCH  13  14
ENDBRANCH  10  13
ENDBRANCH   5  10
BRANCH   7  16
ATOM     16  C   UNL A   1      33.562  26.104  23.782  1.00  0.00     0.072 C 
BRANCH  16  17
ATOM     17  C   UNL A   1      33.766  24.825  24.612  1.00  0.00     0.263 C 
BRANCH  17  18
ATOM     18  N   UNL A   1      35.158  24.331  24.474  1.00  0.00    -0.326 N 
ATOM     19  C   UNL A   1      35.271  23.306  23.415  1.00  0.00     0.324 C 
ATOM     20  C   UNL A   1      35.682  23.803  25.743  1.00  0.00     0.324 C 
ATOM     21  H   UNL A   1      35.723  25.136  24.206  1.00  0.00     0.348 HD
ATOM     22  C   UNL A   1      36.654  22.617  23.312  1.00  0.00     0.324 C 
ATOM     23  C   UNL A   1      37.103  23.203  25.586  1.00  0.00     0.324 C 
ATOM     24  N   UNL A   1      37.215  22.127  24.582  1.00  0.00    -0.328 N 
ATOM     25  C   UNL A   1      36.565  20.899  25.028  1.00  0.00     0.333 C 
ATOM     26  H   UNL A   1      38.197  21.887  24.448  1.00  0.00     0.348 HD
ENDBRANCH  17  18
ENDBRANCH  16  17
ENDBRANCH   7  16
ENDBRANCH   3   5
ENDBRANCH   2   3
ENDBRANCH   1   2
BRANCH   1  27
ATOM     27  C   UNL A   1      31.779  30.273  26.868  1.00  0.00     0.275 C 
BRANCH  27  28
ATOM     28  O   UNL A   1      33.074  30.688  26.367  1.00  0.00    -0.458 OA
BRANCH  28  29
ATOM     29  C   UNL A   1      33.708  31.541  27.184  1.00  0.00     0.338 C 
ATOM     30  O   UNL A   1      33.271  32.583  27.627  1.00  0.00    -0.246 OA
BRANCH  29  31
ATOM     31  C   UNL A   1      35.020  31.102  27.642  1.00  0.00     0.060 A 
ATOM     32  C   UNL A   1      35.095  29.760  28.007  1.00  0.00     0.016 A 
ATOM     33  C   UNL A   1      36.006  32.008  28.047  1.00  0.00     0.016 A 
ATOM     34  C   UNL A   1      36.108  29.331  28.845  1.00  0.00     0.010 A 
ATOM     35  C   UNL A   1      37.079  31.552  28.827  1.00  0.00     0.010 A 
ATOM     36  C   UNL A   1      37.121  30.215  29.247  1.00  0.00    -0.014 A 
BRANCH  36  37
ATOM     37  C   UNL A   1      38.226  29.639  30.050  1.00  0.00     0.031 A 
ATOM     38  C   UNL A   1      39.316  28.823  29.424  1.00  0.00     0.074 A 
ATOM     39  C   UNL A   1      38.329  30.046  31.331  1.00  0.00     0.049 A 
ATOM     40  N   UNL A   1      40.396  28.338  29.981  1.00  0.00    -0.248 NA
ATOM     41  C   UNL A   1      39.191  28.519  27.990  1.00  0.00     0.031 C 
ATOM     42  C   UNL A   1      37.366  30.921  32.005  1.00  0.00     0.029 A 
ATOM     43  N   UNL A   1      39.322  29.866  32.255  1.00  0.00    -0.354 N 
ATOM     44  C   UNL A   1      41.069  27.653  28.981  1.00  0.00     0.074 A 
ATOM     45  C   UNL A   1      40.282  27.792  27.772  1.00  0.00     0.031 C 
ATOM     46  C   UNL A   1      37.874  31.300  33.185  1.00  0.00     0.029 A 
ATOM     47  C   UNL A   1      39.151  30.628  33.387  1.00  0.00     0.049 A 
ATOM     48  H   UNL A   1      40.082  29.255  32.124  1.00  0.00     0.167 HD
ATOM     49  C   UNL A   1      42.232  26.965  29.075  1.00  0.00     0.037 A 
ATOM     50  C   UNL A   1      39.936  30.767  34.469  1.00  0.00     0.037 A 
ATOM     51  C   UNL A   1      43.015  26.844  30.279  1.00  0.00     0.049 A 
ATOM     52  C   UNL A   1      41.190  29.956  34.560  1.00  0.00     0.074 A 
ATOM     53  C   UNL A   1      44.163  26.102  30.497  1.00  0.00     0.029 A 
ATOM     54  N   UNL A   1      42.736  27.506  31.465  1.00  0.00    -0.354 N 
ATOM     55  N   UNL A   1      41.748  29.199  33.650  1.00  0.00    -0.248 NA
ATOM     56  C   UNL A   1      41.892  29.975  35.849  1.00  0.00     0.031 C 
ATOM     57  C   UNL A   1      44.568  26.299  31.823  1.00  0.00     0.029 A 
ATOM     58  C   UNL A   1      43.683  27.179  32.422  1.00  0.00     0.049 A 
ATOM     59  H   UNL A   1      41.977  28.116  31.607  1.00  0.00     0.167 HD
ATOM     60  C   UNL A   1      42.841  28.613  34.265  1.00  0.00     0.074 A 
ATOM     61  C   UNL A   1      42.901  29.146  35.611  1.00  0.00     0.031 C 
ATOM     62  C   UNL A   1      43.698  27.690  33.768  1.00  0.00     0.037 A 
BRANCH  49  63
ATOM     63  C   UNL A   1      42.716  26.244  27.855  1.00  0.00     0.064 A 
ATOM     64  C   UNL A   1      43.618  26.837  26.963  1.00  0.00     0.173 A 
ATOM     65  C   UNL A   1      42.328  24.916  27.620  1.00  0.00     0.173 A 
ATOM     66  F   UNL A   1      44.009  28.107  27.143  1.00  0.00    -0.203 F 
ATOM     67  C   UNL A   1      44.118  26.123  25.876  1.00  0.00     0.198 A 
ATOM     68  C   UNL A   1      42.836  24.203  26.538  1.00  0.00     0.198 A 
ATOM     69  F   UNL A   1      41.467  24.308  28.449  1.00  0.00    -0.203 F 
ATOM     70  F   UNL A   1      44.973  26.709  25.026  1.00  0.00    -0.200 F 
ATOM     71  C   UNL A   1      43.732  24.806  25.668  1.00  0.00     0.200 A 
ATOM     72  F   UNL A   1      42.466  22.930  26.342  1.00  0.00    -0.200 F 
ATOM     73  F   UNL A   1      44.222  24.119  24.627  1.00  0.00    -0.200 F 
ENDBRANCH  49  63
BRANCH  50  74
ATOM     74  C   UNL A   1      39.529  31.692  35.553  1.00  0.00     0.064 A 
ATOM     75  C   UNL A   1      40.047  32.990  35.619  1.00  0.00     0.173 A 
ATOM     76  C   UNL A   1      38.575  31.313  36.511  1.00  0.00     0.173 A 
ATOM     77  F   UNL A   1      40.974  33.387  34.737  1.00  0.00    -0.203 F 
ATOM     78  C   UNL A   1      39.616  33.882  36.599  1.00  0.00     0.198 A 
ATOM     79  C   UNL A   1      38.129  32.213  37.474  1.00  0.00     0.198 A 
ATOM     80  F   UNL A   1      38.053  30.078  36.485  1.00  0.00    -0.203 F 
ATOM     81  F   UNL A   1      40.134  35.117  36.651  1.00  0.00    -0.200 F 
ATOM     82  C   UNL A   1      38.650  33.497  37.517  1.00  0.00     0.200 A 
ATOM     83  F   UNL A   1      37.186  31.840  38.349  1.00  0.00    -0.200 F 
ATOM     84  F   UNL A   1      38.222  34.362  38.446  1.00  0.00    -0.200 F 
ENDBRANCH  50  74
BRANCH  62  85
ATOM     85  C   UNL A   1      44.723  27.156  34.715  1.00  0.00     0.064 A 
ATOM     86  C   UNL A   1      45.966  27.791  34.850  1.00  0.00     0.173 A 
ATOM     87  C   UNL A   1      44.469  26.020  35.493  1.00  0.00     0.173 A 
ATOM     88  F   UNL A   1      46.255  28.872  34.109  1.00  0.00    -0.203 F 
ATOM     89  C   UNL A   1      46.930  27.294  35.721  1.00  0.00     0.198 A 
ATOM     90  C   UNL A   1      45.431  25.532  36.373  1.00  0.00     0.198 A 
ATOM     91  F   UNL A   1      43.295  25.380  35.392  1.00  0.00    -0.203 F 
ATOM     92  F   UNL A   1      48.125  27.894  35.811  1.00  0.00    -0.200 F 
ATOM     93  C   UNL A   1      46.661  26.166  36.483  1.00  0.00     0.200 A 
ATOM     94  F   UNL A   1      45.174  24.442  37.108  1.00  0.00    -0.200 F 
ATOM     95  F   UNL A   1      47.592  25.684  37.316  1.00  0.00    -0.200 F 
ENDBRANCH  62  85
ENDBRANCH  36  37
ENDBRANCH  29  31
ENDBRANCH  28  29
ENDBRANCH  27  28
ENDBRANCH   1  27
TORSDOF 17
ENDMDL
MODEL 3
REMARK VINA RESULT:     -11.0      4.820     10.304
REMARK SMILES CCC[NH2+][C@@]1(C(=O)OCCOC(=O)c2ccc(-c3c4nc(c(-c5c(F)c(F)c(F)c(F)c5F)c5ccc([nH]5)c(-c5c(F)c(F)c(F)c(F)c5F)c5nc(c(-c6c(F)c(F)c(F)c(F)c6F)c6ccc3[nH]6)C=C5)C=C4)cc2)CCC[C@@H]1CC[NH+]1CC[NH+](C)CC1
REMARK SMILES IDX 9 1 8 2 6 3 7 4 5 5 77 6 80 7 78 8 79 9 4 10 3 13 2 14 1 15
REMARK SMILES IDX 81 16 82 17 83 18 84 19 89 20 85 22 88 23 86 24 87 25 10 27
REMARK SMILES IDX 11 28 12 29 13 30 14 31 15 32 76 33 16 34 75 35 17 36 18 37
REMARK SMILES IDX 19 38 69 39 20 40 74 41 68 42 70 43 21 44 73 45 67 46 66 47
REMARK SMILES IDX 22 49 54 50 34 51 53 52 35 53 38 54 52 55 71 56 36 57 37 58
REMARK SMILES IDX 51 60 72 61 39 62 23 63 24 64 32 65 25 66 26 67 30 68 33 69
REMARK SMILES IDX 27 70 28 71 31 72 29 73 55 74 56 75 64 76 57 77 58 78 62 79
REMARK SMILES IDX 65 80 59 81 60 82 63 83 61 84 40 85 41 86 49 87 42 88 43 89
REMARK SMILES IDX 47 90 50 91 44 92 45 93 48 94 46 95
REMARK H PARENT 4 11 4 12 83 21 86 26 70 48 38 59
REMARK Flexibility Score: inf
ROOT
ATOM      1  C   UNL A   1      36.136  22.263  24.121  1.00  0.00     0.274 C 
ENDROOT
BRANCH   1   2
ATOM      2  O   UNL A   1      35.798  23.266  25.107  1.00  0.00    -0.457 OA
BRANCH   2   3
ATOM      3  C   UNL A   1      34.546  23.214  25.638  1.00  0.00     0.368 C 
ATOM      4  O   UNL A   1      34.227  22.448  26.548  1.00  0.00    -0.245 OA
BRANCH   3   5
ATOM      5  C   UNL A   1      33.498  24.114  24.897  1.00  0.00     0.197 C 
ATOM      6  C   UNL A   1      32.736  24.874  26.017  1.00  0.00     0.081 C 
ATOM      7  C   UNL A   1      32.334  23.452  24.082  1.00  0.00     0.068 C 
ATOM      8  C   UNL A   1      31.587  23.970  26.394  1.00  0.00     0.008 C 
ATOM      9  C   UNL A   1      31.141  23.369  25.075  1.00  0.00     0.011 C 
BRANCH   5  10
ATOM     10  N   UNL A   1      34.219  25.242  24.224  1.00  0.00    -0.332 N 
ATOM     11  H   UNL A   1      35.136  25.326  24.663  1.00  0.00     0.347 HD
ATOM     12  H   UNL A   1      34.236  24.992  23.235  1.00  0.00     0.347 HD
BRANCH  10  13
ATOM     13  C   UNL A   1      33.591  26.549  24.271  1.00  0.00     0.261 C 
BRANCH  13  14
ATOM     14  C   UNL A   1      33.491  27.184  22.873  1.00  0.00     0.058 C 
ATOM     15  C   UNL A   1      32.943  26.279  21.774  1.00  0.00     0.010 C 
ENDBRANCH  13  14
ENDBRANCH  10  13
ENDBRANCH   5  10
BRANCH   7  16
ATOM     16  C   UNL A   1      32.488  22.081  23.367  1.00  0.00     0.072 C 
BRANCH  16  17
ATOM     17  C   UNL A   1      32.223  20.824  24.214  1.00  0.00     0.263 C 
BRANCH  17  18
ATOM     18  N   UNL A   1      33.107  19.712  23.786  1.00  0.00    -0.326 N 
ATOM     19  C   UNL A   1      32.331  18.570  23.258  1.00  0.00     0.324 C 
ATOM     20  C   UNL A   1      33.988  19.261  24.873  1.00  0.00     0.324 C 
ATOM     21  H   UNL A   1      33.690  20.081  23.035  1.00  0.00     0.348 HD
ATOM     22  C   UNL A   1      33.160  17.303  22.940  1.00  0.00     0.324 C 
ATOM     23  C   UNL A   1      34.851  18.041  24.460  1.00  0.00     0.324 C 
ATOM     24  N   UNL A   1      34.085  16.867  24.000  1.00  0.00    -0.328 N 
ATOM     25  C   UNL A   1      33.384  16.210  25.100  1.00  0.00     0.333 C 
ATOM     26  H   UNL A   1      34.726  16.168  23.624  1.00  0.00     0.348 HD
ENDBRANCH  17  18
ENDBRANCH  16  17
ENDBRANCH   7  16
ENDBRANCH   3   5
ENDBRANCH   2   3
ENDBRANCH   1   2
BRANCH   1  27
ATOM     27  C   UNL A   1      37.177  21.248  24.624  1.00  0.00     0.275 C 
BRANCH  27  28
ATOM     28  O   UNL A   1      37.575  21.464  26.001  1.00  0.00    -0.458 OA
BRANCH  28  29
ATOM     29  C   UNL A   1      38.905  21.510  26.165  1.00  0.00     0.338 C 
ATOM     30  O   UNL A   1      39.710  20.676  25.806  1.00  0.00    -0.246 OA
BRANCH  29  31
ATOM     31  C   UNL A   1      39.414  22.740  26.759  1.00  0.00     0.060 A 
ATOM     32  C   UNL A   1      38.934  23.913  26.181  1.00  0.00     0.016 A 
ATOM     33  C   UNL A   1      40.559  22.757  27.563  1.00  0.00     0.016 A 
ATOM     34  C   UNL A   1      39.639  25.092  26.334  1.00  0.00     0.010 A 
ATOM     35  C   UNL A   1      41.223  23.971  27.787  1.00  0.00     0.010 A 
ATOM     36  C   UNL A   1      40.777  25.141  27.154  1.00  0.00    -0.014 A 
BRANCH  36  37
ATOM     37  C   UNL A   1      41.400  26.471  27.350  1.00  0.00     0.031 A 
ATOM     38  C   UNL A   1      40.812  27.490  28.279  1.00  0.00     0.074 A 
ATOM     39  C   UNL A   1      42.624  26.658  26.821  1.00  0.00     0.049 A 
ATOM     40  N   UNL A   1      41.296  28.655  28.627  1.00  0.00    -0.248 NA
ATOM     41  C   UNL A   1      39.525  27.161  28.912  1.00  0.00     0.031 C 
ATOM     42  C   UNL A   1      43.324  25.684  25.979  1.00  0.00     0.029 A 
ATOM     43  N   UNL A   1      43.532  27.670  26.987  1.00  0.00    -0.354 N 
ATOM     44  C   UNL A   1      40.370  29.211  29.496  1.00  0.00     0.074 A 
ATOM     45  C   UNL A   1      39.293  28.251  29.636  1.00  0.00     0.031 C 
ATOM     46  C   UNL A   1      44.590  26.088  25.804  1.00  0.00     0.029 A 
ATOM     47  C   UNL A   1      44.763  27.385  26.446  1.00  0.00     0.049 A 
ATOM     48  H   UNL A   1      43.325  28.515  27.446  1.00  0.00     0.167 HD
ATOM     49  C   UNL A   1      40.416  30.419  30.107  1.00  0.00     0.037 A 
ATOM     50  C   UNL A   1      45.907  28.092  26.464  1.00  0.00     0.037 A 
ATOM     51  C   UNL A   1      41.498  31.361  29.972  1.00  0.00     0.049 A 
ATOM     52  C   UNL A   1      45.909  29.442  27.108  1.00  0.00     0.074 A 
ATOM     53  C   UNL A   1      41.602  32.643  30.484  1.00  0.00     0.029 A 
ATOM     54  N   UNL A   1      42.678  31.109  29.288  1.00  0.00    -0.354 N 
ATOM     55  N   UNL A   1      44.971  30.018  27.815  1.00  0.00    -0.248 NA
ATOM     56  C   UNL A   1      47.110  30.263  26.907  1.00  0.00     0.031 C 
ATOM     57  C   UNL A   1      42.837  33.174  30.093  1.00  0.00     0.029 A 
ATOM     58  C   UNL A   1      43.509  32.216  29.354  1.00  0.00     0.049 A 
ATOM     59  H   UNL A   1      42.892  30.268  28.822  1.00  0.00     0.167 HD
ATOM     60  C   UNL A   1      45.443  31.286  28.107  1.00  0.00     0.074 A 
ATOM     61  C   UNL A   1      46.778  31.377  27.547  1.00  0.00     0.031 C 
ATOM     62  C   UNL A   1      44.815  32.297  28.753  1.00  0.00     0.037 A 
BRANCH  49  63
ATOM     63  C   UNL A   1      39.245  30.821  30.948  1.00  0.00     0.064 A 
ATOM     64  C   UNL A   1      38.135  31.471  30.396  1.00  0.00     0.173 A 
ATOM     65  C   UNL A   1      39.204  30.481  32.309  1.00  0.00     0.173 A 
ATOM     66  F   UNL A   1      38.134  31.824  29.102  1.00  0.00    -0.203 F 
ATOM     67  C   UNL A   1      37.021  31.768  31.178  1.00  0.00     0.198 A 
ATOM     68  C   UNL A   1      38.086  30.771  33.085  1.00  0.00     0.198 A 
ATOM     69  F   UNL A   1      40.244  29.856  32.880  1.00  0.00    -0.203 F 
ATOM     70  F   UNL A   1      35.971  32.401  30.636  1.00  0.00    -0.200 F 
ATOM     71  C   UNL A   1      36.995  31.413  32.519  1.00  0.00     0.200 A 
ATOM     72  F   UNL A   1      38.060  30.422  34.379  1.00  0.00    -0.200 F 
ATOM     73  F   UNL A   1      35.918  31.690  33.268  1.00  0.00    -0.200 F 
ENDBRANCH  49  63
BRANCH  50  74
ATOM     74  C   UNL A   1      47.120  27.535  25.822  1.00  0.00     0.064 A 
ATOM     75  C   UNL A   1      47.343  27.695  24.450  1.00  0.00     0.173 A 
ATOM     76  C   UNL A   1      48.105  26.878  26.577  1.00  0.00     0.173 A 
ATOM     77  F   UNL A   1      46.420  28.298  23.688  1.00  0.00    -0.203 F 
ATOM     78  C   UNL A   1      48.514  27.229  23.856  1.00  0.00     0.198 A 
ATOM     79  C   UNL A   1      49.284  26.435  25.987  1.00  0.00     0.198 A 
ATOM     80  F   UNL A   1      47.933  26.703  27.896  1.00  0.00    -0.203 F 
ATOM     81  F   UNL A   1      48.702  27.383  22.539  1.00  0.00    -0.200 F 
ATOM     82  C   UNL A   1      49.488  26.611  24.627  1.00  0.00     0.200 A 
ATOM     83  F   UNL A   1      50.227  25.851  26.738  1.00  0.00    -0.200 F 
ATOM     84  F   UNL A   1      50.623  26.181  24.059  1.00  0.00    -0.200 F 
ENDBRANCH  50  74
BRANCH  62  85
ATOM     85  C   UNL A   1      45.543  33.600  28.819  1.00  0.00     0.064 A 
ATOM     86  C   UNL A   1      46.418  33.872  29.881  1.00  0.00     0.173 A 
ATOM     87  C   UNL A   1      45.377  34.574  27.827  1.00  0.00     0.173 A 
ATOM     88  F   UNL A   1      46.591  32.972  30.860  1.00  0.00    -0.203 F 
ATOM     89  C   UNL A   1      47.092  35.087  29.955  1.00  0.00     0.198 A 
ATOM     90  C   UNL A   1      46.063  35.784  27.898  1.00  0.00     0.198 A 
ATOM     91  F   UNL A   1      44.547  34.356  26.797  1.00  0.00    -0.203 F 
ATOM     92  F   UNL A   1      47.897  35.343  30.995  1.00  0.00    -0.200 F 
ATOM     93  C   UNL A   1      46.914  36.041  28.963  1.00  0.00     0.200 A 
ATOM     94  F   UNL A   1      45.891  36.707  26.943  1.00  0.00    -0.200 F 
ATOM     95  F   UNL A   1      47.558  37.213  29.040  1.00  0.00    -0.200 F 
ENDBRANCH  62  85
ENDBRANCH  36  37
ENDBRANCH  29  31
ENDBRANCH  28  29
ENDBRANCH  27  28
ENDBRANCH   1  27
TORSDOF 17
ENDMDL
