MODEL 1
REMARK VINA RESULT:     -13.1      0.000      0.000
REMARK SMILES O=C(OCCOC(=O)c1ccc(N2C(=O)/C(=C\C3=Cc4ccccc4OC3)SC2=S)cc1)c1ccc(-c2c3nc(c(-c4c(F)c(F)c(F)c(F)c4F)c4ccc([nH]4)c(-c4c(F)c(F)c(F)c(F)c4F)c4nc(c(-c5c(F)c(F)c(F)c(F)c5F)c5ccc2[nH]5)C=C4)C=C3)cc1
REMARK SMILES IDX 4 1 3 2 2 3 1 4 33 5 34 6 95 7 35 8 94 9 36 10 37 11 38 12
REMARK SMILES IDX 88 13 39 14 93 15 87 16 89 17 40 18 92 19 86 20 85 21 41 23
REMARK SMILES IDX 73 24 53 25 72 26 54 27 57 28 71 29 90 30 55 31 56 32 70 34
REMARK SMILES IDX 91 35 58 36 42 37 43 38 51 39 44 40 45 41 49 42 52 43 46 44
REMARK SMILES IDX 47 45 50 46 48 47 74 48 75 49 83 50 76 51 77 52 81 53 84 54
REMARK SMILES IDX 78 55 79 56 82 57 80 58 59 59 60 60 68 61 61 62 62 63 66 64
REMARK SMILES IDX 69 65 63 66 64 67 67 68 65 69 5 70 6 71 7 72 8 73 9 74 10 75
REMARK SMILES IDX 32 76 11 77 31 78 12 79 13 80 14 81 29 82 15 83 16 84 28 85
REMARK SMILES IDX 30 86 17 87 18 88 19 89 27 90 20 91 26 92 21 93 25 94 22 95
REMARK SMILES IDX 24 96 23 97
REMARK H PARENT 89 22 57 33
REMARK Flexibility Score: inf
ROOT
ATOM      1  C   UNL A   1      32.106  33.432  26.868  1.00  0.00     0.275 C 
ENDROOT
BRANCH   1   2
ATOM      2  O   UNL A   1      32.357  34.082  28.117  1.00  0.00    -0.458 OA
BRANCH   2   3
ATOM      3  C   UNL A   1      33.514  34.590  28.593  1.00  0.00     0.338 C 
ATOM      4  O   UNL A   1      33.591  35.811  28.731  1.00  0.00    -0.246 OA
BRANCH   3   5
ATOM      5  C   UNL A   1      34.740  33.779  28.915  1.00  0.00     0.060 A 
ATOM      6  C   UNL A   1      36.076  34.058  28.593  1.00  0.00     0.016 A 
ATOM      7  C   UNL A   1      34.505  32.630  29.675  1.00  0.00     0.016 A 
ATOM      8  C   UNL A   1      37.140  33.290  29.085  1.00  0.00     0.010 A 
ATOM      9  C   UNL A   1      35.563  31.865  30.164  1.00  0.00     0.010 A 
ATOM     10  C   UNL A   1      36.899  32.215  29.925  1.00  0.00    -0.014 A 
BRANCH  10  11
ATOM     11  C   UNL A   1      38.016  31.449  30.547  1.00  0.00     0.031 A 
ATOM     12  C   UNL A   1      38.451  31.814  31.937  1.00  0.00     0.074 A 
ATOM     13  C   UNL A   1      38.697  30.515  29.845  1.00  0.00     0.049 A 
ATOM     14  N   UNL A   1      39.450  31.353  32.644  1.00  0.00    -0.248 NA
ATOM     15  C   UNL A   1      37.674  32.867  32.612  1.00  0.00     0.031 C 
ATOM     16  C   UNL A   1      38.439  30.129  28.453  1.00  0.00     0.029 A 
ATOM     17  N   UNL A   1      39.790  29.751  30.187  1.00  0.00    -0.354 N 
ATOM     18  C   UNL A   1      39.413  32.064  33.836  1.00  0.00     0.074 A 
ATOM     19  C   UNL A   1      38.385  33.069  33.707  1.00  0.00     0.031 C 
ATOM     20  C   UNL A   1      39.350  29.223  28.060  1.00  0.00     0.029 A 
ATOM     21  C   UNL A   1      40.260  28.954  29.168  1.00  0.00     0.049 A 
ATOM     22  H   UNL A   1      40.200  29.774  31.083  1.00  0.00     0.167 HD
ATOM     23  C   UNL A   1      40.115  31.850  34.971  1.00  0.00     0.037 A 
ATOM     24  C   UNL A   1      41.303  28.101  29.137  1.00  0.00     0.037 A 
ATOM     25  C   UNL A   1      41.116  30.833  35.105  1.00  0.00     0.049 A 
ATOM     26  C   UNL A   1      42.102  27.898  30.401  1.00  0.00     0.074 A 
ATOM     27  C   UNL A   1      41.850  30.480  36.220  1.00  0.00     0.029 A 
ATOM     28  N   UNL A   1      41.524  30.003  34.069  1.00  0.00    -0.354 N 
ATOM     29  N   UNL A   1      41.972  28.489  31.564  1.00  0.00    -0.248 NA
ATOM     30  C   UNL A   1      43.167  26.886  30.359  1.00  0.00     0.031 C 
ATOM     31  C   UNL A   1      42.729  29.455  35.850  1.00  0.00     0.029 A 
ATOM     32  C   UNL A   1      42.509  29.141  34.517  1.00  0.00     0.049 A 
ATOM     33  H   UNL A   1      41.167  30.025  33.152  1.00  0.00     0.167 HD
ATOM     34  C   UNL A   1      42.897  27.886  32.405  1.00  0.00     0.074 A 
ATOM     35  C   UNL A   1      43.584  26.883  31.617  1.00  0.00     0.031 C 
ATOM     36  C   UNL A   1      43.151  28.131  33.715  1.00  0.00     0.037 A 
BRANCH  23  37
ATOM     37  C   UNL A   1      39.771  32.719  36.146  1.00  0.00     0.064 A 
ATOM     38  C   UNL A   1      38.699  32.397  36.998  1.00  0.00     0.173 A 
ATOM     39  C   UNL A   1      40.466  33.910  36.388  1.00  0.00     0.173 A 
ATOM     40  F   UNL A   1      37.986  31.278  36.794  1.00  0.00    -0.203 F 
ATOM     41  C   UNL A   1      38.300  33.265  38.008  1.00  0.00     0.198 A 
ATOM     42  C   UNL A   1      40.086  34.760  37.425  1.00  0.00     0.198 A 
ATOM     43  F   UNL A   1      41.497  34.264  35.607  1.00  0.00    -0.203 F 
ATOM     44  F   UNL A   1      37.219  32.979  38.747  1.00  0.00    -0.200 F 
ATOM     45  C   UNL A   1      38.994  34.445  38.222  1.00  0.00     0.200 A 
ATOM     46  F   UNL A   1      40.761  35.897  37.638  1.00  0.00    -0.200 F 
ATOM     47  F   UNL A   1      38.600  35.290  39.185  1.00  0.00    -0.200 F 
ENDBRANCH  23  37
BRANCH  24  48
ATOM     48  C   UNL A   1      41.621  27.323  27.907  1.00  0.00     0.064 A 
ATOM     49  C   UNL A   1      41.043  26.064  27.683  1.00  0.00     0.173 A 
ATOM     50  C   UNL A   1      42.534  27.794  26.952  1.00  0.00     0.173 A 
ATOM     51  F   UNL A   1      40.177  25.559  28.575  1.00  0.00    -0.203 F 
ATOM     52  C   UNL A   1      41.390  25.292  26.575  1.00  0.00     0.198 A 
ATOM     53  C   UNL A   1      42.865  27.031  25.830  1.00  0.00     0.198 A 
ATOM     54  F   UNL A   1      43.108  28.996  27.108  1.00  0.00    -0.203 F 
ATOM     55  F   UNL A   1      40.861  24.071  26.420  1.00  0.00    -0.200 F 
ATOM     56  C   UNL A   1      42.300  25.777  25.648  1.00  0.00     0.200 A 
ATOM     57  F   UNL A   1      43.741  27.503  24.934  1.00  0.00    -0.200 F 
ATOM     58  F   UNL A   1      42.641  25.030  24.588  1.00  0.00    -0.200 F 
ENDBRANCH  24  48
BRANCH  36  59
ATOM     59  C   UNL A   1      44.163  27.259  34.395  1.00  0.00     0.064 A 
ATOM     60  C   UNL A   1      45.509  27.633  34.503  1.00  0.00     0.173 A 
ATOM     61  C   UNL A   1      43.759  26.060  35.003  1.00  0.00     0.173 A 
ATOM     62  F   UNL A   1      45.945  28.762  33.923  1.00  0.00    -0.203 F 
ATOM     63  C   UNL A   1      46.420  26.828  35.179  1.00  0.00     0.198 A 
ATOM     64  C   UNL A   1      44.665  25.274  35.706  1.00  0.00     0.198 A 
ATOM     65  F   UNL A   1      42.479  25.664  34.932  1.00  0.00    -0.203 F 
ATOM     66  F   UNL A   1      47.711  27.182  35.234  1.00  0.00    -0.200 F 
ATOM     67  C   UNL A   1      45.996  25.655  35.788  1.00  0.00     0.200 A 
ATOM     68  F   UNL A   1      44.250  24.152  36.308  1.00  0.00    -0.200 F 
ATOM     69  F   UNL A   1      46.872  24.890  36.453  1.00  0.00    -0.200 F 
ENDBRANCH  36  59
ENDBRANCH  10  11
ENDBRANCH   3   5
ENDBRANCH   2   3
ENDBRANCH   1   2
BRANCH   1  70
ATOM     70  C   UNL A   1      31.378  32.084  27.014  1.00  0.00     0.275 C 
BRANCH  70  71
ATOM     71  O   UNL A   1      31.811  31.052  26.096  1.00  0.00    -0.458 OA
BRANCH  71  72
ATOM     72  C   UNL A   1      32.768  30.210  26.575  1.00  0.00     0.338 C 
ATOM     73  O   UNL A   1      33.413  30.379  27.599  1.00  0.00    -0.246 OA
BRANCH  72  74
ATOM     74  C   UNL A   1      32.916  28.989  25.734  1.00  0.00     0.060 A 
ATOM     75  C   UNL A   1      32.169  27.852  26.058  1.00  0.00     0.018 A 
ATOM     76  C   UNL A   1      33.824  28.904  24.682  1.00  0.00     0.018 A 
ATOM     77  C   UNL A   1      32.331  26.642  25.348  1.00  0.00     0.028 A 
ATOM     78  C   UNL A   1      33.984  27.686  23.979  1.00  0.00     0.028 A 
ATOM     79  C   UNL A   1      33.260  26.515  24.303  1.00  0.00     0.051 A 
BRANCH  79  80
ATOM     80  N   UNL A   1      33.423  25.280  23.543  1.00  0.00    -0.261 N 
ATOM     81  C   UNL A   1      34.305  24.259  23.943  1.00  0.00     0.270 C 
ATOM     82  C   UNL A   1      32.825  25.043  22.308  1.00  0.00     0.152 C 
ATOM     83  O   UNL A   1      35.311  24.374  24.633  1.00  0.00    -0.268 OA
ATOM     84  C   UNL A   1      33.991  22.973  23.222  1.00  0.00     0.081 C 
ATOM     85  S   UNL A   1      33.237  23.426  21.725  1.00  0.00    -0.054 SA
ATOM     86  S   UNL A   1      31.930  26.050  21.309  1.00  0.00    -0.051 S 
ATOM     87  C   UNL A   1      34.047  21.662  23.538  1.00  0.00     0.028 C 
BRANCH  87  88
ATOM     88  C   UNL A   1      34.247  20.906  24.794  1.00  0.00    -0.009 C 
ATOM     89  C   UNL A   1      34.391  21.422  26.032  1.00  0.00     0.019 C 
ATOM     90  C   UNL A   1      33.271  19.718  24.853  1.00  0.00     0.265 C 
ATOM     91  C   UNL A   1      33.058  21.920  26.453  1.00  0.00     0.017 A 
ATOM     92  O   UNL A   1      31.932  20.216  25.084  1.00  0.00    -0.488 OA
ATOM     93  C   UNL A   1      32.998  23.097  27.186  1.00  0.00     0.012 A 
ATOM     94  C   UNL A   1      31.904  21.370  25.843  1.00  0.00     0.127 A 
ATOM     95  C   UNL A   1      31.845  23.852  27.091  1.00  0.00     0.001 A 
ATOM     96  C   UNL A   1      30.741  22.111  25.795  1.00  0.00     0.047 A 
ATOM     97  C   UNL A   1      30.752  23.385  26.351  1.00  0.00     0.004 A 
ENDBRANCH  87  88
ENDBRANCH  79  80
ENDBRANCH  72  74
ENDBRANCH  71  72
ENDBRANCH  70  71
ENDBRANCH   1  70
TORSDOF 13
ENDMDL
MODEL 2
REMARK VINA RESULT:     -12.9      4.976      8.276
REMARK SMILES O=C(OCCOC(=O)c1ccc(N2C(=O)/C(=C\C3=Cc4ccccc4OC3)SC2=S)cc1)c1ccc(-c2c3nc(c(-c4c(F)c(F)c(F)c(F)c4F)c4ccc([nH]4)c(-c4c(F)c(F)c(F)c(F)c4F)c4nc(c(-c5c(F)c(F)c(F)c(F)c5F)c5ccc2[nH]5)C=C4)C=C3)cc1
REMARK SMILES IDX 4 1 3 2 2 3 1 4 33 5 34 6 95 7 35 8 94 9 36 10 37 11 38 12
REMARK SMILES IDX 88 13 39 14 93 15 87 16 89 17 40 18 92 19 86 20 85 21 41 23
REMARK SMILES IDX 73 24 53 25 72 26 54 27 57 28 71 29 90 30 55 31 56 32 70 34
REMARK SMILES IDX 91 35 58 36 42 37 43 38 51 39 44 40 45 41 49 42 52 43 46 44
REMARK SMILES IDX 47 45 50 46 48 47 74 48 75 49 83 50 76 51 77 52 81 53 84 54
REMARK SMILES IDX 78 55 79 56 82 57 80 58 59 59 60 60 68 61 61 62 62 63 66 64
REMARK SMILES IDX 69 65 63 66 64 67 67 68 65 69 5 70 6 71 7 72 8 73 9 74 10 75
REMARK SMILES IDX 32 76 11 77 31 78 12 79 13 80 14 81 29 82 15 83 16 84 28 85
REMARK SMILES IDX 30 86 17 87 18 88 19 89 27 90 20 91 26 92 21 93 25 94 22 95
REMARK SMILES IDX 24 96 23 97
REMARK H PARENT 89 22 57 33
REMARK Flexibility Score: inf
ROOT
ATOM      1  C   UNL A   1      33.290  32.172  27.531  1.00  0.00     0.275 C 
ENDROOT
BRANCH   1   2
ATOM      2  O   UNL A   1      33.922  31.195  28.363  1.00  0.00    -0.458 OA
BRANCH   2   3
ATOM      3  C   UNL A   1      34.688  30.143  28.006  1.00  0.00     0.338 C 
ATOM      4  O   UNL A   1      34.194  29.302  27.254  1.00  0.00    -0.246 OA
BRANCH   3   5
ATOM      5  C   UNL A   1      36.086  29.888  28.503  1.00  0.00     0.060 A 
ATOM      6  C   UNL A   1      36.489  29.435  29.766  1.00  0.00     0.016 A 
ATOM      7  C   UNL A   1      37.094  30.088  27.556  1.00  0.00     0.016 A 
ATOM      8  C   UNL A   1      37.820  29.098  30.050  1.00  0.00     0.010 A 
ATOM      9  C   UNL A   1      38.418  29.754  27.838  1.00  0.00     0.010 A 
ATOM     10  C   UNL A   1      38.793  29.200  29.069  1.00  0.00    -0.014 A 
BRANCH  10  11
ATOM     11  C   UNL A   1      40.192  28.748  29.313  1.00  0.00     0.031 A 
ATOM     12  C   UNL A   1      41.148  29.696  29.977  1.00  0.00     0.074 A 
ATOM     13  C   UNL A   1      40.628  27.552  28.857  1.00  0.00     0.049 A 
ATOM     14  N   UNL A   1      42.428  29.559  30.211  1.00  0.00    -0.248 NA
ATOM     15  C   UNL A   1      40.594  30.990  30.409  1.00  0.00     0.031 C 
ATOM     16  C   UNL A   1      39.828  26.573  28.111  1.00  0.00     0.029 A 
ATOM     17  N   UNL A   1      41.876  26.971  28.902  1.00  0.00    -0.354 N 
ATOM     18  C   UNL A   1      42.819  30.749  30.811  1.00  0.00     0.074 A 
ATOM     19  C   UNL A   1      41.682  31.637  30.787  1.00  0.00     0.031 C 
ATOM     20  C   UNL A   1      40.603  25.532  27.759  1.00  0.00     0.029 A 
ATOM     21  C   UNL A   1      41.956  25.759  28.254  1.00  0.00     0.049 A 
ATOM     22  H   UNL A   1      42.643  27.386  29.359  1.00  0.00     0.167 HD
ATOM     23  C   UNL A   1      43.995  31.050  31.405  1.00  0.00     0.037 A 
ATOM     24  C   UNL A   1      43.003  24.928  28.084  1.00  0.00     0.037 A 
ATOM     25  C   UNL A   1      45.113  30.154  31.451  1.00  0.00     0.049 A 
ATOM     26  C   UNL A   1      44.320  25.292  28.722  1.00  0.00     0.074 A 
ATOM     27  C   UNL A   1      46.333  30.322  32.075  1.00  0.00     0.029 A 
ATOM     28  N   UNL A   1      45.138  28.910  30.835  1.00  0.00    -0.354 N 
ATOM     29  N   UNL A   1      44.640  26.370  29.399  1.00  0.00    -0.248 NA
ATOM     30  C   UNL A   1      45.411  24.314  28.602  1.00  0.00     0.031 C 
ATOM     31  C   UNL A   1      47.113  29.190  31.809  1.00  0.00     0.029 A 
ATOM     32  C   UNL A   1      46.359  28.300  31.058  1.00  0.00     0.049 A 
ATOM     33  H   UNL A   1      44.397  28.520  30.317  1.00  0.00     0.167 HD
ATOM     34  C   UNL A   1      45.945  26.176  29.832  1.00  0.00     0.074 A 
ATOM     35  C   UNL A   1      46.359  24.878  29.337  1.00  0.00     0.031 C 
ATOM     36  C   UNL A   1      46.729  26.992  30.579  1.00  0.00     0.037 A 
BRANCH  23  37
ATOM     37  C   UNL A   1      44.083  32.390  32.076  1.00  0.00     0.064 A 
ATOM     38  C   UNL A   1      43.818  32.533  33.450  1.00  0.00     0.173 A 
ATOM     39  C   UNL A   1      44.366  33.547  31.339  1.00  0.00     0.173 A 
ATOM     40  F   UNL A   1      43.519  31.458  34.196  1.00  0.00    -0.203 F 
ATOM     41  C   UNL A   1      43.774  33.789  34.046  1.00  0.00     0.198 A 
ATOM     42  C   UNL A   1      44.357  34.800  31.948  1.00  0.00     0.198 A 
ATOM     43  F   UNL A   1      44.628  33.467  30.027  1.00  0.00    -0.203 F 
ATOM     44  F   UNL A   1      43.429  33.905  35.335  1.00  0.00    -0.200 F 
ATOM     45  C   UNL A   1      44.045  34.921  33.294  1.00  0.00     0.200 A 
ATOM     46  F   UNL A   1      44.627  35.895  31.225  1.00  0.00    -0.200 F 
ATOM     47  F   UNL A   1      43.987  36.133  33.865  1.00  0.00    -0.200 F 
ENDBRANCH  23  37
BRANCH  24  48
ATOM     48  C   UNL A   1      42.849  23.643  27.345  1.00  0.00     0.064 A 
ATOM     49  C   UNL A   1      42.331  22.505  27.981  1.00  0.00     0.173 A 
ATOM     50  C   UNL A   1      43.252  23.509  26.008  1.00  0.00     0.173 A 
ATOM     51  F   UNL A   1      41.948  22.574  29.265  1.00  0.00    -0.203 F 
ATOM     52  C   UNL A   1      42.254  21.277  27.324  1.00  0.00     0.198 A 
ATOM     53  C   UNL A   1      43.154  22.285  25.343  1.00  0.00     0.198 A 
ATOM     54  F   UNL A   1      43.744  24.567  25.346  1.00  0.00    -0.203 F 
ATOM     55  F   UNL A   1      41.805  20.197  27.978  1.00  0.00    -0.200 F 
ATOM     56  C   UNL A   1      42.664  21.168  26.004  1.00  0.00     0.200 A 
ATOM     57  F   UNL A   1      43.547  22.184  24.066  1.00  0.00    -0.200 F 
ATOM     58  F   UNL A   1      42.599  19.986  25.376  1.00  0.00    -0.200 F 
ENDBRANCH  24  48
BRANCH  36  59
ATOM     59  C   UNL A   1      48.084  26.481  30.965  1.00  0.00     0.064 A 
ATOM     60  C   UNL A   1      48.285  25.722  32.126  1.00  0.00     0.173 A 
ATOM     61  C   UNL A   1      49.184  26.703  30.121  1.00  0.00     0.173 A 
ATOM     62  F   UNL A   1      47.267  25.498  32.971  1.00  0.00    -0.203 F 
ATOM     63  C   UNL A   1      49.544  25.219  32.439  1.00  0.00     0.198 A 
ATOM     64  C   UNL A   1      50.433  26.170  30.420  1.00  0.00     0.198 A 
ATOM     65  F   UNL A   1      49.039  27.417  28.995  1.00  0.00    -0.203 F 
ATOM     66  F   UNL A   1      49.724  24.532  33.575  1.00  0.00    -0.200 F 
ATOM     67  C   UNL A   1      50.614  25.434  31.582  1.00  0.00     0.200 A 
ATOM     68  F   UNL A   1      51.460  26.365  29.583  1.00  0.00    -0.200 F 
ATOM     69  F   UNL A   1      51.821  24.935  31.877  1.00  0.00    -0.200 F 
ENDBRANCH  36  59
ENDBRANCH  10  11
ENDBRANCH   3   5
ENDBRANCH   2   3
ENDBRANCH   1   2
BRANCH   1  70
ATOM     70  C   UNL A   1      33.516  33.619  28.004  1.00  0.00     0.275 C 
BRANCH  70  71
ATOM     71  O   UNL A   1      34.675  33.813  28.850  1.00  0.00    -0.458 OA
BRANCH  71  72
ATOM     72  C   UNL A   1      34.406  33.987  30.173  1.00  0.00     0.338 C 
ATOM     73  O   UNL A   1      33.400  34.508  30.630  1.00  0.00    -0.246 OA
BRANCH  72  74
ATOM     74  C   UNL A   1      35.466  33.406  31.044  1.00  0.00     0.060 A 
ATOM     75  C   UNL A   1      35.174  33.161  32.390  1.00  0.00     0.018 A 
ATOM     76  C   UNL A   1      36.762  33.165  30.596  1.00  0.00     0.018 A 
ATOM     77  C   UNL A   1      36.165  32.690  33.280  1.00  0.00     0.028 A 
ATOM     78  C   UNL A   1      37.749  32.698  31.496  1.00  0.00     0.028 A 
ATOM     79  C   UNL A   1      37.487  32.467  32.867  1.00  0.00     0.051 A 
BRANCH  79  80
ATOM     80  N   UNL A   1      38.516  31.957  33.767  1.00  0.00    -0.261 N 
ATOM     81  C   UNL A   1      38.777  30.581  33.913  1.00  0.00     0.270 C 
ATOM     82  C   UNL A   1      39.247  32.756  34.643  1.00  0.00     0.152 C 
ATOM     83  O   UNL A   1      38.002  29.653  33.714  1.00  0.00    -0.268 OA
ATOM     84  C   UNL A   1      40.111  30.363  34.579  1.00  0.00     0.081 C 
ATOM     85  S   UNL A   1      40.415  31.777  35.539  1.00  0.00    -0.054 SA
ATOM     86  S   UNL A   1      39.101  34.381  35.030  1.00  0.00    -0.051 S 
ATOM     87  C   UNL A   1      41.088  29.436  34.480  1.00  0.00     0.028 C 
BRANCH  87  88
ATOM     88  C   UNL A   1      41.382  28.337  33.534  1.00  0.00    -0.009 C 
ATOM     89  C   UNL A   1      42.598  27.968  33.081  1.00  0.00     0.019 C 
ATOM     90  C   UNL A   1      40.586  27.080  33.925  1.00  0.00     0.265 C 
ATOM     91  C   UNL A   1      43.294  27.291  34.203  1.00  0.00     0.017 A 
ATOM     92  O   UNL A   1      41.153  26.516  35.131  1.00  0.00    -0.488 OA
ATOM     93  C   UNL A   1      44.656  27.508  34.357  1.00  0.00     0.012 A 
ATOM     94  C   UNL A   1      42.515  26.719  35.239  1.00  0.00     0.127 A 
ATOM     95  C   UNL A   1      45.183  27.392  35.629  1.00  0.00     0.001 A 
ATOM     96  C   UNL A   1      43.063  26.562  36.495  1.00  0.00     0.047 A 
ATOM     97  C   UNL A   1      44.374  26.980  36.695  1.00  0.00     0.004 A 
ENDBRANCH  87  88
ENDBRANCH  79  80
ENDBRANCH  72  74
ENDBRANCH  71  72
ENDBRANCH  70  71
ENDBRANCH   1  70
TORSDOF 13
ENDMDL
MODEL 3
REMARK VINA RESULT:     -12.8      2.616      4.349
REMARK SMILES O=C(OCCOC(=O)c1ccc(N2C(=O)/C(=C\C3=Cc4ccccc4OC3)SC2=S)cc1)c1ccc(-c2c3nc(c(-c4c(F)c(F)c(F)c(F)c4F)c4ccc([nH]4)c(-c4c(F)c(F)c(F)c(F)c4F)c4nc(c(-c5c(F)c(F)c(F)c(F)c5F)c5ccc2[nH]5)C=C4)C=C3)cc1
REMARK SMILES IDX 4 1 3 2 2 3 1 4 33 5 34 6 95 7 35 8 94 9 36 10 37 11 38 12
REMARK SMILES IDX 88 13 39 14 93 15 87 16 89 17 40 18 92 19 86 20 85 21 41 23
REMARK SMILES IDX 73 24 53 25 72 26 54 27 57 28 71 29 90 30 55 31 56 32 70 34
REMARK SMILES IDX 91 35 58 36 42 37 43 38 51 39 44 40 45 41 49 42 52 43 46 44
REMARK SMILES IDX 47 45 50 46 48 47 74 48 75 49 83 50 76 51 77 52 81 53 84 54
REMARK SMILES IDX 78 55 79 56 82 57 80 58 59 59 60 60 68 61 61 62 62 63 66 64
REMARK SMILES IDX 69 65 63 66 64 67 67 68 65 69 5 70 6 71 7 72 8 73 9 74 10 75
REMARK SMILES IDX 32 76 11 77 31 78 12 79 13 80 14 81 29 82 15 83 16 84 28 85
REMARK SMILES IDX 30 86 17 87 18 88 19 89 27 90 20 91 26 92 21 93 25 94 22 95
REMARK SMILES IDX 24 96 23 97
REMARK H PARENT 89 22 57 33
REMARK Flexibility Score: inf
ROOT
ATOM      1  C   UNL A   1      32.459  29.799  25.607  1.00  0.00     0.275 C 
ENDROOT
BRANCH   1   2
ATOM      2  O   UNL A   1      32.592  30.372  26.910  1.00  0.00    -0.458 OA
BRANCH   2   3
ATOM      3  C   UNL A   1      33.457  31.316  27.339  1.00  0.00     0.338 C 
ATOM      4  O   UNL A   1      33.102  32.493  27.270  1.00  0.00    -0.246 OA
BRANCH   3   5
ATOM      5  C   UNL A   1      34.848  31.042  27.843  1.00  0.00     0.060 A 
ATOM      6  C   UNL A   1      35.908  31.944  28.002  1.00  0.00     0.016 A 
ATOM      7  C   UNL A   1      35.080  29.724  28.247  1.00  0.00     0.016 A 
ATOM      8  C   UNL A   1      37.111  31.583  28.624  1.00  0.00     0.010 A 
ATOM      9  C   UNL A   1      36.277  29.364  28.865  1.00  0.00     0.010 A 
ATOM     10  C   UNL A   1      37.289  30.300  29.115  1.00  0.00    -0.014 A 
BRANCH  10  11
ATOM     11  C   UNL A   1      38.514  29.921  29.875  1.00  0.00     0.031 A 
ATOM     12  C   UNL A   1      38.704  30.480  31.256  1.00  0.00     0.074 A 
ATOM     13  C   UNL A   1      39.487  29.176  29.303  1.00  0.00     0.049 A 
ATOM     14  N   UNL A   1      39.724  30.365  32.066  1.00  0.00    -0.248 NA
ATOM     15  C   UNL A   1      37.609  31.310  31.784  1.00  0.00     0.031 C 
ATOM     16  C   UNL A   1      39.471  28.648  27.934  1.00  0.00     0.029 A 
ATOM     17  N   UNL A   1      40.713  28.776  29.783  1.00  0.00    -0.354 N 
ATOM     18  C   UNL A   1      39.385  31.109  33.188  1.00  0.00     0.074 A 
ATOM     19  C   UNL A   1      38.135  31.772  32.904  1.00  0.00     0.031 C 
ATOM     20  C   UNL A   1      40.630  28.014  27.683  1.00  0.00     0.029 A 
ATOM     21  C   UNL A   1      41.475  28.082  28.869  1.00  0.00     0.049 A 
ATOM     22  H   UNL A   1      41.019  28.969  30.699  1.00  0.00     0.167 HD
ATOM     23  C   UNL A   1      40.014  31.173  34.383  1.00  0.00     0.037 A 
ATOM     24  C   UNL A   1      42.712  27.559  28.983  1.00  0.00     0.037 A 
ATOM     25  C   UNL A   1      41.242  30.491  34.671  1.00  0.00     0.049 A 
ATOM     26  C   UNL A   1      43.419  27.669  30.311  1.00  0.00     0.074 A 
ATOM     27  C   UNL A   1      41.941  30.430  35.860  1.00  0.00     0.029 A 
ATOM     28  N   UNL A   1      41.955  29.748  33.739  1.00  0.00    -0.354 N 
ATOM     29  N   UNL A   1      43.027  28.270  31.408  1.00  0.00    -0.248 NA
ATOM     30  C   UNL A   1      44.723  26.999  30.428  1.00  0.00     0.031 C 
ATOM     31  C   UNL A   1      43.100  29.675  35.639  1.00  0.00     0.029 A 
ATOM     32  C   UNL A   1      43.095  29.229  34.326  1.00  0.00     0.049 A 
ATOM     33  H   UNL A   1      41.689  29.611  32.801  1.00  0.00     0.167 HD
ATOM     34  C   UNL A   1      44.004  28.007  32.359  1.00  0.00     0.074 A 
ATOM     35  C   UNL A   1      45.010  27.193  31.707  1.00  0.00     0.031 C 
ATOM     36  C   UNL A   1      44.061  28.395  33.658  1.00  0.00     0.037 A 
BRANCH  23  37
ATOM     37  C   UNL A   1      39.339  31.980  35.453  1.00  0.00     0.064 A 
ATOM     38  C   UNL A   1      39.622  33.347  35.620  1.00  0.00     0.173 A 
ATOM     39  C   UNL A   1      38.457  31.378  36.359  1.00  0.00     0.173 A 
ATOM     40  F   UNL A   1      40.480  33.966  34.793  1.00  0.00    -0.203 F 
ATOM     41  C   UNL A   1      39.096  34.064  36.689  1.00  0.00     0.198 A 
ATOM     42  C   UNL A   1      37.901  32.110  37.407  1.00  0.00     0.198 A 
ATOM     43  F   UNL A   1      38.150  30.078  36.244  1.00  0.00    -0.203 F 
ATOM     44  F   UNL A   1      39.454  35.342  36.879  1.00  0.00    -0.200 F 
ATOM     45  C   UNL A   1      38.234  33.445  37.581  1.00  0.00     0.200 A 
ATOM     46  F   UNL A   1      37.062  31.514  38.265  1.00  0.00    -0.200 F 
ATOM     47  F   UNL A   1      37.739  34.132  38.620  1.00  0.00    -0.200 F 
ENDBRANCH  23  37
BRANCH  24  48
ATOM     48  C   UNL A   1      43.342  26.828  27.847  1.00  0.00     0.064 A 
ATOM     49  C   UNL A   1      43.403  25.426  27.840  1.00  0.00     0.173 A 
ATOM     50  C   UNL A   1      43.932  27.506  26.770  1.00  0.00     0.173 A 
ATOM     51  F   UNL A   1      42.869  24.730  28.856  1.00  0.00    -0.203 F 
ATOM     52  C   UNL A   1      44.056  24.733  26.822  1.00  0.00     0.198 A 
ATOM     53  C   UNL A   1      44.567  26.810  25.740  1.00  0.00     0.198 A 
ATOM     54  F   UNL A   1      43.894  28.846  26.719  1.00  0.00    -0.203 F 
ATOM     55  F   UNL A   1      44.143  23.396  26.874  1.00  0.00    -0.200 F 
ATOM     56  C   UNL A   1      44.637  25.425  25.772  1.00  0.00     0.200 A 
ATOM     57  F   UNL A   1      45.124  27.482  24.724  1.00  0.00    -0.200 F 
ATOM     58  F   UNL A   1      45.274  24.759  24.799  1.00  0.00    -0.200 F 
ENDBRANCH  24  48
BRANCH  36  59
ATOM     59  C   UNL A   1      45.210  27.888  34.477  1.00  0.00     0.064 A 
ATOM     60  C   UNL A   1      46.419  28.589  34.568  1.00  0.00     0.173 A 
ATOM     61  C   UNL A   1      45.067  26.713  35.232  1.00  0.00     0.173 A 
ATOM     62  F   UNL A   1      46.607  29.708  33.852  1.00  0.00    -0.203 F 
ATOM     63  C   UNL A   1      47.455  28.122  35.372  1.00  0.00     0.198 A 
ATOM     64  C   UNL A   1      46.092  26.267  36.060  1.00  0.00     0.198 A 
ATOM     65  F   UNL A   1      43.925  26.011  35.182  1.00  0.00    -0.203 F 
ATOM     66  F   UNL A   1      48.619  28.784  35.413  1.00  0.00    -0.200 F 
ATOM     67  C   UNL A   1      47.287  26.968  36.124  1.00  0.00     0.200 A 
ATOM     68  F   UNL A   1      45.921  25.162  36.798  1.00  0.00    -0.200 F 
ATOM     69  F   UNL A   1      48.279  26.529  36.910  1.00  0.00    -0.200 F 
ENDBRANCH  36  59
ENDBRANCH  10  11
ENDBRANCH   3   5
ENDBRANCH   2   3
ENDBRANCH   1   2
BRANCH   1  70
ATOM     70  C   UNL A   1      31.721  28.449  25.603  1.00  0.00     0.275 C 
BRANCH  70  71
ATOM     71  O   UNL A   1      32.208  27.483  26.564  1.00  0.00    -0.458 OA
BRANCH  71  72
ATOM     72  C   UNL A   1      31.719  26.220  26.419  1.00  0.00     0.338 C 
ATOM     73  O   UNL A   1      30.537  25.915  26.398  1.00  0.00    -0.246 OA
BRANCH  72  74
ATOM     74  C   UNL A   1      32.803  25.216  26.219  1.00  0.00     0.060 A 
ATOM     75  C   UNL A   1      33.759  25.445  25.224  1.00  0.00     0.018 A 
ATOM     76  C   UNL A   1      32.864  24.021  26.930  1.00  0.00     0.018 A 
ATOM     77  C   UNL A   1      34.758  24.489  24.935  1.00  0.00     0.028 A 
ATOM     78  C   UNL A   1      33.865  23.067  26.630  1.00  0.00     0.028 A 
ATOM     79  C   UNL A   1      34.827  23.262  25.612  1.00  0.00     0.051 A 
BRANCH  79  80
ATOM     80  N   UNL A   1      35.867  22.274  25.343  1.00  0.00    -0.261 N 
ATOM     81  C   UNL A   1      37.234  22.609  25.307  1.00  0.00     0.270 C 
ATOM     82  C   UNL A   1      35.610  20.954  24.983  1.00  0.00     0.152 C 
ATOM     83  O   UNL A   1      37.725  23.703  25.056  1.00  0.00    -0.268 OA
ATOM     84  C   UNL A   1      38.086  21.369  25.402  1.00  0.00     0.081 C 
ATOM     85  S   UNL A   1      37.125  20.067  24.774  1.00  0.00    -0.054 SA
ATOM     86  S   UNL A   1      34.170  20.172  24.626  1.00  0.00    -0.051 S 
ATOM     87  C   UNL A   1      39.281  21.072  25.955  1.00  0.00     0.028 C 
BRANCH  87  88
ATOM     88  C   UNL A   1      40.196  21.770  26.885  1.00  0.00    -0.009 C 
ATOM     89  C   UNL A   1      40.870  21.220  27.916  1.00  0.00     0.019 C 
ATOM     90  C   UNL A   1      41.141  22.693  26.098  1.00  0.00     0.265 C 
ATOM     91  C   UNL A   1      41.963  20.401  27.334  1.00  0.00     0.017 A 
ATOM     92  O   UNL A   1      42.103  21.884  25.378  1.00  0.00    -0.488 OA
ATOM     93  C   UNL A   1      42.278  19.197  27.947  1.00  0.00     0.012 A 
ATOM     94  C   UNL A   1      42.420  20.708  26.030  1.00  0.00     0.127 A 
ATOM     95  C   UNL A   1      42.829  18.203  27.161  1.00  0.00     0.001 A 
ATOM     96  C   UNL A   1      43.013  19.723  25.267  1.00  0.00     0.047 A 
ATOM     97  C   UNL A   1      43.136  18.452  25.818  1.00  0.00     0.004 A 
ENDBRANCH  87  88
ENDBRANCH  79  80
ENDBRANCH  72  74
ENDBRANCH  71  72
ENDBRANCH  70  71
ENDBRANCH   1  70
TORSDOF 13
ENDMDL
