MODEL 1
REMARK VINA RESULT:     -13.7      0.000      0.000
REMARK SMILES O=C(CCCN1C(=O)c2ccc3c4c(ccc(c24)C1=O)C(=O)NC3=O)OCCOC(=O)c1ccc(-c2c3nc(c(-c4c(F)c(F)c(F)c(F)c4F)c4ccc([nH]4)c(-c4c(F)c(F)c(F)c(F)c4F)c4nc(c(-c5c(F)c(F)c(F)c(F)c5F)c5ccc2[nH]5)C=C4)C=C3)cc1
REMARK SMILES IDX 27 1 26 2 2 3 1 4 3 5 4 6 5 7 6 8 19 9 7 10 20 11 17 12 9 13
REMARK SMILES IDX 8 14 16 15 18 16 10 17 15 18 13 19 11 20 14 21 12 22 21 23
REMARK SMILES IDX 24 24 23 25 22 26 25 27 28 29 29 30 30 31 31 32 32 33 33 34
REMARK SMILES IDX 94 35 34 36 93 37 35 38 36 39 37 40 87 41 38 42 92 43 86 44
REMARK SMILES IDX 88 45 39 46 91 47 85 48 84 49 40 51 72 52 52 53 71 54 53 55
REMARK SMILES IDX 56 56 70 57 89 58 54 59 55 60 69 62 90 63 57 64 41 65 42 66
REMARK SMILES IDX 50 67 43 68 44 69 48 70 51 71 45 72 46 73 49 74 47 75 73 76
REMARK SMILES IDX 74 77 82 78 75 79 76 80 80 81 83 82 77 83 78 84 81 85 79 86
REMARK SMILES IDX 58 87 59 88 67 89 60 90 61 91 65 92 68 93 62 94 63 95 66 96
REMARK SMILES IDX 64 97
REMARK H PARENT 23 28 88 50 56 61
REMARK Flexibility Score: inf
ROOT
ATOM      1  C   UNL A   1      31.695  29.804  26.165  1.00  0.00     0.274 C 
ENDROOT
BRANCH   1   2
ATOM      2  O   UNL A   1      31.843  29.527  24.764  1.00  0.00    -0.462 OA
BRANCH   2   3
ATOM      3  C   UNL A   1      30.823  29.094  23.984  1.00  0.00     0.305 C 
ATOM      4  O   UNL A   1      29.904  29.861  23.705  1.00  0.00    -0.252 OA
BRANCH   3   5
ATOM      5  C   UNL A   1      30.769  27.640  23.544  1.00  0.00     0.124 C 
BRANCH   5   6
ATOM      6  C   UNL A   1      30.079  26.663  24.492  1.00  0.00     0.034 C 
BRANCH   6   7
ATOM      7  C   UNL A   1      30.854  26.262  25.767  1.00  0.00     0.130 C 
BRANCH   7   8
ATOM      8  N   UNL A   1      31.807  25.144  25.628  1.00  0.00    -0.274 N 
ATOM      9  C   UNL A   1      31.356  23.849  25.880  1.00  0.00     0.261 C 
ATOM     10  C   UNL A   1      33.164  25.447  25.501  1.00  0.00     0.261 C 
ATOM     11  O   UNL A   1      30.278  23.567  26.397  1.00  0.00    -0.269 OA
ATOM     12  C   UNL A   1      32.263  22.737  25.532  1.00  0.00     0.049 A 
ATOM     13  C   UNL A   1      34.117  24.302  25.495  1.00  0.00     0.049 A 
ATOM     14  O   UNL A   1      33.605  26.589  25.410  1.00  0.00    -0.269 OA
ATOM     15  C   UNL A   1      31.763  21.434  25.403  1.00  0.00     0.015 A 
ATOM     16  C   UNL A   1      33.626  22.995  25.419  1.00  0.00     0.009 A 
ATOM     17  C   UNL A   1      35.499  24.529  25.531  1.00  0.00     0.015 A 
ATOM     18  C   UNL A   1      32.628  20.375  25.137  1.00  0.00     0.015 A 
ATOM     19  C   UNL A   1      34.520  21.907  25.265  1.00  0.00     0.009 A 
ATOM     20  C   UNL A   1      36.387  23.452  25.469  1.00  0.00     0.015 A 
ATOM     21  C   UNL A   1      34.004  20.611  25.091  1.00  0.00     0.048 A 
ATOM     22  C   UNL A   1      35.898  22.150  25.314  1.00  0.00     0.048 A 
ATOM     23  C   UNL A   1      34.936  19.483  24.874  1.00  0.00     0.258 C 
ATOM     24  C   UNL A   1      36.836  21.005  25.233  1.00  0.00     0.258 C 
ATOM     25  N   UNL A   1      36.273  19.773  24.993  1.00  0.00    -0.288 N 
ATOM     26  O   UNL A   1      34.529  18.360  24.607  1.00  0.00    -0.269 OA
ATOM     27  O   UNL A   1      38.042  21.155  25.375  1.00  0.00    -0.269 OA
ATOM     28  H   UNL A   1      36.897  19.017  24.895  1.00  0.00     0.173 HD
ENDBRANCH   7   8
ENDBRANCH   6   7
ENDBRANCH   5   6
ENDBRANCH   3   5
ENDBRANCH   2   3
ENDBRANCH   1   2
BRANCH   1  29
ATOM     29  C   UNL A   1      32.038  31.252  26.501  1.00  0.00     0.275 C 
BRANCH  29  30
ATOM     30  O   UNL A   1      32.867  31.291  27.680  1.00  0.00    -0.458 OA
BRANCH  30  31
ATOM     31  C   UNL A   1      33.655  32.385  27.766  1.00  0.00     0.338 C 
ATOM     32  O   UNL A   1      33.284  33.548  27.832  1.00  0.00    -0.246 OA
BRANCH  31  33
ATOM     33  C   UNL A   1      35.062  32.000  27.987  1.00  0.00     0.060 A 
ATOM     34  C   UNL A   1      35.332  30.628  27.984  1.00  0.00     0.016 A 
ATOM     35  C   UNL A   1      36.071  32.916  28.295  1.00  0.00     0.016 A 
ATOM     36  C   UNL A   1      36.573  30.160  28.404  1.00  0.00     0.010 A 
ATOM     37  C   UNL A   1      37.329  32.441  28.705  1.00  0.00     0.010 A 
ATOM     38  C   UNL A   1      37.562  31.057  28.827  1.00  0.00    -0.014 A 
BRANCH  38  39
ATOM     39  C   UNL A   1      38.730  30.506  29.572  1.00  0.00     0.031 A 
ATOM     40  C   UNL A   1      38.900  30.854  31.031  1.00  0.00     0.074 A 
ATOM     41  C   UNL A   1      39.548  29.597  29.010  1.00  0.00     0.049 A 
ATOM     42  N   UNL A   1      39.744  30.374  31.911  1.00  0.00    -0.248 NA
ATOM     43  C   UNL A   1      37.990  31.875  31.572  1.00  0.00     0.031 C 
ATOM     44  C   UNL A   1      39.467  29.133  27.627  1.00  0.00     0.029 A 
ATOM     45  N   UNL A   1      40.590  28.880  29.546  1.00  0.00    -0.354 N 
ATOM     46  C   UNL A   1      39.460  31.026  33.105  1.00  0.00     0.074 A 
ATOM     47  C   UNL A   1      38.401  31.971  32.827  1.00  0.00     0.031 C 
ATOM     48  C   UNL A   1      40.405  28.191  27.429  1.00  0.00     0.029 A 
ATOM     49  C   UNL A   1      41.167  28.001  28.662  1.00  0.00     0.049 A 
ATOM     50  H   UNL A   1      40.896  28.987  30.476  1.00  0.00     0.167 HD
ATOM     51  C   UNL A   1      40.015  30.843  34.329  1.00  0.00     0.037 A 
ATOM     52  C   UNL A   1      42.188  27.138  28.830  1.00  0.00     0.037 A 
ATOM     53  C   UNL A   1      41.069  29.904  34.614  1.00  0.00     0.049 A 
ATOM     54  C   UNL A   1      42.844  27.013  30.183  1.00  0.00     0.074 A 
ATOM     55  C   UNL A   1      41.681  29.635  35.826  1.00  0.00     0.029 A 
ATOM     56  N   UNL A   1      41.676  29.087  33.672  1.00  0.00    -0.354 N 
ATOM     57  N   UNL A   1      42.538  27.601  31.314  1.00  0.00    -0.248 NA
ATOM     58  C   UNL A   1      43.986  26.091  30.281  1.00  0.00     0.031 C 
ATOM     59  C   UNL A   1      42.704  28.708  35.605  1.00  0.00     0.029 A 
ATOM     60  C   UNL A   1      42.683  28.344  34.268  1.00  0.00     0.049 A 
ATOM     61  H   UNL A   1      41.429  29.043  32.719  1.00  0.00     0.167 HD
ATOM     62  C   UNL A   1      43.420  27.093  32.262  1.00  0.00     0.074 A 
ATOM     63  C   UNL A   1      44.265  26.139  31.576  1.00  0.00     0.031 C 
ATOM     64  C   UNL A   1      43.516  27.389  33.582  1.00  0.00     0.037 A 
BRANCH  51  65
ATOM     65  C   UNL A   1      39.512  31.707  35.452  1.00  0.00     0.064 A 
ATOM     66  C   UNL A   1      38.500  31.279  36.325  1.00  0.00     0.173 A 
ATOM     67  C   UNL A   1      40.067  32.978  35.669  1.00  0.00     0.173 A 
ATOM     68  F   UNL A   1      37.926  30.079  36.156  1.00  0.00    -0.203 F 
ATOM     69  C   UNL A   1      38.037  32.104  37.347  1.00  0.00     0.198 A 
ATOM     70  C   UNL A   1      39.627  33.786  36.715  1.00  0.00     0.198 A 
ATOM     71  F   UNL A   1      41.043  33.436  34.871  1.00  0.00    -0.203 F 
ATOM     72  F   UNL A   1      37.028  31.697  38.130  1.00  0.00    -0.200 F 
ATOM     73  C   UNL A   1      38.604  33.354  37.545  1.00  0.00     0.200 A 
ATOM     74  F   UNL A   1      40.187  34.987  36.913  1.00  0.00    -0.200 F 
ATOM     75  F   UNL A   1      38.160  34.146  38.530  1.00  0.00    -0.200 F 
ENDBRANCH  51  65
BRANCH  52  76
ATOM     76  C   UNL A   1      42.658  26.306  27.689  1.00  0.00     0.064 A 
ATOM     77  C   UNL A   1      42.118  25.035  27.443  1.00  0.00     0.173 A 
ATOM     78  C   UNL A   1      43.685  26.750  26.843  1.00  0.00     0.173 A 
ATOM     79  F   UNL A   1      41.154  24.551  28.240  1.00  0.00    -0.203 F 
ATOM     80  C   UNL A   1      42.604  24.232  26.412  1.00  0.00     0.198 A 
ATOM     81  C   UNL A   1      44.148  25.960  25.793  1.00  0.00     0.198 A 
ATOM     82  F   UNL A   1      44.242  27.955  27.038  1.00  0.00    -0.203 F 
ATOM     83  F   UNL A   1      42.111  22.999  26.236  1.00  0.00    -0.200 F 
ATOM     84  C   UNL A   1      43.615  24.698  25.584  1.00  0.00     0.200 A 
ATOM     85  F   UNL A   1      45.119  26.418  24.991  1.00  0.00    -0.200 F 
ATOM     86  F   UNL A   1      44.083  23.925  24.595  1.00  0.00    -0.200 F 
ENDBRANCH  52  76
BRANCH  64  87
ATOM     87  C   UNL A   1      44.543  26.640  34.389  1.00  0.00     0.064 A 
ATOM     88  C   UNL A   1      45.836  27.141  34.595  1.00  0.00     0.173 A 
ATOM     89  C   UNL A   1      44.214  25.414  34.992  1.00  0.00     0.173 A 
ATOM     90  F   UNL A   1      46.209  28.302  34.033  1.00  0.00    -0.203 F 
ATOM     91  C   UNL A   1      46.773  26.428  35.341  1.00  0.00     0.198 A 
ATOM     92  C   UNL A   1      45.141  24.723  35.767  1.00  0.00     0.198 A 
ATOM     93  F   UNL A   1      42.988  24.892  34.839  1.00  0.00    -0.203 F 
ATOM     94  F   UNL A   1      48.021  26.899  35.472  1.00  0.00    -0.200 F 
ATOM     95  C   UNL A   1      46.423  25.223  35.931  1.00  0.00     0.200 A 
ATOM     96  F   UNL A   1      44.794  23.569  36.354  1.00  0.00    -0.200 F 
ATOM     97  F   UNL A   1      47.324  24.542  36.653  1.00  0.00    -0.200 F 
ENDBRANCH  64  87
ENDBRANCH  38  39
ENDBRANCH  31  33
ENDBRANCH  30  31
ENDBRANCH  29  30
ENDBRANCH   1  29
TORSDOF 14
ENDMDL
MODEL 2
REMARK VINA RESULT:     -13.7      0.514      1.973
REMARK SMILES O=C(CCCN1C(=O)c2ccc3c4c(ccc(c24)C1=O)C(=O)NC3=O)OCCOC(=O)c1ccc(-c2c3nc(c(-c4c(F)c(F)c(F)c(F)c4F)c4ccc([nH]4)c(-c4c(F)c(F)c(F)c(F)c4F)c4nc(c(-c5c(F)c(F)c(F)c(F)c5F)c5ccc2[nH]5)C=C4)C=C3)cc1
REMARK SMILES IDX 27 1 26 2 2 3 1 4 3 5 4 6 5 7 6 8 19 9 7 10 20 11 17 12 9 13
REMARK SMILES IDX 8 14 16 15 18 16 10 17 15 18 13 19 11 20 14 21 12 22 21 23
REMARK SMILES IDX 24 24 23 25 22 26 25 27 28 29 29 30 30 31 31 32 32 33 33 34
REMARK SMILES IDX 94 35 34 36 93 37 35 38 36 39 37 40 87 41 38 42 92 43 86 44
REMARK SMILES IDX 88 45 39 46 91 47 85 48 84 49 40 51 72 52 52 53 71 54 53 55
REMARK SMILES IDX 56 56 70 57 89 58 54 59 55 60 69 62 90 63 57 64 41 65 42 66
REMARK SMILES IDX 50 67 43 68 44 69 48 70 51 71 45 72 46 73 49 74 47 75 73 76
REMARK SMILES IDX 74 77 82 78 75 79 76 80 80 81 83 82 77 83 78 84 81 85 79 86
REMARK SMILES IDX 58 87 59 88 67 89 60 90 61 91 65 92 68 93 62 94 63 95 66 96
REMARK SMILES IDX 64 97
REMARK H PARENT 23 28 88 50 56 61
REMARK Flexibility Score: inf
ROOT
ATOM      1  C   UNL A   1      31.073  31.225  25.813  1.00  0.00     0.274 C 
ENDROOT
BRANCH   1   2
ATOM      2  O   UNL A   1      32.015  30.167  25.576  1.00  0.00    -0.462 OA
BRANCH   2   3
ATOM      3  C   UNL A   1      31.940  29.336  24.509  1.00  0.00     0.305 C 
ATOM      4  O   UNL A   1      32.922  29.189  23.783  1.00  0.00    -0.252 OA
BRANCH   3   5
ATOM      5  C   UNL A   1      30.620  28.670  24.157  1.00  0.00     0.124 C 
BRANCH   5   6
ATOM      6  C   UNL A   1      30.461  27.208  24.567  1.00  0.00     0.034 C 
BRANCH   6   7
ATOM      7  C   UNL A   1      31.282  26.731  25.786  1.00  0.00     0.130 C 
BRANCH   7   8
ATOM      8  N   UNL A   1      32.056  25.488  25.606  1.00  0.00    -0.274 N 
ATOM      9  C   UNL A   1      31.431  24.270  25.870  1.00  0.00     0.261 C 
ATOM     10  C   UNL A   1      33.437  25.591  25.429  1.00  0.00     0.261 C 
ATOM     11  O   UNL A   1      30.343  24.142  26.427  1.00  0.00    -0.269 OA
ATOM     12  C   UNL A   1      32.153  23.041  25.483  1.00  0.00     0.049 A 
ATOM     13  C   UNL A   1      34.212  24.320  25.382  1.00  0.00     0.049 A 
ATOM     14  O   UNL A   1      34.036  26.658  25.326  1.00  0.00    -0.269 OA
ATOM     15  C   UNL A   1      31.464  21.825  25.368  1.00  0.00     0.015 A 
ATOM     16  C   UNL A   1      33.534  23.099  25.320  1.00  0.00     0.009 A 
ATOM     17  C   UNL A   1      35.613  24.344  25.366  1.00  0.00     0.015 A 
ATOM     18  C   UNL A   1      32.155  20.655  25.065  1.00  0.00     0.015 A 
ATOM     19  C   UNL A   1      34.253  21.894  25.128  1.00  0.00     0.009 A 
ATOM     20  C   UNL A   1      36.332  23.149  25.267  1.00  0.00     0.015 A 
ATOM     21  C   UNL A   1      33.548  20.689  24.968  1.00  0.00     0.048 A 
ATOM     22  C   UNL A   1      35.653  21.934  25.124  1.00  0.00     0.048 A 
ATOM     23  C   UNL A   1      34.297  19.439  24.711  1.00  0.00     0.258 C 
ATOM     24  C   UNL A   1      36.411  20.665  25.003  1.00  0.00     0.258 C 
ATOM     25  N   UNL A   1      35.666  19.530  24.779  1.00  0.00    -0.288 N 
ATOM     26  O   UNL A   1      33.721  18.390  24.454  1.00  0.00    -0.269 OA
ATOM     27  O   UNL A   1      37.629  20.638  25.099  1.00  0.00    -0.269 OA
ATOM     28  H   UNL A   1      36.168  18.693  24.655  1.00  0.00     0.173 HD
ENDBRANCH   7   8
ENDBRANCH   6   7
ENDBRANCH   5   6
ENDBRANCH   3   5
ENDBRANCH   2   3
ENDBRANCH   1   2
BRANCH   1  29
ATOM     29  C   UNL A   1      31.621  32.275  26.774  1.00  0.00     0.275 C 
BRANCH  29  30
ATOM     30  O   UNL A   1      32.834  31.787  27.381  1.00  0.00    -0.458 OA
BRANCH  30  31
ATOM     31  C   UNL A   1      33.628  32.756  27.888  1.00  0.00     0.338 C 
ATOM     32  O   UNL A   1      33.269  33.846  28.310  1.00  0.00    -0.246 OA
BRANCH  31  33
ATOM     33  C   UNL A   1      35.004  32.260  28.074  1.00  0.00     0.060 A 
ATOM     34  C   UNL A   1      35.141  30.882  28.267  1.00  0.00     0.016 A 
ATOM     35  C   UNL A   1      36.119  33.099  28.170  1.00  0.00     0.016 A 
ATOM     36  C   UNL A   1      36.362  30.352  28.673  1.00  0.00     0.010 A 
ATOM     37  C   UNL A   1      37.354  32.559  28.567  1.00  0.00     0.010 A 
ATOM     38  C   UNL A   1      37.463  31.191  28.887  1.00  0.00    -0.014 A 
BRANCH  38  39
ATOM     39  C   UNL A   1      38.629  30.635  29.631  1.00  0.00     0.031 A 
ATOM     40  C   UNL A   1      38.820  31.010  31.080  1.00  0.00     0.074 A 
ATOM     41  C   UNL A   1      39.425  29.702  29.079  1.00  0.00     0.049 A 
ATOM     42  N   UNL A   1      39.665  30.534  31.961  1.00  0.00    -0.248 NA
ATOM     43  C   UNL A   1      37.934  32.058  31.610  1.00  0.00     0.031 C 
ATOM     44  C   UNL A   1      39.322  29.211  27.708  1.00  0.00     0.029 A 
ATOM     45  N   UNL A   1      40.461  28.977  29.620  1.00  0.00    -0.354 N 
ATOM     46  C   UNL A   1      39.405  31.215  33.145  1.00  0.00     0.074 A 
ATOM     47  C   UNL A   1      38.359  32.172  32.858  1.00  0.00     0.031 C 
ATOM     48  C   UNL A   1      40.241  28.248  27.519  1.00  0.00     0.029 A 
ATOM     49  C   UNL A   1      41.013  28.071  28.748  1.00  0.00     0.049 A 
ATOM     50  H   UNL A   1      40.778  29.098  30.544  1.00  0.00     0.167 HD
ATOM     51  C   UNL A   1      39.969  31.048  34.367  1.00  0.00     0.037 A 
ATOM     52  C   UNL A   1      42.021  27.193  28.924  1.00  0.00     0.037 A 
ATOM     53  C   UNL A   1      41.010  30.096  34.660  1.00  0.00     0.049 A 
ATOM     54  C   UNL A   1      42.689  27.085  30.273  1.00  0.00     0.074 A 
ATOM     55  C   UNL A   1      41.630  29.842  35.871  1.00  0.00     0.029 A 
ATOM     56  N   UNL A   1      41.593  29.250  33.729  1.00  0.00    -0.354 N 
ATOM     57  N   UNL A   1      42.405  27.701  31.393  1.00  0.00    -0.248 NA
ATOM     58  C   UNL A   1      43.816  26.145  30.378  1.00  0.00     0.031 C 
ATOM     59  C   UNL A   1      42.635  28.893  35.659  1.00  0.00     0.029 A 
ATOM     60  C   UNL A   1      42.594  28.502  34.330  1.00  0.00     0.049 A 
ATOM     61  H   UNL A   1      41.336  29.191  32.780  1.00  0.00     0.167 HD
ATOM     62  C   UNL A   1      43.288  27.197  32.343  1.00  0.00     0.074 A 
ATOM     63  C   UNL A   1      44.109  26.215  31.668  1.00  0.00     0.031 C 
ATOM     64  C   UNL A   1      43.403  27.518  33.656  1.00  0.00     0.037 A 
BRANCH  51  65
ATOM     65  C   UNL A   1      39.494  31.943  35.477  1.00  0.00     0.064 A 
ATOM     66  C   UNL A   1      40.018  33.231  35.671  1.00  0.00     0.173 A 
ATOM     67  C   UNL A   1      38.483  31.512  36.350  1.00  0.00     0.173 A 
ATOM     68  F   UNL A   1      40.995  33.689  34.873  1.00  0.00    -0.203 F 
ATOM     69  C   UNL A   1      39.576  34.036  36.717  1.00  0.00     0.198 A 
ATOM     70  C   UNL A   1      38.017  32.334  37.373  1.00  0.00     0.198 A 
ATOM     71  F   UNL A   1      37.939  30.294  36.207  1.00  0.00    -0.203 F 
ATOM     72  F   UNL A   1      40.134  35.238  36.918  1.00  0.00    -0.200 F 
ATOM     73  C   UNL A   1      38.572  33.590  37.563  1.00  0.00     0.200 A 
ATOM     74  F   UNL A   1      37.036  31.906  38.180  1.00  0.00    -0.200 F 
ATOM     75  F   UNL A   1      38.145  34.367  38.568  1.00  0.00    -0.200 F 
ENDBRANCH  51  65
BRANCH  52  76
ATOM     76  C   UNL A   1      42.465  26.330  27.795  1.00  0.00     0.064 A 
ATOM     77  C   UNL A   1      43.491  26.734  26.929  1.00  0.00     0.173 A 
ATOM     78  C   UNL A   1      41.844  25.099  27.537  1.00  0.00     0.173 A 
ATOM     79  F   UNL A   1      44.097  27.916  27.114  1.00  0.00    -0.203 F 
ATOM     80  C   UNL A   1      43.861  25.953  25.835  1.00  0.00     0.198 A 
ATOM     81  C   UNL A   1      42.237  24.304  26.463  1.00  0.00     0.198 A 
ATOM     82  F   UNL A   1      40.852  24.667  28.330  1.00  0.00    -0.203 F 
ATOM     83  F   UNL A   1      44.803  26.391  24.989  1.00  0.00    -0.200 F 
ATOM     84  C   UNL A   1      43.237  24.735  25.606  1.00  0.00     0.200 A 
ATOM     85  F   UNL A   1      41.637  23.124  26.250  1.00  0.00    -0.200 F 
ATOM     86  F   UNL A   1      43.592  23.986  24.554  1.00  0.00    -0.200 F 
ENDBRANCH  52  76
BRANCH  64  87
ATOM     87  C   UNL A   1      44.425  26.769  34.468  1.00  0.00     0.064 A 
ATOM     88  C   UNL A   1      44.126  25.553  35.100  1.00  0.00     0.173 A 
ATOM     89  C   UNL A   1      45.735  27.263  34.589  1.00  0.00     0.173 A 
ATOM     90  F   UNL A   1      42.888  25.040  35.027  1.00  0.00    -0.203 F 
ATOM     91  C   UNL A   1      45.086  24.879  35.852  1.00  0.00     0.198 A 
ATOM     92  C   UNL A   1      46.701  26.568  35.311  1.00  0.00     0.198 A 
ATOM     93  F   UNL A   1      46.081  28.415  33.997  1.00  0.00    -0.203 F 
ATOM     94  F   UNL A   1      44.758  23.751  36.497  1.00  0.00    -0.200 F 
ATOM     95  C   UNL A   1      46.374  25.383  35.952  1.00  0.00     0.200 A 
ATOM     96  F   UNL A   1      47.951  27.047  35.388  1.00  0.00    -0.200 F 
ATOM     97  F   UNL A   1      47.298  24.730  36.671  1.00  0.00    -0.200 F 
ENDBRANCH  64  87
ENDBRANCH  38  39
ENDBRANCH  31  33
ENDBRANCH  30  31
ENDBRANCH  29  30
ENDBRANCH   1  29
TORSDOF 14
ENDMDL
MODEL 3
REMARK VINA RESULT:     -13.6      3.890     10.067
REMARK SMILES O=C(CCCN1C(=O)c2ccc3c4c(ccc(c24)C1=O)C(=O)NC3=O)OCCOC(=O)c1ccc(-c2c3nc(c(-c4c(F)c(F)c(F)c(F)c4F)c4ccc([nH]4)c(-c4c(F)c(F)c(F)c(F)c4F)c4nc(c(-c5c(F)c(F)c(F)c(F)c5F)c5ccc2[nH]5)C=C4)C=C3)cc1
REMARK SMILES IDX 27 1 26 2 2 3 1 4 3 5 4 6 5 7 6 8 19 9 7 10 20 11 17 12 9 13
REMARK SMILES IDX 8 14 16 15 18 16 10 17 15 18 13 19 11 20 14 21 12 22 21 23
REMARK SMILES IDX 24 24 23 25 22 26 25 27 28 29 29 30 30 31 31 32 32 33 33 34
REMARK SMILES IDX 94 35 34 36 93 37 35 38 36 39 37 40 87 41 38 42 92 43 86 44
REMARK SMILES IDX 88 45 39 46 91 47 85 48 84 49 40 51 72 52 52 53 71 54 53 55
REMARK SMILES IDX 56 56 70 57 89 58 54 59 55 60 69 62 90 63 57 64 41 65 42 66
REMARK SMILES IDX 50 67 43 68 44 69 48 70 51 71 45 72 46 73 49 74 47 75 73 76
REMARK SMILES IDX 74 77 82 78 75 79 76 80 80 81 83 82 77 83 78 84 81 85 79 86
REMARK SMILES IDX 58 87 59 88 67 89 60 90 61 91 65 92 68 93 62 94 63 95 66 96
REMARK SMILES IDX 64 97
REMARK H PARENT 23 28 88 50 56 61
REMARK Flexibility Score: inf
ROOT
ATOM      1  C   UNL A   1      36.225  21.269  25.160  1.00  0.00     0.274 C 
ENDROOT
BRANCH   1   2
ATOM      2  O   UNL A   1      35.114  20.368  25.030  1.00  0.00    -0.462 OA
BRANCH   2   3
ATOM      3  C   UNL A   1      33.822  20.771  25.096  1.00  0.00     0.305 C 
ATOM      4  O   UNL A   1      33.365  21.172  26.164  1.00  0.00    -0.252 OA
BRANCH   3   5
ATOM      5  C   UNL A   1      32.921  20.633  23.879  1.00  0.00     0.124 C 
BRANCH   5   6
ATOM      6  C   UNL A   1      32.690  21.894  23.052  1.00  0.00     0.034 C 
BRANCH   6   7
ATOM      7  C   UNL A   1      33.764  23.001  23.150  1.00  0.00     0.130 C 
BRANCH   7   8
ATOM      8  N   UNL A   1      33.284  24.347  23.516  1.00  0.00    -0.274 N 
ATOM      9  C   UNL A   1      32.644  25.114  22.543  1.00  0.00     0.261 C 
ATOM     10  C   UNL A   1      33.710  24.892  24.730  1.00  0.00     0.261 C 
ATOM     11  O   UNL A   1      32.610  24.845  21.345  1.00  0.00    -0.269 OA
ATOM     12  C   UNL A   1      31.990  26.361  22.987  1.00  0.00     0.049 A 
ATOM     13  C   UNL A   1      33.319  26.301  25.015  1.00  0.00     0.049 A 
ATOM     14  O   UNL A   1      34.390  24.284  25.551  1.00  0.00    -0.269 OA
ATOM     15  C   UNL A   1      31.032  26.982  22.174  1.00  0.00     0.015 A 
ATOM     16  C   UNL A   1      32.403  26.947  24.179  1.00  0.00     0.009 A 
ATOM     17  C   UNL A   1      33.838  26.967  26.133  1.00  0.00     0.015 A 
ATOM     18  C   UNL A   1      30.461  28.192  22.562  1.00  0.00     0.015 A 
ATOM     19  C   UNL A   1      31.913  28.231  24.520  1.00  0.00     0.009 A 
ATOM     20  C   UNL A   1      33.425  28.271  26.425  1.00  0.00     0.015 A 
ATOM     21  C   UNL A   1      30.919  28.823  23.721  1.00  0.00     0.048 A 
ATOM     22  C   UNL A   1      32.450  28.888  25.634  1.00  0.00     0.048 A 
ATOM     23  C   UNL A   1      30.366  30.139  24.108  1.00  0.00     0.258 C 
ATOM     24  C   UNL A   1      31.996  30.264  25.948  1.00  0.00     0.258 C 
ATOM     25  N   UNL A   1      30.973  30.760  25.172  1.00  0.00    -0.288 N 
ATOM     26  O   UNL A   1      29.423  30.638  23.508  1.00  0.00    -0.269 OA
ATOM     27  O   UNL A   1      32.509  30.917  26.846  1.00  0.00    -0.269 OA
ATOM     28  H   UNL A   1      30.640  31.656  25.406  1.00  0.00     0.173 HD
ENDBRANCH   7   8
ENDBRANCH   6   7
ENDBRANCH   5   6
ENDBRANCH   3   5
ENDBRANCH   2   3
ENDBRANCH   1   2
BRANCH   1  29
ATOM     29  C   UNL A   1      37.564  20.547  25.048  1.00  0.00     0.275 C 
BRANCH  29  30
ATOM     30  O   UNL A   1      38.638  21.500  25.181  1.00  0.00    -0.458 OA
BRANCH  30  31
ATOM     31  C   UNL A   1      39.579  21.150  26.084  1.00  0.00     0.338 C 
ATOM     32  O   UNL A   1      40.191  20.092  26.128  1.00  0.00    -0.246 OA
BRANCH  31  33
ATOM     33  C   UNL A   1      39.952  22.304  26.925  1.00  0.00     0.060 A 
ATOM     34  C   UNL A   1      39.237  23.484  26.702  1.00  0.00     0.016 A 
ATOM     35  C   UNL A   1      41.025  22.288  27.821  1.00  0.00     0.016 A 
ATOM     36  C   UNL A   1      39.661  24.677  27.278  1.00  0.00     0.010 A 
ATOM     37  C   UNL A   1      41.443  23.492  28.413  1.00  0.00     0.010 A 
ATOM     38  C   UNL A   1      40.803  24.705  28.089  1.00  0.00    -0.014 A 
BRANCH  38  39
ATOM     39  C   UNL A   1      41.403  26.033  28.402  1.00  0.00     0.031 A 
ATOM     40  C   UNL A   1      42.775  26.364  27.867  1.00  0.00     0.074 A 
ATOM     41  C   UNL A   1      40.690  26.988  29.028  1.00  0.00     0.049 A 
ATOM     42  N   UNL A   1      43.425  27.501  27.881  1.00  0.00    -0.248 NA
ATOM     43  C   UNL A   1      43.509  25.265  27.220  1.00  0.00     0.031 C 
ATOM     44  C   UNL A   1      39.337  26.821  29.551  1.00  0.00     0.029 A 
ATOM     45  N   UNL A   1      40.998  28.299  29.300  1.00  0.00    -0.354 N 
ATOM     46  C   UNL A   1      44.634  27.256  27.241  1.00  0.00     0.074 A 
ATOM     47  C   UNL A   1      44.650  25.852  26.893  1.00  0.00     0.031 C 
ATOM     48  C   UNL A   1      38.921  27.993  30.062  1.00  0.00     0.029 A 
ATOM     49  C   UNL A   1      39.985  28.986  29.922  1.00  0.00     0.049 A 
ATOM     50  H   UNL A   1      41.865  28.708  29.071  1.00  0.00     0.167 HD
ATOM     51  C   UNL A   1      45.636  28.123  26.948  1.00  0.00     0.037 A 
ATOM     52  C   UNL A   1      39.920  30.270  30.327  1.00  0.00     0.037 A 
ATOM     53  C   UNL A   1      45.627  29.522  27.290  1.00  0.00     0.049 A 
ATOM     54  C   UNL A   1      41.083  31.195  30.063  1.00  0.00     0.074 A 
ATOM     55  C   UNL A   1      46.587  30.483  27.019  1.00  0.00     0.029 A 
ATOM     56  N   UNL A   1      44.612  30.160  27.988  1.00  0.00    -0.354 N 
ATOM     57  N   UNL A   1      42.199  30.964  29.418  1.00  0.00    -0.248 NA
ATOM     58  C   UNL A   1      40.965  32.567  30.579  1.00  0.00     0.031 C 
ATOM     59  C   UNL A   1      46.186  31.683  27.613  1.00  0.00     0.029 A 
ATOM     60  C   UNL A   1      44.942  31.491  28.192  1.00  0.00     0.049 A 
ATOM     61  H   UNL A   1      43.781  29.730  28.295  1.00  0.00     0.167 HD
ATOM     62  C   UNL A   1      42.898  32.167  29.416  1.00  0.00     0.074 A 
ATOM     63  C   UNL A   1      42.072  33.129  30.114  1.00  0.00     0.031 C 
ATOM     64  C   UNL A   1      44.112  32.447  28.880  1.00  0.00     0.037 A 
BRANCH  51  65
ATOM     65  C   UNL A   1      46.847  27.571  26.249  1.00  0.00     0.064 A 
ATOM     66  C   UNL A   1      46.986  27.617  24.854  1.00  0.00     0.173 A 
ATOM     67  C   UNL A   1      47.894  27.002  26.992  1.00  0.00     0.173 A 
ATOM     68  F   UNL A   1      46.011  28.139  24.095  1.00  0.00    -0.203 F 
ATOM     69  C   UNL A   1      48.109  27.083  24.226  1.00  0.00     0.198 A 
ATOM     70  C   UNL A   1      49.031  26.501  26.364  1.00  0.00     0.198 A 
ATOM     71  F   UNL A   1      47.818  26.938  28.329  1.00  0.00    -0.203 F 
ATOM     72  F   UNL A   1      48.192  27.085  22.888  1.00  0.00    -0.200 F 
ATOM     73  C   UNL A   1      49.133  26.531  24.982  1.00  0.00     0.200 A 
ATOM     74  F   UNL A   1      50.025  25.982  27.097  1.00  0.00    -0.200 F 
ATOM     75  F   UNL A   1      50.213  26.019  24.378  1.00  0.00    -0.200 F 
ENDBRANCH  51  65
BRANCH  52  76
ATOM     76  C   UNL A   1      38.703  30.774  31.022  1.00  0.00     0.064 A 
ATOM     77  C   UNL A   1      37.643  31.351  30.307  1.00  0.00     0.173 A 
ATOM     78  C   UNL A   1      38.593  30.722  32.418  1.00  0.00     0.173 A 
ATOM     79  F   UNL A   1      37.711  31.451  28.971  1.00  0.00    -0.203 F 
ATOM     80  C   UNL A   1      36.533  31.879  30.965  1.00  0.00     0.198 A 
ATOM     81  C   UNL A   1      37.469  31.221  33.073  1.00  0.00     0.198 A 
ATOM     82  F   UNL A   1      39.582  30.187  33.151  1.00  0.00    -0.203 F 
ATOM     83  F   UNL A   1      35.562  32.478  30.262  1.00  0.00    -0.200 F 
ATOM     84  C   UNL A   1      36.445  31.808  32.348  1.00  0.00     0.200 A 
ATOM     85  F   UNL A   1      37.384  31.143  34.409  1.00  0.00    -0.200 F 
ATOM     86  F   UNL A   1      35.378  32.318  32.979  1.00  0.00    -0.200 F 
ENDBRANCH  52  76
BRANCH  64  87
ATOM     87  C   UNL A   1      44.607  33.865  28.984  1.00  0.00     0.064 A 
ATOM     88  C   UNL A   1      44.304  34.831  28.014  1.00  0.00     0.173 A 
ATOM     89  C   UNL A   1      45.373  34.269  30.090  1.00  0.00     0.173 A 
ATOM     90  F   UNL A   1      43.585  34.498  26.930  1.00  0.00    -0.203 F 
ATOM     91  C   UNL A   1      44.778  36.137  28.126  1.00  0.00     0.198 A 
ATOM     92  C   UNL A   1      45.814  35.583  30.218  1.00  0.00     0.198 A 
ATOM     93  F   UNL A   1      45.685  33.391  31.055  1.00  0.00    -0.203 F 
ATOM     94  F   UNL A   1      44.525  37.026  27.156  1.00  0.00    -0.200 F 
ATOM     95  C   UNL A   1      45.526  36.514  29.231  1.00  0.00     0.200 A 
ATOM     96  F   UNL A   1      46.520  35.950  31.297  1.00  0.00    -0.200 F 
ATOM     97  F   UNL A   1      45.976  37.771  29.341  1.00  0.00    -0.200 F 
ENDBRANCH  64  87
ENDBRANCH  38  39
ENDBRANCH  31  33
ENDBRANCH  30  31
ENDBRANCH  29  30
ENDBRANCH   1  29
TORSDOF 14
ENDMDL
