MODEL 1
REMARK VINA RESULT:     -11.5      0.000      0.000
REMARK SMILES O=C(OCCOC(=O)c1c(C(F)(F)F)nn(-c2ccccc2)c1C(F)(F)Cl)c1ccc(-c2c3nc(c(-c4c(F)c(F)c(F)c(F)c4F)c4ccc([nH]4)c(-c4c(F)c(F)c(F)c(F)c4F)c4nc(c(-c5c(F)c(F)c(F)c(F)c5F)c5ccc2[nH]5)C=C4)C=C3)cc1
REMARK SMILES IDX 4 1 3 2 2 3 1 4 28 5 29 6 90 7 30 8 89 9 31 10 32 11 33 12
REMARK SMILES IDX 83 13 34 14 88 15 82 16 84 17 35 18 87 19 81 20 80 21 36 23
REMARK SMILES IDX 68 24 48 25 67 26 49 27 52 28 66 29 85 30 50 31 51 32 65 34
REMARK SMILES IDX 86 35 53 36 37 37 38 38 46 39 39 40 40 41 44 42 47 43 41 44
REMARK SMILES IDX 42 45 45 46 43 47 69 48 70 49 78 50 71 51 72 52 76 53 79 54
REMARK SMILES IDX 73 55 74 56 77 57 75 58 54 59 55 60 63 61 56 62 57 63 61 64
REMARK SMILES IDX 64 65 58 66 59 67 62 68 60 69 5 70 6 71 7 72 8 73 9 74 10 75
REMARK SMILES IDX 23 76 15 77 16 78 11 79 12 80 13 81 14 82 24 83 25 84 26 85
REMARK SMILES IDX 27 86 17 87 18 88 22 89 19 90 21 91 20 92
REMARK H PARENT 84 22 52 33
REMARK Flexibility Score: inf
ROOT
ATOM      1  C   UNL A   1      41.196  20.372  26.509  1.00  0.00     0.275 C 
ENDROOT
BRANCH   1   2
ATOM      2  O   UNL A   1      40.675  21.361  27.418  1.00  0.00    -0.458 OA
BRANCH   2   3
ATOM      3  C   UNL A   1      39.874  22.308  26.895  1.00  0.00     0.338 C 
ATOM      4  O   UNL A   1      38.918  22.090  26.171  1.00  0.00    -0.246 OA
BRANCH   3   5
ATOM      5  C   UNL A   1      40.312  23.654  27.324  1.00  0.00     0.060 A 
ATOM      6  C   UNL A   1      41.369  23.846  28.228  1.00  0.00     0.016 A 
ATOM      7  C   UNL A   1      39.664  24.749  26.760  1.00  0.00     0.016 A 
ATOM      8  C   UNL A   1      41.731  25.127  28.619  1.00  0.00     0.010 A 
ATOM      9  C   UNL A   1      40.051  26.029  27.121  1.00  0.00     0.010 A 
ATOM     10  C   UNL A   1      41.035  26.216  28.099  1.00  0.00    -0.014 A 
BRANCH  10  11
ATOM     11  C   UNL A   1      41.237  27.535  28.695  1.00  0.00     0.031 A 
ATOM     12  C   UNL A   1      42.377  28.392  28.248  1.00  0.00     0.074 A 
ATOM     13  C   UNL A   1      40.288  28.024  29.522  1.00  0.00     0.049 A 
ATOM     14  N   UNL A   1      43.212  29.069  28.979  1.00  0.00    -0.248 NA
ATOM     15  C   UNL A   1      42.611  28.532  26.804  1.00  0.00     0.031 C 
ATOM     16  C   UNL A   1      38.992  27.420  29.863  1.00  0.00     0.029 A 
ATOM     17  N   UNL A   1      40.225  29.245  30.117  1.00  0.00    -0.354 N 
ATOM     18  C   UNL A   1      43.981  29.834  28.100  1.00  0.00     0.074 A 
ATOM     19  C   UNL A   1      43.609  29.417  26.770  1.00  0.00     0.031 C 
ATOM     20  C   UNL A   1      38.181  28.368  30.370  1.00  0.00     0.029 A 
ATOM     21  C   UNL A   1      38.952  29.584  30.539  1.00  0.00     0.049 A 
ATOM     22  H   UNL A   1      41.007  29.830  30.236  1.00  0.00     0.167 HD
ATOM     23  C   UNL A   1      44.766  30.872  28.508  1.00  0.00     0.037 A 
ATOM     24  C   UNL A   1      38.528  30.806  30.925  1.00  0.00     0.037 A 
ATOM     25  C   UNL A   1      45.099  30.797  29.902  1.00  0.00     0.049 A 
ATOM     26  C   UNL A   1      39.716  31.588  31.334  1.00  0.00     0.074 A 
ATOM     27  C   UNL A   1      45.793  29.903  30.694  1.00  0.00     0.029 A 
ATOM     28  N   UNL A   1      44.480  31.644  30.785  1.00  0.00    -0.354 N 
ATOM     29  N   UNL A   1      40.456  31.301  32.371  1.00  0.00    -0.248 NA
ATOM     30  C   UNL A   1      40.330  32.468  30.353  1.00  0.00     0.031 C 
ATOM     31  C   UNL A   1      45.144  29.947  31.963  1.00  0.00     0.029 A 
ATOM     32  C   UNL A   1      44.106  30.872  31.854  1.00  0.00     0.049 A 
ATOM     33  H   UNL A   1      44.334  32.611  30.674  1.00  0.00     0.167 HD
ATOM     34  C   UNL A   1      41.747  31.630  31.989  1.00  0.00     0.074 A 
ATOM     35  C   UNL A   1      41.592  32.446  30.789  1.00  0.00     0.031 C 
ATOM     36  C   UNL A   1      42.829  30.983  32.515  1.00  0.00     0.037 A 
BRANCH  23  37
ATOM     37  C   UNL A   1      45.037  32.112  27.693  1.00  0.00     0.064 A 
ATOM     38  C   UNL A   1      46.269  32.269  27.024  1.00  0.00     0.173 A 
ATOM     39  C   UNL A   1      44.241  33.273  27.785  1.00  0.00     0.173 A 
ATOM     40  F   UNL A   1      47.122  31.240  26.910  1.00  0.00    -0.203 F 
ATOM     41  C   UNL A   1      46.690  33.508  26.529  1.00  0.00     0.198 A 
ATOM     42  C   UNL A   1      44.641  34.496  27.246  1.00  0.00     0.198 A 
ATOM     43  F   UNL A   1      43.101  33.285  28.488  1.00  0.00    -0.203 F 
ATOM     44  F   UNL A   1      47.912  33.634  25.996  1.00  0.00    -0.200 F 
ATOM     45  C   UNL A   1      45.875  34.620  26.642  1.00  0.00     0.200 A 
ATOM     46  F   UNL A   1      43.849  35.569  27.383  1.00  0.00    -0.200 F 
ATOM     47  F   UNL A   1      46.297  35.818  26.213  1.00  0.00    -0.200 F 
ENDBRANCH  23  37
BRANCH  24  48
ATOM     48  C   UNL A   1      37.203  31.386  30.633  1.00  0.00     0.064 A 
ATOM     49  C   UNL A   1      36.271  31.635  31.646  1.00  0.00     0.173 A 
ATOM     50  C   UNL A   1      36.903  31.904  29.354  1.00  0.00     0.173 A 
ATOM     51  F   UNL A   1      36.513  31.223  32.898  1.00  0.00    -0.203 F 
ATOM     52  C   UNL A   1      35.100  32.356  31.393  1.00  0.00     0.198 A 
ATOM     53  C   UNL A   1      35.730  32.611  29.100  1.00  0.00     0.198 A 
ATOM     54  F   UNL A   1      37.783  31.803  28.345  1.00  0.00    -0.203 F 
ATOM     55  F   UNL A   1      34.247  32.614  32.394  1.00  0.00    -0.200 F 
ATOM     56  C   UNL A   1      34.831  32.842  30.123  1.00  0.00     0.200 A 
ATOM     57  F   UNL A   1      35.502  33.105  27.875  1.00  0.00    -0.200 F 
ATOM     58  F   UNL A   1      33.727  33.567  29.893  1.00  0.00    -0.200 F 
ENDBRANCH  24  48
BRANCH  36  59
ATOM     59  C   UNL A   1      42.596  30.066  33.681  1.00  0.00     0.064 A 
ATOM     60  C   UNL A   1      42.265  28.708  33.528  1.00  0.00     0.173 A 
ATOM     61  C   UNL A   1      42.882  30.515  34.976  1.00  0.00     0.173 A 
ATOM     62  F   UNL A   1      42.106  28.177  32.313  1.00  0.00    -0.203 F 
ATOM     63  C   UNL A   1      42.173  27.853  34.624  1.00  0.00     0.198 A 
ATOM     64  C   UNL A   1      42.823  29.649  36.067  1.00  0.00     0.198 A 
ATOM     65  F   UNL A   1      43.278  31.782  35.177  1.00  0.00    -0.203 F 
ATOM     66  F   UNL A   1      41.853  26.563  34.444  1.00  0.00    -0.200 F 
ATOM     67  C   UNL A   1      42.458  28.323  35.892  1.00  0.00     0.200 A 
ATOM     68  F   UNL A   1      43.158  30.092  37.288  1.00  0.00    -0.200 F 
ATOM     69  F   UNL A   1      42.418  27.491  36.942  1.00  0.00    -0.200 F 
ENDBRANCH  36  59
ENDBRANCH  10  11
ENDBRANCH   3   5
ENDBRANCH   2   3
ENDBRANCH   1   2
BRANCH   1  70
ATOM     70  C   UNL A   1      42.719  20.304  26.335  1.00  0.00     0.275 C 
BRANCH  70  71
ATOM     71  O   UNL A   1      43.322  21.611  26.487  1.00  0.00    -0.458 OA
BRANCH  71  72
ATOM     72  C   UNL A   1      43.388  22.373  25.357  1.00  0.00     0.342 C 
ATOM     73  O   UNL A   1      42.466  22.578  24.578  1.00  0.00    -0.246 OA
BRANCH  72  74
ATOM     74  C   UNL A   1      44.725  22.872  25.101  1.00  0.00     0.121 A 
ATOM     75  C   UNL A   1      45.886  22.126  24.745  1.00  0.00     0.181 A 
ATOM     76  C   UNL A   1      45.195  24.168  25.325  1.00  0.00     0.145 A 
ATOM     77  N   UNL A   1      46.911  22.961  24.485  1.00  0.00    -0.162 NA
ATOM     78  N   UNL A   1      46.552  24.119  25.079  1.00  0.00    -0.229 N 
BRANCH  75  79
ATOM     79  C   UNL A   1      46.063  20.632  24.670  1.00  0.00     0.436 C 
ATOM     80  F   UNL A   1      47.260  20.283  24.129  1.00  0.00    -0.164 F 
ATOM     81  F   UNL A   1      46.019  20.064  25.904  1.00  0.00    -0.164 F 
ATOM     82  F   UNL A   1      45.102  20.027  23.934  1.00  0.00    -0.164 F 
ENDBRANCH  75  79
BRANCH  76  83
ATOM     83  C   UNL A   1      44.578  25.432  25.806  1.00  0.00     0.365 C 
ATOM     84  F   UNL A   1      45.006  26.474  25.047  1.00  0.00    -0.181 F 
ATOM     85  F   UNL A   1      43.226  25.387  25.668  1.00  0.00    -0.181 F 
ATOM     86  Cl  UNL A   1      44.907  25.831  27.494  1.00  0.00    -0.040 Cl
ENDBRANCH  76  83
BRANCH  78  87
ATOM     87  C   UNL A   1      47.574  25.016  25.468  1.00  0.00     0.065 A 
ATOM     88  C   UNL A   1      48.114  25.891  24.520  1.00  0.00     0.028 A 
ATOM     89  C   UNL A   1      48.084  24.980  26.771  1.00  0.00     0.028 A 
ATOM     90  C   UNL A   1      49.109  26.790  24.906  1.00  0.00     0.002 A 
ATOM     91  C   UNL A   1      49.100  25.861  27.140  1.00  0.00     0.002 A 
ATOM     92  C   UNL A   1      49.597  26.777  26.215  1.00  0.00     0.000 A 
ENDBRANCH  78  87
ENDBRANCH  72  74
ENDBRANCH  71  72
ENDBRANCH  70  71
ENDBRANCH   1  70
TORSDOF 14
ENDMDL
MODEL 2
REMARK VINA RESULT:     -11.5      3.726     11.583
REMARK SMILES O=C(OCCOC(=O)c1c(C(F)(F)F)nn(-c2ccccc2)c1C(F)(F)Cl)c1ccc(-c2c3nc(c(-c4c(F)c(F)c(F)c(F)c4F)c4ccc([nH]4)c(-c4c(F)c(F)c(F)c(F)c4F)c4nc(c(-c5c(F)c(F)c(F)c(F)c5F)c5ccc2[nH]5)C=C4)C=C3)cc1
REMARK SMILES IDX 4 1 3 2 2 3 1 4 28 5 29 6 90 7 30 8 89 9 31 10 32 11 33 12
REMARK SMILES IDX 83 13 34 14 88 15 82 16 84 17 35 18 87 19 81 20 80 21 36 23
REMARK SMILES IDX 68 24 48 25 67 26 49 27 52 28 66 29 85 30 50 31 51 32 65 34
REMARK SMILES IDX 86 35 53 36 37 37 38 38 46 39 39 40 40 41 44 42 47 43 41 44
REMARK SMILES IDX 42 45 45 46 43 47 69 48 70 49 78 50 71 51 72 52 76 53 79 54
REMARK SMILES IDX 73 55 74 56 77 57 75 58 54 59 55 60 63 61 56 62 57 63 61 64
REMARK SMILES IDX 64 65 58 66 59 67 62 68 60 69 5 70 6 71 7 72 8 73 9 74 10 75
REMARK SMILES IDX 23 76 15 77 16 78 11 79 12 80 13 81 14 82 24 83 25 84 26 85
REMARK SMILES IDX 27 86 17 87 18 88 22 89 19 90 21 91 20 92
REMARK H PARENT 84 22 52 33
REMARK Flexibility Score: inf
ROOT
ATOM      1  C   UNL A   1      33.847  33.893  28.310  1.00  0.00     0.275 C 
ENDROOT
BRANCH   1   2
ATOM      2  O   UNL A   1      34.985  33.172  27.801  1.00  0.00    -0.458 OA
BRANCH   2   3
ATOM      3  C   UNL A   1      34.950  31.830  27.898  1.00  0.00     0.338 C 
ATOM      4  O   UNL A   1      33.995  31.134  27.594  1.00  0.00    -0.246 OA
BRANCH   3   5
ATOM      5  C   UNL A   1      36.232  31.312  28.421  1.00  0.00     0.060 A 
ATOM      6  C   UNL A   1      37.307  32.157  28.742  1.00  0.00     0.016 A 
ATOM      7  C   UNL A   1      36.331  29.939  28.633  1.00  0.00     0.016 A 
ATOM      8  C   UNL A   1      38.500  31.624  29.209  1.00  0.00     0.010 A 
ATOM      9  C   UNL A   1      37.508  29.412  29.135  1.00  0.00     0.010 A 
ATOM     10  C   UNL A   1      38.613  30.244  29.358  1.00  0.00    -0.014 A 
BRANCH  10  11
ATOM     11  C   UNL A   1      39.932  29.664  29.600  1.00  0.00     0.031 A 
ATOM     12  C   UNL A   1      40.475  29.590  30.990  1.00  0.00     0.074 A 
ATOM     13  C   UNL A   1      40.567  29.050  28.578  1.00  0.00     0.049 A 
ATOM     14  N   UNL A   1      41.667  29.896  31.408  1.00  0.00    -0.248 NA
ATOM     15  C   UNL A   1      39.587  29.098  32.053  1.00  0.00     0.031 C 
ATOM     16  C   UNL A   1      40.063  28.811  27.218  1.00  0.00     0.029 A 
ATOM     17  N   UNL A   1      41.749  28.377  28.590  1.00  0.00    -0.354 N 
ATOM     18  C   UNL A   1      41.734  29.501  32.745  1.00  0.00     0.074 A 
ATOM     19  C   UNL A   1      40.405  29.073  33.107  1.00  0.00     0.031 C 
ATOM     20  C   UNL A   1      40.796  27.842  26.637  1.00  0.00     0.029 A 
ATOM     21  C   UNL A   1      41.905  27.522  27.515  1.00  0.00     0.049 A 
ATOM     22  H   UNL A   1      42.426  28.488  29.295  1.00  0.00     0.167 HD
ATOM     23  C   UNL A   1      42.907  29.403  33.435  1.00  0.00     0.037 A 
ATOM     24  C   UNL A   1      42.833  26.551  27.383  1.00  0.00     0.037 A 
ATOM     25  C   UNL A   1      43.961  30.176  32.843  1.00  0.00     0.049 A 
ATOM     26  C   UNL A   1      43.959  26.878  28.285  1.00  0.00     0.074 A 
ATOM     27  C   UNL A   1      44.167  31.520  32.597  1.00  0.00     0.029 A 
ATOM     28  N   UNL A   1      44.957  29.534  32.152  1.00  0.00    -0.354 N 
ATOM     29  N   UNL A   1      44.738  27.915  28.132  1.00  0.00    -0.248 NA
ATOM     30  C   UNL A   1      43.981  26.270  29.606  1.00  0.00     0.031 C 
ATOM     31  C   UNL A   1      44.926  31.566  31.390  1.00  0.00     0.029 A 
ATOM     32  C   UNL A   1      45.135  30.245  30.993  1.00  0.00     0.049 A 
ATOM     33  H   UNL A   1      45.444  28.726  32.431  1.00  0.00     0.167 HD
ATOM     34  C   UNL A   1      45.037  28.328  29.421  1.00  0.00     0.074 A 
ATOM     35  C   UNL A   1      44.641  27.215  30.278  1.00  0.00     0.031 C 
ATOM     36  C   UNL A   1      45.318  29.636  29.700  1.00  0.00     0.037 A 
BRANCH  23  37
ATOM     37  C   UNL A   1      43.177  28.396  34.525  1.00  0.00     0.064 A 
ATOM     38  C   UNL A   1      43.527  28.827  35.821  1.00  0.00     0.173 A 
ATOM     39  C   UNL A   1      43.384  27.025  34.261  1.00  0.00     0.173 A 
ATOM     40  F   UNL A   1      43.406  30.117  36.169  1.00  0.00    -0.203 F 
ATOM     41  C   UNL A   1      44.087  27.958  36.764  1.00  0.00     0.198 A 
ATOM     42  C   UNL A   1      43.897  26.151  35.220  1.00  0.00     0.198 A 
ATOM     43  F   UNL A   1      43.195  26.512  33.039  1.00  0.00    -0.203 F 
ATOM     44  F   UNL A   1      44.503  28.433  37.946  1.00  0.00    -0.200 F 
ATOM     45  C   UNL A   1      44.273  26.621  36.461  1.00  0.00     0.200 A 
ATOM     46  F   UNL A   1      44.089  24.863  34.903  1.00  0.00    -0.200 F 
ATOM     47  F   UNL A   1      44.854  25.798  37.344  1.00  0.00    -0.200 F 
ENDBRANCH  23  37
BRANCH  24  48
ATOM     48  C   UNL A   1      42.609  25.229  26.766  1.00  0.00     0.064 A 
ATOM     49  C   UNL A   1      43.251  24.854  25.581  1.00  0.00     0.173 A 
ATOM     50  C   UNL A   1      41.905  24.216  27.453  1.00  0.00     0.173 A 
ATOM     51  F   UNL A   1      43.986  25.747  24.904  1.00  0.00    -0.203 F 
ATOM     52  C   UNL A   1      43.187  23.541  25.105  1.00  0.00     0.198 A 
ATOM     53  C   UNL A   1      41.831  22.911  26.971  1.00  0.00     0.198 A 
ATOM     54  F   UNL A   1      41.343  24.457  28.648  1.00  0.00    -0.203 F 
ATOM     55  F   UNL A   1      43.848  23.204  23.989  1.00  0.00    -0.200 F 
ATOM     56  C   UNL A   1      42.478  22.573  25.799  1.00  0.00     0.200 A 
ATOM     57  F   UNL A   1      41.170  21.979  27.673  1.00  0.00    -0.200 F 
ATOM     58  F   UNL A   1      42.451  21.306  25.361  1.00  0.00    -0.200 F 
ENDBRANCH  24  48
BRANCH  36  59
ATOM     59  C   UNL A   1      45.516  30.570  28.541  1.00  0.00     0.064 A 
ATOM     60  C   UNL A   1      44.460  31.292  27.956  1.00  0.00     0.173 A 
ATOM     61  C   UNL A   1      46.815  30.880  28.122  1.00  0.00     0.173 A 
ATOM     62  F   UNL A   1      43.207  31.145  28.394  1.00  0.00    -0.203 F 
ATOM     63  C   UNL A   1      44.690  32.241  26.963  1.00  0.00     0.198 A 
ATOM     64  C   UNL A   1      47.045  31.855  27.152  1.00  0.00     0.198 A 
ATOM     65  F   UNL A   1      47.868  30.280  28.698  1.00  0.00    -0.203 F 
ATOM     66  F   UNL A   1      43.660  32.911  26.424  1.00  0.00    -0.200 F 
ATOM     67  C   UNL A   1      45.983  32.526  26.566  1.00  0.00     0.200 A 
ATOM     68  F   UNL A   1      48.302  32.173  26.813  1.00  0.00    -0.200 F 
ATOM     69  F   UNL A   1      46.210  33.474  25.646  1.00  0.00    -0.200 F 
ENDBRANCH  36  59
ENDBRANCH  10  11
ENDBRANCH   3   5
ENDBRANCH   2   3
ENDBRANCH   1   2
BRANCH   1  70
ATOM     70  C   UNL A   1      34.040  34.698  29.603  1.00  0.00     0.275 C 
BRANCH  70  71
ATOM     71  O   UNL A   1      35.143  34.177  30.382  1.00  0.00    -0.458 OA
BRANCH  71  72
ATOM     72  C   UNL A   1      34.809  33.334  31.402  1.00  0.00     0.342 C 
ATOM     73  O   UNL A   1      34.059  32.371  31.316  1.00  0.00    -0.246 OA
BRANCH  72  74
ATOM     74  C   UNL A   1      35.375  33.747  32.671  1.00  0.00     0.121 A 
ATOM     75  C   UNL A   1      35.026  34.882  33.460  1.00  0.00     0.181 A 
ATOM     76  C   UNL A   1      36.504  33.216  33.299  1.00  0.00     0.145 A 
ATOM     77  N   UNL A   1      35.702  34.861  34.625  1.00  0.00    -0.162 NA
ATOM     78  N   UNL A   1      36.737  34.026  34.392  1.00  0.00    -0.229 N 
BRANCH  75  79
ATOM     79  C   UNL A   1      34.086  36.010  33.127  1.00  0.00     0.436 C 
ATOM     80  F   UNL A   1      34.562  36.798  32.127  1.00  0.00    -0.164 F 
ATOM     81  F   UNL A   1      32.879  35.545  32.707  1.00  0.00    -0.164 F 
ATOM     82  F   UNL A   1      33.839  36.816  34.186  1.00  0.00    -0.164 F 
ENDBRANCH  75  79
BRANCH  76  83
ATOM     83  C   UNL A   1      37.444  32.106  32.991  1.00  0.00     0.365 C 
ATOM     84  F   UNL A   1      37.641  31.346  34.099  1.00  0.00    -0.181 F 
ATOM     85  F   UNL A   1      36.915  31.280  32.049  1.00  0.00    -0.181 F 
ATOM     86  Cl  UNL A   1      39.029  32.610  32.399  1.00  0.00    -0.040 Cl
ENDBRANCH  76  83
BRANCH  78  87
ATOM     87  C   UNL A   1      37.908  34.180  35.171  1.00  0.00     0.065 A 
ATOM     88  C   UNL A   1      37.978  33.568  36.427  1.00  0.00     0.028 A 
ATOM     89  C   UNL A   1      38.955  34.988  34.715  1.00  0.00     0.028 A 
ATOM     90  C   UNL A   1      39.140  33.701  37.189  1.00  0.00     0.002 A 
ATOM     91  C   UNL A   1      40.100  35.140  35.498  1.00  0.00     0.002 A 
ATOM     92  C   UNL A   1      40.199  34.483  36.722  1.00  0.00     0.000 A 
ENDBRANCH  78  87
ENDBRANCH  72  74
ENDBRANCH  71  72
ENDBRANCH  70  71
ENDBRANCH   1  70
TORSDOF 14
ENDMDL
MODEL 3
REMARK VINA RESULT:     -11.1      3.812     11.751
REMARK SMILES O=C(OCCOC(=O)c1c(C(F)(F)F)nn(-c2ccccc2)c1C(F)(F)Cl)c1ccc(-c2c3nc(c(-c4c(F)c(F)c(F)c(F)c4F)c4ccc([nH]4)c(-c4c(F)c(F)c(F)c(F)c4F)c4nc(c(-c5c(F)c(F)c(F)c(F)c5F)c5ccc2[nH]5)C=C4)C=C3)cc1
REMARK SMILES IDX 4 1 3 2 2 3 1 4 28 5 29 6 90 7 30 8 89 9 31 10 32 11 33 12
REMARK SMILES IDX 83 13 34 14 88 15 82 16 84 17 35 18 87 19 81 20 80 21 36 23
REMARK SMILES IDX 68 24 48 25 67 26 49 27 52 28 66 29 85 30 50 31 51 32 65 34
REMARK SMILES IDX 86 35 53 36 37 37 38 38 46 39 39 40 40 41 44 42 47 43 41 44
REMARK SMILES IDX 42 45 45 46 43 47 69 48 70 49 78 50 71 51 72 52 76 53 79 54
REMARK SMILES IDX 73 55 74 56 77 57 75 58 54 59 55 60 63 61 56 62 57 63 61 64
REMARK SMILES IDX 64 65 58 66 59 67 62 68 60 69 5 70 6 71 7 72 8 73 9 74 10 75
REMARK SMILES IDX 23 76 15 77 16 78 11 79 12 80 13 81 14 82 24 83 25 84 26 85
REMARK SMILES IDX 27 86 17 87 18 88 22 89 19 90 21 91 20 92
REMARK H PARENT 84 22 52 33
REMARK Flexibility Score: inf
ROOT
ATOM      1  C   UNL A   1      34.314  33.761  28.271  1.00  0.00     0.275 C 
ENDROOT
BRANCH   1   2
ATOM      2  O   UNL A   1      35.447  32.945  27.920  1.00  0.00    -0.458 OA
BRANCH   2   3
ATOM      3  C   UNL A   1      35.287  31.611  28.002  1.00  0.00     0.338 C 
ATOM      4  O   UNL A   1      34.283  31.007  27.661  1.00  0.00    -0.246 OA
BRANCH   3   5
ATOM      5  C   UNL A   1      36.499  30.975  28.561  1.00  0.00     0.060 A 
ATOM      6  C   UNL A   1      37.614  31.720  28.977  1.00  0.00     0.016 A 
ATOM      7  C   UNL A   1      36.488  29.590  28.706  1.00  0.00     0.016 A 
ATOM      8  C   UNL A   1      38.739  31.079  29.475  1.00  0.00     0.010 A 
ATOM      9  C   UNL A   1      37.596  28.953  29.238  1.00  0.00     0.010 A 
ATOM     10  C   UNL A   1      38.744  29.688  29.558  1.00  0.00    -0.014 A 
BRANCH  10  11
ATOM     11  C   UNL A   1      40.004  29.000  29.834  1.00  0.00     0.031 A 
ATOM     12  C   UNL A   1      40.467  28.824  31.243  1.00  0.00     0.074 A 
ATOM     13  C   UNL A   1      40.644  28.389  28.815  1.00  0.00     0.049 A 
ATOM     14  N   UNL A   1      41.655  29.020  31.733  1.00  0.00    -0.248 NA
ATOM     15  C   UNL A   1      39.492  28.351  32.237  1.00  0.00     0.031 C 
ATOM     16  C   UNL A   1      40.196  28.251  27.422  1.00  0.00     0.029 A 
ATOM     17  N   UNL A   1      41.772  27.630  28.851  1.00  0.00    -0.354 N 
ATOM     18  C   UNL A   1      41.624  28.560  33.050  1.00  0.00     0.074 A 
ATOM     19  C   UNL A   1      40.251  28.216  33.326  1.00  0.00     0.031 C 
ATOM     20  C   UNL A   1      40.886  27.257  26.830  1.00  0.00     0.029 A 
ATOM     21  C   UNL A   1      41.921  26.815  27.743  1.00  0.00     0.049 A 
ATOM     22  H   UNL A   1      42.419  27.657  29.592  1.00  0.00     0.167 HD
ATOM     23  C   UNL A   1      42.749  28.343  33.791  1.00  0.00     0.037 A 
ATOM     24  C   UNL A   1      42.782  25.784  27.609  1.00  0.00     0.037 A 
ATOM     25  C   UNL A   1      43.886  29.062  33.288  1.00  0.00     0.049 A 
ATOM     26  C   UNL A   1      43.881  25.984  28.579  1.00  0.00     0.074 A 
ATOM     27  C   UNL A   1      44.201  30.396  33.120  1.00  0.00     0.029 A 
ATOM     28  N   UNL A   1      44.867  28.379  32.615  1.00  0.00    -0.354 N 
ATOM     29  N   UNL A   1      44.740  26.966  28.515  1.00  0.00    -0.248 NA
ATOM     30  C   UNL A   1      43.790  25.317  29.867  1.00  0.00     0.031 C 
ATOM     31  C   UNL A   1      45.023  30.440  31.954  1.00  0.00     0.029 A 
ATOM     32  C   UNL A   1      45.156  29.127  31.503  1.00  0.00     0.049 A 
ATOM     33  H   UNL A   1      45.279  27.525  32.878  1.00  0.00     0.167 HD
ATOM     34  C   UNL A   1      45.001  27.297  29.836  1.00  0.00     0.074 A 
ATOM     35  C   UNL A   1      44.482  26.178  30.617  1.00  0.00     0.031 C 
ATOM     36  C   UNL A   1      45.361  28.565  30.192  1.00  0.00     0.037 A 
BRANCH  23  37
ATOM     37  C   UNL A   1      42.890  27.270  34.841  1.00  0.00     0.064 A 
ATOM     38  C   UNL A   1      43.103  27.619  36.191  1.00  0.00     0.173 A 
ATOM     39  C   UNL A   1      43.108  25.914  34.520  1.00  0.00     0.173 A 
ATOM     40  F   UNL A   1      42.960  28.888  36.600  1.00  0.00    -0.203 F 
ATOM     41  C   UNL A   1      43.548  26.687  37.135  1.00  0.00     0.198 A 
ATOM     42  C   UNL A   1      43.504  24.976  35.474  1.00  0.00     0.198 A 
ATOM     43  F   UNL A   1      43.046  25.476  33.256  1.00  0.00    -0.203 F 
ATOM     44  F   UNL A   1      43.840  27.085  38.380  1.00  0.00    -0.200 F 
ATOM     45  C   UNL A   1      43.749  25.367  36.774  1.00  0.00     0.200 A 
ATOM     46  F   UNL A   1      43.715  23.705  35.103  1.00  0.00    -0.200 F 
ATOM     47  F   UNL A   1      44.224  24.484  37.664  1.00  0.00    -0.200 F 
ENDBRANCH  23  37
BRANCH  24  48
ATOM     48  C   UNL A   1      42.495  24.512  26.917  1.00  0.00     0.064 A 
ATOM     49  C   UNL A   1      43.292  24.055  25.862  1.00  0.00     0.173 A 
ATOM     50  C   UNL A   1      41.537  23.608  27.425  1.00  0.00     0.173 A 
ATOM     51  F   UNL A   1      44.261  24.836  25.365  1.00  0.00    -0.203 F 
ATOM     52  C   UNL A   1      43.135  22.768  25.339  1.00  0.00     0.198 A 
ATOM     53  C   UNL A   1      41.372  22.331  26.895  1.00  0.00     0.198 A 
ATOM     54  F   UNL A   1      40.797  23.921  28.501  1.00  0.00    -0.203 F 
ATOM     55  F   UNL A   1      43.942  22.345  24.357  1.00  0.00    -0.200 F 
ATOM     56  C   UNL A   1      42.177  21.909  25.855  1.00  0.00     0.200 A 
ATOM     57  F   UNL A   1      40.466  21.501  27.429  1.00  0.00    -0.200 F 
ATOM     58  F   UNL A   1      42.055  20.662  25.378  1.00  0.00    -0.200 F 
ENDBRANCH  24  48
BRANCH  36  59
ATOM     59  C   UNL A   1      45.686  29.534  29.091  1.00  0.00     0.064 A 
ATOM     60  C   UNL A   1      46.963  29.626  28.510  1.00  0.00     0.173 A 
ATOM     61  C   UNL A   1      44.652  30.261  28.489  1.00  0.00     0.173 A 
ATOM     62  F   UNL A   1      47.969  28.866  28.947  1.00  0.00    -0.203 F 
ATOM     63  C   UNL A   1      47.205  30.448  27.412  1.00  0.00     0.198 A 
ATOM     64  C   UNL A   1      44.889  31.055  27.367  1.00  0.00     0.198 A 
ATOM     65  F   UNL A   1      43.397  30.153  28.950  1.00  0.00    -0.203 F 
ATOM     66  F   UNL A   1      48.435  30.515  26.882  1.00  0.00    -0.200 F 
ATOM     67  C   UNL A   1      46.166  31.157  26.837  1.00  0.00     0.200 A 
ATOM     68  F   UNL A   1      43.870  31.694  26.776  1.00  0.00    -0.200 F 
ATOM     69  F   UNL A   1      46.387  31.909  25.750  1.00  0.00    -0.200 F 
ENDBRANCH  36  59
ENDBRANCH  10  11
ENDBRANCH   3   5
ENDBRANCH   2   3
ENDBRANCH   1   2
BRANCH   1  70
ATOM     70  C   UNL A   1      34.418  34.605  29.549  1.00  0.00     0.275 C 
BRANCH  70  71
ATOM     71  O   UNL A   1      35.369  34.031  30.478  1.00  0.00    -0.458 OA
BRANCH  71  72
ATOM     72  C   UNL A   1      34.845  33.234  31.453  1.00  0.00     0.342 C 
ATOM     73  O   UNL A   1      34.029  32.338  31.282  1.00  0.00    -0.246 OA
BRANCH  72  74
ATOM     74  C   UNL A   1      35.292  33.613  32.779  1.00  0.00     0.121 A 
ATOM     75  C   UNL A   1      34.929  34.767  33.532  1.00  0.00     0.181 A 
ATOM     76  C   UNL A   1      36.311  33.014  33.524  1.00  0.00     0.145 A 
ATOM     77  N   UNL A   1      35.470  34.706  34.764  1.00  0.00    -0.162 NA
ATOM     78  N   UNL A   1      36.472  33.810  34.641  1.00  0.00    -0.229 N 
BRANCH  75  79
ATOM     79  C   UNL A   1      34.101  35.951  33.104  1.00  0.00     0.436 C 
ATOM     80  F   UNL A   1      34.707  36.676  32.127  1.00  0.00    -0.164 F 
ATOM     81  F   UNL A   1      32.898  35.562  32.604  1.00  0.00    -0.164 F 
ATOM     82  F   UNL A   1      33.836  36.800  34.124  1.00  0.00    -0.164 F 
ENDBRANCH  75  79
BRANCH  76  83
ATOM     83  C   UNL A   1      37.210  31.849  33.314  1.00  0.00     0.365 C 
ATOM     84  F   UNL A   1      37.401  31.194  34.489  1.00  0.00    -0.181 F 
ATOM     85  F   UNL A   1      36.639  30.952  32.465  1.00  0.00    -0.181 F 
ATOM     86  Cl  UNL A   1      38.800  32.239  32.654  1.00  0.00    -0.040 Cl
ENDBRANCH  76  83
BRANCH  78  87
ATOM     87  C   UNL A   1      37.557  33.892  35.544  1.00  0.00     0.065 A 
ATOM     88  C   UNL A   1      37.422  33.349  36.826  1.00  0.00     0.028 A 
ATOM     89  C   UNL A   1      38.727  34.566  35.178  1.00  0.00     0.028 A 
ATOM     90  C   UNL A   1      38.498  33.411  37.712  1.00  0.00     0.002 A 
ATOM     91  C   UNL A   1      39.787  34.650  36.082  1.00  0.00     0.002 A 
ATOM     92  C   UNL A   1      39.679  34.057  37.338  1.00  0.00     0.000 A 
ENDBRANCH  78  87
ENDBRANCH  72  74
ENDBRANCH  71  72
ENDBRANCH  70  71
ENDBRANCH   1  70
TORSDOF 14
ENDMDL
