MODEL 1
REMARK VINA RESULT:     -10.9      0.000      0.000
REMARK SMILES CC(C)c1nc(N(C)C[C@@H]2CC[N@@H+](C)C2)sc1C(=O)OCCOC(=O)c1ccc(-c2c3nc(c(-c4c(F)c(F)c(F)c(F)c4F)c4ccc([nH]4)c(-c4c(F)c(F)c(F)c(F)c4F)c4nc(c(-c5c(F)c(F)c(F)c(F)c5F)c5ccc2[nH]5)C=C4)C=C3)cc1
REMARK SMILES IDX 21 1 20 2 18 3 19 4 17 5 4 6 5 7 6 8 16 9 2 10 1 11 3 12
REMARK SMILES IDX 7 13 8 14 9 15 10 16 11 17 15 18 12 19 13 20 14 21 22 23
REMARK SMILES IDX 23 24 24 25 25 26 26 27 27 28 88 29 28 30 87 31 29 32 30 33
REMARK SMILES IDX 31 34 81 35 32 36 86 37 80 38 82 39 33 40 85 41 79 42 78 43
REMARK SMILES IDX 34 45 66 46 46 47 65 48 47 49 50 50 64 51 83 52 48 53 49 54
REMARK SMILES IDX 63 56 84 57 51 58 35 59 36 60 44 61 37 62 38 63 42 64 45 65
REMARK SMILES IDX 39 66 40 67 43 68 41 69 67 70 68 71 76 72 69 73 70 74 74 75
REMARK SMILES IDX 77 76 71 77 72 78 75 79 73 80 52 81 53 82 61 83 54 84 55 85
REMARK SMILES IDX 59 86 62 87 56 88 57 89 60 90 58 91
REMARK H PARENT 13 22 82 44 50 55
REMARK Flexibility Score: inf
ROOT
ATOM      1  C   UNL A   1      42.514  21.116  26.082  1.00  0.00     0.275 C 
ENDROOT
BRANCH   1   2
ATOM      2  O   UNL A   1      41.334  21.919  25.870  1.00  0.00    -0.458 OA
BRANCH   2   3
ATOM      3  C   UNL A   1      40.351  21.842  26.810  1.00  0.00     0.350 C 
ATOM      4  O   UNL A   1      40.536  21.411  27.939  1.00  0.00    -0.245 OA
BRANCH   3   5
ATOM      5  C   UNL A   1      39.120  22.439  26.326  1.00  0.00     0.137 A 
ATOM      6  C   UNL A   1      38.555  23.705  26.408  1.00  0.00     0.071 A 
ATOM      7  N   UNL A   1      37.237  23.760  25.946  1.00  0.00    -0.224 NA
ATOM      8  C   UNL A   1      36.792  22.591  25.549  1.00  0.00     0.186 A 
ATOM      9  S   UNL A   1      38.046  21.419  25.436  1.00  0.00    -0.089 S 
BRANCH   6  10
ATOM     10  C   UNL A   1      39.174  25.010  26.870  1.00  0.00     0.034 C 
ATOM     11  C   UNL A   1      39.485  24.985  28.377  1.00  0.00     0.014 C 
ATOM     12  C   UNL A   1      40.460  25.394  26.136  1.00  0.00     0.014 C 
ENDBRANCH   6  10
BRANCH   8  13
ATOM     13  N   UNL A   1      35.494  22.337  25.216  1.00  0.00    -0.351 N 
ATOM     14  C   UNL A   1      34.660  23.315  24.537  1.00  0.00     0.146 C 
BRANCH  13  15
ATOM     15  C   UNL A   1      34.829  21.135  25.722  1.00  0.00     0.128 C 
BRANCH  15  16
ATOM     16  C   UNL A   1      34.185  20.259  24.639  1.00  0.00     0.069 C 
ATOM     17  C   UNL A   1      32.678  20.045  24.829  1.00  0.00     0.072 C 
ATOM     18  C   UNL A   1      34.779  18.845  24.664  1.00  0.00     0.267 C 
ATOM     19  C   UNL A   1      32.490  18.537  24.818  1.00  0.00     0.262 C 
ATOM     20  N   UNL A   1      33.760  18.059  25.364  1.00  0.00    -0.337 N 
ATOM     21  C   UNL A   1      33.936  16.626  25.181  1.00  0.00     0.332 C 
ATOM     22  H   UNL A   1      33.813  18.185  26.375  1.00  0.00     0.347 HD
ENDBRANCH  15  16
ENDBRANCH  13  15
ENDBRANCH   8  13
ENDBRANCH   3   5
ENDBRANCH   2   3
ENDBRANCH   1   2
BRANCH   1  23
ATOM     23  C   UNL A   1      43.730  21.716  25.366  1.00  0.00     0.275 C 
BRANCH  23  24
ATOM     24  O   UNL A   1      44.406  22.685  26.194  1.00  0.00    -0.458 OA
BRANCH  24  25
ATOM     25  C   UNL A   1      44.466  23.938  25.688  1.00  0.00     0.338 C 
ATOM     26  O   UNL A   1      44.658  24.255  24.526  1.00  0.00    -0.246 OA
BRANCH  25  27
ATOM     27  C   UNL A   1      44.079  24.908  26.724  1.00  0.00     0.060 A 
ATOM     28  C   UNL A   1      43.525  24.389  27.892  1.00  0.00     0.016 A 
ATOM     29  C   UNL A   1      44.174  26.287  26.548  1.00  0.00     0.016 A 
ATOM     30  C   UNL A   1      43.066  25.228  28.897  1.00  0.00     0.010 A 
ATOM     31  C   UNL A   1      43.720  27.140  27.567  1.00  0.00     0.010 A 
ATOM     32  C   UNL A   1      43.160  26.615  28.748  1.00  0.00    -0.014 A 
BRANCH  32  33
ATOM     33  C   UNL A   1      42.625  27.494  29.821  1.00  0.00     0.031 A 
ATOM     34  C   UNL A   1      43.346  27.602  31.134  1.00  0.00     0.074 A 
ATOM     35  C   UNL A   1      41.525  28.238  29.593  1.00  0.00     0.049 A 
ATOM     36  N   UNL A   1      43.007  28.255  32.216  1.00  0.00    -0.248 NA
ATOM     37  C   UNL A   1      44.622  26.879  31.244  1.00  0.00     0.031 C 
ATOM     38  C   UNL A   1      40.775  28.271  28.336  1.00  0.00     0.029 A 
ATOM     39  N   UNL A   1      40.850  29.115  30.406  1.00  0.00    -0.354 N 
ATOM     40  C   UNL A   1      44.007  27.998  33.144  1.00  0.00     0.074 A 
ATOM     41  C   UNL A   1      44.960  27.116  32.503  1.00  0.00     0.031 C 
ATOM     42  C   UNL A   1      39.754  29.133  28.457  1.00  0.00     0.029 A 
ATOM     43  C   UNL A   1      39.737  29.664  29.816  1.00  0.00     0.049 A 
ATOM     44  H   UNL A   1      41.136  29.330  31.322  1.00  0.00     0.167 HD
ATOM     45  C   UNL A   1      44.118  28.458  34.413  1.00  0.00     0.037 A 
ATOM     46  C   UNL A   1      38.790  30.477  30.326  1.00  0.00     0.037 A 
ATOM     47  C   UNL A   1      43.177  29.355  35.034  1.00  0.00     0.049 A 
ATOM     48  C   UNL A   1      38.900  30.913  31.762  1.00  0.00     0.074 A 
ATOM     49  C   UNL A   1      43.206  29.890  36.311  1.00  0.00     0.029 A 
ATOM     50  N   UNL A   1      42.034  29.851  34.422  1.00  0.00    -0.354 N 
ATOM     51  N   UNL A   1      39.841  30.654  32.638  1.00  0.00    -0.248 NA
ATOM     52  C   UNL A   1      37.811  31.750  32.285  1.00  0.00     0.031 C 
ATOM     53  C   UNL A   1      42.053  30.661  36.490  1.00  0.00     0.029 A 
ATOM     54  C   UNL A   1      41.337  30.662  35.305  1.00  0.00     0.049 A 
ATOM     55  H   UNL A   1      41.759  29.656  33.497  1.00  0.00     0.167 HD
ATOM     56  C   UNL A   1      39.473  31.316  33.802  1.00  0.00     0.074 A 
ATOM     57  C   UNL A   1      38.232  32.002  33.516  1.00  0.00     0.031 C 
ATOM     58  C   UNL A   1      40.106  31.348  35.000  1.00  0.00     0.037 A 
BRANCH  45  59
ATOM     59  C   UNL A   1      45.275  27.967  35.236  1.00  0.00     0.064 A 
ATOM     60  C   UNL A   1      45.197  26.800  36.010  1.00  0.00     0.173 A 
ATOM     61  C   UNL A   1      46.496  28.661  35.221  1.00  0.00     0.173 A 
ATOM     62  F   UNL A   1      44.051  26.104  36.070  1.00  0.00    -0.203 F 
ATOM     63  C   UNL A   1      46.288  26.361  36.758  1.00  0.00     0.198 A 
ATOM     64  C   UNL A   1      47.593  28.202  35.944  1.00  0.00     0.198 A 
ATOM     65  F   UNL A   1      46.628  29.781  34.493  1.00  0.00    -0.203 F 
ATOM     66  F   UNL A   1      46.175  25.271  37.529  1.00  0.00    -0.200 F 
ATOM     67  C   UNL A   1      47.486  27.058  36.719  1.00  0.00     0.200 A 
ATOM     68  F   UNL A   1      48.755  28.869  35.892  1.00  0.00    -0.200 F 
ATOM     69  F   UNL A   1      48.537  26.631  37.433  1.00  0.00    -0.200 F 
ENDBRANCH  45  59
BRANCH  46  70
ATOM     70  C   UNL A   1      37.638  30.901  29.486  1.00  0.00     0.064 A 
ATOM     71  C   UNL A   1      37.534  32.214  29.006  1.00  0.00     0.173 A 
ATOM     72  C   UNL A   1      36.603  30.008  29.164  1.00  0.00     0.173 A 
ATOM     73  F   UNL A   1      38.482  33.114  29.309  1.00  0.00    -0.203 F 
ATOM     74  C   UNL A   1      36.432  32.623  28.257  1.00  0.00     0.198 A 
ATOM     75  C   UNL A   1      35.520  30.409  28.386  1.00  0.00     0.198 A 
ATOM     76  F   UNL A   1      36.649  28.741  29.600  1.00  0.00    -0.203 F 
ATOM     77  F   UNL A   1      36.332  33.899  27.859  1.00  0.00    -0.200 F 
ATOM     78  C   UNL A   1      35.431  31.719  27.941  1.00  0.00     0.200 A 
ATOM     79  F   UNL A   1      34.561  29.527  28.072  1.00  0.00    -0.200 F 
ATOM     80  F   UNL A   1      34.372  32.112  27.220  1.00  0.00    -0.200 F 
ENDBRANCH  46  70
BRANCH  58  81
ATOM     81  C   UNL A   1      39.491  32.193  36.080  1.00  0.00     0.064 A 
ATOM     82  C   UNL A   1      38.467  31.708  36.906  1.00  0.00     0.173 A 
ATOM     83  C   UNL A   1      39.961  33.496  36.312  1.00  0.00     0.173 A 
ATOM     84  F   UNL A   1      37.973  30.476  36.715  1.00  0.00    -0.203 F 
ATOM     85  C   UNL A   1      37.915  32.506  37.906  1.00  0.00     0.198 A 
ATOM     86  C   UNL A   1      39.431  34.278  37.334  1.00  0.00     0.198 A 
ATOM     87  F   UNL A   1      40.943  34.006  35.555  1.00  0.00    -0.203 F 
ATOM     88  F   UNL A   1      36.901  32.040  38.647  1.00  0.00    -0.200 F 
ATOM     89  C   UNL A   1      38.403  33.785  38.125  1.00  0.00     0.200 A 
ATOM     90  F   UNL A   1      39.914  35.507  37.555  1.00  0.00    -0.200 F 
ATOM     91  F   UNL A   1      37.877  34.549  39.093  1.00  0.00    -0.200 F 
ENDBRANCH  58  81
ENDBRANCH  32  33
ENDBRANCH  25  27
ENDBRANCH  24  25
ENDBRANCH  23  24
ENDBRANCH   1  23
TORSDOF 15
ENDMDL
MODEL 2
REMARK VINA RESULT:     -10.9      3.640      8.417
REMARK SMILES CC(C)c1nc(N(C)C[C@@H]2CC[N@@H+](C)C2)sc1C(=O)OCCOC(=O)c1ccc(-c2c3nc(c(-c4c(F)c(F)c(F)c(F)c4F)c4ccc([nH]4)c(-c4c(F)c(F)c(F)c(F)c4F)c4nc(c(-c5c(F)c(F)c(F)c(F)c5F)c5ccc2[nH]5)C=C4)C=C3)cc1
REMARK SMILES IDX 21 1 20 2 18 3 19 4 17 5 4 6 5 7 6 8 16 9 2 10 1 11 3 12
REMARK SMILES IDX 7 13 8 14 9 15 10 16 11 17 15 18 12 19 13 20 14 21 22 23
REMARK SMILES IDX 23 24 24 25 25 26 26 27 27 28 88 29 28 30 87 31 29 32 30 33
REMARK SMILES IDX 31 34 81 35 32 36 86 37 80 38 82 39 33 40 85 41 79 42 78 43
REMARK SMILES IDX 34 45 66 46 46 47 65 48 47 49 50 50 64 51 83 52 48 53 49 54
REMARK SMILES IDX 63 56 84 57 51 58 35 59 36 60 44 61 37 62 38 63 42 64 45 65
REMARK SMILES IDX 39 66 40 67 43 68 41 69 67 70 68 71 76 72 69 73 70 74 74 75
REMARK SMILES IDX 77 76 71 77 72 78 75 79 73 80 52 81 53 82 61 83 54 84 55 85
REMARK SMILES IDX 59 86 62 87 56 88 57 89 60 90 58 91
REMARK H PARENT 13 22 82 44 50 55
REMARK Flexibility Score: inf
ROOT
ATOM      1  C   UNL A   1      31.408  28.796  25.136  1.00  0.00     0.275 C 
ENDROOT
BRANCH   1   2
ATOM      2  O   UNL A   1      32.171  27.780  25.820  1.00  0.00    -0.458 OA
BRANCH   2   3
ATOM      3  C   UNL A   1      31.601  26.549  25.942  1.00  0.00     0.350 C 
ATOM      4  O   UNL A   1      30.554  26.352  26.542  1.00  0.00    -0.245 OA
BRANCH   3   5
ATOM      5  C   UNL A   1      32.334  25.558  25.176  1.00  0.00     0.137 A 
ATOM      6  C   UNL A   1      32.620  25.387  23.828  1.00  0.00     0.071 A 
ATOM      7  N   UNL A   1      33.207  24.153  23.533  1.00  0.00    -0.224 NA
ATOM      8  C   UNL A   1      33.346  23.393  24.594  1.00  0.00     0.186 A 
ATOM      9  S   UNL A   1      33.046  24.252  26.055  1.00  0.00    -0.089 S 
BRANCH   6  10
ATOM     10  C   UNL A   1      32.435  26.351  22.672  1.00  0.00     0.034 C 
ATOM     11  C   UNL A   1      33.620  27.327  22.555  1.00  0.00     0.014 C 
ATOM     12  C   UNL A   1      32.252  25.678  21.311  1.00  0.00     0.014 C 
ENDBRANCH   6  10
BRANCH   8  13
ATOM     13  N   UNL A   1      33.731  22.086  24.556  1.00  0.00    -0.351 N 
ATOM     14  C   UNL A   1      32.923  21.056  23.924  1.00  0.00     0.146 C 
BRANCH  13  15
ATOM     15  C   UNL A   1      34.884  21.638  25.340  1.00  0.00     0.128 C 
BRANCH  15  16
ATOM     16  C   UNL A   1      36.245  21.941  24.702  1.00  0.00     0.069 C 
ATOM     17  C   UNL A   1      37.331  20.909  25.035  1.00  0.00     0.072 C 
ATOM     18  C   UNL A   1      36.805  23.269  25.227  1.00  0.00     0.267 C 
ATOM     19  C   UNL A   1      38.484  21.720  25.603  1.00  0.00     0.262 C 
ATOM     20  N   UNL A   1      37.795  22.851  26.223  1.00  0.00    -0.337 N 
ATOM     21  C   UNL A   1      38.710  23.924  26.584  1.00  0.00     0.332 C 
ATOM     22  H   UNL A   1      37.357  22.595  27.108  1.00  0.00     0.347 HD
ENDBRANCH  15  16
ENDBRANCH  13  15
ENDBRANCH   8  13
ENDBRANCH   3   5
ENDBRANCH   2   3
ENDBRANCH   1   2
BRANCH   1  23
ATOM     23  C   UNL A   1      31.706  30.190  25.703  1.00  0.00     0.275 C 
BRANCH  23  24
ATOM     24  O   UNL A   1      33.078  30.304  26.131  1.00  0.00    -0.458 OA
BRANCH  24  25
ATOM     25  C   UNL A   1      33.343  31.344  26.955  1.00  0.00     0.338 C 
ATOM     26  O   UNL A   1      32.606  32.277  27.225  1.00  0.00    -0.246 OA
BRANCH  25  27
ATOM     27  C   UNL A   1      34.616  31.108  27.654  1.00  0.00     0.060 A 
ATOM     28  C   UNL A   1      34.855  29.810  28.100  1.00  0.00     0.016 A 
ATOM     29  C   UNL A   1      35.525  32.124  27.942  1.00  0.00     0.016 A 
ATOM     30  C   UNL A   1      35.996  29.505  28.828  1.00  0.00     0.010 A 
ATOM     31  C   UNL A   1      36.687  31.817  28.669  1.00  0.00     0.010 A 
ATOM     32  C   UNL A   1      36.928  30.505  29.120  1.00  0.00    -0.014 A 
BRANCH  32  33
ATOM     33  C   UNL A   1      38.122  30.163  29.936  1.00  0.00     0.031 A 
ATOM     34  C   UNL A   1      39.201  29.290  29.361  1.00  0.00     0.074 A 
ATOM     35  C   UNL A   1      38.263  30.684  31.171  1.00  0.00     0.049 A 
ATOM     36  N   UNL A   1      40.281  28.821  29.931  1.00  0.00    -0.248 NA
ATOM     37  C   UNL A   1      39.043  28.893  27.954  1.00  0.00     0.031 C 
ATOM     38  C   UNL A   1      37.317  31.596  31.814  1.00  0.00     0.029 A 
ATOM     39  N   UNL A   1      39.259  30.526  32.103  1.00  0.00    -0.354 N 
ATOM     40  C   UNL A   1      40.916  28.050  28.966  1.00  0.00     0.074 A 
ATOM     41  C   UNL A   1      40.091  28.102  27.777  1.00  0.00     0.031 C 
ATOM     42  C   UNL A   1      37.783  31.929  33.027  1.00  0.00     0.029 A 
ATOM     43  C   UNL A   1      39.025  31.204  33.275  1.00  0.00     0.049 A 
ATOM     44  H   UNL A   1      40.062  29.980  31.947  1.00  0.00     0.167 HD
ATOM     45  C   UNL A   1      42.080  27.365  29.066  1.00  0.00     0.037 A 
ATOM     46  C   UNL A   1      39.717  31.212  34.432  1.00  0.00     0.037 A 
ATOM     47  C   UNL A   1      42.905  27.340  30.247  1.00  0.00     0.049 A 
ATOM     48  C   UNL A   1      40.968  30.382  34.538  1.00  0.00     0.074 A 
ATOM     49  C   UNL A   1      44.109  26.686  30.445  1.00  0.00     0.029 A 
ATOM     50  N   UNL A   1      42.611  27.999  31.432  1.00  0.00    -0.354 N 
ATOM     51  N   UNL A   1      41.554  29.644  33.627  1.00  0.00    -0.248 NA
ATOM     52  C   UNL A   1      41.652  30.379  35.839  1.00  0.00     0.031 C 
ATOM     53  C   UNL A   1      44.514  26.902  31.767  1.00  0.00     0.029 A 
ATOM     54  C   UNL A   1      43.596  27.744  32.374  1.00  0.00     0.049 A 
ATOM     55  H   UNL A   1      41.819  28.565  31.583  1.00  0.00     0.167 HD
ATOM     56  C   UNL A   1      42.686  29.114  34.232  1.00  0.00     0.074 A 
ATOM     57  C   UNL A   1      42.714  29.628  35.585  1.00  0.00     0.031 C 
ATOM     58  C   UNL A   1      43.615  28.274  33.715  1.00  0.00     0.037 A 
BRANCH  45  59
ATOM     59  C   UNL A   1      42.513  26.547  27.883  1.00  0.00     0.064 A 
ATOM     60  C   UNL A   1      42.135  25.205  27.726  1.00  0.00     0.173 A 
ATOM     61  C   UNL A   1      43.292  27.129  26.870  1.00  0.00     0.173 A 
ATOM     62  F   UNL A   1      41.401  24.595  28.669  1.00  0.00    -0.203 F 
ATOM     63  C   UNL A   1      42.544  24.470  26.615  1.00  0.00     0.198 A 
ATOM     64  C   UNL A   1      43.671  26.402  25.746  1.00  0.00     0.198 A 
ATOM     65  F   UNL A   1      43.677  28.412  26.967  1.00  0.00    -0.203 F 
ATOM     66  F   UNL A   1      42.213  23.176  26.510  1.00  0.00    -0.200 F 
ATOM     67  C   UNL A   1      43.305  25.071  25.623  1.00  0.00     0.200 A 
ATOM     68  F   UNL A   1      44.394  26.989  24.781  1.00  0.00    -0.200 F 
ATOM     69  F   UNL A   1      43.691  24.365  24.551  1.00  0.00    -0.200 F 
ENDBRANCH  45  59
BRANCH  46  70
ATOM     70  C   UNL A   1      39.225  32.002  35.592  1.00  0.00     0.064 A 
ATOM     71  C   UNL A   1      39.622  33.333  35.785  1.00  0.00     0.173 A 
ATOM     72  C   UNL A   1      38.365  31.436  36.547  1.00  0.00     0.173 A 
ATOM     73  F   UNL A   1      40.465  33.912  34.917  1.00  0.00    -0.203 F 
ATOM     74  C   UNL A   1      39.196  34.059  36.896  1.00  0.00     0.198 A 
ATOM     75  C   UNL A   1      37.912  32.174  37.638  1.00  0.00     0.198 A 
ATOM     76  F   UNL A   1      37.957  30.166  36.414  1.00  0.00    -0.203 F 
ATOM     77  F   UNL A   1      39.637  35.310  37.085  1.00  0.00    -0.200 F 
ATOM     78  C   UNL A   1      38.337  33.481  37.817  1.00  0.00     0.200 A 
ATOM     79  F   UNL A   1      37.070  31.615  38.518  1.00  0.00    -0.200 F 
ATOM     80  F   UNL A   1      37.926  34.180  38.885  1.00  0.00    -0.200 F 
ENDBRANCH  46  70
BRANCH  58  81
ATOM     81  C   UNL A   1      44.769  27.896  34.599  1.00  0.00     0.064 A 
ATOM     82  C   UNL A   1      44.740  26.747  35.403  1.00  0.00     0.173 A 
ATOM     83  C   UNL A   1      45.935  28.679  34.614  1.00  0.00     0.173 A 
ATOM     84  F   UNL A   1      43.644  25.975  35.437  1.00  0.00    -0.203 F 
ATOM     85  C   UNL A   1      45.824  26.412  36.212  1.00  0.00     0.198 A 
ATOM     86  C   UNL A   1      47.029  28.321  35.397  1.00  0.00     0.198 A 
ATOM     87  F   UNL A   1      46.018  29.784  33.859  1.00  0.00    -0.203 F 
ATOM     88  F   UNL A   1      45.753  25.339  37.012  1.00  0.00    -0.200 F 
ATOM     89  C   UNL A   1      46.969  27.193  36.201  1.00  0.00     0.200 A 
ATOM     90  F   UNL A   1      48.141  29.068  35.373  1.00  0.00    -0.200 F 
ATOM     91  F   UNL A   1      48.015  26.864  36.973  1.00  0.00    -0.200 F 
ENDBRANCH  58  81
ENDBRANCH  32  33
ENDBRANCH  25  27
ENDBRANCH  24  25
ENDBRANCH  23  24
ENDBRANCH   1  23
TORSDOF 15
ENDMDL
MODEL 3
REMARK VINA RESULT:     -10.8      6.245     10.999
REMARK SMILES CC(C)c1nc(N(C)C[C@@H]2CC[N@@H+](C)C2)sc1C(=O)OCCOC(=O)c1ccc(-c2c3nc(c(-c4c(F)c(F)c(F)c(F)c4F)c4ccc([nH]4)c(-c4c(F)c(F)c(F)c(F)c4F)c4nc(c(-c5c(F)c(F)c(F)c(F)c5F)c5ccc2[nH]5)C=C4)C=C3)cc1
REMARK SMILES IDX 21 1 20 2 18 3 19 4 17 5 4 6 5 7 6 8 16 9 2 10 1 11 3 12
REMARK SMILES IDX 7 13 8 14 9 15 10 16 11 17 15 18 12 19 13 20 14 21 22 23
REMARK SMILES IDX 23 24 24 25 25 26 26 27 27 28 88 29 28 30 87 31 29 32 30 33
REMARK SMILES IDX 31 34 81 35 32 36 86 37 80 38 82 39 33 40 85 41 79 42 78 43
REMARK SMILES IDX 34 45 66 46 46 47 65 48 47 49 50 50 64 51 83 52 48 53 49 54
REMARK SMILES IDX 63 56 84 57 51 58 35 59 36 60 44 61 37 62 38 63 42 64 45 65
REMARK SMILES IDX 39 66 40 67 43 68 41 69 67 70 68 71 76 72 69 73 70 74 74 75
REMARK SMILES IDX 77 76 71 77 72 78 75 79 73 80 52 81 53 82 61 83 54 84 55 85
REMARK SMILES IDX 59 86 62 87 56 88 57 89 60 90 58 91
REMARK H PARENT 13 22 82 44 50 55
REMARK Flexibility Score: inf
ROOT
ATOM      1  C   UNL A   1      34.328  33.900  29.854  1.00  0.00     0.275 C 
ENDROOT
BRANCH   1   2
ATOM      2  O   UNL A   1      33.970  32.653  29.221  1.00  0.00    -0.458 OA
BRANCH   2   3
ATOM      3  C   UNL A   1      34.629  32.325  28.076  1.00  0.00     0.350 C 
ATOM      4  O   UNL A   1      35.539  32.996  27.610  1.00  0.00    -0.245 OA
BRANCH   3   5
ATOM      5  C   UNL A   1      34.186  31.038  27.570  1.00  0.00     0.137 A 
ATOM      6  C   UNL A   1      34.784  29.793  27.423  1.00  0.00     0.071 A 
ATOM      7  N   UNL A   1      34.010  28.885  26.695  1.00  0.00    -0.224 NA
ATOM      8  C   UNL A   1      32.880  29.405  26.276  1.00  0.00     0.186 A 
ATOM      9  S   UNL A   1      32.560  30.935  26.996  1.00  0.00    -0.089 S 
BRANCH   6  10
ATOM     10  C   UNL A   1      36.101  29.284  27.974  1.00  0.00     0.034 C 
ATOM     11  C   UNL A   1      37.300  29.982  27.306  1.00  0.00     0.014 C 
ATOM     12  C   UNL A   1      36.257  29.441  29.487  1.00  0.00     0.014 C 
ENDBRANCH   6  10
BRANCH   8  13
ATOM     13  N   UNL A   1      32.029  28.791  25.407  1.00  0.00    -0.351 N 
ATOM     14  C   UNL A   1      31.452  27.484  25.677  1.00  0.00     0.146 C 
BRANCH  13  15
ATOM     15  C   UNL A   1      31.826  29.341  24.065  1.00  0.00     0.128 C 
BRANCH  15  16
ATOM     16  C   UNL A   1      30.390  29.230  23.540  1.00  0.00     0.069 C 
ATOM     17  C   UNL A   1      30.292  29.149  22.011  1.00  0.00     0.072 C 
ATOM     18  C   UNL A   1      29.581  30.480  23.909  1.00  0.00     0.267 C 
ATOM     19  C   UNL A   1      29.338  30.265  21.618  1.00  0.00     0.262 C 
ATOM     20  N   UNL A   1      29.567  31.257  22.667  1.00  0.00    -0.337 N 
ATOM     21  C   UNL A   1      28.552  32.300  22.673  1.00  0.00     0.332 C 
ATOM     22  H   UNL A   1      30.441  31.767  22.530  1.00  0.00     0.347 HD
ENDBRANCH  15  16
ENDBRANCH  13  15
ENDBRANCH   8  13
ENDBRANCH   3   5
ENDBRANCH   2   3
ENDBRANCH   1   2
BRANCH   1  23
ATOM     23  C   UNL A   1      34.512  33.722  31.366  1.00  0.00     0.275 C 
BRANCH  23  24
ATOM     24  O   UNL A   1      35.047  32.421  31.684  1.00  0.00    -0.458 OA
BRANCH  24  25
ATOM     25  C   UNL A   1      36.008  32.407  32.636  1.00  0.00     0.338 C 
ATOM     26  O   UNL A   1      35.868  32.619  33.829  1.00  0.00    -0.246 OA
BRANCH  25  27
ATOM     27  C   UNL A   1      37.267  31.908  32.060  1.00  0.00     0.060 A 
ATOM     28  C   UNL A   1      37.608  32.381  30.796  1.00  0.00     0.016 A 
ATOM     29  C   UNL A   1      38.062  30.949  32.686  1.00  0.00     0.016 A 
ATOM     30  C   UNL A   1      38.740  31.917  30.142  1.00  0.00     0.010 A 
ATOM     31  C   UNL A   1      39.214  30.484  32.032  1.00  0.00     0.010 A 
ATOM     32  C   UNL A   1      39.559  30.963  30.753  1.00  0.00    -0.014 A 
BRANCH  32  33
ATOM     33  C   UNL A   1      40.744  30.450  30.017  1.00  0.00     0.031 A 
ATOM     34  C   UNL A   1      41.957  31.320  29.846  1.00  0.00     0.074 A 
ATOM     35  C   UNL A   1      40.751  29.185  29.553  1.00  0.00     0.049 A 
ATOM     36  N   UNL A   1      43.059  31.085  29.180  1.00  0.00    -0.248 NA
ATOM     37  C   UNL A   1      41.927  32.628  30.517  1.00  0.00     0.031 C 
ATOM     38  C   UNL A   1      39.660  28.223  29.714  1.00  0.00     0.029 A 
ATOM     39  N   UNL A   1      41.709  28.489  28.859  1.00  0.00    -0.354 N 
ATOM     40  C   UNL A   1      43.839  32.225  29.324  1.00  0.00     0.074 A 
ATOM     41  C   UNL A   1      43.078  33.157  30.129  1.00  0.00     0.031 C 
ATOM     42  C   UNL A   1      40.015  27.059  29.149  1.00  0.00     0.029 A 
ATOM     43  C   UNL A   1      41.327  27.211  28.529  1.00  0.00     0.049 A 
ATOM     44  H   UNL A   1      42.585  28.869  28.620  1.00  0.00     0.167 HD
ATOM     45  C   UNL A   1      45.077  32.467  28.830  1.00  0.00     0.037 A 
ATOM     46  C   UNL A   1      41.951  26.279  27.781  1.00  0.00     0.037 A 
ATOM     47  C   UNL A   1      45.836  31.523  28.050  1.00  0.00     0.049 A 
ATOM     48  C   UNL A   1      43.293  26.603  27.183  1.00  0.00     0.074 A 
ATOM     49  C   UNL A   1      47.104  31.668  27.513  1.00  0.00     0.029 A 
ATOM     50  N   UNL A   1      45.396  30.256  27.694  1.00  0.00    -0.354 N 
ATOM     51  N   UNL A   1      44.018  27.688  27.311  1.00  0.00    -0.248 NA
ATOM     52  C   UNL A   1      43.903  25.575  26.328  1.00  0.00     0.031 C 
ATOM     53  C   UNL A   1      47.407  30.512  26.786  1.00  0.00     0.029 A 
ATOM     54  C   UNL A   1      46.356  29.620  26.922  1.00  0.00     0.049 A 
ATOM     55  H   UNL A   1      44.530  29.865  27.952  1.00  0.00     0.167 HD
ATOM     56  C   UNL A   1      45.177  27.463  26.580  1.00  0.00     0.074 A 
ATOM     57  C   UNL A   1      45.067  26.132  26.024  1.00  0.00     0.031 C 
ATOM     58  C   UNL A   1      46.235  28.287  26.384  1.00  0.00     0.037 A 
BRANCH  45  59
ATOM     59  C   UNL A   1      45.675  33.823  29.078  1.00  0.00     0.064 A 
ATOM     60  C   UNL A   1      45.457  34.904  28.211  1.00  0.00     0.173 A 
ATOM     61  C   UNL A   1      46.454  34.051  30.224  1.00  0.00     0.173 A 
ATOM     62  F   UNL A   1      44.731  34.739  27.095  1.00  0.00    -0.203 F 
ATOM     63  C   UNL A   1      46.017  36.154  28.468  1.00  0.00     0.198 A 
ATOM     64  C   UNL A   1      46.985  35.309  30.495  1.00  0.00     0.198 A 
ATOM     65  F   UNL A   1      46.690  33.053  31.091  1.00  0.00    -0.203 F 
ATOM     66  F   UNL A   1      45.836  37.159  27.601  1.00  0.00    -0.200 F 
ATOM     67  C   UNL A   1      46.774  36.357  29.613  1.00  0.00     0.200 A 
ATOM     68  F   UNL A   1      47.703  35.506  31.609  1.00  0.00    -0.200 F 
ATOM     69  F   UNL A   1      47.306  37.561  29.863  1.00  0.00    -0.200 F 
ENDBRANCH  45  59
BRANCH  46  70
ATOM     70  C   UNL A   1      41.299  24.966  27.525  1.00  0.00     0.064 A 
ATOM     71  C   UNL A   1      40.174  24.864  26.694  1.00  0.00     0.173 A 
ATOM     72  C   UNL A   1      41.773  23.788  28.125  1.00  0.00     0.173 A 
ATOM     73  F   UNL A   1      39.665  25.964  26.120  1.00  0.00    -0.203 F 
ATOM     74  C   UNL A   1      39.537  23.641  26.490  1.00  0.00     0.198 A 
ATOM     75  C   UNL A   1      41.157  22.561  27.892  1.00  0.00     0.198 A 
ATOM     76  F   UNL A   1      42.843  23.829  28.932  1.00  0.00    -0.203 F 
ATOM     77  F   UNL A   1      38.431  23.583  25.737  1.00  0.00    -0.200 F 
ATOM     78  C   UNL A   1      40.033  22.491  27.083  1.00  0.00     0.200 A 
ATOM     79  F   UNL A   1      41.648  21.450  28.456  1.00  0.00    -0.200 F 
ATOM     80  F   UNL A   1      39.421  21.315  26.886  1.00  0.00    -0.200 F 
ENDBRANCH  46  70
BRANCH  58  81
ATOM     81  C   UNL A   1      47.381  27.755  25.572  1.00  0.00     0.064 A 
ATOM     82  C   UNL A   1      47.402  27.845  24.173  1.00  0.00     0.173 A 
ATOM     83  C   UNL A   1      48.491  27.176  26.210  1.00  0.00     0.173 A 
ATOM     84  F   UNL A   1      46.360  28.374  23.515  1.00  0.00    -0.203 F 
ATOM     85  C   UNL A   1      48.478  27.350  23.440  1.00  0.00     0.198 A 
ATOM     86  C   UNL A   1      49.580  26.714  25.476  1.00  0.00     0.198 A 
ATOM     87  F   UNL A   1      48.525  27.071  27.546  1.00  0.00    -0.203 F 
ATOM     88  F   UNL A   1      48.452  27.399  22.101  1.00  0.00    -0.200 F 
ATOM     89  C   UNL A   1      49.568  26.794  24.091  1.00  0.00     0.200 A 
ATOM     90  F   UNL A   1      50.639  26.192  26.108  1.00  0.00    -0.200 F 
ATOM     91  F   UNL A   1      50.607  26.326  23.384  1.00  0.00    -0.200 F 
ENDBRANCH  58  81
ENDBRANCH  32  33
ENDBRANCH  25  27
ENDBRANCH  24  25
ENDBRANCH  23  24
ENDBRANCH   1  23
TORSDOF 15
ENDMDL
