MODEL 1
REMARK VINA RESULT:     -12.6      0.000      0.000
REMARK SMILES O=C(CCc1nc(-c2ccccc2)c(-c2ccccc2)o1)OCCOC(=O)c1ccc(-c2c3nc(c(-c4c(F)c(F)c(F)c(F)c4F)c4ccc([nH]4)c(-c4c(F)c(F)c(F)c(F)c4F)c4nc(c(-c5c(F)c(F)c(F)c(F)c5F)c5ccc2[nH]5)C=C4)C=C3)cc1
REMARK SMILES IDX 23 1 22 2 2 3 1 4 3 5 4 6 5 7 6 8 21 9 7 10 14 11 8 12 9 13
REMARK SMILES IDX 13 14 10 15 12 16 11 17 15 18 16 19 20 20 17 21 19 22 18 23
REMARK SMILES IDX 24 24 25 25 26 26 27 27 28 28 29 29 90 30 30 31 89 32 31 33
REMARK SMILES IDX 32 34 33 35 83 36 34 37 88 38 82 39 84 40 35 41 87 42 81 43
REMARK SMILES IDX 80 44 36 46 68 47 48 48 67 49 49 50 52 51 66 52 85 53 50 54
REMARK SMILES IDX 51 55 65 57 86 58 53 59 37 60 38 61 46 62 39 63 40 64 44 65
REMARK SMILES IDX 47 66 41 67 42 68 45 69 43 70 69 71 70 72 78 73 71 74 72 75
REMARK SMILES IDX 76 76 79 77 73 78 74 79 77 80 75 81 54 82 55 83 63 84 56 85
REMARK SMILES IDX 57 86 61 87 64 88 58 89 59 90 62 91 60 92
REMARK H PARENT 84 45 52 56
REMARK Flexibility Score: inf
ROOT
ATOM      1  C   UNL A   1      42.922  20.944  26.143  1.00  0.00     0.274 C 
ENDROOT
BRANCH   1   2
ATOM      2  O   UNL A   1      41.525  20.782  25.809  1.00  0.00    -0.462 OA
BRANCH   2   3
ATOM      3  C   UNL A   1      40.476  21.185  26.561  1.00  0.00     0.306 C 
ATOM      4  O   UNL A   1      40.575  21.238  27.786  1.00  0.00    -0.252 OA
BRANCH   3   5
ATOM      5  C   UNL A   1      39.162  21.528  25.900  1.00  0.00     0.132 C 
BRANCH   5   6
ATOM      6  C   UNL A   1      38.656  22.899  26.326  1.00  0.00     0.109 C 
BRANCH   6   7
ATOM      7  C   UNL A   1      37.320  23.157  25.740  1.00  0.00     0.196 A 
ATOM      8  N   UNL A   1      36.630  24.282  25.734  1.00  0.00    -0.213 NA
ATOM      9  O   UNL A   1      36.628  22.056  25.326  1.00  0.00    -0.440 OA
ATOM     10  C   UNL A   1      35.381  23.888  25.309  1.00  0.00     0.117 A 
ATOM     11  C   UNL A   1      35.384  22.535  25.031  1.00  0.00     0.162 A 
BRANCH  10  12
ATOM     12  C   UNL A   1      34.228  24.761  25.249  1.00  0.00     0.004 A 
ATOM     13  C   UNL A   1      34.086  25.689  24.205  1.00  0.00     0.010 A 
ATOM     14  C   UNL A   1      33.251  24.700  26.245  1.00  0.00     0.010 A 
ATOM     15  C   UNL A   1      33.007  26.573  24.185  1.00  0.00     0.001 A 
ATOM     16  C   UNL A   1      32.175  25.591  26.228  1.00  0.00     0.001 A 
ATOM     17  C   UNL A   1      32.059  26.531  25.203  1.00  0.00     0.000 A 
ENDBRANCH  10  12
BRANCH  11  18
ATOM     18  C   UNL A   1      34.417  21.573  24.551  1.00  0.00     0.020 A 
ATOM     19  C   UNL A   1      34.480  20.235  24.959  1.00  0.00     0.012 A 
ATOM     20  C   UNL A   1      33.373  21.990  23.717  1.00  0.00     0.012 A 
ATOM     21  C   UNL A   1      33.499  19.331  24.549  1.00  0.00     0.001 A 
ATOM     22  C   UNL A   1      32.403  21.083  23.296  1.00  0.00     0.001 A 
ATOM     23  C   UNL A   1      32.462  19.756  23.719  1.00  0.00     0.000 A 
ENDBRANCH  11  18
ENDBRANCH   6   7
ENDBRANCH   5   6
ENDBRANCH   3   5
ENDBRANCH   2   3
ENDBRANCH   1   2
BRANCH   1  24
ATOM     24  C   UNL A   1      43.685  21.732  25.083  1.00  0.00     0.275 C 
BRANCH  24  25
ATOM     25  O   UNL A   1      42.983  22.949  24.792  1.00  0.00    -0.458 OA
BRANCH  25  26
ATOM     26  C   UNL A   1      43.726  24.075  24.911  1.00  0.00     0.338 C 
ATOM     27  O   UNL A   1      44.736  24.357  24.290  1.00  0.00    -0.246 OA
BRANCH  26  28
ATOM     28  C   UNL A   1      43.035  25.018  25.813  1.00  0.00     0.060 A 
ATOM     29  C   UNL A   1      43.498  26.339  25.852  1.00  0.00     0.016 A 
ATOM     30  C   UNL A   1      41.960  24.619  26.614  1.00  0.00     0.016 A 
ATOM     31  C   UNL A   1      42.931  27.251  26.741  1.00  0.00     0.010 A 
ATOM     32  C   UNL A   1      41.393  25.531  27.503  1.00  0.00     0.010 A 
ATOM     33  C   UNL A   1      41.907  26.835  27.601  1.00  0.00    -0.014 A 
BRANCH  33  34
ATOM     34  C   UNL A   1      41.511  27.685  28.747  1.00  0.00     0.031 A 
ATOM     35  C   UNL A   1      42.302  27.570  30.019  1.00  0.00     0.074 A 
ATOM     36  C   UNL A   1      40.465  28.525  28.665  1.00  0.00     0.049 A 
ATOM     37  N   UNL A   1      42.105  28.144  31.177  1.00  0.00    -0.248 NA
ATOM     38  C   UNL A   1      43.469  26.675  29.979  1.00  0.00     0.031 C 
ATOM     39  C   UNL A   1      39.644  28.740  27.478  1.00  0.00     0.029 A 
ATOM     40  N   UNL A   1      39.909  29.340  29.617  1.00  0.00    -0.354 N 
ATOM     41  C   UNL A   1      43.117  27.674  32.003  1.00  0.00     0.074 A 
ATOM     42  C   UNL A   1      43.905  26.742  31.227  1.00  0.00     0.031 C 
ATOM     43  C   UNL A   1      38.672  29.621  27.776  1.00  0.00     0.029 A 
ATOM     44  C   UNL A   1      38.790  30.004  29.182  1.00  0.00     0.049 A 
ATOM     45  H   UNL A   1      40.278  29.440  30.525  1.00  0.00     0.167 HD
ATOM     46  C   UNL A   1      43.372  27.999  33.293  1.00  0.00     0.037 A 
ATOM     47  C   UNL A   1      37.948  30.812  29.856  1.00  0.00     0.037 A 
ATOM     48  C   UNL A   1      42.584  28.922  34.061  1.00  0.00     0.049 A 
ATOM     49  C   UNL A   1      38.216  31.112  31.309  1.00  0.00     0.074 A 
ATOM     50  C   UNL A   1      42.766  29.333  35.370  1.00  0.00     0.029 A 
ATOM     51  N   UNL A   1      41.452  29.571  33.590  1.00  0.00    -0.354 N 
ATOM     52  N   UNL A   1      39.193  30.692  32.077  1.00  0.00    -0.248 NA
ATOM     53  C   UNL A   1      37.264  32.003  31.989  1.00  0.00     0.031 C 
ATOM     54  C   UNL A   1      41.716  30.194  35.705  1.00  0.00     0.029 A 
ATOM     55  C   UNL A   1      40.912  30.363  34.588  1.00  0.00     0.049 A 
ATOM     56  H   UNL A   1      41.088  29.482  32.679  1.00  0.00     0.167 HD
ATOM     57  C   UNL A   1      38.995  31.293  33.314  1.00  0.00     0.074 A 
ATOM     58  C   UNL A   1      37.805  32.109  33.195  1.00  0.00     0.031 C 
ATOM     59  C   UNL A   1      39.735  31.183  34.445  1.00  0.00     0.037 A 
BRANCH  46  60
ATOM     60  C   UNL A   1      44.537  27.322  33.952  1.00  0.00     0.064 A 
ATOM     61  C   UNL A   1      45.812  27.907  33.981  1.00  0.00     0.173 A 
ATOM     62  C   UNL A   1      44.375  26.072  34.567  1.00  0.00     0.173 A 
ATOM     63  F   UNL A   1      46.023  29.093  33.391  1.00  0.00    -0.203 F 
ATOM     64  C   UNL A   1      46.888  27.250  34.571  1.00  0.00     0.198 A 
ATOM     65  C   UNL A   1      45.446  25.431  35.183  1.00  0.00     0.198 A 
ATOM     66  F   UNL A   1      43.176  25.468  34.568  1.00  0.00    -0.203 F 
ATOM     67  F   UNL A   1      48.109  27.803  34.536  1.00  0.00    -0.200 F 
ATOM     68  C   UNL A   1      46.704  26.017  35.176  1.00  0.00     0.200 A 
ATOM     69  F   UNL A   1      45.264  24.243  35.775  1.00  0.00    -0.200 F 
ATOM     70  F   UNL A   1      47.741  25.386  35.745  1.00  0.00    -0.200 F 
ENDBRANCH  46  60
BRANCH  47  71
ATOM     71  C   UNL A   1      36.772  31.397  29.163  1.00  0.00     0.064 A 
ATOM     72  C   UNL A   1      36.734  32.755  28.826  1.00  0.00     0.173 A 
ATOM     73  C   UNL A   1      35.659  30.609  28.831  1.00  0.00     0.173 A 
ATOM     74  F   UNL A   1      37.764  33.553  29.145  1.00  0.00    -0.203 F 
ATOM     75  C   UNL A   1      35.623  33.310  28.195  1.00  0.00     0.198 A 
ATOM     76  C   UNL A   1      34.558  31.160  28.177  1.00  0.00     0.198 A 
ATOM     77  F   UNL A   1      35.645  29.304  29.134  1.00  0.00    -0.203 F 
ATOM     78  F   UNL A   1      35.594  34.622  27.921  1.00  0.00    -0.200 F 
ATOM     79  C   UNL A   1      34.538  32.511  27.866  1.00  0.00     0.200 A 
ATOM     80  F   UNL A   1      33.517  30.381  27.853  1.00  0.00    -0.200 F 
ATOM     81  F   UNL A   1      33.470  33.043  27.257  1.00  0.00    -0.200 F 
ENDBRANCH  47  71
BRANCH  59  82
ATOM     82  C   UNL A   1      39.317  32.000  35.632  1.00  0.00     0.064 A 
ATOM     83  C   UNL A   1      39.747  33.323  35.808  1.00  0.00     0.173 A 
ATOM     84  C   UNL A   1      38.418  31.470  36.571  1.00  0.00     0.173 A 
ATOM     85  F   UNL A   1      40.615  33.871  34.946  1.00  0.00    -0.203 F 
ATOM     86  C   UNL A   1      39.306  34.079  36.892  1.00  0.00     0.198 A 
ATOM     87  C   UNL A   1      37.957  32.238  37.636  1.00  0.00     0.198 A 
ATOM     88  F   UNL A   1      37.969  30.212  36.443  1.00  0.00    -0.203 F 
ATOM     89  F   UNL A   1      39.758  35.329  37.062  1.00  0.00    -0.200 F 
ATOM     90  C   UNL A   1      38.405  33.540  37.797  1.00  0.00     0.200 A 
ATOM     91  F   UNL A   1      37.074  31.721  38.502  1.00  0.00    -0.200 F 
ATOM     92  F   UNL A   1      37.971  34.275  38.831  1.00  0.00    -0.200 F 
ENDBRANCH  59  82
ENDBRANCH  33  34
ENDBRANCH  26  28
ENDBRANCH  25  26
ENDBRANCH  24  25
ENDBRANCH   1  24
TORSDOF 15
ENDMDL
MODEL 2
REMARK VINA RESULT:     -12.6      0.543      2.547
REMARK SMILES O=C(CCc1nc(-c2ccccc2)c(-c2ccccc2)o1)OCCOC(=O)c1ccc(-c2c3nc(c(-c4c(F)c(F)c(F)c(F)c4F)c4ccc([nH]4)c(-c4c(F)c(F)c(F)c(F)c4F)c4nc(c(-c5c(F)c(F)c(F)c(F)c5F)c5ccc2[nH]5)C=C4)C=C3)cc1
REMARK SMILES IDX 23 1 22 2 2 3 1 4 3 5 4 6 5 7 6 8 21 9 7 10 14 11 8 12 9 13
REMARK SMILES IDX 13 14 10 15 12 16 11 17 15 18 16 19 20 20 17 21 19 22 18 23
REMARK SMILES IDX 24 24 25 25 26 26 27 27 28 28 29 29 90 30 30 31 89 32 31 33
REMARK SMILES IDX 32 34 33 35 83 36 34 37 88 38 82 39 84 40 35 41 87 42 81 43
REMARK SMILES IDX 80 44 36 46 68 47 48 48 67 49 49 50 52 51 66 52 85 53 50 54
REMARK SMILES IDX 51 55 65 57 86 58 53 59 37 60 38 61 46 62 39 63 40 64 44 65
REMARK SMILES IDX 47 66 41 67 42 68 45 69 43 70 69 71 70 72 78 73 71 74 72 75
REMARK SMILES IDX 76 76 79 77 73 78 74 79 77 80 75 81 54 82 55 83 63 84 56 85
REMARK SMILES IDX 57 86 61 87 64 88 58 89 59 90 62 91 60 92
REMARK H PARENT 84 45 52 56
REMARK Flexibility Score: inf
ROOT
ATOM      1  C   UNL A   1      42.889  21.080  26.184  1.00  0.00     0.274 C 
ENDROOT
BRANCH   1   2
ATOM      2  O   UNL A   1      41.506  20.891  25.809  1.00  0.00    -0.462 OA
BRANCH   2   3
ATOM      3  C   UNL A   1      40.427  21.295  26.518  1.00  0.00     0.306 C 
ATOM      4  O   UNL A   1      40.518  21.488  27.729  1.00  0.00    -0.252 OA
BRANCH   3   5
ATOM      5  C   UNL A   1      39.094  21.464  25.830  1.00  0.00     0.132 C 
BRANCH   5   6
ATOM      6  C   UNL A   1      38.444  22.796  26.177  1.00  0.00     0.109 C 
BRANCH   6   7
ATOM      7  C   UNL A   1      36.996  22.758  25.864  1.00  0.00     0.196 A 
ATOM      8  N   UNL A   1      36.335  21.872  25.143  1.00  0.00    -0.213 NA
ATOM      9  O   UNL A   1      36.287  23.876  26.193  1.00  0.00    -0.440 OA
ATOM     10  C   UNL A   1      35.105  22.462  24.961  1.00  0.00     0.117 A 
ATOM     11  C   UNL A   1      35.061  23.672  25.625  1.00  0.00     0.162 A 
BRANCH  10  12
ATOM     12  C   UNL A   1      34.056  21.918  24.126  1.00  0.00     0.004 A 
ATOM     13  C   UNL A   1      33.544  22.655  23.047  1.00  0.00     0.010 A 
ATOM     14  C   UNL A   1      33.528  20.654  24.400  1.00  0.00     0.010 A 
ATOM     15  C   UNL A   1      32.488  22.155  22.284  1.00  0.00     0.001 A 
ATOM     16  C   UNL A   1      32.466  20.157  23.640  1.00  0.00     0.001 A 
ATOM     17  C   UNL A   1      31.942  20.911  22.589  1.00  0.00     0.000 A 
ENDBRANCH  10  12
BRANCH  11  18
ATOM     18  C   UNL A   1      34.077  24.714  25.818  1.00  0.00     0.020 A 
ATOM     19  C   UNL A   1      34.365  26.040  25.474  1.00  0.00     0.012 A 
ATOM     20  C   UNL A   1      32.804  24.389  26.301  1.00  0.00     0.012 A 
ATOM     21  C   UNL A   1      33.384  27.025  25.595  1.00  0.00     0.001 A 
ATOM     22  C   UNL A   1      31.829  25.377  26.436  1.00  0.00     0.001 A 
ATOM     23  C   UNL A   1      32.118  26.692  26.076  1.00  0.00     0.000 A 
ENDBRANCH  11  18
ENDBRANCH   6   7
ENDBRANCH   5   6
ENDBRANCH   3   5
ENDBRANCH   2   3
ENDBRANCH   1   2
BRANCH   1  24
ATOM     24  C   UNL A   1      43.664  21.896  25.155  1.00  0.00     0.275 C 
BRANCH  24  25
ATOM     25  O   UNL A   1      42.961  23.117  24.883  1.00  0.00    -0.458 OA
BRANCH  25  26
ATOM     26  C   UNL A   1      43.696  24.243  25.040  1.00  0.00     0.338 C 
ATOM     27  O   UNL A   1      44.720  24.539  24.450  1.00  0.00    -0.246 OA
BRANCH  26  28
ATOM     28  C   UNL A   1      42.980  25.167  25.942  1.00  0.00     0.060 A 
ATOM     29  C   UNL A   1      43.407  26.500  25.982  1.00  0.00     0.016 A 
ATOM     30  C   UNL A   1      41.915  24.739  26.743  1.00  0.00     0.016 A 
ATOM     31  C   UNL A   1      42.815  27.396  26.870  1.00  0.00     0.010 A 
ATOM     32  C   UNL A   1      41.323  25.636  27.632  1.00  0.00     0.010 A 
ATOM     33  C   UNL A   1      41.802  26.953  27.730  1.00  0.00    -0.014 A 
BRANCH  33  34
ATOM     34  C   UNL A   1      41.383  27.792  28.875  1.00  0.00     0.031 A 
ATOM     35  C   UNL A   1      42.152  27.670  30.160  1.00  0.00     0.074 A 
ATOM     36  C   UNL A   1      40.335  28.628  28.783  1.00  0.00     0.049 A 
ATOM     37  N   UNL A   1      41.933  28.234  31.319  1.00  0.00    -0.248 NA
ATOM     38  C   UNL A   1      43.324  26.780  30.133  1.00  0.00     0.031 C 
ATOM     39  C   UNL A   1      39.534  28.849  27.583  1.00  0.00     0.029 A 
ATOM     40  N   UNL A   1      39.759  29.434  29.731  1.00  0.00    -0.354 N 
ATOM     41  C   UNL A   1      42.932  27.761  32.158  1.00  0.00     0.074 A 
ATOM     42  C   UNL A   1      43.738  26.839  31.389  1.00  0.00     0.031 C 
ATOM     43  C   UNL A   1      38.553  29.723  27.872  1.00  0.00     0.029 A 
ATOM     44  C   UNL A   1      38.645  30.096  29.283  1.00  0.00     0.049 A 
ATOM     45  H   UNL A   1      40.112  29.528  30.646  1.00  0.00     0.167 HD
ATOM     46  C   UNL A   1      43.164  28.077  33.455  1.00  0.00     0.037 A 
ATOM     47  C   UNL A   1      37.788  30.895  29.948  1.00  0.00     0.037 A 
ATOM     48  C   UNL A   1      42.359  28.990  34.217  1.00  0.00     0.049 A 
ATOM     49  C   UNL A   1      38.030  31.184  31.408  1.00  0.00     0.074 A 
ATOM     50  C   UNL A   1      42.517  29.392  35.532  1.00  0.00     0.029 A 
ATOM     51  N   UNL A   1      41.233  29.638  33.732  1.00  0.00    -0.354 N 
ATOM     52  N   UNL A   1      38.995  30.762  32.189  1.00  0.00    -0.248 NA
ATOM     53  C   UNL A   1      37.062  32.066  32.078  1.00  0.00     0.031 C 
ATOM     54  C   UNL A   1      41.458  30.246  35.856  1.00  0.00     0.029 A 
ATOM     55  C   UNL A   1      40.672  30.420  34.727  1.00  0.00     0.049 A 
ATOM     56  H   UNL A   1      40.884  29.555  32.814  1.00  0.00     0.167 HD
ATOM     57  C   UNL A   1      38.773  31.352  33.427  1.00  0.00     0.074 A 
ATOM     58  C   UNL A   1      37.582  32.165  33.294  1.00  0.00     0.031 C 
ATOM     59  C   UNL A   1      39.494  31.237  34.570  1.00  0.00     0.037 A 
BRANCH  46  60
ATOM     60  C   UNL A   1      44.320  27.399  34.129  1.00  0.00     0.064 A 
ATOM     61  C   UNL A   1      45.599  27.975  34.157  1.00  0.00     0.173 A 
ATOM     62  C   UNL A   1      44.145  26.158  34.758  1.00  0.00     0.173 A 
ATOM     63  F   UNL A   1      45.823  29.153  33.554  1.00  0.00    -0.203 F 
ATOM     64  C   UNL A   1      46.668  27.318  34.761  1.00  0.00     0.198 A 
ATOM     65  C   UNL A   1      45.209  25.517  35.388  1.00  0.00     0.198 A 
ATOM     66  F   UNL A   1      42.942  25.563  34.761  1.00  0.00    -0.203 F 
ATOM     67  F   UNL A   1      47.892  27.861  34.726  1.00  0.00    -0.200 F 
ATOM     68  C   UNL A   1      46.471  26.093  35.381  1.00  0.00     0.200 A 
ATOM     69  F   UNL A   1      45.015  24.338  35.994  1.00  0.00    -0.200 F 
ATOM     70  F   UNL A   1      47.500  25.462  35.962  1.00  0.00    -0.200 F 
ENDBRANCH  46  60
BRANCH  47  71
ATOM     71  C   UNL A   1      36.621  31.480  29.240  1.00  0.00     0.064 A 
ATOM     72  C   UNL A   1      35.532  30.685  28.863  1.00  0.00     0.173 A 
ATOM     73  C   UNL A   1      36.575  32.846  28.920  1.00  0.00     0.173 A 
ATOM     74  F   UNL A   1      35.541  29.370  29.125  1.00  0.00    -0.203 F 
ATOM     75  C   UNL A   1      34.446  31.228  28.180  1.00  0.00     0.198 A 
ATOM     76  C   UNL A   1      35.477  33.393  28.259  1.00  0.00     0.198 A 
ATOM     77  F   UNL A   1      37.594  33.649  29.257  1.00  0.00    -0.203 F 
ATOM     78  F   UNL A   1      33.436  30.436  27.793  1.00  0.00    -0.200 F 
ATOM     79  C   UNL A   1      34.417  32.583  27.884  1.00  0.00     0.200 A 
ATOM     80  F   UNL A   1      35.449  34.704  27.984  1.00  0.00    -0.200 F 
ATOM     81  F   UNL A   1      33.371  33.106  27.229  1.00  0.00    -0.200 F 
ENDBRANCH  47  71
BRANCH  59  82
ATOM     82  C   UNL A   1      39.052  32.043  35.756  1.00  0.00     0.064 A 
ATOM     83  C   UNL A   1      38.235  31.499  36.757  1.00  0.00     0.173 A 
ATOM     84  C   UNL A   1      39.510  33.359  35.924  1.00  0.00     0.173 A 
ATOM     85  F   UNL A   1      37.761  30.249  36.637  1.00  0.00    -0.203 F 
ATOM     86  C   UNL A   1      37.877  32.249  37.874  1.00  0.00     0.198 A 
ATOM     87  C   UNL A   1      39.174  34.097  37.056  1.00  0.00     0.198 A 
ATOM     88  F   UNL A   1      40.302  33.923  34.999  1.00  0.00    -0.203 F 
ATOM     89  F   UNL A   1      37.065  31.722  38.801  1.00  0.00    -0.200 F 
ATOM     90  C   UNL A   1      38.355  33.542  38.027  1.00  0.00     0.200 A 
ATOM     91  F   UNL A   1      39.649  35.340  37.209  1.00  0.00    -0.200 F 
ATOM     92  F   UNL A   1      38.021  34.258  39.110  1.00  0.00    -0.200 F 
ENDBRANCH  59  82
ENDBRANCH  33  34
ENDBRANCH  26  28
ENDBRANCH  25  26
ENDBRANCH  24  25
ENDBRANCH   1  24
TORSDOF 15
ENDMDL
MODEL 3
REMARK VINA RESULT:     -12.3      5.274     11.708
REMARK SMILES O=C(CCc1nc(-c2ccccc2)c(-c2ccccc2)o1)OCCOC(=O)c1ccc(-c2c3nc(c(-c4c(F)c(F)c(F)c(F)c4F)c4ccc([nH]4)c(-c4c(F)c(F)c(F)c(F)c4F)c4nc(c(-c5c(F)c(F)c(F)c(F)c5F)c5ccc2[nH]5)C=C4)C=C3)cc1
REMARK SMILES IDX 23 1 22 2 2 3 1 4 3 5 4 6 5 7 6 8 21 9 7 10 14 11 8 12 9 13
REMARK SMILES IDX 13 14 10 15 12 16 11 17 15 18 16 19 20 20 17 21 19 22 18 23
REMARK SMILES IDX 24 24 25 25 26 26 27 27 28 28 29 29 90 30 30 31 89 32 31 33
REMARK SMILES IDX 32 34 33 35 83 36 34 37 88 38 82 39 84 40 35 41 87 42 81 43
REMARK SMILES IDX 80 44 36 46 68 47 48 48 67 49 49 50 52 51 66 52 85 53 50 54
REMARK SMILES IDX 51 55 65 57 86 58 53 59 37 60 38 61 46 62 39 63 40 64 44 65
REMARK SMILES IDX 47 66 41 67 42 68 45 69 43 70 69 71 70 72 78 73 71 74 72 75
REMARK SMILES IDX 76 76 79 77 73 78 74 79 77 80 75 81 54 82 55 83 63 84 56 85
REMARK SMILES IDX 57 86 61 87 64 88 58 89 59 90 62 91 60 92
REMARK H PARENT 84 45 52 56
REMARK Flexibility Score: inf
ROOT
ATOM      1  C   UNL A   1      32.531  36.271  31.068  1.00  0.00     0.274 C 
ENDROOT
BRANCH   1   2
ATOM      2  O   UNL A   1      33.471  37.113  31.771  1.00  0.00    -0.462 OA
BRANCH   2   3
ATOM      3  C   UNL A   1      34.145  36.786  32.897  1.00  0.00     0.306 C 
ATOM      4  O   UNL A   1      33.983  37.439  33.927  1.00  0.00    -0.252 OA
BRANCH   3   5
ATOM      5  C   UNL A   1      35.134  35.646  32.880  1.00  0.00     0.132 C 
BRANCH   5   6
ATOM      6  C   UNL A   1      34.533  34.368  33.447  1.00  0.00     0.109 C 
BRANCH   6   7
ATOM      7  C   UNL A   1      35.469  33.744  34.412  1.00  0.00     0.196 A 
ATOM      8  N   UNL A   1      35.742  34.116  35.648  1.00  0.00    -0.213 NA
ATOM      9  O   UNL A   1      36.298  32.786  33.903  1.00  0.00    -0.440 OA
ATOM     10  C   UNL A   1      36.850  33.366  35.971  1.00  0.00     0.117 A 
ATOM     11  C   UNL A   1      37.174  32.531  34.919  1.00  0.00     0.162 A 
BRANCH  10  12
ATOM     12  C   UNL A   1      37.598  33.506  37.201  1.00  0.00     0.004 A 
ATOM     13  C   UNL A   1      37.361  32.646  38.285  1.00  0.00     0.010 A 
ATOM     14  C   UNL A   1      38.556  34.515  37.328  1.00  0.00     0.010 A 
ATOM     15  C   UNL A   1      38.037  32.824  39.492  1.00  0.00     0.001 A 
ATOM     16  C   UNL A   1      39.227  34.697  38.540  1.00  0.00     0.001 A 
ATOM     17  C   UNL A   1      38.962  33.857  39.622  1.00  0.00     0.000 A 
ENDBRANCH  10  12
BRANCH  11  18
ATOM     18  C   UNL A   1      38.187  31.531  34.663  1.00  0.00     0.020 A 
ATOM     19  C   UNL A   1      37.985  30.545  33.690  1.00  0.00     0.012 A 
ATOM     20  C   UNL A   1      39.404  31.579  35.353  1.00  0.00     0.012 A 
ATOM     21  C   UNL A   1      38.998  29.630  33.400  1.00  0.00     0.001 A 
ATOM     22  C   UNL A   1      40.409  30.655  35.073  1.00  0.00     0.001 A 
ATOM     23  C   UNL A   1      40.208  29.686  34.091  1.00  0.00     0.000 A 
ENDBRANCH  11  18
ENDBRANCH   6   7
ENDBRANCH   5   6
ENDBRANCH   3   5
ENDBRANCH   2   3
ENDBRANCH   1   2
BRANCH   1  24
ATOM     24  C   UNL A   1      33.049  35.834  29.701  1.00  0.00     0.275 C 
BRANCH  24  25
ATOM     25  O   UNL A   1      32.642  34.483  29.443  1.00  0.00    -0.458 OA
BRANCH  25  26
ATOM     26  C   UNL A   1      33.447  33.800  28.595  1.00  0.00     0.338 C 
ATOM     27  O   UNL A   1      33.231  33.546  27.423  1.00  0.00    -0.246 OA
BRANCH  26  28
ATOM     28  C   UNL A   1      34.737  33.532  29.262  1.00  0.00     0.060 A 
ATOM     29  C   UNL A   1      35.860  34.239  28.816  1.00  0.00     0.016 A 
ATOM     30  C   UNL A   1      34.851  32.599  30.298  1.00  0.00     0.016 A 
ATOM     31  C   UNL A   1      37.115  33.970  29.359  1.00  0.00     0.010 A 
ATOM     32  C   UNL A   1      36.107  32.330  30.842  1.00  0.00     0.010 A 
ATOM     33  C   UNL A   1      37.247  32.981  30.343  1.00  0.00    -0.014 A 
BRANCH  33  34
ATOM     34  C   UNL A   1      38.589  32.470  30.704  1.00  0.00     0.031 A 
ATOM     35  C   UNL A   1      39.041  31.175  30.091  1.00  0.00     0.074 A 
ATOM     36  C   UNL A   1      39.379  33.130  31.567  1.00  0.00     0.049 A 
ATOM     37  N   UNL A   1      40.130  30.486  30.308  1.00  0.00    -0.248 NA
ATOM     38  C   UNL A   1      38.130  30.570  29.105  1.00  0.00     0.031 C 
ATOM     39  C   UNL A   1      39.059  34.405  32.200  1.00  0.00     0.029 A 
ATOM     40  N   UNL A   1      40.611  32.799  32.070  1.00  0.00    -0.354 N 
ATOM     41  C   UNL A   1      40.032  29.366  29.494  1.00  0.00     0.074 A 
ATOM     42  C   UNL A   1      38.763  29.447  28.805  1.00  0.00     0.031 C 
ATOM     43  C   UNL A   1      40.065  34.744  33.026  1.00  0.00     0.029 A 
ATOM     44  C   UNL A   1      41.082  33.694  32.997  1.00  0.00     0.049 A 
ATOM     45  H   UNL A   1      41.110  31.997  31.791  1.00  0.00     0.167 HD
ATOM     46  C   UNL A   1      40.926  28.362  29.328  1.00  0.00     0.037 A 
ATOM     47  C   UNL A   1      42.198  33.651  33.750  1.00  0.00     0.037 A 
ATOM     48  C   UNL A   1      42.183  28.283  30.018  1.00  0.00     0.049 A 
ATOM     49  C   UNL A   1      43.151  32.492  33.594  1.00  0.00     0.074 A 
ATOM     50  C   UNL A   1      43.169  27.317  29.911  1.00  0.00     0.029 A 
ATOM     51  N   UNL A   1      42.624  29.204  30.957  1.00  0.00    -0.354 N 
ATOM     52  N   UNL A   1      43.070  31.453  32.799  1.00  0.00    -0.248 NA
ATOM     53  C   UNL A   1      44.353  32.504  34.441  1.00  0.00     0.031 C 
ATOM     54  C   UNL A   1      44.184  27.630  30.820  1.00  0.00     0.029 A 
ATOM     55  C   UNL A   1      43.857  28.819  31.453  1.00  0.00     0.049 A 
ATOM     56  H   UNL A   1      42.132  30.013  31.229  1.00  0.00     0.167 HD
ATOM     57  C   UNL A   1      44.222  30.709  33.021  1.00  0.00     0.074 A 
ATOM     58  C   UNL A   1      44.988  31.417  34.026  1.00  0.00     0.031 C 
ATOM     59  C   UNL A   1      44.614  29.547  32.441  1.00  0.00     0.037 A 
BRANCH  46  60
ATOM     60  C   UNL A   1      40.551  27.259  28.383  1.00  0.00     0.064 A 
ATOM     61  C   UNL A   1      39.617  26.272  28.734  1.00  0.00     0.173 A 
ATOM     62  C   UNL A   1      41.131  27.190  27.108  1.00  0.00     0.173 A 
ATOM     63  F   UNL A   1      39.048  26.283  29.949  1.00  0.00    -0.203 F 
ATOM     64  C   UNL A   1      39.304  25.238  27.855  1.00  0.00     0.198 A 
ATOM     65  C   UNL A   1      40.793  26.173  26.221  1.00  0.00     0.198 A 
ATOM     66  F   UNL A   1      42.029  28.110  26.722  1.00  0.00    -0.203 F 
ATOM     67  F   UNL A   1      38.452  24.275  28.234  1.00  0.00    -0.200 F 
ATOM     68  C   UNL A   1      39.887  25.192  26.598  1.00  0.00     0.200 A 
ATOM     69  F   UNL A   1      41.350  26.135  25.003  1.00  0.00    -0.200 F 
ATOM     70  F   UNL A   1      39.584  24.197  25.753  1.00  0.00    -0.200 F 
ENDBRANCH  46  60
BRANCH  47  71
ATOM     71  C   UNL A   1      42.478  34.741  34.720  1.00  0.00     0.064 A 
ATOM     72  C   UNL A   1      42.262  34.560  36.091  1.00  0.00     0.173 A 
ATOM     73  C   UNL A   1      42.961  35.987  34.292  1.00  0.00     0.173 A 
ATOM     74  F   UNL A   1      41.777  33.394  36.544  1.00  0.00    -0.203 F 
ATOM     75  C   UNL A   1      42.504  35.588  37.000  1.00  0.00     0.198 A 
ATOM     76  C   UNL A   1      43.227  37.006  35.205  1.00  0.00     0.198 A 
ATOM     77  F   UNL A   1      43.183  36.211  32.990  1.00  0.00    -0.203 F 
ATOM     78  F   UNL A   1      42.248  35.403  38.303  1.00  0.00    -0.200 F 
ATOM     79  C   UNL A   1      42.992  36.808  36.557  1.00  0.00     0.200 A 
ATOM     80  F   UNL A   1      43.708  38.179  34.773  1.00  0.00    -0.200 F 
ATOM     81  F   UNL A   1      43.227  37.796  37.431  1.00  0.00    -0.200 F 
ENDBRANCH  47  71
BRANCH  59  82
ATOM     82  C   UNL A   1      45.950  28.989  32.835  1.00  0.00     0.064 A 
ATOM     83  C   UNL A   1      46.092  28.098  33.908  1.00  0.00     0.173 A 
ATOM     84  C   UNL A   1      47.093  29.301  32.083  1.00  0.00     0.173 A 
ATOM     85  F   UNL A   1      45.032  27.777  34.665  1.00  0.00    -0.203 F 
ATOM     86  C   UNL A   1      47.335  27.554  34.225  1.00  0.00     0.198 A 
ATOM     87  C   UNL A   1      48.328  28.733  32.384  1.00  0.00     0.198 A 
ATOM     88  F   UNL A   1      47.009  30.142  31.041  1.00  0.00    -0.203 F 
ATOM     89  F   UNL A   1      47.455  26.732  35.276  1.00  0.00    -0.200 F 
ATOM     90  C   UNL A   1      48.447  27.863  33.457  1.00  0.00     0.200 A 
ATOM     91  F   UNL A   1      49.399  29.022  31.632  1.00  0.00    -0.200 F 
ATOM     92  F   UNL A   1      49.639  27.327  33.755  1.00  0.00    -0.200 F 
ENDBRANCH  59  82
ENDBRANCH  33  34
ENDBRANCH  26  28
ENDBRANCH  25  26
ENDBRANCH  24  25
ENDBRANCH   1  24
TORSDOF 15
ENDMDL
