MODEL 1
REMARK VINA RESULT:     -12.0      0.000      0.000
REMARK SMILES O=C(OCCOC(=O)[C@@H]1CCCCN1C(=O)[C@@H]1CCS(=O)(=O)C1)c1ccc(-c2c3nc(c(-c4c(F)c(F)c(F)c(F)c4F)c4ccc([nH]4)c(-c4c(F)c(F)c(F)c(F)c4F)c4nc(c(-c5c(F)c(F)c(F)c(F)c5F)c5ccc2[nH]5)C=C4)C=C3)cc1
REMARK SMILES IDX 4 1 3 2 2 3 1 4 24 5 25 6 86 7 26 8 85 9 27 10 28 11 29 12
REMARK SMILES IDX 79 13 30 14 84 15 78 16 80 17 31 18 83 19 77 20 76 21 32 23
REMARK SMILES IDX 64 24 44 25 63 26 45 27 48 28 62 29 81 30 46 31 47 32 61 34
REMARK SMILES IDX 82 35 49 36 33 37 34 38 42 39 35 40 36 41 40 42 43 43 37 44
REMARK SMILES IDX 38 45 41 46 39 47 65 48 66 49 74 50 67 51 68 52 72 53 75 54
REMARK SMILES IDX 69 55 70 56 73 57 71 58 50 59 51 60 59 61 52 62 53 63 57 64
REMARK SMILES IDX 60 65 54 66 55 67 58 68 56 69 5 70 6 71 7 72 8 73 9 74 10 75
REMARK SMILES IDX 14 76 11 77 13 78 12 79 15 80 16 81 17 82 18 83 23 84 19 85
REMARK SMILES IDX 20 86 21 87 22 88
REMARK H PARENT 80 22 48 33
REMARK Flexibility Score: inf
ROOT
ATOM      1  C   UNL A   1      32.329  30.710  26.104  1.00  0.00     0.275 C 
ENDROOT
BRANCH   1   2
ATOM      2  O   UNL A   1      32.361  31.708  27.136  1.00  0.00    -0.458 OA
BRANCH   2   3
ATOM      3  C   UNL A   1      33.395  32.469  27.571  1.00  0.00     0.338 C 
ATOM      4  O   UNL A   1      33.276  33.692  27.507  1.00  0.00    -0.246 OA
BRANCH   3   5
ATOM      5  C   UNL A   1      34.745  31.927  27.962  1.00  0.00     0.060 A 
ATOM      6  C   UNL A   1      35.949  32.639  28.081  1.00  0.00     0.016 A 
ATOM      7  C   UNL A   1      34.740  30.595  28.419  1.00  0.00     0.016 A 
ATOM      8  C   UNL A   1      37.054  32.114  28.774  1.00  0.00     0.010 A 
ATOM      9  C   UNL A   1      35.826  30.082  29.137  1.00  0.00     0.010 A 
ATOM     10  C   UNL A   1      36.988  30.849  29.351  1.00  0.00    -0.014 A 
BRANCH  10  11
ATOM     11  C   UNL A   1      38.163  30.226  30.018  1.00  0.00     0.031 A 
ATOM     12  C   UNL A   1      38.431  30.667  31.426  1.00  0.00     0.074 A 
ATOM     13  C   UNL A   1      39.012  29.372  29.405  1.00  0.00     0.049 A 
ATOM     14  N   UNL A   1      39.463  30.448  32.192  1.00  0.00    -0.248 NA
ATOM     15  C   UNL A   1      37.410  31.548  32.021  1.00  0.00     0.031 C 
ATOM     16  C   UNL A   1      38.895  28.874  28.036  1.00  0.00     0.029 A 
ATOM     17  N   UNL A   1      40.179  28.795  29.857  1.00  0.00    -0.354 N 
ATOM     18  C   UNL A   1      39.222  31.196  33.334  1.00  0.00     0.074 A 
ATOM     19  C   UNL A   1      38.045  31.995  33.087  1.00  0.00     0.031 C 
ATOM     20  C   UNL A   1      39.960  28.102  27.746  1.00  0.00     0.029 A 
ATOM     21  C   UNL A   1      40.834  28.033  28.915  1.00  0.00     0.049 A 
ATOM     22  H   UNL A   1      40.514  28.916  30.775  1.00  0.00     0.167 HD
ATOM     23  C   UNL A   1      39.858  31.157  34.524  1.00  0.00     0.037 A 
ATOM     24  C   UNL A   1      42.000  27.356  29.000  1.00  0.00     0.037 A 
ATOM     25  C   UNL A   1      40.985  30.315  34.783  1.00  0.00     0.049 A 
ATOM     26  C   UNL A   1      42.732  27.339  30.326  1.00  0.00     0.074 A 
ATOM     27  C   UNL A   1      41.679  30.136  35.960  1.00  0.00     0.029 A 
ATOM     28  N   UNL A   1      41.582  29.506  33.826  1.00  0.00    -0.354 N 
ATOM     29  N   UNL A   1      42.431  27.957  31.443  1.00  0.00    -0.248 NA
ATOM     30  C   UNL A   1      43.943  26.508  30.414  1.00  0.00     0.031 C 
ATOM     31  C   UNL A   1      42.728  29.248  35.706  1.00  0.00     0.029 A 
ATOM     32  C   UNL A   1      42.651  28.832  34.383  1.00  0.00     0.049 A 
ATOM     33  H   UNL A   1      41.287  29.422  32.891  1.00  0.00     0.167 HD
ATOM     34  C   UNL A   1      43.379  27.554  32.376  1.00  0.00     0.074 A 
ATOM     35  C   UNL A   1      44.271  26.641  31.693  1.00  0.00     0.031 C 
ATOM     36  C   UNL A   1      43.496  27.898  33.682  1.00  0.00     0.037 A 
BRANCH  23  37
ATOM     37  C   UNL A   1      39.300  32.043  35.598  1.00  0.00     0.064 A 
ATOM     38  C   UNL A   1      39.781  33.352  35.790  1.00  0.00     0.173 A 
ATOM     39  C   UNL A   1      38.382  31.538  36.526  1.00  0.00     0.173 A 
ATOM     40  F   UNL A   1      40.683  33.871  34.943  1.00  0.00    -0.203 F 
ATOM     41  C   UNL A   1      39.436  34.080  36.924  1.00  0.00     0.198 A 
ATOM     42  C   UNL A   1      38.002  32.290  37.634  1.00  0.00     0.198 A 
ATOM     43  F   UNL A   1      37.890  30.298  36.386  1.00  0.00    -0.203 F 
ATOM     44  F   UNL A   1      40.014  35.268  37.154  1.00  0.00    -0.200 F 
ATOM     45  C   UNL A   1      38.550  33.547  37.847  1.00  0.00     0.200 A 
ATOM     46  F   UNL A   1      37.139  31.780  38.523  1.00  0.00    -0.200 F 
ATOM     47  F   UNL A   1      38.246  34.234  38.955  1.00  0.00    -0.200 F 
ENDBRANCH  23  37
BRANCH  24  48
ATOM     48  C   UNL A   1      42.536  26.597  27.833  1.00  0.00     0.064 A 
ATOM     49  C   UNL A   1      43.428  27.191  26.926  1.00  0.00     0.173 A 
ATOM     50  C   UNL A   1      42.137  25.277  27.569  1.00  0.00     0.173 A 
ATOM     51  F   UNL A   1      43.828  28.457  27.117  1.00  0.00    -0.203 F 
ATOM     52  C   UNL A   1      43.874  26.511  25.792  1.00  0.00     0.198 A 
ATOM     53  C   UNL A   1      42.601  24.590  26.446  1.00  0.00     0.198 A 
ATOM     54  F   UNL A   1      41.291  24.653  28.402  1.00  0.00    -0.203 F 
ATOM     55  F   UNL A   1      44.687  27.124  24.920  1.00  0.00    -0.200 F 
ATOM     56  C   UNL A   1      43.461  25.210  25.554  1.00  0.00     0.200 A 
ATOM     57  F   UNL A   1      42.209  23.327  26.226  1.00  0.00    -0.200 F 
ATOM     58  F   UNL A   1      43.887  24.557  24.463  1.00  0.00    -0.200 F 
ENDBRANCH  24  48
BRANCH  36  59
ATOM     59  C   UNL A   1      44.581  27.250  34.491  1.00  0.00     0.064 A 
ATOM     60  C   UNL A   1      45.817  27.874  34.701  1.00  0.00     0.173 A 
ATOM     61  C   UNL A   1      44.318  26.054  35.178  1.00  0.00     0.173 A 
ATOM     62  F   UNL A   1      46.118  29.012  34.057  1.00  0.00    -0.203 F 
ATOM     63  C   UNL A   1      46.750  27.327  35.576  1.00  0.00     0.198 A 
ATOM     64  C   UNL A   1      45.240  25.528  36.076  1.00  0.00     0.198 A 
ATOM     65  F   UNL A   1      43.144  25.425  35.015  1.00  0.00    -0.203 F 
ATOM     66  F   UNL A   1      47.933  27.932  35.753  1.00  0.00    -0.200 F 
ATOM     67  C   UNL A   1      46.455  26.166  36.276  1.00  0.00     0.200 A 
ATOM     68  F   UNL A   1      44.941  24.419  36.767  1.00  0.00    -0.200 F 
ATOM     69  F   UNL A   1      47.339  25.664  37.148  1.00  0.00    -0.200 F 
ENDBRANCH  36  59
ENDBRANCH  10  11
ENDBRANCH   3   5
ENDBRANCH   2   3
ENDBRANCH   1   2
BRANCH   1  70
ATOM     70  C   UNL A   1      31.775  29.361  26.582  1.00  0.00     0.274 C 
BRANCH  70  71
ATOM     71  O   UNL A   1      32.308  28.269  25.814  1.00  0.00    -0.461 OA
BRANCH  71  72
ATOM     72  C   UNL A   1      31.567  27.115  25.750  1.00  0.00     0.328 C 
ATOM     73  O   UNL A   1      30.828  26.724  26.645  1.00  0.00    -0.250 OA
BRANCH  72  74
ATOM     74  C   UNL A   1      31.973  26.294  24.493  1.00  0.00     0.195 C 
ATOM     75  C   UNL A   1      33.310  26.705  23.892  1.00  0.00     0.037 C 
ATOM     76  N   UNL A   1      31.019  26.164  23.387  1.00  0.00    -0.329 N 
ATOM     77  C   UNL A   1      33.794  25.776  22.774  1.00  0.00     0.005 C 
ATOM     78  C   UNL A   1      31.408  25.080  22.488  1.00  0.00     0.120 C 
ATOM     79  C   UNL A   1      32.705  25.451  21.770  1.00  0.00     0.022 C 
BRANCH  76  80
ATOM     80  C   UNL A   1      30.488  27.348  22.900  1.00  0.00     0.227 C 
ATOM     81  O   UNL A   1      30.845  27.802  21.808  1.00  0.00    -0.275 OA
BRANCH  80  82
ATOM     82  C   UNL A   1      29.448  28.135  23.684  1.00  0.00     0.094 C 
ATOM     83  C   UNL A   1      28.004  27.639  23.742  1.00  0.00     0.030 C 
ATOM     84  C   UNL A   1      29.502  29.622  23.374  1.00  0.00     0.150 C 
ATOM     85  C   UNL A   1      27.077  28.560  22.955  1.00  0.00     0.138 C 
ATOM     86  S   UNL A   1      27.981  30.042  22.566  1.00  0.00     0.151 S 
ATOM     87  O   UNL A   1      28.208  30.078  21.138  1.00  0.00    -0.229 OA
ATOM     88  O   UNL A   1      27.371  31.152  23.272  1.00  0.00    -0.229 OA
ENDBRANCH  80  82
ENDBRANCH  76  80
ENDBRANCH  72  74
ENDBRANCH  71  72
ENDBRANCH  70  71
ENDBRANCH   1  70
TORSDOF 13
ENDMDL
MODEL 2
REMARK VINA RESULT:     -11.9      2.001      3.101
REMARK SMILES O=C(OCCOC(=O)[C@@H]1CCCCN1C(=O)[C@@H]1CCS(=O)(=O)C1)c1ccc(-c2c3nc(c(-c4c(F)c(F)c(F)c(F)c4F)c4ccc([nH]4)c(-c4c(F)c(F)c(F)c(F)c4F)c4nc(c(-c5c(F)c(F)c(F)c(F)c5F)c5ccc2[nH]5)C=C4)C=C3)cc1
REMARK SMILES IDX 4 1 3 2 2 3 1 4 24 5 25 6 86 7 26 8 85 9 27 10 28 11 29 12
REMARK SMILES IDX 79 13 30 14 84 15 78 16 80 17 31 18 83 19 77 20 76 21 32 23
REMARK SMILES IDX 64 24 44 25 63 26 45 27 48 28 62 29 81 30 46 31 47 32 61 34
REMARK SMILES IDX 82 35 49 36 33 37 34 38 42 39 35 40 36 41 40 42 43 43 37 44
REMARK SMILES IDX 38 45 41 46 39 47 65 48 66 49 74 50 67 51 68 52 72 53 75 54
REMARK SMILES IDX 69 55 70 56 73 57 71 58 50 59 51 60 59 61 52 62 53 63 57 64
REMARK SMILES IDX 60 65 54 66 55 67 58 68 56 69 5 70 6 71 7 72 8 73 9 74 10 75
REMARK SMILES IDX 14 76 11 77 13 78 12 79 15 80 16 81 17 82 18 83 23 84 19 85
REMARK SMILES IDX 20 86 21 87 22 88
REMARK H PARENT 80 22 48 33
REMARK Flexibility Score: inf
ROOT
ATOM      1  C   UNL A   1      31.850  30.387  25.761  1.00  0.00     0.275 C 
ENDROOT
BRANCH   1   2
ATOM      2  O   UNL A   1      32.282  30.807  27.065  1.00  0.00    -0.458 OA
BRANCH   2   3
ATOM      3  C   UNL A   1      33.272  31.665  27.413  1.00  0.00     0.338 C 
ATOM      4  O   UNL A   1      33.078  32.868  27.239  1.00  0.00    -0.246 OA
BRANCH   3   5
ATOM      5  C   UNL A   1      34.656  31.243  27.831  1.00  0.00     0.060 A 
ATOM      6  C   UNL A   1      35.770  32.069  28.051  1.00  0.00     0.016 A 
ATOM      7  C   UNL A   1      34.776  29.890  28.203  1.00  0.00     0.016 A 
ATOM      8  C   UNL A   1      36.897  31.617  28.760  1.00  0.00     0.010 A 
ATOM      9  C   UNL A   1      35.882  29.447  28.936  1.00  0.00     0.010 A 
ATOM     10  C   UNL A   1      36.945  30.316  29.253  1.00  0.00    -0.014 A 
BRANCH  10  11
ATOM     11  C   UNL A   1      38.154  29.776  29.933  1.00  0.00     0.031 A 
ATOM     12  C   UNL A   1      38.415  30.292  31.316  1.00  0.00     0.074 A 
ATOM     13  C   UNL A   1      39.034  28.934  29.349  1.00  0.00     0.049 A 
ATOM     14  N   UNL A   1      39.463  30.153  32.080  1.00  0.00    -0.248 NA
ATOM     15  C   UNL A   1      37.361  31.151  31.884  1.00  0.00     0.031 C 
ATOM     16  C   UNL A   1      38.927  28.371  28.004  1.00  0.00     0.029 A 
ATOM     17  N   UNL A   1      40.230  28.431  29.813  1.00  0.00    -0.354 N 
ATOM     18  C   UNL A   1      39.198  30.940  33.190  1.00  0.00     0.074 A 
ATOM     19  C   UNL A   1      37.985  31.674  32.922  1.00  0.00     0.031 C 
ATOM     20  C   UNL A   1      40.023  27.635  27.736  1.00  0.00     0.029 A 
ATOM     21  C   UNL A   1      40.909  27.657  28.897  1.00  0.00     0.049 A 
ATOM     22  H   UNL A   1      40.568  28.608  30.720  1.00  0.00     0.167 HD
ATOM     23  C   UNL A   1      39.847  30.983  34.373  1.00  0.00     0.037 A 
ATOM     24  C   UNL A   1      42.105  27.037  29.000  1.00  0.00     0.037 A 
ATOM     25  C   UNL A   1      41.013  30.204  34.656  1.00  0.00     0.049 A 
ATOM     26  C   UNL A   1      42.850  27.112  30.316  1.00  0.00     0.074 A 
ATOM     27  C   UNL A   1      41.726  30.109  35.833  1.00  0.00     0.029 A 
ATOM     28  N   UNL A   1      41.637  29.380  33.730  1.00  0.00    -0.354 N 
ATOM     29  N   UNL A   1      42.532  27.766  31.408  1.00  0.00    -0.248 NA
ATOM     30  C   UNL A   1      44.098  26.341  30.427  1.00  0.00     0.031 C 
ATOM     31  C   UNL A   1      42.812  29.258  35.605  1.00  0.00     0.029 A 
ATOM     32  C   UNL A   1      42.741  28.781  34.304  1.00  0.00     0.049 A 
ATOM     33  H   UNL A   1      41.337  29.242  32.802  1.00  0.00     0.167 HD
ATOM     34  C   UNL A   1      43.506  27.447  32.347  1.00  0.00     0.074 A 
ATOM     35  C   UNL A   1      44.432  26.545  31.694  1.00  0.00     0.031 C 
ATOM     36  C   UNL A   1      43.620  27.855  33.635  1.00  0.00     0.037 A 
BRANCH  23  37
ATOM     37  C   UNL A   1      39.260  31.890  35.413  1.00  0.00     0.064 A 
ATOM     38  C   UNL A   1      39.656  33.237  35.517  1.00  0.00     0.173 A 
ATOM     39  C   UNL A   1      38.405  31.379  36.397  1.00  0.00     0.173 A 
ATOM     40  F   UNL A   1      40.497  33.766  34.614  1.00  0.00    -0.203 F 
ATOM     41  C   UNL A   1      39.294  34.005  36.619  1.00  0.00     0.198 A 
ATOM     42  C   UNL A   1      38.005  32.167  37.472  1.00  0.00     0.198 A 
ATOM     43  F   UNL A   1      37.994  30.104  36.341  1.00  0.00    -0.203 F 
ATOM     44  F   UNL A   1      39.796  35.239  36.765  1.00  0.00    -0.200 F 
ATOM     45  C   UNL A   1      38.472  33.469  37.598  1.00  0.00     0.200 A 
ATOM     46  F   UNL A   1      37.204  31.654  38.415  1.00  0.00    -0.200 F 
ATOM     47  F   UNL A   1      38.152  34.196  38.675  1.00  0.00    -0.200 F 
ENDBRANCH  23  37
BRANCH  24  48
ATOM     48  C   UNL A   1      42.664  26.251  27.861  1.00  0.00     0.064 A 
ATOM     49  C   UNL A   1      43.574  26.825  26.958  1.00  0.00     0.173 A 
ATOM     50  C   UNL A   1      42.270  24.926  27.620  1.00  0.00     0.173 A 
ATOM     51  F   UNL A   1      43.970  28.094  27.127  1.00  0.00    -0.203 F 
ATOM     52  C   UNL A   1      44.041  26.118  25.848  1.00  0.00     0.198 A 
ATOM     53  C   UNL A   1      42.756  24.212  26.523  1.00  0.00     0.198 A 
ATOM     54  F   UNL A   1      41.409  24.321  28.452  1.00  0.00    -0.203 F 
ATOM     55  F   UNL A   1      44.871  26.711  24.979  1.00  0.00    -0.200 F 
ATOM     56  C   UNL A   1      43.633  24.811  25.633  1.00  0.00     0.200 A 
ATOM     57  F   UNL A   1      42.369  22.944  26.325  1.00  0.00    -0.200 F 
ATOM     58  F   UNL A   1      44.080  24.134  24.566  1.00  0.00    -0.200 F 
ENDBRANCH  24  48
BRANCH  36  59
ATOM     59  C   UNL A   1      44.741  27.292  34.459  1.00  0.00     0.064 A 
ATOM     60  C   UNL A   1      45.946  27.983  34.634  1.00  0.00     0.173 A 
ATOM     61  C   UNL A   1      44.541  26.113  35.195  1.00  0.00     0.173 A 
ATOM     62  F   UNL A   1      46.187  29.109  33.944  1.00  0.00    -0.203 F 
ATOM     63  C   UNL A   1      46.911  27.517  35.523  1.00  0.00     0.198 A 
ATOM     64  C   UNL A   1      45.493  25.668  36.105  1.00  0.00     0.198 A 
ATOM     65  F   UNL A   1      43.398  25.421  35.066  1.00  0.00    -0.203 F 
ATOM     66  F   UNL A   1      48.063  28.185  35.666  1.00  0.00    -0.200 F 
ATOM     67  C   UNL A   1      46.677  26.372  36.269  1.00  0.00     0.200 A 
ATOM     68  F   UNL A   1      45.254  24.574  36.840  1.00  0.00    -0.200 F 
ATOM     69  F   UNL A   1      47.590  25.948  37.152  1.00  0.00    -0.200 F 
ENDBRANCH  36  59
ENDBRANCH  10  11
ENDBRANCH   3   5
ENDBRANCH   2   3
ENDBRANCH   1   2
BRANCH   1  70
ATOM     70  C   UNL A   1      32.924  29.609  24.989  1.00  0.00     0.274 C 
BRANCH  70  71
ATOM     71  O   UNL A   1      32.653  28.197  24.985  1.00  0.00    -0.461 OA
BRANCH  71  72
ATOM     72  C   UNL A   1      32.186  27.643  23.819  1.00  0.00     0.328 C 
ATOM     73  O   UNL A   1      32.194  28.215  22.736  1.00  0.00    -0.250 OA
BRANCH  72  74
ATOM     74  C   UNL A   1      31.462  26.299  24.124  1.00  0.00     0.195 C 
ATOM     75  C   UNL A   1      31.457  25.921  25.599  1.00  0.00     0.037 C 
ATOM     76  N   UNL A   1      31.836  25.100  23.367  1.00  0.00    -0.329 N 
ATOM     77  C   UNL A   1      30.586  24.702  25.918  1.00  0.00     0.005 C 
ATOM     78  C   UNL A   1      30.825  24.056  23.512  1.00  0.00     0.120 C 
ATOM     79  C   UNL A   1      30.813  23.552  24.955  1.00  0.00     0.022 C 
BRANCH  76  80
ATOM     80  C   UNL A   1      33.188  24.795  23.341  1.00  0.00     0.227 C 
ATOM     81  O   UNL A   1      33.914  25.210  22.431  1.00  0.00    -0.275 OA
BRANCH  80  82
ATOM     82  C   UNL A   1      33.832  23.944  24.425  1.00  0.00     0.094 C 
ATOM     83  C   UNL A   1      34.859  24.566  25.371  1.00  0.00     0.030 C 
ATOM     84  C   UNL A   1      34.323  22.609  23.888  1.00  0.00     0.150 C 
ATOM     85  C   UNL A   1      36.256  24.017  25.098  1.00  0.00     0.138 C 
ATOM     86  S   UNL A   1      36.091  22.612  24.020  1.00  0.00     0.151 S 
ATOM     87  O   UNL A   1      36.653  22.955  22.732  1.00  0.00    -0.229 OA
ATOM     88  O   UNL A   1      36.505  21.426  24.743  1.00  0.00    -0.229 OA
ENDBRANCH  80  82
ENDBRANCH  76  80
ENDBRANCH  72  74
ENDBRANCH  71  72
ENDBRANCH  70  71
ENDBRANCH   1  70
TORSDOF 13
ENDMDL
MODEL 3
REMARK VINA RESULT:     -11.8      0.654      1.317
REMARK SMILES O=C(OCCOC(=O)[C@@H]1CCCCN1C(=O)[C@@H]1CCS(=O)(=O)C1)c1ccc(-c2c3nc(c(-c4c(F)c(F)c(F)c(F)c4F)c4ccc([nH]4)c(-c4c(F)c(F)c(F)c(F)c4F)c4nc(c(-c5c(F)c(F)c(F)c(F)c5F)c5ccc2[nH]5)C=C4)C=C3)cc1
REMARK SMILES IDX 4 1 3 2 2 3 1 4 24 5 25 6 86 7 26 8 85 9 27 10 28 11 29 12
REMARK SMILES IDX 79 13 30 14 84 15 78 16 80 17 31 18 83 19 77 20 76 21 32 23
REMARK SMILES IDX 64 24 44 25 63 26 45 27 48 28 62 29 81 30 46 31 47 32 61 34
REMARK SMILES IDX 82 35 49 36 33 37 34 38 42 39 35 40 36 41 40 42 43 43 37 44
REMARK SMILES IDX 38 45 41 46 39 47 65 48 66 49 74 50 67 51 68 52 72 53 75 54
REMARK SMILES IDX 69 55 70 56 73 57 71 58 50 59 51 60 59 61 52 62 53 63 57 64
REMARK SMILES IDX 60 65 54 66 55 67 58 68 56 69 5 70 6 71 7 72 8 73 9 74 10 75
REMARK SMILES IDX 14 76 11 77 13 78 12 79 15 80 16 81 17 82 18 83 23 84 19 85
REMARK SMILES IDX 20 86 21 87 22 88
REMARK H PARENT 80 22 48 33
REMARK Flexibility Score: inf
ROOT
ATOM      1  C   UNL A   1      32.599  30.466  26.217  1.00  0.00     0.275 C 
ENDROOT
BRANCH   1   2
ATOM      2  O   UNL A   1      32.734  31.438  27.265  1.00  0.00    -0.458 OA
BRANCH   2   3
ATOM      3  C   UNL A   1      33.813  32.175  27.626  1.00  0.00     0.338 C 
ATOM      4  O   UNL A   1      33.738  33.399  27.511  1.00  0.00    -0.246 OA
BRANCH   3   5
ATOM      5  C   UNL A   1      35.155  31.598  27.991  1.00  0.00     0.060 A 
ATOM      6  C   UNL A   1      36.377  32.280  28.099  1.00  0.00     0.016 A 
ATOM      7  C   UNL A   1      35.125  30.261  28.434  1.00  0.00     0.016 A 
ATOM      8  C   UNL A   1      37.480  31.721  28.769  1.00  0.00     0.010 A 
ATOM      9  C   UNL A   1      36.209  29.714  29.129  1.00  0.00     0.010 A 
ATOM     10  C   UNL A   1      37.392  30.452  29.334  1.00  0.00    -0.014 A 
BRANCH  10  11
ATOM     11  C   UNL A   1      38.562  29.793  29.976  1.00  0.00     0.031 A 
ATOM     12  C   UNL A   1      38.886  30.242  31.370  1.00  0.00     0.074 A 
ATOM     13  C   UNL A   1      39.361  28.901  29.352  1.00  0.00     0.049 A 
ATOM     14  N   UNL A   1      39.930  29.994  32.110  1.00  0.00    -0.248 NA
ATOM     15  C   UNL A   1      37.915  31.167  31.982  1.00  0.00     0.031 C 
ATOM     16  C   UNL A   1      39.187  28.391  27.993  1.00  0.00     0.029 A 
ATOM     17  N   UNL A   1      40.518  28.287  29.779  1.00  0.00    -0.354 N 
ATOM     18  C   UNL A   1      39.748  30.764  33.248  1.00  0.00     0.074 A 
ATOM     19  C   UNL A   1      38.595  31.603  33.024  1.00  0.00     0.031 C 
ATOM     20  C   UNL A   1      40.215  27.576  27.683  1.00  0.00     0.029 A 
ATOM     21  C   UNL A   1      41.118  27.489  28.829  1.00  0.00     0.049 A 
ATOM     22  H   UNL A   1      40.883  28.407  30.685  1.00  0.00     0.167 HD
ATOM     23  C   UNL A   1      40.416  30.716  34.421  1.00  0.00     0.037 A 
ATOM     24  C   UNL A   1      42.260  26.771  28.891  1.00  0.00     0.037 A 
ATOM     25  C   UNL A   1      41.518  29.836  34.659  1.00  0.00     0.049 A 
ATOM     26  C   UNL A   1      43.028  26.743  30.196  1.00  0.00     0.074 A 
ATOM     27  C   UNL A   1      42.238  29.646  35.820  1.00  0.00     0.029 A 
ATOM     28  N   UNL A   1      42.057  28.993  33.698  1.00  0.00    -0.354 N 
ATOM     29  N   UNL A   1      42.782  27.385  31.312  1.00  0.00    -0.248 NA
ATOM     30  C   UNL A   1      44.210  25.869  30.262  1.00  0.00     0.031 C 
ATOM     31  C   UNL A   1      43.246  28.716  35.548  1.00  0.00     0.029 A 
ATOM     32  C   UNL A   1      43.117  28.288  34.233  1.00  0.00     0.049 A 
ATOM     33  H   UNL A   1      41.733  28.910  32.772  1.00  0.00     0.167 HD
ATOM     34  C   UNL A   1      43.740  26.959  32.224  1.00  0.00     0.074 A 
ATOM     35  C   UNL A   1      44.578  26.005  31.529  1.00  0.00     0.031 C 
ATOM     36  C   UNL A   1      43.907  27.314  33.522  1.00  0.00     0.037 A 
BRANCH  23  37
ATOM     37  C   UNL A   1      39.921  31.636  35.498  1.00  0.00     0.064 A 
ATOM     38  C   UNL A   1      38.822  31.290  36.305  1.00  0.00     0.173 A 
ATOM     39  C   UNL A   1      40.456  32.922  35.631  1.00  0.00     0.173 A 
ATOM     40  F   UNL A   1      38.256  30.078  36.195  1.00  0.00    -0.203 F 
ATOM     41  C   UNL A   1      38.220  32.233  37.133  1.00  0.00     0.198 A 
ATOM     42  C   UNL A   1      39.880  33.847  36.497  1.00  0.00     0.198 A 
ATOM     43  F   UNL A   1      41.508  33.300  34.887  1.00  0.00    -0.203 F 
ATOM     44  F   UNL A   1      37.092  31.922  37.788  1.00  0.00    -0.200 F 
ATOM     45  C   UNL A   1      38.747  33.511  37.226  1.00  0.00     0.200 A 
ATOM     46  F   UNL A   1      40.394  35.080  36.595  1.00  0.00    -0.200 F 
ATOM     47  F   UNL A   1      38.148  34.428  37.996  1.00  0.00    -0.200 F 
ENDBRANCH  23  37
BRANCH  24  48
ATOM     48  C   UNL A   1      42.735  25.978  27.720  1.00  0.00     0.064 A 
ATOM     49  C   UNL A   1      43.686  26.497  26.827  1.00  0.00     0.173 A 
ATOM     50  C   UNL A   1      42.219  24.703  27.437  1.00  0.00     0.173 A 
ATOM     51  F   UNL A   1      44.199  27.719  27.035  1.00  0.00    -0.203 F 
ATOM     52  C   UNL A   1      44.078  25.791  25.688  1.00  0.00     0.198 A 
ATOM     53  C   UNL A   1      42.628  23.988  26.310  1.00  0.00     0.198 A 
ATOM     54  F   UNL A   1      41.312  24.150  28.257  1.00  0.00    -0.203 F 
ATOM     55  F   UNL A   1      44.951  26.337  24.830  1.00  0.00    -0.200 F 
ATOM     56  C   UNL A   1      43.550  24.536  25.432  1.00  0.00     0.200 A 
ATOM     57  F   UNL A   1      42.124  22.769  26.073  1.00  0.00    -0.200 F 
ATOM     58  F   UNL A   1      43.923  23.859  24.338  1.00  0.00    -0.200 F 
ENDBRANCH  24  48
BRANCH  36  59
ATOM     59  C   UNL A   1      44.990  26.636  34.309  1.00  0.00     0.064 A 
ATOM     60  C   UNL A   1      46.255  27.213  34.469  1.00  0.00     0.173 A 
ATOM     61  C   UNL A   1      44.700  25.464  35.026  1.00  0.00     0.173 A 
ATOM     62  F   UNL A   1      46.582  28.327  33.796  1.00  0.00    -0.203 F 
ATOM     63  C   UNL A   1      47.193  26.643  35.326  1.00  0.00     0.198 A 
ATOM     64  C   UNL A   1      45.628  24.917  35.905  1.00  0.00     0.198 A 
ATOM     65  F   UNL A   1      43.497  24.881  34.910  1.00  0.00    -0.203 F 
ATOM     66  F   UNL A   1      48.404  27.202  35.456  1.00  0.00    -0.200 F 
ATOM     67  C   UNL A   1      46.873  25.507  36.055  1.00  0.00     0.200 A 
ATOM     68  F   UNL A   1      45.307  23.832  36.624  1.00  0.00    -0.200 F 
ATOM     69  F   UNL A   1      47.763  24.984  36.909  1.00  0.00    -0.200 F 
ENDBRANCH  36  59
ENDBRANCH  10  11
ENDBRANCH   3   5
ENDBRANCH   2   3
ENDBRANCH   1   2
BRANCH   1  70
ATOM     70  C   UNL A   1      31.907  29.175  26.675  1.00  0.00     0.274 C 
BRANCH  70  71
ATOM     71  O   UNL A   1      32.349  28.039  25.911  1.00  0.00    -0.461 OA
BRANCH  71  72
ATOM     72  C   UNL A   1      31.540  26.930  25.896  1.00  0.00     0.328 C 
ATOM     73  O   UNL A   1      30.757  26.639  26.792  1.00  0.00    -0.250 OA
BRANCH  72  74
ATOM     74  C   UNL A   1      31.928  26.009  24.703  1.00  0.00     0.195 C 
ATOM     75  C   UNL A   1      33.311  26.288  24.131  1.00  0.00     0.037 C 
ATOM     76  N   UNL A   1      31.004  25.883  23.571  1.00  0.00    -0.329 N 
ATOM     77  C   UNL A   1      33.762  25.263  23.086  1.00  0.00     0.005 C 
ATOM     78  C   UNL A   1      31.342  24.723  22.749  1.00  0.00     0.120 C 
ATOM     79  C   UNL A   1      32.687  24.958  22.061  1.00  0.00     0.022 C 
BRANCH  76  80
ATOM     80  C   UNL A   1      30.578  27.071  22.999  1.00  0.00     0.227 C 
ATOM     81  O   UNL A   1      30.987  27.422  21.887  1.00  0.00    -0.275 OA
BRANCH  80  82
ATOM     82  C   UNL A   1      29.593  27.988  23.710  1.00  0.00     0.094 C 
ATOM     83  C   UNL A   1      28.092  27.798  23.502  1.00  0.00     0.030 C 
ATOM     84  C   UNL A   1      29.982  29.452  23.583  1.00  0.00     0.150 C 
ATOM     85  C   UNL A   1      27.500  28.954  22.700  1.00  0.00     0.138 C 
ATOM     86  S   UNL A   1      28.723  30.243  22.618  1.00  0.00     0.151 S 
ATOM     87  O   UNL A   1      29.183  30.351  21.251  1.00  0.00    -0.229 OA
ATOM     88  O   UNL A   1      28.229  31.393  23.351  1.00  0.00    -0.229 OA
ENDBRANCH  80  82
ENDBRANCH  76  80
ENDBRANCH  72  74
ENDBRANCH  71  72
ENDBRANCH  70  71
ENDBRANCH   1  70
TORSDOF 13
ENDMDL
