MODEL 1
REMARK VINA RESULT:     -11.4      0.000      0.000
REMARK SMILES CC(C)[NH2+][C@@]1(C(=O)OCCOC(=O)c2ccc(-c3c4nc(c(-c5c(F)c(F)c(F)c(F)c5F)c5ccc([nH]5)c(-c5c(F)c(F)c(F)c(F)c5F)c5nc(c(-c6c(F)c(F)c(F)c(F)c6F)c6ccc3[nH]6)C=C5)C=C4)cc2)CCC[C@H](SC2CCCCC2)C1
REMARK SMILES IDX 9 1 8 2 6 3 7 4 5 5 77 6 88 7 78 8 80 9 79 10 4 11 2 14 1 15
REMARK SMILES IDX 3 16 81 17 82 18 83 19 87 20 84 21 86 22 85 23 10 24 11 25
REMARK SMILES IDX 12 26 13 27 14 28 15 29 76 30 16 31 75 32 17 33 18 34 19 35
REMARK SMILES IDX 69 36 20 37 74 38 68 39 70 40 21 41 73 42 67 43 66 44 22 46
REMARK SMILES IDX 54 47 34 48 53 49 35 50 38 51 52 52 71 53 36 54 37 55 51 57
REMARK SMILES IDX 72 58 39 59 23 60 24 61 32 62 25 63 26 64 30 65 33 66 27 67
REMARK SMILES IDX 28 68 31 69 29 70 55 71 56 72 64 73 57 74 58 75 62 76 65 77
REMARK SMILES IDX 59 78 60 79 63 80 61 81 40 82 41 83 49 84 42 85 43 86 47 87
REMARK SMILES IDX 50 88 44 89 45 90 48 91 46 92
REMARK H PARENT 4 12 4 13 70 45 38 56
REMARK Flexibility Score: inf
ROOT
ATOM      1  C   UNL A   1      31.784  28.440  27.275  1.00  0.00     0.274 C 
ENDROOT
BRANCH   1   2
ATOM      2  O   UNL A   1      32.323  27.363  26.478  1.00  0.00    -0.457 OA
BRANCH   2   3
ATOM      3  C   UNL A   1      31.473  26.675  25.676  1.00  0.00     0.368 C 
ATOM      4  O   UNL A   1      30.355  26.324  26.038  1.00  0.00    -0.245 OA
BRANCH   3   5
ATOM      5  C   UNL A   1      32.119  26.358  24.266  1.00  0.00     0.195 C 
ATOM      6  C   UNL A   1      33.229  27.377  23.945  1.00  0.00     0.081 C 
ATOM      7  C   UNL A   1      31.031  26.286  23.130  1.00  0.00     0.095 C 
ATOM      8  C   UNL A   1      32.737  28.677  23.320  1.00  0.00     0.008 C 
ATOM      9  C   UNL A   1      30.665  27.587  22.358  1.00  0.00     0.053 C 
ATOM     10  C   UNL A   1      31.935  28.374  22.063  1.00  0.00     0.015 C 
BRANCH   5  11
ATOM     11  N   UNL A   1      32.694  24.962  24.321  1.00  0.00    -0.330 N 
ATOM     12  H   UNL A   1      32.340  24.523  25.170  1.00  0.00     0.347 HD
ATOM     13  H   UNL A   1      32.402  24.536  23.441  1.00  0.00     0.347 HD
BRANCH  11  14
ATOM     14  C   UNL A   1      34.158  24.807  24.329  1.00  0.00     0.176 C 
ATOM     15  C   UNL A   1      34.570  24.425  25.756  1.00  0.00     0.075 C 
ATOM     16  C   UNL A   1      34.620  23.697  23.377  1.00  0.00     0.075 C 
ENDBRANCH  11  14
ENDBRANCH   5  11
BRANCH   9  17
ATOM     17  S   UNL A   1      29.281  28.435  23.224  1.00  0.00    -0.155 SA
BRANCH  17  18
ATOM     18  C   UNL A   1      29.142  30.129  22.563  1.00  0.00     0.047 C 
ATOM     19  C   UNL A   1      28.091  30.286  21.459  1.00  0.00     0.014 C 
ATOM     20  C   UNL A   1      29.074  31.214  23.636  1.00  0.00     0.014 C 
ATOM     21  C   UNL A   1      28.111  31.692  20.861  1.00  0.00     0.001 C 
ATOM     22  C   UNL A   1      29.127  32.599  22.987  1.00  0.00     0.001 C 
ATOM     23  C   UNL A   1      28.029  32.767  21.941  1.00  0.00     0.000 C 
ENDBRANCH  17  18
ENDBRANCH   9  17
ENDBRANCH   3   5
ENDBRANCH   2   3
ENDBRANCH   1   2
BRANCH   1  24
ATOM     24  C   UNL A   1      31.812  29.777  26.526  1.00  0.00     0.275 C 
BRANCH  24  25
ATOM     25  O   UNL A   1      33.168  30.232  26.402  1.00  0.00    -0.458 OA
BRANCH  25  26
ATOM     26  C   UNL A   1      33.513  31.312  27.135  1.00  0.00     0.338 C 
ATOM     27  O   UNL A   1      32.911  32.359  27.284  1.00  0.00    -0.246 OA
BRANCH  26  28
ATOM     28  C   UNL A   1      34.768  30.997  27.822  1.00  0.00     0.060 A 
ATOM     29  C   UNL A   1      34.940  29.710  28.332  1.00  0.00     0.016 A 
ATOM     30  C   UNL A   1      35.746  31.975  27.997  1.00  0.00     0.016 A 
ATOM     31  C   UNL A   1      36.103  29.385  29.018  1.00  0.00     0.010 A 
ATOM     32  C   UNL A   1      36.919  31.647  28.681  1.00  0.00     0.010 A 
ATOM     33  C   UNL A   1      37.098  30.352  29.199  1.00  0.00    -0.014 A 
BRANCH  33  34
ATOM     34  C   UNL A   1      38.285  30.023  30.015  1.00  0.00     0.031 A 
ATOM     35  C   UNL A   1      39.331  29.117  29.442  1.00  0.00     0.074 A 
ATOM     36  C   UNL A   1      38.441  30.569  31.233  1.00  0.00     0.049 A 
ATOM     37  N   UNL A   1      40.403  28.626  30.007  1.00  0.00    -0.248 NA
ATOM     38  C   UNL A   1      39.147  28.716  28.039  1.00  0.00     0.031 C 
ATOM     39  C   UNL A   1      37.525  31.526  31.853  1.00  0.00     0.029 A 
ATOM     40  N   UNL A   1      39.430  30.395  32.166  1.00  0.00    -0.354 N 
ATOM     41  C   UNL A   1      41.010  27.843  29.037  1.00  0.00     0.074 A 
ATOM     42  C   UNL A   1      40.187  27.918  27.849  1.00  0.00     0.031 C 
ATOM     43  C   UNL A   1      37.995  31.853  33.069  1.00  0.00     0.029 A 
ATOM     44  C   UNL A   1      39.218  31.094  33.326  1.00  0.00     0.049 A 
ATOM     45  H   UNL A   1      40.218  29.823  32.017  1.00  0.00     0.167 HD
ATOM     46  C   UNL A   1      42.154  27.124  29.135  1.00  0.00     0.037 A 
ATOM     47  C   UNL A   1      39.919  31.095  34.475  1.00  0.00     0.037 A 
ATOM     48  C   UNL A   1      42.965  27.058  30.320  1.00  0.00     0.049 A 
ATOM     49  C   UNL A   1      41.149  30.233  34.582  1.00  0.00     0.074 A 
ATOM     50  C   UNL A   1      44.122  26.330  30.538  1.00  0.00     0.029 A 
ATOM     51  N   UNL A   1      42.703  27.754  31.491  1.00  0.00    -0.354 N 
ATOM     52  N   UNL A   1      41.697  29.459  33.678  1.00  0.00    -0.248 NA
ATOM     53  C   UNL A   1      41.851  30.239  35.873  1.00  0.00     0.031 C 
ATOM     54  C   UNL A   1      44.542  26.563  31.852  1.00  0.00     0.029 A 
ATOM     55  C   UNL A   1      43.670  27.465  32.440  1.00  0.00     0.049 A 
ATOM     56  H   UNL A   1      41.941  28.362  31.628  1.00  0.00     0.167 HD
ATOM     57  C   UNL A   1      42.818  28.902  34.279  1.00  0.00     0.074 A 
ATOM     58  C   UNL A   1      42.879  29.439  35.624  1.00  0.00     0.031 C 
ATOM     59  C   UNL A   1      43.714  28.023  33.767  1.00  0.00     0.037 A 
BRANCH  46  60
ATOM     60  C   UNL A   1      42.557  26.320  27.938  1.00  0.00     0.064 A 
ATOM     61  C   UNL A   1      42.058  25.028  27.715  1.00  0.00     0.173 A 
ATOM     62  C   UNL A   1      43.455  26.851  27.000  1.00  0.00     0.173 A 
ATOM     63  F   UNL A   1      41.214  24.469  28.595  1.00  0.00    -0.203 F 
ATOM     64  C   UNL A   1      42.463  24.287  26.608  1.00  0.00     0.198 A 
ATOM     65  C   UNL A   1      43.840  26.116  25.882  1.00  0.00     0.198 A 
ATOM     66  F   UNL A   1      43.960  28.081  27.170  1.00  0.00    -0.203 F 
ATOM     67  F   UNL A   1      42.010  23.037  26.438  1.00  0.00    -0.200 F 
ATOM     68  C   UNL A   1      43.349  24.833  25.691  1.00  0.00     0.200 A 
ATOM     69  F   UNL A   1      44.691  26.647  24.993  1.00  0.00    -0.200 F 
ATOM     70  F   UNL A   1      43.739  24.119  24.625  1.00  0.00    -0.200 F 
ENDBRANCH  46  60
BRANCH  47  71
ATOM     71  C   UNL A   1      39.463  31.919  35.625  1.00  0.00     0.064 A 
ATOM     72  C   UNL A   1      38.525  31.426  36.541  1.00  0.00     0.173 A 
ATOM     73  C   UNL A   1      39.944  33.222  35.820  1.00  0.00     0.173 A 
ATOM     74  F   UNL A   1      38.014  30.196  36.380  1.00  0.00    -0.203 F 
ATOM     75  C   UNL A   1      38.077  32.209  37.603  1.00  0.00     0.198 A 
ATOM     76  C   UNL A   1      39.516  33.995  36.897  1.00  0.00     0.198 A 
ATOM     77  F   UNL A   1      40.838  33.744  34.967  1.00  0.00    -0.203 F 
ATOM     78  F   UNL A   1      37.147  31.729  38.441  1.00  0.00    -0.200 F 
ATOM     79  C   UNL A   1      38.577  33.491  37.784  1.00  0.00     0.200 A 
ATOM     80  F   UNL A   1      40.006  35.229  37.071  1.00  0.00    -0.200 F 
ATOM     81  F   UNL A   1      38.146  34.242  38.805  1.00  0.00    -0.200 F 
ENDBRANCH  47  71
BRANCH  59  82
ATOM     82  C   UNL A   1      44.855  27.618  34.652  1.00  0.00     0.064 A 
ATOM     83  C   UNL A   1      46.045  28.357  34.698  1.00  0.00     0.173 A 
ATOM     84  C   UNL A   1      44.737  26.502  35.492  1.00  0.00     0.173 A 
ATOM     85  F   UNL A   1      46.208  29.425  33.902  1.00  0.00    -0.203 F 
ATOM     86  C   UNL A   1      47.087  27.979  35.539  1.00  0.00     0.198 A 
ATOM     87  C   UNL A   1      45.773  26.139  36.349  1.00  0.00     0.198 A 
ATOM     88  F   UNL A   1      43.615  25.765  35.487  1.00  0.00    -0.203 F 
ATOM     89  F   UNL A   1      48.233  28.674  35.539  1.00  0.00    -0.200 F 
ATOM     90  C   UNL A   1      46.948  26.875  36.367  1.00  0.00     0.200 A 
ATOM     91  F   UNL A   1      45.633  25.079  37.155  1.00  0.00    -0.200 F 
ATOM     92  F   UNL A   1      47.951  26.514  37.179  1.00  0.00    -0.200 F 
ENDBRANCH  59  82
ENDBRANCH  33  34
ENDBRANCH  26  28
ENDBRANCH  25  26
ENDBRANCH  24  25
ENDBRANCH   1  24
TORSDOF 15
ENDMDL
MODEL 2
REMARK VINA RESULT:     -11.4      1.819      4.017
REMARK SMILES CC(C)[NH2+][C@@]1(C(=O)OCCOC(=O)c2ccc(-c3c4nc(c(-c5c(F)c(F)c(F)c(F)c5F)c5ccc([nH]5)c(-c5c(F)c(F)c(F)c(F)c5F)c5nc(c(-c6c(F)c(F)c(F)c(F)c6F)c6ccc3[nH]6)C=C5)C=C4)cc2)CCC[C@H](SC2CCCCC2)C1
REMARK SMILES IDX 9 1 8 2 6 3 7 4 5 5 77 6 88 7 78 8 80 9 79 10 4 11 2 14 1 15
REMARK SMILES IDX 3 16 81 17 82 18 83 19 87 20 84 21 86 22 85 23 10 24 11 25
REMARK SMILES IDX 12 26 13 27 14 28 15 29 76 30 16 31 75 32 17 33 18 34 19 35
REMARK SMILES IDX 69 36 20 37 74 38 68 39 70 40 21 41 73 42 67 43 66 44 22 46
REMARK SMILES IDX 54 47 34 48 53 49 35 50 38 51 52 52 71 53 36 54 37 55 51 57
REMARK SMILES IDX 72 58 39 59 23 60 24 61 32 62 25 63 26 64 30 65 33 66 27 67
REMARK SMILES IDX 28 68 31 69 29 70 55 71 56 72 64 73 57 74 58 75 62 76 65 77
REMARK SMILES IDX 59 78 60 79 63 80 61 81 40 82 41 83 49 84 42 85 43 86 47 87
REMARK SMILES IDX 50 88 44 89 45 90 48 91 46 92
REMARK H PARENT 4 12 4 13 70 45 38 56
REMARK Flexibility Score: inf
ROOT
ATOM      1  C   UNL A   1      31.929  31.224  26.702  1.00  0.00     0.274 C 
ENDROOT
BRANCH   1   2
ATOM      2  O   UNL A   1      31.266  30.783  25.497  1.00  0.00    -0.457 OA
BRANCH   2   3
ATOM      3  C   UNL A   1      31.280  29.458  25.209  1.00  0.00     0.368 C 
ATOM      4  O   UNL A   1      31.763  28.619  25.962  1.00  0.00    -0.245 OA
BRANCH   3   5
ATOM      5  C   UNL A   1      30.647  29.156  23.790  1.00  0.00     0.195 C 
ATOM      6  C   UNL A   1      29.676  27.963  23.881  1.00  0.00     0.081 C 
ATOM      7  C   UNL A   1      31.754  28.941  22.692  1.00  0.00     0.095 C 
ATOM      8  C   UNL A   1      30.340  26.595  23.769  1.00  0.00     0.008 C 
ATOM      9  C   UNL A   1      32.297  27.503  22.447  1.00  0.00     0.053 C 
ATOM     10  C   UNL A   1      31.139  26.513  22.477  1.00  0.00     0.015 C 
BRANCH   5  11
ATOM     11  N   UNL A   1      29.908  30.394  23.337  1.00  0.00    -0.330 N 
ATOM     12  H   UNL A   1      29.909  31.049  24.119  1.00  0.00     0.347 HD
ATOM     13  H   UNL A   1      30.411  30.694  22.502  1.00  0.00     0.347 HD
BRANCH  11  14
ATOM     14  C   UNL A   1      28.513  30.253  22.889  1.00  0.00     0.176 C 
ATOM     15  C   UNL A   1      27.695  31.345  23.589  1.00  0.00     0.075 C 
ATOM     16  C   UNL A   1      28.378  30.444  21.374  1.00  0.00     0.075 C 
ENDBRANCH  11  14
ENDBRANCH   5  11
BRANCH   9  17
ATOM     17  S   UNL A   1      33.743  27.207  23.544  1.00  0.00    -0.155 SA
BRANCH  17  18
ATOM     18  C   UNL A   1      33.679  25.479  24.125  1.00  0.00     0.047 C 
ATOM     19  C   UNL A   1      34.219  24.459  23.116  1.00  0.00     0.014 C 
ATOM     20  C   UNL A   1      34.205  25.278  25.544  1.00  0.00     0.014 C 
ATOM     21  C   UNL A   1      34.022  23.026  23.607  1.00  0.00     0.001 C 
ATOM     22  C   UNL A   1      33.956  23.837  25.998  1.00  0.00     0.001 C 
ATOM     23  C   UNL A   1      34.562  22.833  25.022  1.00  0.00     0.000 C 
ENDBRANCH  17  18
ENDBRANCH   9  17
ENDBRANCH   3   5
ENDBRANCH   2   3
ENDBRANCH   1   2
BRANCH   1  24
ATOM     24  C   UNL A   1      31.726  32.722  26.953  1.00  0.00     0.275 C 
BRANCH  24  25
ATOM     25  O   UNL A   1      33.001  33.358  27.131  1.00  0.00    -0.458 OA
BRANCH  25  26
ATOM     26  C   UNL A   1      33.124  34.178  28.196  1.00  0.00     0.338 C 
ATOM     27  O   UNL A   1      32.430  35.125  28.518  1.00  0.00    -0.246 OA
BRANCH  26  28
ATOM     28  C   UNL A   1      34.250  33.693  28.998  1.00  0.00     0.060 A 
ATOM     29  C   UNL A   1      35.510  34.252  28.782  1.00  0.00     0.016 A 
ATOM     30  C   UNL A   1      34.070  32.668  29.926  1.00  0.00     0.016 A 
ATOM     31  C   UNL A   1      36.606  33.793  29.500  1.00  0.00     0.010 A 
ATOM     32  C   UNL A   1      35.171  32.211  30.654  1.00  0.00     0.010 A 
ATOM     33  C   UNL A   1      36.444  32.769  30.438  1.00  0.00    -0.014 A 
BRANCH  33  34
ATOM     34  C   UNL A   1      37.633  32.223  31.124  1.00  0.00     0.031 A 
ATOM     35  C   UNL A   1      38.456  31.180  30.433  1.00  0.00     0.074 A 
ATOM     36  C   UNL A   1      37.993  32.694  32.331  1.00  0.00     0.049 A 
ATOM     37  N   UNL A   1      39.480  30.501  30.879  1.00  0.00    -0.248 NA
ATOM     38  C   UNL A   1      38.075  30.863  29.048  1.00  0.00     0.031 C 
ATOM     39  C   UNL A   1      37.312  33.765  33.057  1.00  0.00     0.029 A 
ATOM     40  N   UNL A   1      39.025  32.329  33.157  1.00  0.00    -0.354 N 
ATOM     41  C   UNL A   1      39.854  29.664  29.838  1.00  0.00     0.074 A 
ATOM     42  C   UNL A   1      38.945  29.913  28.741  1.00  0.00     0.031 C 
ATOM     43  C   UNL A   1      37.943  33.968  34.226  1.00  0.00     0.029 A 
ATOM     44  C   UNL A   1      39.043  33.012  34.346  1.00  0.00     0.049 A 
ATOM     45  H   UNL A   1      39.689  31.642  32.919  1.00  0.00     0.167 HD
ATOM     46  C   UNL A   1      40.867  28.766  29.809  1.00  0.00     0.037 A 
ATOM     47  C   UNL A   1      39.841  32.859  35.419  1.00  0.00     0.037 A 
ATOM     48  C   UNL A   1      41.766  28.527  30.905  1.00  0.00     0.049 A 
ATOM     49  C   UNL A   1      40.916  31.805  35.385  1.00  0.00     0.074 A 
ATOM     50  C   UNL A   1      42.802  27.614  30.993  1.00  0.00     0.029 A 
ATOM     51  N   UNL A   1      41.735  29.215  32.109  1.00  0.00    -0.354 N 
ATOM     52  N   UNL A   1      41.240  30.984  34.416  1.00  0.00    -0.248 NA
ATOM     53  C   UNL A   1      41.730  31.652  36.599  1.00  0.00     0.031 C 
ATOM     54  C   UNL A   1      43.379  27.729  32.262  1.00  0.00     0.029 A 
ATOM     55  C   UNL A   1      42.728  28.740  32.951  1.00  0.00     0.049 A 
ATOM     56  H   UNL A   1      41.102  29.934  32.332  1.00  0.00     0.167 HD
ATOM     57  C   UNL A   1      42.305  30.231  34.892  1.00  0.00     0.074 A 
ATOM     58  C   UNL A   1      42.582  30.704  36.234  1.00  0.00     0.031 C 
ATOM     59  C   UNL A   1      42.990  29.237  34.277  1.00  0.00     0.037 A 
BRANCH  46  60
ATOM     60  C   UNL A   1      41.016  27.948  28.562  1.00  0.00     0.064 A 
ATOM     61  C   UNL A   1      40.324  26.741  28.385  1.00  0.00     0.173 A 
ATOM     62  C   UNL A   1      41.862  28.381  27.530  1.00  0.00     0.173 A 
ATOM     63  F   UNL A   1      39.520  26.276  29.352  1.00  0.00    -0.203 F 
ATOM     64  C   UNL A   1      40.493  25.985  27.228  1.00  0.00     0.198 A 
ATOM     65  C   UNL A   1      42.011  27.633  26.366  1.00  0.00     0.198 A 
ATOM     66  F   UNL A   1      42.546  29.528  27.653  1.00  0.00    -0.203 F 
ATOM     67  F   UNL A   1      39.858  24.812  27.098  1.00  0.00    -0.200 F 
ATOM     68  C   UNL A   1      41.331  26.433  26.219  1.00  0.00     0.200 A 
ATOM     69  F   UNL A   1      42.817  28.071  25.388  1.00  0.00    -0.200 F 
ATOM     70  F   UNL A   1      41.494  25.703  25.106  1.00  0.00    -0.200 F 
ENDBRANCH  46  60
BRANCH  47  71
ATOM     71  C   UNL A   1      39.639  33.706  36.623  1.00  0.00     0.064 A 
ATOM     72  C   UNL A   1      38.847  33.267  37.691  1.00  0.00     0.173 A 
ATOM     73  C   UNL A   1      40.223  34.978  36.721  1.00  0.00     0.173 A 
ATOM     74  F   UNL A   1      38.245  32.070  37.630  1.00  0.00    -0.203 F 
ATOM     75  C   UNL A   1      38.636  34.072  38.808  1.00  0.00     0.198 A 
ATOM     76  C   UNL A   1      40.033  35.772  37.851  1.00  0.00     0.198 A 
ATOM     77  F   UNL A   1      40.984  35.448  35.723  1.00  0.00    -0.203 F 
ATOM     78  F   UNL A   1      37.838  33.646  39.798  1.00  0.00    -0.200 F 
ATOM     79  C   UNL A   1      39.234  35.322  38.890  1.00  0.00     0.200 A 
ATOM     80  F   UNL A   1      40.618  36.975  37.927  1.00  0.00    -0.200 F 
ATOM     81  F   UNL A   1      39.030  36.095  39.964  1.00  0.00    -0.200 F 
ENDBRANCH  47  71
BRANCH  59  82
ATOM     82  C   UNL A   1      44.128  28.621  35.036  1.00  0.00     0.064 A 
ATOM     83  C   UNL A   1      43.942  27.496  35.850  1.00  0.00     0.173 A 
ATOM     84  C   UNL A   1      45.424  29.142  34.913  1.00  0.00     0.173 A 
ATOM     85  F   UNL A   1      42.717  26.972  36.010  1.00  0.00    -0.203 F 
ATOM     86  C   UNL A   1      45.012  26.926  36.533  1.00  0.00     0.198 A 
ATOM     87  C   UNL A   1      46.496  28.555  35.579  1.00  0.00     0.198 A 
ATOM     88  F   UNL A   1      45.652  30.215  34.140  1.00  0.00    -0.203 F 
ATOM     89  F   UNL A   1      44.807  25.875  37.340  1.00  0.00    -0.200 F 
ATOM     90  C   UNL A   1      46.288  27.452  36.392  1.00  0.00     0.200 A 
ATOM     91  F   UNL A   1      47.729  29.058  35.434  1.00  0.00    -0.200 F 
ATOM     92  F   UNL A   1      47.318  26.899  37.048  1.00  0.00    -0.200 F 
ENDBRANCH  59  82
ENDBRANCH  33  34
ENDBRANCH  26  28
ENDBRANCH  25  26
ENDBRANCH  24  25
ENDBRANCH   1  24
TORSDOF 15
ENDMDL
MODEL 3
REMARK VINA RESULT:     -11.3      4.787      9.747
REMARK SMILES CC(C)[NH2+][C@@]1(C(=O)OCCOC(=O)c2ccc(-c3c4nc(c(-c5c(F)c(F)c(F)c(F)c5F)c5ccc([nH]5)c(-c5c(F)c(F)c(F)c(F)c5F)c5nc(c(-c6c(F)c(F)c(F)c(F)c6F)c6ccc3[nH]6)C=C5)C=C4)cc2)CCC[C@H](SC2CCCCC2)C1
REMARK SMILES IDX 9 1 8 2 6 3 7 4 5 5 77 6 88 7 78 8 80 9 79 10 4 11 2 14 1 15
REMARK SMILES IDX 3 16 81 17 82 18 83 19 87 20 84 21 86 22 85 23 10 24 11 25
REMARK SMILES IDX 12 26 13 27 14 28 15 29 76 30 16 31 75 32 17 33 18 34 19 35
REMARK SMILES IDX 69 36 20 37 74 38 68 39 70 40 21 41 73 42 67 43 66 44 22 46
REMARK SMILES IDX 54 47 34 48 53 49 35 50 38 51 52 52 71 53 36 54 37 55 51 57
REMARK SMILES IDX 72 58 39 59 23 60 24 61 32 62 25 63 26 64 30 65 33 66 27 67
REMARK SMILES IDX 28 68 31 69 29 70 55 71 56 72 64 73 57 74 58 75 62 76 65 77
REMARK SMILES IDX 59 78 60 79 63 80 61 81 40 82 41 83 49 84 42 85 43 86 47 87
REMARK SMILES IDX 50 88 44 89 45 90 48 91 46 92
REMARK H PARENT 4 12 4 13 70 45 38 56
REMARK Flexibility Score: inf
ROOT
ATOM      1  C   UNL A   1      36.042  20.469  25.001  1.00  0.00     0.274 C 
ENDROOT
BRANCH   1   2
ATOM      2  O   UNL A   1      34.972  21.429  24.862  1.00  0.00    -0.457 OA
BRANCH   2   3
ATOM      3  C   UNL A   1      33.874  21.277  25.642  1.00  0.00     0.368 C 
ATOM      4  O   UNL A   1      33.930  21.214  26.866  1.00  0.00    -0.245 OA
BRANCH   3   5
ATOM      5  C   UNL A   1      32.552  21.152  24.781  1.00  0.00     0.195 C 
ATOM      6  C   UNL A   1      32.781  21.713  23.364  1.00  0.00     0.081 C 
ATOM      7  C   UNL A   1      31.323  21.828  25.497  1.00  0.00     0.095 C 
ATOM      8  C   UNL A   1      32.603  23.222  23.243  1.00  0.00     0.008 C 
ATOM      9  C   UNL A   1      31.028  23.331  25.221  1.00  0.00     0.053 C 
ATOM     10  C   UNL A   1      31.220  23.620  23.738  1.00  0.00     0.015 C 
BRANCH   5  11
ATOM     11  N   UNL A   1      32.181  19.689  24.707  1.00  0.00    -0.330 N 
ATOM     12  H   UNL A   1      32.207  19.323  25.658  1.00  0.00     0.347 HD
ATOM     13  H   UNL A   1      31.270  19.684  24.249  1.00  0.00     0.347 HD
BRANCH  11  14
ATOM     14  C   UNL A   1      33.009  18.798  23.876  1.00  0.00     0.176 C 
ATOM     15  C   UNL A   1      33.499  17.658  24.775  1.00  0.00     0.075 C 
ATOM     16  C   UNL A   1      32.207  18.191  22.718  1.00  0.00     0.075 C 
ENDBRANCH  11  14
ENDBRANCH   5  11
BRANCH   9  17
ATOM     17  S   UNL A   1      31.934  24.360  26.447  1.00  0.00    -0.155 SA
BRANCH  17  18
ATOM     18  C   UNL A   1      32.180  26.020  25.733  1.00  0.00     0.047 C 
ATOM     19  C   UNL A   1      31.473  27.142  26.501  1.00  0.00     0.014 C 
ATOM     20  C   UNL A   1      33.631  26.338  25.378  1.00  0.00     0.014 C 
ATOM     21  C   UNL A   1      31.611  28.485  25.786  1.00  0.00     0.001 C 
ATOM     22  C   UNL A   1      33.710  27.676  24.638  1.00  0.00     0.001 C 
ATOM     23  C   UNL A   1      33.066  28.798  25.446  1.00  0.00     0.000 C 
ENDBRANCH  17  18
ENDBRANCH   9  17
ENDBRANCH   3   5
ENDBRANCH   2   3
ENDBRANCH   1   2
BRANCH   1  24
ATOM     24  C   UNL A   1      37.411  21.087  24.697  1.00  0.00     0.275 C 
BRANCH  24  25
ATOM     25  O   UNL A   1      37.890  21.790  25.854  1.00  0.00    -0.458 OA
BRANCH  25  26
ATOM     26  C   UNL A   1      39.127  21.470  26.287  1.00  0.00     0.338 C 
ATOM     27  O   UNL A   1      39.674  20.383  26.307  1.00  0.00    -0.246 OA
BRANCH  26  28
ATOM     28  C   UNL A   1      39.786  22.713  26.696  1.00  0.00     0.060 A 
ATOM     29  C   UNL A   1      39.356  23.912  26.126  1.00  0.00     0.016 A 
ATOM     30  C   UNL A   1      40.846  22.689  27.603  1.00  0.00     0.016 A 
ATOM     31  C   UNL A   1      39.981  25.105  26.465  1.00  0.00     0.010 A 
ATOM     32  C   UNL A   1      41.470  23.890  27.950  1.00  0.00     0.010 A 
ATOM     33  C   UNL A   1      41.042  25.101  27.376  1.00  0.00    -0.014 A 
BRANCH  33  34
ATOM     34  C   UNL A   1      41.760  26.362  27.654  1.00  0.00     0.031 A 
ATOM     35  C   UNL A   1      41.077  27.426  28.456  1.00  0.00     0.074 A 
ATOM     36  C   UNL A   1      43.026  26.526  27.231  1.00  0.00     0.049 A 
ATOM     37  N   UNL A   1      41.479  28.637  28.742  1.00  0.00    -0.248 NA
ATOM     38  C   UNL A   1      39.762  27.076  29.016  1.00  0.00     0.031 C 
ATOM     39  C   UNL A   1      43.814  25.524  26.515  1.00  0.00     0.029 A 
ATOM     40  N   UNL A   1      43.870  27.601  27.346  1.00  0.00    -0.354 N 
ATOM     41  C   UNL A   1      40.461  29.199  29.497  1.00  0.00     0.074 A 
ATOM     42  C   UNL A   1      39.420  28.203  29.622  1.00  0.00     0.031 C 
ATOM     43  C   UNL A   1      45.029  26.034  26.250  1.00  0.00     0.029 A 
ATOM     44  C   UNL A   1      45.085  27.410  26.739  1.00  0.00     0.049 A 
ATOM     45  H   UNL A   1      43.627  28.430  27.820  1.00  0.00     0.167 HD
ATOM     46  C   UNL A   1      40.406  30.440  30.036  1.00  0.00     0.037 A 
ATOM     47  C   UNL A   1      46.112  28.264  26.573  1.00  0.00     0.037 A 
ATOM     48  C   UNL A   1      41.447  31.423  29.908  1.00  0.00     0.049 A 
ATOM     49  C   UNL A   1      45.996  29.662  27.123  1.00  0.00     0.074 A 
ATOM     50  C   UNL A   1      41.475  32.722  30.382  1.00  0.00     0.029 A 
ATOM     51  N   UNL A   1      42.653  31.207  29.256  1.00  0.00    -0.354 N 
ATOM     52  N   UNL A   1      45.014  30.206  27.799  1.00  0.00    -0.248 NA
ATOM     53  C   UNL A   1      47.128  30.566  26.876  1.00  0.00     0.031 C 
ATOM     54  C   UNL A   1      42.687  33.303  29.991  1.00  0.00     0.029 A 
ATOM     55  C   UNL A   1      43.429  32.354  29.307  1.00  0.00     0.049 A 
ATOM     56  H   UNL A   1      42.918  30.365  28.822  1.00  0.00     0.167 HD
ATOM     57  C   UNL A   1      45.414  31.505  28.078  1.00  0.00     0.074 A 
ATOM     58  C   UNL A   1      46.737  31.664  27.507  1.00  0.00     0.031 C 
ATOM     59  C   UNL A   1      44.748  32.481  28.742  1.00  0.00     0.037 A 
BRANCH  46  60
ATOM     60  C   UNL A   1      39.153  30.808  30.769  1.00  0.00     0.064 A 
ATOM     61  C   UNL A   1      39.027  30.623  32.154  1.00  0.00     0.173 A 
ATOM     62  C   UNL A   1      38.063  31.356  30.076  1.00  0.00     0.173 A 
ATOM     63  F   UNL A   1      40.034  30.083  32.857  1.00  0.00    -0.203 F 
ATOM     64  C   UNL A   1      37.845  30.950  32.814  1.00  0.00     0.198 A 
ATOM     65  C   UNL A   1      36.891  31.703  30.743  1.00  0.00     0.198 A 
ATOM     66  F   UNL A   1      38.134  31.551  28.751  1.00  0.00    -0.203 F 
ATOM     67  F   UNL A   1      37.730  30.723  34.130  1.00  0.00    -0.200 F 
ATOM     68  C   UNL A   1      36.782  31.494  32.110  1.00  0.00     0.200 A 
ATOM     69  F   UNL A   1      35.866  32.234  30.062  1.00  0.00    -0.200 F 
ATOM     70  F   UNL A   1      35.644  31.808  32.746  1.00  0.00    -0.200 F 
ENDBRANCH  46  60
BRANCH  47  71
ATOM     71  C   UNL A   1      47.327  27.833  25.836  1.00  0.00     0.064 A 
ATOM     72  C   UNL A   1      48.484  27.435  26.519  1.00  0.00     0.173 A 
ATOM     73  C   UNL A   1      47.361  27.825  24.434  1.00  0.00     0.173 A 
ATOM     74  F   UNL A   1      48.509  27.453  27.860  1.00  0.00    -0.203 F 
ATOM     75  C   UNL A   1      49.633  27.057  25.827  1.00  0.00     0.198 A 
ATOM     76  C   UNL A   1      48.501  27.421  23.743  1.00  0.00     0.198 A 
ATOM     77  F   UNL A   1      46.282  28.203  23.733  1.00  0.00    -0.203 F 
ATOM     78  F   UNL A   1      50.740  26.722  26.504  1.00  0.00    -0.200 F 
ATOM     79  C   UNL A   1      49.639  27.044  24.440  1.00  0.00     0.200 A 
ATOM     80  F   UNL A   1      48.500  27.404  22.403  1.00  0.00    -0.200 F 
ATOM     81  F   UNL A   1      50.744  26.680  23.776  1.00  0.00    -0.200 F 
ENDBRANCH  47  71
BRANCH  59  82
ATOM     82  C   UNL A   1      45.455  33.792  28.919  1.00  0.00     0.064 A 
ATOM     83  C   UNL A   1      45.311  34.834  27.993  1.00  0.00     0.173 A 
ATOM     84  C   UNL A   1      46.253  34.018  30.050  1.00  0.00     0.173 A 
ATOM     85  F   UNL A   1      44.569  34.658  26.889  1.00  0.00    -0.203 F 
ATOM     86  C   UNL A   1      45.959  36.050  28.181  1.00  0.00     0.198 A 
ATOM     87  C   UNL A   1      46.882  35.244  30.247  1.00  0.00     0.198 A 
ATOM     88  F   UNL A   1      46.417  33.052  30.967  1.00  0.00    -0.203 F 
ATOM     89  F   UNL A   1      45.842  37.020  27.264  1.00  0.00    -0.200 F 
ATOM     90  C   UNL A   1      46.738  36.256  29.310  1.00  0.00     0.200 A 
ATOM     91  F   UNL A   1      47.626  35.445  31.342  1.00  0.00    -0.200 F 
ATOM     92  F   UNL A   1      47.359  37.430  29.492  1.00  0.00    -0.200 F 
ENDBRANCH  59  82
ENDBRANCH  33  34
ENDBRANCH  26  28
ENDBRANCH  25  26
ENDBRANCH  24  25
ENDBRANCH   1  24
TORSDOF 15
ENDMDL
