MODEL 1
REMARK VINA RESULT:     -10.8      0.000      0.000
REMARK SMILES O=C(Cc1cc[nH]n1)Nc1nc(CC(=O)OCCOC(=O)c2ccc(-c3c4nc(c(-c5c(F)c(F)c(F)c(F)c5F)c5ccc([nH]5)c(-c5c(F)c(F)c(F)c(F)c5F)c5nc(c(-c6c(F)c(F)c(F)c(F)c6F)c6ccc3[nH]6)C=C5)C=C4)cc2)cs1
REMARK SMILES IDX 17 1 16 2 14 3 15 4 13 5 12 6 10 7 11 8 86 9 85 10 9 11 1 12
REMARK SMILES IDX 2 13 3 15 4 16 5 17 8 18 6 19 7 20 18 22 19 23 20 24 21 25
REMARK SMILES IDX 22 26 23 27 84 28 24 29 83 30 25 31 26 32 27 33 77 34 28 35
REMARK SMILES IDX 82 36 76 37 78 38 29 39 81 40 75 41 74 42 30 44 62 45 42 46
REMARK SMILES IDX 61 47 43 48 46 49 60 50 79 51 44 52 45 53 59 55 80 56 47 57
REMARK SMILES IDX 31 58 32 59 40 60 33 61 34 62 38 63 41 64 35 65 36 66 39 67
REMARK SMILES IDX 37 68 63 69 64 70 72 71 65 72 66 73 70 74 73 75 67 76 68 77
REMARK SMILES IDX 71 78 69 79 48 80 49 81 57 82 50 83 51 84 55 85 58 86 52 87
REMARK SMILES IDX 53 88 56 89 54 90
REMARK H PARENT 9 14 7 21 78 43 46 54
REMARK Flexibility Score: inf
ROOT
ATOM      1  C   UNL A   1      33.426  36.207  28.773  1.00  0.00     0.274 C 
ENDROOT
BRANCH   1   2
ATOM      2  O   UNL A   1      33.148  34.794  28.814  1.00  0.00    -0.462 OA
BRANCH   2   3
ATOM      3  C   UNL A   1      34.131  33.984  28.343  1.00  0.00     0.312 C 
ATOM      4  O   UNL A   1      34.815  34.227  27.351  1.00  0.00    -0.252 OA
BRANCH   3   5
ATOM      5  C   UNL A   1      34.283  32.699  29.109  1.00  0.00     0.179 C 
BRANCH   5   6
ATOM      6  C   UNL A   1      34.338  31.441  28.311  1.00  0.00     0.065 A 
ATOM      7  C   UNL A   1      33.481  30.119  26.760  1.00  0.00     0.189 A 
ATOM      8  N   UNL A   1      33.253  31.176  27.493  1.00  0.00    -0.224 NA
ATOM      9  S   UNL A   1      34.970  29.332  27.020  1.00  0.00    -0.105 S 
ATOM     10  C   UNL A   1      35.374  30.531  28.186  1.00  0.00     0.093 A 
BRANCH   7  11
ATOM     11  N   UNL A   1      32.684  29.554  25.810  1.00  0.00    -0.302 N 
ATOM     12  O   UNL A   1      31.474  28.188  27.239  1.00  0.00    -0.274 OA
ATOM     13  C   UNL A   1      31.745  28.599  26.109  1.00  0.00     0.232 C 
ATOM     14  H   UNL A   1      32.786  29.842  24.874  1.00  0.00     0.172 HD
BRANCH  13  15
ATOM     15  C   UNL A   1      31.052  27.948  24.924  1.00  0.00     0.158 C 
BRANCH  15  16
ATOM     16  C   UNL A   1      30.825  28.762  23.692  1.00  0.00     0.071 A 
ATOM     17  C   UNL A   1      29.633  29.444  23.347  1.00  0.00     0.045 A 
ATOM     18  N   UNL A   1      31.779  28.957  22.767  1.00  0.00    -0.180 NA
ATOM     19  C   UNL A   1      29.923  30.110  22.182  1.00  0.00     0.105 A 
ATOM     20  N   UNL A   1      31.221  29.814  21.893  1.00  0.00    -0.285 N 
ATOM     21  H   UNL A   1      31.701  30.189  21.120  1.00  0.00     0.189 HD
ENDBRANCH  15  16
ENDBRANCH  13  15
ENDBRANCH   7  11
ENDBRANCH   5   6
ENDBRANCH   3   5
ENDBRANCH   2   3
ENDBRANCH   1   2
BRANCH   1  22
ATOM     22  C   UNL A   1      32.908  36.913  30.025  1.00  0.00     0.275 C 
BRANCH  22  23
ATOM     23  O   UNL A   1      32.325  35.961  30.934  1.00  0.00    -0.458 OA
BRANCH  23  24
ATOM     24  C   UNL A   1      32.732  36.051  32.218  1.00  0.00     0.338 C 
ATOM     25  O   UNL A   1      32.237  36.700  33.122  1.00  0.00    -0.246 OA
BRANCH  24  26
ATOM     26  C   UNL A   1      33.897  35.180  32.420  1.00  0.00     0.060 A 
ATOM     27  C   UNL A   1      33.714  33.895  32.937  1.00  0.00     0.016 A 
ATOM     28  C   UNL A   1      35.178  35.690  32.210  1.00  0.00     0.016 A 
ATOM     29  C   UNL A   1      34.823  33.117  33.267  1.00  0.00     0.010 A 
ATOM     30  C   UNL A   1      36.287  34.898  32.515  1.00  0.00     0.010 A 
ATOM     31  C   UNL A   1      36.116  33.615  33.064  1.00  0.00    -0.014 A 
BRANCH  31  32
ATOM     32  C   UNL A   1      37.301  32.819  33.465  1.00  0.00     0.031 A 
ATOM     33  C   UNL A   1      37.977  33.092  34.777  1.00  0.00     0.074 A 
ATOM     34  C   UNL A   1      37.776  31.862  32.647  1.00  0.00     0.049 A 
ATOM     35  N   UNL A   1      39.092  32.601  35.254  1.00  0.00    -0.248 NA
ATOM     36  C   UNL A   1      37.309  34.049  35.672  1.00  0.00     0.031 C 
ATOM     37  C   UNL A   1      37.185  31.478  31.366  1.00  0.00     0.029 A 
ATOM     38  N   UNL A   1      38.874  31.048  32.771  1.00  0.00    -0.354 N 
ATOM     39  C   UNL A   1      39.273  33.205  36.490  1.00  0.00     0.074 A 
ATOM     40  C   UNL A   1      38.159  34.106  36.688  1.00  0.00     0.031 C 
ATOM     41  C   UNL A   1      37.928  30.502  30.820  1.00  0.00     0.029 A 
ATOM     42  C   UNL A   1      39.068  30.227  31.690  1.00  0.00     0.049 A 
ATOM     43  H   UNL A   1      39.463  31.053  33.559  1.00  0.00     0.167 HD
ATOM     44  C   UNL A   1      40.279  33.020  37.378  1.00  0.00     0.037 A 
ATOM     45  C   UNL A   1      40.072  29.371  31.419  1.00  0.00     0.037 A 
ATOM     46  C   UNL A   1      41.378  32.110  37.189  1.00  0.00     0.049 A 
ATOM     47  C   UNL A   1      41.202  29.221  32.398  1.00  0.00     0.074 A 
ATOM     48  C   UNL A   1      42.439  31.847  38.037  1.00  0.00     0.029 A 
ATOM     49  N   UNL A   1      41.552  31.310  36.070  1.00  0.00    -0.354 N 
ATOM     50  N   UNL A   1      41.376  29.810  33.556  1.00  0.00    -0.248 NA
ATOM     51  C   UNL A   1      42.280  28.295  32.028  1.00  0.00     0.031 C 
ATOM     52  C   UNL A   1      43.272  30.906  37.419  1.00  0.00     0.029 A 
ATOM     53  C   UNL A   1      42.711  30.562  36.200  1.00  0.00     0.049 A 
ATOM     54  H   UNL A   1      40.942  31.278  35.298  1.00  0.00     0.167 HD
ATOM     55  C   UNL A   1      42.572  29.317  34.058  1.00  0.00     0.074 A 
ATOM     56  C   UNL A   1      43.077  28.371  33.085  1.00  0.00     0.031 C 
ATOM     57  C   UNL A   1      43.196  29.624  35.222  1.00  0.00     0.037 A 
BRANCH  44  58
ATOM     58  C   UNL A   1      40.249  33.840  38.632  1.00  0.00     0.064 A 
ATOM     59  C   UNL A   1      40.976  35.032  38.748  1.00  0.00     0.173 A 
ATOM     60  C   UNL A   1      39.456  33.441  39.719  1.00  0.00     0.173 A 
ATOM     61  F   UNL A   1      41.760  35.445  37.740  1.00  0.00    -0.203 F 
ATOM     62  C   UNL A   1      40.925  35.790  39.915  1.00  0.00     0.198 A 
ATOM     63  C   UNL A   1      39.392  34.212  40.877  1.00  0.00     0.198 A 
ATOM     64  F   UNL A   1      38.740  32.309  39.656  1.00  0.00    -0.203 F 
ATOM     65  F   UNL A   1      41.655  36.909  40.019  1.00  0.00    -0.200 F 
ATOM     66  C   UNL A   1      40.129  35.382  40.976  1.00  0.00     0.200 A 
ATOM     67  F   UNL A   1      38.617  33.820  41.899  1.00  0.00    -0.200 F 
ATOM     68  F   UNL A   1      40.079  36.114  42.097  1.00  0.00    -0.200 F 
ENDBRANCH  44  58
BRANCH  45  69
ATOM     69  C   UNL A   1      40.060  28.603  30.150  1.00  0.00     0.064 A 
ATOM     70  C   UNL A   1      40.671  29.112  28.996  1.00  0.00     0.173 A 
ATOM     71  C   UNL A   1      39.442  27.347  30.066  1.00  0.00     0.173 A 
ATOM     72  F   UNL A   1      41.250  30.320  29.024  1.00  0.00    -0.203 F 
ATOM     73  C   UNL A   1      40.658  28.394  27.802  1.00  0.00     0.198 A 
ATOM     74  C   UNL A   1      39.449  26.621  28.877  1.00  0.00     0.198 A 
ATOM     75  F   UNL A   1      38.839  26.822  31.143  1.00  0.00    -0.203 F 
ATOM     76  F   UNL A   1      41.220  28.917  26.704  1.00  0.00    -0.200 F 
ATOM     77  C   UNL A   1      40.053  27.148  27.745  1.00  0.00     0.200 A 
ATOM     78  F   UNL A   1      38.868  25.415  28.828  1.00  0.00    -0.200 F 
ATOM     79  F   UNL A   1      40.044  26.457  26.597  1.00  0.00    -0.200 F 
ENDBRANCH  45  69
BRANCH  57  80
ATOM     80  C   UNL A   1      44.482  28.913  35.513  1.00  0.00     0.064 A 
ATOM     81  C   UNL A   1      44.501  27.683  36.185  1.00  0.00     0.173 A 
ATOM     82  C   UNL A   1      45.705  29.453  35.087  1.00  0.00     0.173 A 
ATOM     83  F   UNL A   1      43.357  27.138  36.626  1.00  0.00    -0.203 F 
ATOM     84  C   UNL A   1      45.701  27.025  36.434  1.00  0.00     0.198 A 
ATOM     85  C   UNL A   1      46.902  28.782  35.321  1.00  0.00     0.198 A 
ATOM     86  F   UNL A   1      45.737  30.626  34.438  1.00  0.00    -0.203 F 
ATOM     87  F   UNL A   1      45.701  25.867  37.109  1.00  0.00    -0.200 F 
ATOM     88  C   UNL A   1      46.899  27.572  35.998  1.00  0.00     0.200 A 
ATOM     89  F   UNL A   1      48.058  29.308  34.894  1.00  0.00    -0.200 F 
ATOM     90  F   UNL A   1      48.054  26.935  36.238  1.00  0.00    -0.200 F 
ENDBRANCH  57  80
ENDBRANCH  31  32
ENDBRANCH  24  26
ENDBRANCH  23  24
ENDBRANCH  22  23
ENDBRANCH   1  22
TORSDOF 15
ENDMDL
MODEL 2
REMARK VINA RESULT:     -10.8      4.183      9.450
REMARK SMILES O=C(Cc1cc[nH]n1)Nc1nc(CC(=O)OCCOC(=O)c2ccc(-c3c4nc(c(-c5c(F)c(F)c(F)c(F)c5F)c5ccc([nH]5)c(-c5c(F)c(F)c(F)c(F)c5F)c5nc(c(-c6c(F)c(F)c(F)c(F)c6F)c6ccc3[nH]6)C=C5)C=C4)cc2)cs1
REMARK SMILES IDX 17 1 16 2 14 3 15 4 13 5 12 6 10 7 11 8 86 9 85 10 9 11 1 12
REMARK SMILES IDX 2 13 3 15 4 16 5 17 8 18 6 19 7 20 18 22 19 23 20 24 21 25
REMARK SMILES IDX 22 26 23 27 84 28 24 29 83 30 25 31 26 32 27 33 77 34 28 35
REMARK SMILES IDX 82 36 76 37 78 38 29 39 81 40 75 41 74 42 30 44 62 45 42 46
REMARK SMILES IDX 61 47 43 48 46 49 60 50 79 51 44 52 45 53 59 55 80 56 47 57
REMARK SMILES IDX 31 58 32 59 40 60 33 61 34 62 38 63 41 64 35 65 36 66 39 67
REMARK SMILES IDX 37 68 63 69 64 70 72 71 65 72 66 73 70 74 73 75 67 76 68 77
REMARK SMILES IDX 71 78 69 79 48 80 49 81 57 82 50 83 51 84 55 85 58 86 52 87
REMARK SMILES IDX 53 88 56 89 54 90
REMARK H PARENT 9 14 7 21 78 43 46 54
REMARK Flexibility Score: inf
ROOT
ATOM      1  C   UNL A   1      31.975  28.170  24.918  1.00  0.00     0.274 C 
ENDROOT
BRANCH   1   2
ATOM      2  O   UNL A   1      30.801  27.351  25.078  1.00  0.00    -0.462 OA
BRANCH   2   3
ATOM      3  C   UNL A   1      30.905  26.339  25.978  1.00  0.00     0.312 C 
ATOM      4  O   UNL A   1      31.298  26.477  27.134  1.00  0.00    -0.252 OA
BRANCH   3   5
ATOM      5  C   UNL A   1      30.555  24.987  25.421  1.00  0.00     0.179 C 
BRANCH   5   6
ATOM      6  C   UNL A   1      31.676  24.019  25.247  1.00  0.00     0.065 A 
ATOM      7  C   UNL A   1      32.390  21.984  24.759  1.00  0.00     0.189 A 
ATOM      8  N   UNL A   1      31.328  22.699  25.018  1.00  0.00    -0.224 NA
ATOM      9  S   UNL A   1      33.881  22.808  24.818  1.00  0.00    -0.105 S 
ATOM     10  C   UNL A   1      33.037  24.263  25.179  1.00  0.00     0.093 A 
BRANCH   7  11
ATOM     11  N   UNL A   1      32.471  20.660  24.448  1.00  0.00    -0.302 N 
ATOM     12  O   UNL A   1      32.014  20.879  22.186  1.00  0.00    -0.274 OA
ATOM     13  C   UNL A   1      32.249  20.187  23.179  1.00  0.00     0.232 C 
ATOM     14  H   UNL A   1      32.698  20.020  25.160  1.00  0.00     0.172 HD
BRANCH  13  15
ATOM     15  C   UNL A   1      32.214  18.676  23.026  1.00  0.00     0.158 C 
BRANCH  15  16
ATOM     16  C   UNL A   1      32.768  17.831  24.126  1.00  0.00     0.071 A 
ATOM     17  C   UNL A   1      33.812  16.881  24.007  1.00  0.00     0.045 A 
ATOM     18  N   UNL A   1      32.332  17.916  25.393  1.00  0.00    -0.180 NA
ATOM     19  C   UNL A   1      34.027  16.420  25.283  1.00  0.00     0.105 A 
ATOM     20  N   UNL A   1      33.143  17.087  26.077  1.00  0.00    -0.285 N 
ATOM     21  H   UNL A   1      33.102  16.973  27.054  1.00  0.00     0.189 HD
ENDBRANCH  15  16
ENDBRANCH  13  15
ENDBRANCH   7  11
ENDBRANCH   5   6
ENDBRANCH   3   5
ENDBRANCH   2   3
ENDBRANCH   1   2
BRANCH   1  22
ATOM     22  C   UNL A   1      31.831  29.497  25.662  1.00  0.00     0.275 C 
BRANCH  22  23
ATOM     23  O   UNL A   1      33.103  30.166  25.750  1.00  0.00    -0.458 OA
BRANCH  23  24
ATOM     24  C   UNL A   1      33.264  30.985  26.810  1.00  0.00     0.338 C 
ATOM     25  O   UNL A   1      32.479  31.799  27.260  1.00  0.00    -0.246 OA
BRANCH  24  26
ATOM     26  C   UNL A   1      34.574  30.731  27.425  1.00  0.00     0.060 A 
ATOM     27  C   UNL A   1      34.957  29.417  27.706  1.00  0.00     0.016 A 
ATOM     28  C   UNL A   1      35.361  31.808  27.831  1.00  0.00     0.016 A 
ATOM     29  C   UNL A   1      36.131  29.176  28.419  1.00  0.00     0.010 A 
ATOM     30  C   UNL A   1      36.550  31.563  28.520  1.00  0.00     0.010 A 
ATOM     31  C   UNL A   1      36.932  30.247  28.836  1.00  0.00    -0.014 A 
BRANCH  31  32
ATOM     32  C   UNL A   1      38.152  30.004  29.644  1.00  0.00     0.031 A 
ATOM     33  C   UNL A   1      39.237  29.116  29.110  1.00  0.00     0.074 A 
ATOM     34  C   UNL A   1      38.278  30.571  30.857  1.00  0.00     0.049 A 
ATOM     35  N   UNL A   1      40.317  28.676  29.706  1.00  0.00    -0.248 NA
ATOM     36  C   UNL A   1      39.086  28.657  27.721  1.00  0.00     0.031 C 
ATOM     37  C   UNL A   1      37.311  31.482  31.467  1.00  0.00     0.029 A 
ATOM     38  N   UNL A   1      39.270  30.451  31.797  1.00  0.00    -0.354 N 
ATOM     39  C   UNL A   1      40.961  27.872  28.775  1.00  0.00     0.074 A 
ATOM     40  C   UNL A   1      40.148  27.875  27.578  1.00  0.00     0.031 C 
ATOM     41  C   UNL A   1      37.757  31.839  32.682  1.00  0.00     0.029 A 
ATOM     42  C   UNL A   1      39.014  31.147  32.952  1.00  0.00     0.049 A 
ATOM     43  H   UNL A   1      40.086  29.918  31.657  1.00  0.00     0.167 HD
ATOM     44  C   UNL A   1      42.125  27.195  28.911  1.00  0.00     0.037 A 
ATOM     45  C   UNL A   1      39.703  31.194  34.108  1.00  0.00     0.037 A 
ATOM     46  C   UNL A   1      42.943  27.206  30.095  1.00  0.00     0.049 A 
ATOM     47  C   UNL A   1      40.967  30.394  34.250  1.00  0.00     0.074 A 
ATOM     48  C   UNL A   1      44.145  26.560  30.323  1.00  0.00     0.029 A 
ATOM     49  N   UNL A   1      42.640  27.907  31.253  1.00  0.00    -0.354 N 
ATOM     50  N   UNL A   1      41.559  29.621  33.372  1.00  0.00    -0.248 NA
ATOM     51  C   UNL A   1      41.654  30.466  35.547  1.00  0.00     0.031 C 
ATOM     52  C   UNL A   1      44.557  26.847  31.630  1.00  0.00     0.029 A 
ATOM     53  C   UNL A   1      43.626  27.697  32.204  1.00  0.00     0.049 A 
ATOM     54  H   UNL A   1      41.842  28.470  31.380  1.00  0.00     0.167 HD
ATOM     55  C   UNL A   1      42.691  29.126  34.004  1.00  0.00     0.074 A 
ATOM     56  C   UNL A   1      42.712  29.696  35.335  1.00  0.00     0.031 C 
ATOM     57  C   UNL A   1      43.630  28.274  33.523  1.00  0.00     0.037 A 
BRANCH  44  58
ATOM     58  C   UNL A   1      42.577  26.362  27.749  1.00  0.00     0.064 A 
ATOM     59  C   UNL A   1      42.071  25.073  27.530  1.00  0.00     0.173 A 
ATOM     60  C   UNL A   1      43.502  26.874  26.828  1.00  0.00     0.173 A 
ATOM     61  F   UNL A   1      41.195  24.535  28.393  1.00  0.00    -0.203 F 
ATOM     62  C   UNL A   1      42.490  24.318  26.437  1.00  0.00     0.198 A 
ATOM     63  C   UNL A   1      43.903  26.124  25.726  1.00  0.00     0.198 A 
ATOM     64  F   UNL A   1      44.013  28.103  26.994  1.00  0.00    -0.203 F 
ATOM     65  F   UNL A   1      42.020  23.075  26.264  1.00  0.00    -0.200 F 
ATOM     66  C   UNL A   1      43.400  24.846  25.534  1.00  0.00     0.200 A 
ATOM     67  F   UNL A   1      44.778  26.638  24.850  1.00  0.00    -0.200 F 
ATOM     68  F   UNL A   1      43.800  24.120  24.481  1.00  0.00    -0.200 F 
ENDBRANCH  44  58
BRANCH  45  69
ATOM     69  C   UNL A   1      39.195  32.019  35.231  1.00  0.00     0.064 A 
ATOM     70  C   UNL A   1      38.422  31.447  36.250  1.00  0.00     0.173 A 
ATOM     71  C   UNL A   1      39.476  33.390  35.311  1.00  0.00     0.173 A 
ATOM     72  F   UNL A   1      38.108  30.145  36.200  1.00  0.00    -0.203 F 
ATOM     73  C   UNL A   1      37.942  32.219  37.305  1.00  0.00     0.198 A 
ATOM     74  C   UNL A   1      39.012  34.157  36.378  1.00  0.00     0.198 A 
ATOM     75  F   UNL A   1      40.207  33.983  34.357  1.00  0.00    -0.203 F 
ATOM     76  F   UNL A   1      37.176  31.656  38.249  1.00  0.00    -0.200 F 
ATOM     77  C   UNL A   1      38.242  33.571  37.372  1.00  0.00     0.200 A 
ATOM     78  F   UNL A   1      39.310  35.462  36.442  1.00  0.00    -0.200 F 
ATOM     79  F   UNL A   1      37.782  34.313  38.388  1.00  0.00    -0.200 F 
ENDBRANCH  45  69
BRANCH  57  80
ATOM     80  C   UNL A   1      44.765  27.925  34.434  1.00  0.00     0.064 A 
ATOM     81  C   UNL A   1      44.712  26.801  35.270  1.00  0.00     0.173 A 
ATOM     82  C   UNL A   1      45.932  28.705  34.447  1.00  0.00     0.173 A 
ATOM     83  F   UNL A   1      43.610  26.037  35.304  1.00  0.00    -0.203 F 
ATOM     84  C   UNL A   1      45.782  26.479  36.100  1.00  0.00     0.198 A 
ATOM     85  C   UNL A   1      47.007  28.367  35.265  1.00  0.00     0.198 A 
ATOM     86  F   UNL A   1      46.030  29.788  33.663  1.00  0.00    -0.203 F 
ATOM     87  F   UNL A   1      45.698  25.420  36.918  1.00  0.00    -0.200 F 
ATOM     88  C   UNL A   1      46.929  27.258  36.093  1.00  0.00     0.200 A 
ATOM     89  F   UNL A   1      48.117  29.118  35.253  1.00  0.00    -0.200 F 
ATOM     90  F   UNL A   1      47.959  26.945  36.892  1.00  0.00    -0.200 F 
ENDBRANCH  57  80
ENDBRANCH  31  32
ENDBRANCH  24  26
ENDBRANCH  23  24
ENDBRANCH  22  23
ENDBRANCH   1  22
TORSDOF 15
ENDMDL
MODEL 3
REMARK VINA RESULT:     -10.6      4.091      7.257
REMARK SMILES O=C(Cc1cc[nH]n1)Nc1nc(CC(=O)OCCOC(=O)c2ccc(-c3c4nc(c(-c5c(F)c(F)c(F)c(F)c5F)c5ccc([nH]5)c(-c5c(F)c(F)c(F)c(F)c5F)c5nc(c(-c6c(F)c(F)c(F)c(F)c6F)c6ccc3[nH]6)C=C5)C=C4)cc2)cs1
REMARK SMILES IDX 17 1 16 2 14 3 15 4 13 5 12 6 10 7 11 8 86 9 85 10 9 11 1 12
REMARK SMILES IDX 2 13 3 15 4 16 5 17 8 18 6 19 7 20 18 22 19 23 20 24 21 25
REMARK SMILES IDX 22 26 23 27 84 28 24 29 83 30 25 31 26 32 27 33 77 34 28 35
REMARK SMILES IDX 82 36 76 37 78 38 29 39 81 40 75 41 74 42 30 44 62 45 42 46
REMARK SMILES IDX 61 47 43 48 46 49 60 50 79 51 44 52 45 53 59 55 80 56 47 57
REMARK SMILES IDX 31 58 32 59 40 60 33 61 34 62 38 63 41 64 35 65 36 66 39 67
REMARK SMILES IDX 37 68 63 69 64 70 72 71 65 72 66 73 70 74 73 75 67 76 68 77
REMARK SMILES IDX 71 78 69 79 48 80 49 81 57 82 50 83 51 84 55 85 58 86 52 87
REMARK SMILES IDX 53 88 56 89 54 90
REMARK H PARENT 9 14 7 21 78 43 46 54
REMARK Flexibility Score: inf
ROOT
ATOM      1  C   UNL A   1      34.023  34.283  28.055  1.00  0.00     0.274 C 
ENDROOT
BRANCH   1   2
ATOM      2  O   UNL A   1      32.850  34.841  28.677  1.00  0.00    -0.462 OA
BRANCH   2   3
ATOM      3  C   UNL A   1      33.020  36.043  29.288  1.00  0.00     0.312 C 
ATOM      4  O   UNL A   1      33.593  37.004  28.780  1.00  0.00    -0.252 OA
BRANCH   3   5
ATOM      5  C   UNL A   1      32.497  36.091  30.697  1.00  0.00     0.179 C 
BRANCH   5   6
ATOM      6  C   UNL A   1      33.411  35.607  31.771  1.00  0.00     0.065 A 
ATOM      7  C   UNL A   1      34.560  33.970  32.713  1.00  0.00     0.189 A 
ATOM      8  N   UNL A   1      33.653  34.245  31.814  1.00  0.00    -0.224 NA
ATOM      9  S   UNL A   1      35.154  35.292  33.608  1.00  0.00    -0.105 S 
ATOM     10  C   UNL A   1      34.145  36.339  32.688  1.00  0.00     0.093 A 
BRANCH   7  11
ATOM     11  N   UNL A   1      35.100  32.761  33.037  1.00  0.00    -0.302 N 
ATOM     12  O   UNL A   1      37.078  33.015  31.857  1.00  0.00    -0.274 OA
ATOM     13  C   UNL A   1      36.319  32.348  32.562  1.00  0.00     0.232 C 
ATOM     14  H   UNL A   1      34.595  32.162  33.633  1.00  0.00     0.172 HD
BRANCH  13  15
ATOM     15  C   UNL A   1      36.709  30.914  32.879  1.00  0.00     0.158 C 
BRANCH  15  16
ATOM     16  C   UNL A   1      37.868  30.671  33.789  1.00  0.00     0.071 A 
ATOM     17  C   UNL A   1      38.235  31.461  34.907  1.00  0.00     0.045 A 
ATOM     18  N   UNL A   1      38.692  29.621  33.647  1.00  0.00    -0.180 NA
ATOM     19  C   UNL A   1      39.302  30.809  35.474  1.00  0.00     0.105 A 
ATOM     20  N   UNL A   1      39.518  29.704  34.707  1.00  0.00    -0.285 N 
ATOM     21  H   UNL A   1      40.210  29.034  34.909  1.00  0.00     0.189 HD
ENDBRANCH  15  16
ENDBRANCH  13  15
ENDBRANCH   7  11
ENDBRANCH   5   6
ENDBRANCH   3   5
ENDBRANCH   2   3
ENDBRANCH   1   2
BRANCH   1  22
ATOM     22  C   UNL A   1      34.349  32.901  28.620  1.00  0.00     0.275 C 
BRANCH  22  23
ATOM     23  O   UNL A   1      34.861  32.041  27.586  1.00  0.00    -0.458 OA
BRANCH  23  24
ATOM     24  C   UNL A   1      34.688  30.717  27.784  1.00  0.00     0.338 C 
ATOM     25  O   UNL A   1      33.667  30.065  27.671  1.00  0.00    -0.246 OA
BRANCH  24  26
ATOM     26  C   UNL A   1      35.977  30.107  28.135  1.00  0.00     0.060 A 
ATOM     27  C   UNL A   1      36.159  29.576  29.415  1.00  0.00     0.016 A 
ATOM     28  C   UNL A   1      37.038  30.177  27.233  1.00  0.00     0.016 A 
ATOM     29  C   UNL A   1      37.421  29.127  29.805  1.00  0.00     0.010 A 
ATOM     30  C   UNL A   1      38.294  29.702  27.616  1.00  0.00     0.010 A 
ATOM     31  C   UNL A   1      38.497  29.192  28.911  1.00  0.00    -0.014 A 
BRANCH  31  32
ATOM     32  C   UNL A   1      39.854  28.771  29.335  1.00  0.00     0.031 A 
ATOM     33  C   UNL A   1      40.672  29.665  30.221  1.00  0.00     0.074 A 
ATOM     34  C   UNL A   1      40.355  27.596  28.914  1.00  0.00     0.049 A 
ATOM     35  N   UNL A   1      41.919  29.542  30.599  1.00  0.00    -0.248 NA
ATOM     36  C   UNL A   1      39.996  30.858  30.752  1.00  0.00     0.031 C 
ATOM     37  C   UNL A   1      39.645  26.625  28.083  1.00  0.00     0.029 A 
ATOM     38  N   UNL A   1      41.586  27.027  29.122  1.00  0.00    -0.354 N 
ATOM     39  C   UNL A   1      42.185  30.651  31.389  1.00  0.00     0.074 A 
ATOM     40  C   UNL A   1      40.973  31.442  31.431  1.00  0.00     0.031 C 
ATOM     41  C   UNL A   1      40.453  25.578  27.850  1.00  0.00     0.029 A 
ATOM     42  C   UNL A   1      41.749  25.827  28.475  1.00  0.00     0.049 A 
ATOM     43  H   UNL A   1      42.284  27.438  29.681  1.00  0.00     0.167 HD
ATOM     44  C   UNL A   1      43.337  30.977  32.023  1.00  0.00     0.037 A 
ATOM     45  C   UNL A   1      42.833  25.035  28.374  1.00  0.00     0.037 A 
ATOM     46  C   UNL A   1      44.536  30.182  31.995  1.00  0.00     0.049 A 
ATOM     47  C   UNL A   1      44.114  25.444  29.046  1.00  0.00     0.074 A 
ATOM     48  C   UNL A   1      45.749  30.425  32.615  1.00  0.00     0.029 A 
ATOM     49  N   UNL A   1      44.669  28.983  31.311  1.00  0.00    -0.354 N 
ATOM     50  N   UNL A   1      44.363  26.504  29.776  1.00  0.00    -0.248 NA
ATOM     51  C   UNL A   1      45.267  24.550  28.871  1.00  0.00     0.031 C 
ATOM     52  C   UNL A   1      46.627  29.386  32.283  1.00  0.00     0.029 A 
ATOM     53  C   UNL A   1      45.948  28.481  31.483  1.00  0.00     0.049 A 
ATOM     54  H   UNL A   1      43.959  28.552  30.783  1.00  0.00     0.167 HD
ATOM     55  C   UNL A   1      45.692  26.399  30.158  1.00  0.00     0.074 A 
ATOM     56  C   UNL A   1      46.196  25.166  29.590  1.00  0.00     0.031 C 
ATOM     57  C   UNL A   1      46.431  27.250  30.911  1.00  0.00     0.037 A 
BRANCH  44  58
ATOM     58  C   UNL A   1      43.362  32.267  32.785  1.00  0.00     0.064 A 
ATOM     59  C   UNL A   1      43.012  32.326  34.141  1.00  0.00     0.173 A 
ATOM     60  C   UNL A   1      43.773  33.452  32.157  1.00  0.00     0.173 A 
ATOM     61  F   UNL A   1      42.598  31.221  34.780  1.00  0.00    -0.203 F 
ATOM     62  C   UNL A   1      43.056  33.530  34.839  1.00  0.00     0.198 A 
ATOM     63  C   UNL A   1      43.835  34.651  32.863  1.00  0.00     0.198 A 
ATOM     64  F   UNL A   1      44.120  33.447  30.862  1.00  0.00    -0.203 F 
ATOM     65  F   UNL A   1      42.684  33.571  36.126  1.00  0.00    -0.200 F 
ATOM     66  C   UNL A   1      43.472  34.690  34.201  1.00  0.00     0.200 A 
ATOM     67  F   UNL A   1      44.244  35.770  32.248  1.00  0.00    -0.200 F 
ATOM     68  F   UNL A   1      43.517  35.847  34.875  1.00  0.00    -0.200 F 
ENDBRANCH  44  58
BRANCH  45  69
ATOM     69  C   UNL A   1      42.755  23.780  27.587  1.00  0.00     0.064 A 
ATOM     70  C   UNL A   1      43.132  23.755  26.237  1.00  0.00     0.173 A 
ATOM     71  C   UNL A   1      42.307  22.585  28.166  1.00  0.00     0.173 A 
ATOM     72  F   UNL A   1      43.541  24.881  25.637  1.00  0.00    -0.203 F 
ATOM     73  C   UNL A   1      43.057  22.579  25.495  1.00  0.00     0.198 A 
ATOM     74  C   UNL A   1      42.252  21.405  27.427  1.00  0.00     0.198 A 
ATOM     75  F   UNL A   1      41.930  22.562  29.453  1.00  0.00    -0.203 F 
ATOM     76  F   UNL A   1      43.391  22.588  24.197  1.00  0.00    -0.200 F 
ATOM     77  C   UNL A   1      42.624  21.405  26.091  1.00  0.00     0.200 A 
ATOM     78  F   UNL A   1      41.839  20.271  28.009  1.00  0.00    -0.200 F 
ATOM     79  F   UNL A   1      42.554  20.274  25.376  1.00  0.00    -0.200 F 
ENDBRANCH  45  69
BRANCH  57  80
ATOM     80  C   UNL A   1      47.853  26.865  31.181  1.00  0.00     0.064 A 
ATOM     81  C   UNL A   1      48.187  25.987  32.220  1.00  0.00     0.173 A 
ATOM     82  C   UNL A   1      48.887  27.355  30.369  1.00  0.00     0.173 A 
ATOM     83  F   UNL A   1      47.233  25.508  33.032  1.00  0.00    -0.203 F 
ATOM     84  C   UNL A   1      49.511  25.624  32.449  1.00  0.00     0.198 A 
ATOM     85  C   UNL A   1      50.208  26.973  30.589  1.00  0.00     0.198 A 
ATOM     86  F   UNL A   1      48.616  28.196  29.360  1.00  0.00    -0.203 F 
ATOM     87  F   UNL A   1      49.815  24.810  33.470  1.00  0.00    -0.200 F 
ATOM     88  C   UNL A   1      50.519  26.113  31.631  1.00  0.00     0.200 A 
ATOM     89  F   UNL A   1      51.180  27.442  29.794  1.00  0.00    -0.200 F 
ATOM     90  F   UNL A   1      51.793  25.760  31.851  1.00  0.00    -0.200 F 
ENDBRANCH  57  80
ENDBRANCH  31  32
ENDBRANCH  24  26
ENDBRANCH  23  24
ENDBRANCH  22  23
ENDBRANCH   1  22
TORSDOF 15
ENDMDL
