MODEL 1
REMARK VINA RESULT:     -13.3      0.000      0.000
REMARK SMILES Cc1cccc(C(=O)OCCOC(=O)c2ccc(-c3c4nc(c(-c5c(F)c(F)c(F)c(F)c5F)c5ccc([nH]5)c(-c5c(F)c(F)c(F)c(F)c5F)c5nc(c(-c6c(F)c(F)c(F)c(F)c6F)c6ccc3[nH]6)C=C5)C=C4)cc2)c1OC[C@@H]1C[C@H]2CC[C@@H]1C2
REMARK SMILES IDX 10 1 9 2 7 3 8 4 6 5 1 6 2 7 3 8 78 9 4 10 5 11 79 12 80 13
REMARK SMILES IDX 81 14 82 15 86 16 83 17 85 18 87 19 84 20 11 21 12 22 13 23
REMARK SMILES IDX 14 24 15 25 16 26 77 27 17 28 76 29 18 30 19 31 20 32 70 33
REMARK SMILES IDX 21 34 75 35 69 36 71 37 22 38 74 39 68 40 67 41 23 43 55 44
REMARK SMILES IDX 35 45 54 46 36 47 39 48 53 49 72 50 37 51 38 52 52 54 73 55
REMARK SMILES IDX 40 56 24 57 25 58 33 59 26 60 27 61 31 62 34 63 28 64 29 65
REMARK SMILES IDX 32 66 30 67 56 68 57 69 65 70 58 71 59 72 63 73 66 74 60 75
REMARK SMILES IDX 61 76 64 77 62 78 41 79 42 80 50 81 43 82 44 83 48 84 51 85
REMARK SMILES IDX 45 86 46 87 49 88 47 89
REMARK H PARENT 71 42 39 53
REMARK Flexibility Score: inf
ROOT
ATOM      1  C   UNL A   1      32.303  30.012  26.904  1.00  0.00     0.275 C 
ENDROOT
BRANCH   1   2
ATOM      2  O   UNL A   1      31.596  29.082  26.068  1.00  0.00    -0.458 OA
BRANCH   2   3
ATOM      3  C   UNL A   1      31.539  27.836  26.624  1.00  0.00     0.342 C 
ATOM      4  O   UNL A   1      31.046  27.563  27.708  1.00  0.00    -0.246 OA
BRANCH   3   5
ATOM      5  C   UNL A   1      32.155  26.806  25.768  1.00  0.00     0.102 A 
ATOM      6  C   UNL A   1      31.270  24.327  23.026  1.00  0.00     0.048 C 
ATOM      7  C   UNL A   1      32.060  25.215  23.949  1.00  0.00    -0.008 A 
ATOM      8  C   UNL A   1      33.417  24.912  24.139  1.00  0.00     0.007 A 
ATOM      9  C   UNL A   1      31.453  26.244  24.697  1.00  0.00     0.136 A 
ATOM     10  C   UNL A   1      34.126  25.506  25.171  1.00  0.00     0.001 A 
ATOM     11  C   UNL A   1      33.475  26.403  26.012  1.00  0.00     0.019 A 
BRANCH   9  12
ATOM     12  O   UNL A   1      30.125  26.462  24.482  1.00  0.00    -0.492 OA
BRANCH  12  13
ATOM     13  C   UNL A   1      29.700  27.309  23.406  1.00  0.00     0.233 C 
BRANCH  13  14
ATOM     14  C   UNL A   1      29.037  28.677  23.675  1.00  0.00     0.030 C 
ATOM     15  C   UNL A   1      27.716  28.804  22.861  1.00  0.00     0.011 C 
ATOM     16  C   UNL A   1      29.796  29.935  23.198  1.00  0.00    -0.004 C 
ATOM     17  C   UNL A   1      27.865  30.151  22.130  1.00  0.00    -0.010 C 
ATOM     18  C   UNL A   1      29.167  31.168  23.874  1.00  0.00     0.004 C 
ATOM     19  C   UNL A   1      29.340  30.115  21.752  1.00  0.00     0.007 C 
ATOM     20  C   UNL A   1      27.822  31.301  23.151  1.00  0.00     0.004 C 
ENDBRANCH  13  14
ENDBRANCH  12  13
ENDBRANCH   9  12
ENDBRANCH   3   5
ENDBRANCH   2   3
ENDBRANCH   1   2
BRANCH   1  21
ATOM     21  C   UNL A   1      33.835  29.974  26.763  1.00  0.00     0.275 C 
BRANCH  21  22
ATOM     22  O   UNL A   1      34.722  29.623  27.861  1.00  0.00    -0.458 OA
BRANCH  22  23
ATOM     23  C   UNL A   1      35.744  30.381  28.308  1.00  0.00     0.338 C 
ATOM     24  O   UNL A   1      35.662  31.590  28.487  1.00  0.00    -0.246 OA
BRANCH  23  25
ATOM     25  C   UNL A   1      37.009  29.656  28.480  1.00  0.00     0.060 A 
ATOM     26  C   UNL A   1      38.025  29.841  27.530  1.00  0.00     0.016 A 
ATOM     27  C   UNL A   1      37.228  28.926  29.642  1.00  0.00     0.016 A 
ATOM     28  C   UNL A   1      39.324  29.448  27.815  1.00  0.00     0.010 A 
ATOM     29  C   UNL A   1      38.517  28.603  29.966  1.00  0.00     0.010 A 
ATOM     30  C   UNL A   1      39.550  28.836  29.038  1.00  0.00    -0.014 A 
BRANCH  30  31
ATOM     31  C   UNL A   1      40.741  28.074  29.342  1.00  0.00     0.031 A 
ATOM     32  C   UNL A   1      40.935  26.706  28.854  1.00  0.00     0.074 A 
ATOM     33  C   UNL A   1      41.696  28.905  29.813  1.00  0.00     0.049 A 
ATOM     34  N   UNL A   1      42.039  26.068  28.988  1.00  0.00    -0.248 NA
ATOM     35  C   UNL A   1      39.908  25.909  28.191  1.00  0.00     0.031 C 
ATOM     36  C   UNL A   1      43.142  28.817  29.813  1.00  0.00     0.029 A 
ATOM     37  N   UNL A   1      41.430  30.076  30.551  1.00  0.00    -0.354 N 
ATOM     38  C   UNL A   1      41.981  24.930  28.213  1.00  0.00     0.074 A 
ATOM     39  C   UNL A   1      40.606  24.830  27.814  1.00  0.00     0.031 C 
ATOM     40  C   UNL A   1      43.613  29.650  30.765  1.00  0.00     0.029 A 
ATOM     41  C   UNL A   1      42.454  30.147  31.501  1.00  0.00     0.049 A 
ATOM     42  H   UNL A   1      40.686  30.708  30.425  1.00  0.00     0.167 HD
ATOM     43  C   UNL A   1      43.164  24.310  27.935  1.00  0.00     0.037 A 
ATOM     44  C   UNL A   1      42.135  29.801  32.786  1.00  0.00     0.037 A 
ATOM     45  C   UNL A   1      44.180  24.842  28.842  1.00  0.00     0.049 A 
ATOM     46  C   UNL A   1      42.880  28.547  33.177  1.00  0.00     0.074 A 
ATOM     47  C   UNL A   1      45.111  25.856  28.709  1.00  0.00     0.029 A 
ATOM     48  N   UNL A   1      44.013  24.623  30.206  1.00  0.00    -0.354 N 
ATOM     49  N   UNL A   1      43.093  27.523  32.390  1.00  0.00    -0.248 NA
ATOM     50  C   UNL A   1      43.574  28.451  34.454  1.00  0.00     0.031 C 
ATOM     51  C   UNL A   1      45.391  26.343  30.018  1.00  0.00     0.029 A 
ATOM     52  C   UNL A   1      44.654  25.605  30.935  1.00  0.00     0.049 A 
ATOM     53  H   UNL A   1      43.507  23.874  30.598  1.00  0.00     0.167 HD
ATOM     54  C   UNL A   1      44.017  26.702  32.985  1.00  0.00     0.074 A 
ATOM     55  C   UNL A   1      44.264  27.314  34.282  1.00  0.00     0.031 C 
ATOM     56  C   UNL A   1      44.589  25.610  32.388  1.00  0.00     0.037 A 
BRANCH  43  57
ATOM     57  C   UNL A   1      43.494  23.412  26.760  1.00  0.00     0.064 A 
ATOM     58  C   UNL A   1      43.123  22.045  26.806  1.00  0.00     0.173 A 
ATOM     59  C   UNL A   1      44.269  23.763  25.637  1.00  0.00     0.173 A 
ATOM     60  F   UNL A   1      42.366  21.562  27.801  1.00  0.00    -0.203 F 
ATOM     61  C   UNL A   1      43.534  21.112  25.847  1.00  0.00     0.198 A 
ATOM     62  C   UNL A   1      44.663  22.833  24.665  1.00  0.00     0.198 A 
ATOM     63  F   UNL A   1      44.702  25.010  25.436  1.00  0.00    -0.203 F 
ATOM     64  F   UNL A   1      43.188  19.824  25.979  1.00  0.00    -0.200 F 
ATOM     65  C   UNL A   1      44.309  21.505  24.777  1.00  0.00     0.200 A 
ATOM     66  F   UNL A   1      45.409  23.235  23.626  1.00  0.00    -0.200 F 
ATOM     67  F   UNL A   1      44.713  20.613  23.864  1.00  0.00    -0.200 F 
ENDBRANCH  43  57
BRANCH  44  68
ATOM     68  C   UNL A   1      40.722  30.156  33.163  1.00  0.00     0.064 A 
ATOM     69  C   UNL A   1      40.354  31.523  33.148  1.00  0.00     0.173 A 
ATOM     70  C   UNL A   1      39.676  29.225  33.196  1.00  0.00     0.173 A 
ATOM     71  F   UNL A   1      41.304  32.471  33.127  1.00  0.00    -0.203 F 
ATOM     72  C   UNL A   1      39.024  31.930  33.029  1.00  0.00     0.198 A 
ATOM     73  C   UNL A   1      38.338  29.640  33.112  1.00  0.00     0.198 A 
ATOM     74  F   UNL A   1      39.932  27.910  33.214  1.00  0.00    -0.203 F 
ATOM     75  F   UNL A   1      38.732  33.229  32.870  1.00  0.00    -0.200 F 
ATOM     76  C   UNL A   1      38.016  30.985  32.993  1.00  0.00     0.200 A 
ATOM     77  F   UNL A   1      37.358  28.727  33.040  1.00  0.00    -0.200 F 
ATOM     78  F   UNL A   1      36.745  31.360  32.786  1.00  0.00    -0.200 F 
ENDBRANCH  44  68
BRANCH  56  79
ATOM     79  C   UNL A   1      45.257  24.484  33.143  1.00  0.00     0.064 A 
ATOM     80  C   UNL A   1      46.551  24.579  33.682  1.00  0.00     0.173 A 
ATOM     81  C   UNL A   1      44.538  23.317  33.501  1.00  0.00     0.173 A 
ATOM     82  F   UNL A   1      47.280  25.697  33.570  1.00  0.00    -0.203 F 
ATOM     83  C   UNL A   1      47.123  23.543  34.420  1.00  0.00     0.198 A 
ATOM     84  C   UNL A   1      45.083  22.325  34.312  1.00  0.00     0.198 A 
ATOM     85  F   UNL A   1      43.271  23.117  33.112  1.00  0.00    -0.203 F 
ATOM     86  F   UNL A   1      48.391  23.657  34.842  1.00  0.00    -0.200 F 
ATOM     87  C   UNL A   1      46.386  22.422  34.745  1.00  0.00     0.200 A 
ATOM     88  F   UNL A   1      44.325  21.285  34.688  1.00  0.00    -0.200 F 
ATOM     89  F   UNL A   1      46.922  21.455  35.498  1.00  0.00    -0.200 F 
ENDBRANCH  56  79
ENDBRANCH  30  31
ENDBRANCH  23  25
ENDBRANCH  22  23
ENDBRANCH  21  22
ENDBRANCH   1  21
TORSDOF 14
ENDMDL
MODEL 2
REMARK VINA RESULT:     -13.1      1.230      3.265
REMARK SMILES Cc1cccc(C(=O)OCCOC(=O)c2ccc(-c3c4nc(c(-c5c(F)c(F)c(F)c(F)c5F)c5ccc([nH]5)c(-c5c(F)c(F)c(F)c(F)c5F)c5nc(c(-c6c(F)c(F)c(F)c(F)c6F)c6ccc3[nH]6)C=C5)C=C4)cc2)c1OC[C@@H]1C[C@H]2CC[C@@H]1C2
REMARK SMILES IDX 10 1 9 2 7 3 8 4 6 5 1 6 2 7 3 8 78 9 4 10 5 11 79 12 80 13
REMARK SMILES IDX 81 14 82 15 86 16 83 17 85 18 87 19 84 20 11 21 12 22 13 23
REMARK SMILES IDX 14 24 15 25 16 26 77 27 17 28 76 29 18 30 19 31 20 32 70 33
REMARK SMILES IDX 21 34 75 35 69 36 71 37 22 38 74 39 68 40 67 41 23 43 55 44
REMARK SMILES IDX 35 45 54 46 36 47 39 48 53 49 72 50 37 51 38 52 52 54 73 55
REMARK SMILES IDX 40 56 24 57 25 58 33 59 26 60 27 61 31 62 34 63 28 64 29 65
REMARK SMILES IDX 32 66 30 67 56 68 57 69 65 70 58 71 59 72 63 73 66 74 60 75
REMARK SMILES IDX 61 76 64 77 62 78 41 79 42 80 50 81 43 82 44 83 48 84 51 85
REMARK SMILES IDX 45 86 46 87 49 88 47 89
REMARK H PARENT 71 42 39 53
REMARK Flexibility Score: inf
ROOT
ATOM      1  C   UNL A   1      32.404  29.594  26.821  1.00  0.00     0.275 C 
ENDROOT
BRANCH   1   2
ATOM      2  O   UNL A   1      32.844  28.240  26.633  1.00  0.00    -0.458 OA
BRANCH   2   3
ATOM      3  C   UNL A   1      31.805  27.399  26.353  1.00  0.00     0.342 C 
ATOM      4  O   UNL A   1      31.043  26.913  27.174  1.00  0.00    -0.246 OA
BRANCH   3   5
ATOM      5  C   UNL A   1      31.682  27.112  24.912  1.00  0.00     0.102 A 
ATOM      6  C   UNL A   1      33.473  25.291  22.098  1.00  0.00     0.048 C 
ATOM      7  C   UNL A   1      32.406  25.992  22.895  1.00  0.00    -0.008 A 
ATOM      8  C   UNL A   1      31.336  26.563  22.189  1.00  0.00     0.007 A 
ATOM      9  C   UNL A   1      32.518  26.182  24.287  1.00  0.00     0.136 A 
ATOM     10  C   UNL A   1      30.477  27.448  22.821  1.00  0.00     0.001 A 
ATOM     11  C   UNL A   1      30.691  27.760  24.161  1.00  0.00     0.019 A 
BRANCH   9  12
ATOM     12  O   UNL A   1      33.599  25.623  24.901  1.00  0.00    -0.492 OA
BRANCH  12  13
ATOM     13  C   UNL A   1      33.474  24.361  25.569  1.00  0.00     0.233 C 
BRANCH  13  14
ATOM     14  C   UNL A   1      34.653  23.367  25.633  1.00  0.00     0.030 C 
ATOM     15  C   UNL A   1      36.003  24.121  25.450  1.00  0.00     0.011 C 
ATOM     16  C   UNL A   1      34.751  22.315  24.505  1.00  0.00    -0.004 C 
ATOM     17  C   UNL A   1      36.712  23.335  24.331  1.00  0.00    -0.010 C 
ATOM     18  C   UNL A   1      35.745  21.223  24.944  1.00  0.00     0.004 C 
ATOM     19  C   UNL A   1      35.542  23.023  23.408  1.00  0.00     0.007 C 
ATOM     20  C   UNL A   1      37.098  21.938  24.847  1.00  0.00     0.004 C 
ENDBRANCH  13  14
ENDBRANCH  12  13
ENDBRANCH   9  12
ENDBRANCH   3   5
ENDBRANCH   2   3
ENDBRANCH   1   2
BRANCH   1  21
ATOM     21  C   UNL A   1      33.489  30.565  27.319  1.00  0.00     0.275 C 
BRANCH  21  22
ATOM     22  O   UNL A   1      34.779  30.119  27.821  1.00  0.00    -0.458 OA
BRANCH  22  23
ATOM     23  C   UNL A   1      35.855  30.910  28.010  1.00  0.00     0.338 C 
ATOM     24  O   UNL A   1      35.858  32.114  27.786  1.00  0.00    -0.246 OA
BRANCH  23  25
ATOM     25  C   UNL A   1      37.069  30.196  28.424  1.00  0.00     0.060 A 
ATOM     26  C   UNL A   1      37.013  29.375  29.560  1.00  0.00     0.016 A 
ATOM     27  C   UNL A   1      38.195  30.230  27.610  1.00  0.00     0.016 A 
ATOM     28  C   UNL A   1      38.014  28.444  29.796  1.00  0.00     0.010 A 
ATOM     29  C   UNL A   1      39.148  29.266  27.789  1.00  0.00     0.010 A 
ATOM     30  C   UNL A   1      39.069  28.402  28.898  1.00  0.00    -0.014 A 
BRANCH  30  31
ATOM     31  C   UNL A   1      40.330  27.752  29.178  1.00  0.00     0.031 A 
ATOM     32  C   UNL A   1      40.609  26.377  28.752  1.00  0.00     0.074 A 
ATOM     33  C   UNL A   1      41.238  28.679  29.554  1.00  0.00     0.049 A 
ATOM     34  N   UNL A   1      41.766  25.835  28.860  1.00  0.00    -0.248 NA
ATOM     35  C   UNL A   1      39.617  25.468  28.186  1.00  0.00     0.031 C 
ATOM     36  C   UNL A   1      42.685  28.702  29.482  1.00  0.00     0.029 A 
ATOM     37  N   UNL A   1      40.916  29.866  30.242  1.00  0.00    -0.354 N 
ATOM     38  C   UNL A   1      41.760  24.655  28.149  1.00  0.00     0.074 A 
ATOM     39  C   UNL A   1      40.380  24.427  27.829  1.00  0.00     0.031 C 
ATOM     40  C   UNL A   1      43.134  29.621  30.362  1.00  0.00     0.029 A 
ATOM     41  C   UNL A   1      41.976  30.068  31.132  1.00  0.00     0.049 A 
ATOM     42  H   UNL A   1      40.118  30.430  30.124  1.00  0.00     0.167 HD
ATOM     43  C   UNL A   1      42.974  24.113  27.842  1.00  0.00     0.037 A 
ATOM     44  C   UNL A   1      41.748  29.771  32.449  1.00  0.00     0.037 A 
ATOM     45  C   UNL A   1      43.987  24.771  28.665  1.00  0.00     0.049 A 
ATOM     46  C   UNL A   1      42.608  28.602  32.864  1.00  0.00     0.074 A 
ATOM     47  C   UNL A   1      44.827  25.844  28.430  1.00  0.00     0.029 A 
ATOM     48  N   UNL A   1      43.904  24.616  30.046  1.00  0.00    -0.354 N 
ATOM     49  N   UNL A   1      42.864  27.555  32.121  1.00  0.00    -0.248 NA
ATOM     50  C   UNL A   1      43.370  28.631  34.106  1.00  0.00     0.031 C 
ATOM     51  C   UNL A   1      45.131  26.424  29.696  1.00  0.00     0.029 A 
ATOM     52  C   UNL A   1      44.500  25.684  30.688  1.00  0.00     0.049 A 
ATOM     53  H   UNL A   1      43.480  23.853  30.502  1.00  0.00     0.167 HD
ATOM     54  C   UNL A   1      43.879  26.842  32.709  1.00  0.00     0.074 A 
ATOM     55  C   UNL A   1      44.138  27.542  33.957  1.00  0.00     0.031 C 
ATOM     56  C   UNL A   1      44.506  25.766  32.140  1.00  0.00     0.037 A 
BRANCH  43  57
ATOM     57  C   UNL A   1      43.317  23.178  26.700  1.00  0.00     0.064 A 
ATOM     58  C   UNL A   1      42.993  21.803  26.807  1.00  0.00     0.173 A 
ATOM     59  C   UNL A   1      44.064  23.508  25.552  1.00  0.00     0.173 A 
ATOM     60  F   UNL A   1      42.266  21.336  27.833  1.00  0.00    -0.203 F 
ATOM     61  C   UNL A   1      43.420  20.845  25.880  1.00  0.00     0.198 A 
ATOM     62  C   UNL A   1      44.474  22.552  24.612  1.00  0.00     0.198 A 
ATOM     63  F   UNL A   1      44.452  24.759  25.293  1.00  0.00    -0.203 F 
ATOM     64  F   UNL A   1      43.120  19.552  26.070  1.00  0.00    -0.200 F 
ATOM     65  C   UNL A   1      44.166  21.219  24.783  1.00  0.00     0.200 A 
ATOM     66  F   UNL A   1      45.192  22.934  23.546  1.00  0.00    -0.200 F 
ATOM     67  F   UNL A   1      44.587  20.303  23.901  1.00  0.00    -0.200 F 
ENDBRANCH  43  57
BRANCH  44  68
ATOM     68  C   UNL A   1      40.331  30.037  32.881  1.00  0.00     0.064 A 
ATOM     69  C   UNL A   1      39.873  31.376  32.868  1.00  0.00     0.173 A 
ATOM     70  C   UNL A   1      39.352  29.040  32.966  1.00  0.00     0.173 A 
ATOM     71  F   UNL A   1      40.757  32.385  32.799  1.00  0.00    -0.203 F 
ATOM     72  C   UNL A   1      38.515  31.694  32.800  1.00  0.00     0.198 A 
ATOM     73  C   UNL A   1      37.987  29.365  32.934  1.00  0.00     0.198 A 
ATOM     74  F   UNL A   1      39.694  27.745  32.985  1.00  0.00    -0.203 F 
ATOM     75  F   UNL A   1      38.132  32.969  32.641  1.00  0.00    -0.200 F 
ATOM     76  C   UNL A   1      37.572  30.685  32.816  1.00  0.00     0.200 A 
ATOM     77  F   UNL A   1      37.067  28.388  32.911  1.00  0.00    -0.200 F 
ATOM     78  F   UNL A   1      36.272  30.973  32.658  1.00  0.00    -0.200 F 
ENDBRANCH  44  68
BRANCH  56  79
ATOM     79  C   UNL A   1      45.298  24.738  32.917  1.00  0.00     0.064 A 
ATOM     80  C   UNL A   1      46.590  24.976  33.414  1.00  0.00     0.173 A 
ATOM     81  C   UNL A   1      44.703  23.524  33.337  1.00  0.00     0.173 A 
ATOM     82  F   UNL A   1      47.205  26.153  33.240  1.00  0.00    -0.203 F 
ATOM     83  C   UNL A   1      47.276  24.029  34.173  1.00  0.00     0.198 A 
ATOM     84  C   UNL A   1      45.360  22.620  34.168  1.00  0.00     0.198 A 
ATOM     85  F   UNL A   1      43.450  23.189  32.993  1.00  0.00    -0.203 F 
ATOM     86  F   UNL A   1      48.537  24.278  34.553  1.00  0.00    -0.200 F 
ATOM     87  C   UNL A   1      46.658  22.857  34.559  1.00  0.00     0.200 A 
ATOM     88  F   UNL A   1      44.714  21.528  34.604  1.00  0.00    -0.200 F 
ATOM     89  F   UNL A   1      47.303  21.974  35.332  1.00  0.00    -0.200 F 
ENDBRANCH  56  79
ENDBRANCH  30  31
ENDBRANCH  23  25
ENDBRANCH  22  23
ENDBRANCH  21  22
ENDBRANCH   1  21
TORSDOF 14
ENDMDL
MODEL 3
REMARK VINA RESULT:     -13.0      4.295     10.319
REMARK SMILES Cc1cccc(C(=O)OCCOC(=O)c2ccc(-c3c4nc(c(-c5c(F)c(F)c(F)c(F)c5F)c5ccc([nH]5)c(-c5c(F)c(F)c(F)c(F)c5F)c5nc(c(-c6c(F)c(F)c(F)c(F)c6F)c6ccc3[nH]6)C=C5)C=C4)cc2)c1OC[C@@H]1C[C@H]2CC[C@@H]1C2
REMARK SMILES IDX 10 1 9 2 7 3 8 4 6 5 1 6 2 7 3 8 78 9 4 10 5 11 79 12 80 13
REMARK SMILES IDX 81 14 82 15 86 16 83 17 85 18 87 19 84 20 11 21 12 22 13 23
REMARK SMILES IDX 14 24 15 25 16 26 77 27 17 28 76 29 18 30 19 31 20 32 70 33
REMARK SMILES IDX 21 34 75 35 69 36 71 37 22 38 74 39 68 40 67 41 23 43 55 44
REMARK SMILES IDX 35 45 54 46 36 47 39 48 53 49 72 50 37 51 38 52 52 54 73 55
REMARK SMILES IDX 40 56 24 57 25 58 33 59 26 60 27 61 31 62 34 63 28 64 29 65
REMARK SMILES IDX 32 66 30 67 56 68 57 69 65 70 58 71 59 72 63 73 66 74 60 75
REMARK SMILES IDX 61 76 64 77 62 78 41 79 42 80 50 81 43 82 44 83 48 84 51 85
REMARK SMILES IDX 45 86 46 87 49 88 47 89
REMARK H PARENT 71 42 39 53
REMARK Flexibility Score: inf
ROOT
ATOM      1  C   UNL A   1      36.347  21.811  25.737  1.00  0.00     0.275 C 
ENDROOT
BRANCH   1   2
ATOM      2  O   UNL A   1      35.640  22.818  26.478  1.00  0.00    -0.458 OA
BRANCH   2   3
ATOM      3  C   UNL A   1      34.377  22.417  26.808  1.00  0.00     0.342 C 
ATOM      4  O   UNL A   1      34.097  21.526  27.596  1.00  0.00    -0.246 OA
BRANCH   3   5
ATOM      5  C   UNL A   1      33.336  23.180  26.096  1.00  0.00     0.102 A 
ATOM      6  C   UNL A   1      31.128  22.996  23.009  1.00  0.00     0.048 C 
ATOM      7  C   UNL A   1      31.680  23.402  24.348  1.00  0.00    -0.008 A 
ATOM      8  C   UNL A   1      31.321  24.665  24.843  1.00  0.00     0.007 A 
ATOM      9  C   UNL A   1      32.617  22.610  25.041  1.00  0.00     0.136 A 
ATOM     10  C   UNL A   1      32.001  25.210  25.921  1.00  0.00     0.001 A 
ATOM     11  C   UNL A   1      33.040  24.489  26.501  1.00  0.00     0.019 A 
BRANCH   9  12
ATOM     12  O   UNL A   1      32.941  21.408  24.485  1.00  0.00    -0.492 OA
BRANCH  12  13
ATOM     13  C   UNL A   1      32.222  20.225  24.860  1.00  0.00     0.233 C 
BRANCH  13  14
ATOM     14  C   UNL A   1      32.961  18.930  25.259  1.00  0.00     0.030 C 
ATOM     15  C   UNL A   1      34.392  18.917  24.646  1.00  0.00     0.011 C 
ATOM     16  C   UNL A   1      32.397  17.599  24.713  1.00  0.00    -0.004 C 
ATOM     17  C   UNL A   1      34.474  17.552  23.938  1.00  0.00    -0.010 C 
ATOM     18  C   UNL A   1      33.032  16.441  25.506  1.00  0.00     0.004 C 
ATOM     19  C   UNL A   1      33.072  17.443  23.352  1.00  0.00     0.007 C 
ATOM     20  C   UNL A   1      34.474  16.426  24.986  1.00  0.00     0.004 C 
ENDBRANCH  13  14
ENDBRANCH  12  13
ENDBRANCH   9  12
ENDBRANCH   3   5
ENDBRANCH   2   3
ENDBRANCH   1   2
BRANCH   1  21
ATOM     21  C   UNL A   1      37.841  22.104  25.510  1.00  0.00     0.275 C 
BRANCH  21  22
ATOM     22  O   UNL A   1      38.491  23.316  25.984  1.00  0.00    -0.458 OA
BRANCH  22  23
ATOM     23  C   UNL A   1      39.546  23.355  26.822  1.00  0.00     0.338 C 
ATOM     24  O   UNL A   1      40.160  22.359  27.184  1.00  0.00    -0.246 OA
BRANCH  23  25
ATOM     25  C   UNL A   1      39.853  24.690  27.351  1.00  0.00     0.060 A 
ATOM     26  C   UNL A   1      40.396  25.648  26.483  1.00  0.00     0.016 A 
ATOM     27  C   UNL A   1      39.470  25.019  28.646  1.00  0.00     0.016 A 
ATOM     28  C   UNL A   1      40.396  26.989  26.839  1.00  0.00     0.010 A 
ATOM     29  C   UNL A   1      39.394  26.344  28.977  1.00  0.00     0.010 A 
ATOM     30  C   UNL A   1      39.887  27.316  28.087  1.00  0.00    -0.014 A 
BRANCH  30  31
ATOM     31  C   UNL A   1      40.125  28.585  28.738  1.00  0.00     0.031 A 
ATOM     32  C   UNL A   1      39.131  29.663  28.729  1.00  0.00     0.074 A 
ATOM     33  C   UNL A   1      41.180  28.469  29.573  1.00  0.00     0.049 A 
ATOM     34  N   UNL A   1      39.260  30.735  29.420  1.00  0.00    -0.248 NA
ATOM     35  C   UNL A   1      37.910  29.657  27.930  1.00  0.00     0.031 C 
ATOM     36  C   UNL A   1      41.552  29.195  30.770  1.00  0.00     0.029 A 
ATOM     37  N   UNL A   1      42.270  27.602  29.353  1.00  0.00    -0.354 N 
ATOM     38  C   UNL A   1      38.063  31.417  29.392  1.00  0.00     0.074 A 
ATOM     39  C   UNL A   1      37.289  30.755  28.379  1.00  0.00     0.031 C 
ATOM     40  C   UNL A   1      42.872  29.010  30.980  1.00  0.00     0.029 A 
ATOM     41  C   UNL A   1      43.389  28.303  29.811  1.00  0.00     0.049 A 
ATOM     42  H   UNL A   1      42.248  26.700  28.961  1.00  0.00     0.167 HD
ATOM     43  C   UNL A   1      37.878  32.381  30.339  1.00  0.00     0.037 A 
ATOM     44  C   UNL A   1      44.211  28.852  28.864  1.00  0.00     0.037 A 
ATOM     45  C   UNL A   1      39.175  32.679  30.943  1.00  0.00     0.049 A 
ATOM     46  C   UNL A   1      44.164  30.358  28.958  1.00  0.00     0.074 A 
ATOM     47  C   UNL A   1      39.805  32.210  32.081  1.00  0.00     0.029 A 
ATOM     48  N   UNL A   1      40.166  33.215  30.124  1.00  0.00    -0.354 N 
ATOM     49  N   UNL A   1      43.087  31.062  29.199  1.00  0.00    -0.248 NA
ATOM     50  C   UNL A   1      45.384  31.152  28.943  1.00  0.00     0.031 C 
ATOM     51  C   UNL A   1      41.208  32.340  31.869  1.00  0.00     0.029 A 
ATOM     52  C   UNL A   1      41.418  32.913  30.622  1.00  0.00     0.049 A 
ATOM     53  H   UNL A   1      39.998  33.736  29.306  1.00  0.00     0.167 HD
ATOM     54  C   UNL A   1      43.464  32.352  29.476  1.00  0.00     0.074 A 
ATOM     55  C   UNL A   1      44.905  32.359  29.277  1.00  0.00     0.031 C 
ATOM     56  C   UNL A   1      42.617  33.335  29.915  1.00  0.00     0.037 A 
BRANCH  43  57
ATOM     57  C   UNL A   1      36.569  32.912  30.888  1.00  0.00     0.064 A 
ATOM     58  C   UNL A   1      35.810  33.824  30.113  1.00  0.00     0.173 A 
ATOM     59  C   UNL A   1      36.062  32.693  32.185  1.00  0.00     0.173 A 
ATOM     60  F   UNL A   1      36.153  34.118  28.851  1.00  0.00    -0.203 F 
ATOM     61  C   UNL A   1      34.683  34.489  30.609  1.00  0.00     0.198 A 
ATOM     62  C   UNL A   1      34.921  33.344  32.673  1.00  0.00     0.198 A 
ATOM     63  F   UNL A   1      36.653  31.862  33.046  1.00  0.00    -0.203 F 
ATOM     64  F   UNL A   1      34.041  35.379  29.837  1.00  0.00    -0.200 F 
ATOM     65  C   UNL A   1      34.240  34.253  31.892  1.00  0.00     0.200 A 
ATOM     66  F   UNL A   1      34.498  33.095  33.922  1.00  0.00    -0.200 F 
ATOM     67  F   UNL A   1      33.169  34.897  32.373  1.00  0.00    -0.200 F 
ENDBRANCH  43  57
BRANCH  44  68
ATOM     68  C   UNL A   1      44.289  28.036  27.602  1.00  0.00     0.064 A 
ATOM     69  C   UNL A   1      44.829  26.730  27.687  1.00  0.00     0.173 A 
ATOM     70  C   UNL A   1      43.568  28.342  26.441  1.00  0.00     0.173 A 
ATOM     71  F   UNL A   1      45.541  26.370  28.767  1.00  0.00    -0.203 F 
ATOM     72  C   UNL A   1      44.545  25.748  26.736  1.00  0.00     0.198 A 
ATOM     73  C   UNL A   1      43.315  27.362  25.470  1.00  0.00     0.198 A 
ATOM     74  F   UNL A   1      43.022  29.555  26.275  1.00  0.00    -0.203 F 
ATOM     75  F   UNL A   1      44.956  24.487  26.932  1.00  0.00    -0.200 F 
ATOM     76  C   UNL A   1      43.772  26.061  25.635  1.00  0.00     0.200 A 
ATOM     77  F   UNL A   1      42.533  27.649  24.417  1.00  0.00    -0.200 F 
ATOM     78  F   UNL A   1      43.416  25.104  24.765  1.00  0.00    -0.200 F 
ENDBRANCH  44  68
BRANCH  56  79
ATOM     79  C   UNL A   1      42.913  34.814  29.816  1.00  0.00     0.064 A 
ATOM     80  C   UNL A   1      42.400  35.636  28.799  1.00  0.00     0.173 A 
ATOM     81  C   UNL A   1      43.593  35.494  30.857  1.00  0.00     0.173 A 
ATOM     82  F   UNL A   1      41.593  35.155  27.845  1.00  0.00    -0.203 F 
ATOM     83  C   UNL A   1      42.646  37.008  28.762  1.00  0.00     0.198 A 
ATOM     84  C   UNL A   1      43.760  36.876  30.860  1.00  0.00     0.198 A 
ATOM     85  F   UNL A   1      44.083  34.848  31.925  1.00  0.00    -0.203 F 
ATOM     86  F   UNL A   1      42.199  37.730  27.725  1.00  0.00    -0.200 F 
ATOM     87  C   UNL A   1      43.315  37.630  29.798  1.00  0.00     0.200 A 
ATOM     88  F   UNL A   1      44.336  37.472  31.914  1.00  0.00    -0.200 F 
ATOM     89  F   UNL A   1      43.503  38.955  29.784  1.00  0.00    -0.200 F 
ENDBRANCH  56  79
ENDBRANCH  30  31
ENDBRANCH  23  25
ENDBRANCH  22  23
ENDBRANCH  21  22
ENDBRANCH   1  21
TORSDOF 14
ENDMDL
