MODEL 1
REMARK VINA RESULT:     -11.9      0.000      0.000
REMARK SMILES C[NH+](C)[C@@H]1CC[N@@H+](Cc2ccc(C(=O)OCCOC(=O)c3ccc(-c4c5nc(c(-c6c(F)c(F)c(F)c(F)c6F)c6ccc([nH]6)c(-c6c(F)c(F)c(F)c(F)c6F)c6nc(c(-c7c(F)c(F)c(F)c(F)c7F)c7ccc4[nH]7)C=C6)C=C5)cc3)cn2)C1
REMARK SMILES IDX 16 1 15 2 13 3 14 4 12 5 9 6 10 7 85 8 11 9 84 10 8 11 7 12
REMARK SMILES IDX 4 13 5 14 86 15 6 16 2 18 1 19 3 20 17 22 18 23 19 24 20 25
REMARK SMILES IDX 21 26 22 27 83 28 23 29 82 30 24 31 25 32 26 33 76 34 27 35
REMARK SMILES IDX 81 36 75 37 77 38 28 39 80 40 74 41 73 42 29 44 61 45 41 46
REMARK SMILES IDX 60 47 42 48 45 49 59 50 78 51 43 52 44 53 58 55 79 56 46 57
REMARK SMILES IDX 30 58 31 59 39 60 32 61 33 62 37 63 40 64 34 65 35 66 38 67
REMARK SMILES IDX 36 68 62 69 63 70 71 71 64 72 65 73 69 74 72 75 66 76 67 77
REMARK SMILES IDX 70 78 68 79 47 80 48 81 56 82 49 83 50 84 54 85 57 86 51 87
REMARK SMILES IDX 52 88 55 89 53 90
REMARK H PARENT 7 17 2 21 77 43 45 54
REMARK Flexibility Score: inf
ROOT
ATOM      1  C   UNL A   1      42.934  20.775  26.435  1.00  0.00     0.275 C 
ENDROOT
BRANCH   1   2
ATOM      2  O   UNL A   1      41.628  20.359  25.987  1.00  0.00    -0.458 OA
BRANCH   2   3
ATOM      3  C   UNL A   1      40.596  20.781  26.750  1.00  0.00     0.339 C 
ATOM      4  O   UNL A   1      40.640  21.068  27.939  1.00  0.00    -0.246 OA
BRANCH   3   5
ATOM      5  C   UNL A   1      39.371  20.948  25.950  1.00  0.00     0.078 A 
ATOM      6  C   UNL A   1      36.920  21.442  24.816  1.00  0.00     0.095 A 
ATOM      7  C   UNL A   1      37.458  20.155  24.739  1.00  0.00     0.031 A 
ATOM      8  N   UNL A   1      37.611  22.485  25.329  1.00  0.00    -0.254 NA
ATOM      9  C   UNL A   1      38.710  19.906  25.308  1.00  0.00     0.019 A 
ATOM     10  C   UNL A   1      38.789  22.206  25.916  1.00  0.00     0.127 A 
BRANCH   6  11
ATOM     11  C   UNL A   1      35.449  21.691  24.566  1.00  0.00     0.319 C 
BRANCH  11  12
ATOM     12  N   UNL A   1      34.557  21.527  25.733  1.00  0.00    -0.325 N 
ATOM     13  C   UNL A   1      32.568  22.955  25.761  1.00  0.00     0.245 C 
ATOM     14  C   UNL A   1      32.191  21.567  25.223  1.00  0.00     0.132 C 
ATOM     15  C   UNL A   1      34.015  22.770  26.297  1.00  0.00     0.328 C 
ATOM     16  C   UNL A   1      33.393  20.670  25.493  1.00  0.00     0.269 C 
ATOM     17  H   UNL A   1      35.206  21.096  26.391  1.00  0.00     0.348 HD
BRANCH  13  18
ATOM     18  N   UNL A   1      31.579  23.684  26.588  1.00  0.00    -0.333 N 
ATOM     19  C   UNL A   1      31.303  25.047  26.141  1.00  0.00     0.332 C 
ATOM     20  C   UNL A   1      30.337  22.969  26.847  1.00  0.00     0.332 C 
ATOM     21  H   UNL A   1      32.068  23.750  27.481  1.00  0.00     0.348 HD
ENDBRANCH  13  18
ENDBRANCH  11  12
ENDBRANCH   6  11
ENDBRANCH   3   5
ENDBRANCH   2   3
ENDBRANCH   1   2
BRANCH   1  22
ATOM     22  C   UNL A   1      43.671  21.524  25.323  1.00  0.00     0.275 C 
BRANCH  22  23
ATOM     23  O   UNL A   1      42.888  22.634  24.835  1.00  0.00    -0.458 OA
BRANCH  23  24
ATOM     24  C   UNL A   1      43.498  23.838  24.907  1.00  0.00     0.338 C 
ATOM     25  O   UNL A   1      44.509  24.192  24.322  1.00  0.00    -0.246 OA
BRANCH  24  26
ATOM     26  C   UNL A   1      42.715  24.783  25.721  1.00  0.00     0.060 A 
ATOM     27  C   UNL A   1      43.145  26.101  25.749  1.00  0.00     0.016 A 
ATOM     28  C   UNL A   1      41.768  24.347  26.641  1.00  0.00     0.016 A 
ATOM     29  C   UNL A   1      42.778  26.944  26.792  1.00  0.00     0.010 A 
ATOM     30  C   UNL A   1      41.283  25.245  27.608  1.00  0.00     0.010 A 
ATOM     31  C   UNL A   1      41.833  26.536  27.741  1.00  0.00    -0.014 A 
BRANCH  31  32
ATOM     32  C   UNL A   1      41.484  27.438  28.886  1.00  0.00     0.031 A 
ATOM     33  C   UNL A   1      42.312  27.423  30.152  1.00  0.00     0.074 A 
ATOM     34  C   UNL A   1      40.453  28.306  28.793  1.00  0.00     0.049 A 
ATOM     35  N   UNL A   1      42.087  28.018  31.300  1.00  0.00    -0.248 NA
ATOM     36  C   UNL A   1      43.545  26.620  30.137  1.00  0.00     0.031 C 
ATOM     37  C   UNL A   1      39.581  28.470  27.626  1.00  0.00     0.029 A 
ATOM     38  N   UNL A   1      39.963  29.227  29.692  1.00  0.00    -0.354 N 
ATOM     39  C   UNL A   1      43.104  27.605  32.153  1.00  0.00     0.074 A 
ATOM     40  C   UNL A   1      43.948  26.706  31.398  1.00  0.00     0.031 C 
ATOM     41  C   UNL A   1      38.704  29.455  27.860  1.00  0.00     0.029 A 
ATOM     42  C   UNL A   1      38.872  29.925  29.229  1.00  0.00     0.049 A 
ATOM     43  H   UNL A   1      40.358  29.371  30.583  1.00  0.00     0.167 HD
ATOM     44  C   UNL A   1      43.318  27.948  33.447  1.00  0.00     0.037 A 
ATOM     45  C   UNL A   1      38.061  30.807  29.845  1.00  0.00     0.037 A 
ATOM     46  C   UNL A   1      42.533  28.913  34.175  1.00  0.00     0.049 A 
ATOM     47  C   UNL A   1      38.315  31.154  31.287  1.00  0.00     0.074 A 
ATOM     48  C   UNL A   1      42.716  29.369  35.469  1.00  0.00     0.029 A 
ATOM     49  N   UNL A   1      41.428  29.578  33.670  1.00  0.00    -0.354 N 
ATOM     50  N   UNL A   1      39.275  30.747  32.081  1.00  0.00    -0.248 NA
ATOM     51  C   UNL A   1      37.363  32.076  31.924  1.00  0.00     0.031 C 
ATOM     52  C   UNL A   1      41.686  30.266  35.768  1.00  0.00     0.029 A 
ATOM     53  C   UNL A   1      40.899  30.418  34.639  1.00  0.00     0.049 A 
ATOM     54  H   UNL A   1      41.071  29.471  32.758  1.00  0.00     0.167 HD
ATOM     55  C   UNL A   1      39.054  31.377  33.299  1.00  0.00     0.074 A 
ATOM     56  C   UNL A   1      37.889  32.218  33.130  1.00  0.00     0.031 C 
ATOM     57  C   UNL A   1      39.748  31.261  34.456  1.00  0.00     0.037 A 
BRANCH  44  58
ATOM     58  C   UNL A   1      44.427  27.261  34.194  1.00  0.00     0.064 A 
ATOM     59  C   UNL A   1      45.708  27.817  34.316  1.00  0.00     0.173 A 
ATOM     60  C   UNL A   1      44.165  26.062  34.879  1.00  0.00     0.173 A 
ATOM     61  F   UNL A   1      46.013  28.955  33.677  1.00  0.00    -0.203 F 
ATOM     62  C   UNL A   1      46.689  27.192  35.085  1.00  0.00     0.198 A 
ATOM     63  C   UNL A   1      45.138  25.457  35.671  1.00  0.00     0.198 A 
ATOM     64  F   UNL A   1      42.954  25.491  34.805  1.00  0.00    -0.203 F 
ATOM     65  F   UNL A   1      47.916  27.726  35.163  1.00  0.00    -0.200 F 
ATOM     66  C   UNL A   1      46.400  26.022  35.770  1.00  0.00     0.200 A 
ATOM     67  F   UNL A   1      44.849  24.337  36.346  1.00  0.00    -0.200 F 
ATOM     68  F   UNL A   1      47.338  25.437  36.528  1.00  0.00    -0.200 F 
ENDBRANCH  44  58
BRANCH  45  69
ATOM     69  C   UNL A   1      36.884  31.379  29.130  1.00  0.00     0.064 A 
ATOM     70  C   UNL A   1      36.840  32.732  28.765  1.00  0.00     0.173 A 
ATOM     71  C   UNL A   1      35.755  30.595  28.847  1.00  0.00     0.173 A 
ATOM     72  F   UNL A   1      37.881  33.533  29.036  1.00  0.00    -0.203 F 
ATOM     73  C   UNL A   1      35.702  33.285  28.181  1.00  0.00     0.198 A 
ATOM     74  C   UNL A   1      34.634  31.138  28.223  1.00  0.00     0.198 A 
ATOM     75  F   UNL A   1      35.738  29.294  29.174  1.00  0.00    -0.203 F 
ATOM     76  F   UNL A   1      35.658  34.597  27.915  1.00  0.00    -0.200 F 
ATOM     77  C   UNL A   1      34.602  32.486  27.906  1.00  0.00     0.200 A 
ATOM     78  F   UNL A   1      33.581  30.358  27.944  1.00  0.00    -0.200 F 
ATOM     79  F   UNL A   1      33.505  33.020  27.351  1.00  0.00    -0.200 F 
ENDBRANCH  45  69
BRANCH  57  80
ATOM     80  C   UNL A   1      39.292  32.097  35.618  1.00  0.00     0.064 A 
ATOM     81  C   UNL A   1      38.417  31.593  36.591  1.00  0.00     0.173 A 
ATOM     82  C   UNL A   1      39.754  33.414  35.768  1.00  0.00     0.173 A 
ATOM     83  F   UNL A   1      37.934  30.347  36.485  1.00  0.00    -0.203 F 
ATOM     84  C   UNL A   1      37.992  32.389  37.651  1.00  0.00     0.198 A 
ATOM     85  C   UNL A   1      39.355  34.194  36.850  1.00  0.00     0.198 A 
ATOM     86  F   UNL A   1      40.599  33.942  34.870  1.00  0.00    -0.203 F 
ATOM     87  F   UNL A   1      37.106  31.907  38.535  1.00  0.00    -0.200 F 
ATOM     88  C   UNL A   1      38.466  33.685  37.784  1.00  0.00     0.200 A 
ATOM     89  F   UNL A   1      39.828  35.441  36.985  1.00  0.00    -0.200 F 
ATOM     90  F   UNL A   1      38.059  34.447  38.808  1.00  0.00    -0.200 F 
ENDBRANCH  57  80
ENDBRANCH  31  32
ENDBRANCH  24  26
ENDBRANCH  23  24
ENDBRANCH  22  23
ENDBRANCH   1  22
TORSDOF 14
ENDMDL
MODEL 2
REMARK VINA RESULT:     -11.8      3.635      8.352
REMARK SMILES C[NH+](C)[C@@H]1CC[N@@H+](Cc2ccc(C(=O)OCCOC(=O)c3ccc(-c4c5nc(c(-c6c(F)c(F)c(F)c(F)c6F)c6ccc([nH]6)c(-c6c(F)c(F)c(F)c(F)c6F)c6nc(c(-c7c(F)c(F)c(F)c(F)c7F)c7ccc4[nH]7)C=C6)C=C5)cc3)cn2)C1
REMARK SMILES IDX 16 1 15 2 13 3 14 4 12 5 9 6 10 7 85 8 11 9 84 10 8 11 7 12
REMARK SMILES IDX 4 13 5 14 86 15 6 16 2 18 1 19 3 20 17 22 18 23 19 24 20 25
REMARK SMILES IDX 21 26 22 27 83 28 23 29 82 30 24 31 25 32 26 33 76 34 27 35
REMARK SMILES IDX 81 36 75 37 77 38 28 39 80 40 74 41 73 42 29 44 61 45 41 46
REMARK SMILES IDX 60 47 42 48 45 49 59 50 78 51 43 52 44 53 58 55 79 56 46 57
REMARK SMILES IDX 30 58 31 59 39 60 32 61 33 62 37 63 40 64 34 65 35 66 38 67
REMARK SMILES IDX 36 68 62 69 63 70 71 71 64 72 65 73 69 74 72 75 66 76 67 77
REMARK SMILES IDX 70 78 68 79 47 80 48 81 56 82 49 83 50 84 54 85 57 86 51 87
REMARK SMILES IDX 52 88 55 89 53 90
REMARK H PARENT 7 17 2 21 77 43 45 54
REMARK Flexibility Score: inf
ROOT
ATOM      1  C   UNL A   1      31.475  29.539  25.377  1.00  0.00     0.275 C 
ENDROOT
BRANCH   1   2
ATOM      2  O   UNL A   1      32.453  28.612  25.889  1.00  0.00    -0.458 OA
BRANCH   2   3
ATOM      3  C   UNL A   1      31.949  27.564  26.577  1.00  0.00     0.339 C 
ATOM      4  O   UNL A   1      31.050  27.603  27.406  1.00  0.00    -0.246 OA
BRANCH   3   5
ATOM      5  C   UNL A   1      32.564  26.297  26.149  1.00  0.00     0.078 A 
ATOM      6  C   UNL A   1      33.670  23.813  25.766  1.00  0.00     0.095 A 
ATOM      7  C   UNL A   1      34.358  24.941  25.313  1.00  0.00     0.031 A 
ATOM      8  N   UNL A   1      32.424  23.887  26.286  1.00  0.00    -0.254 NA
ATOM      9  C   UNL A   1      33.791  26.204  25.499  1.00  0.00     0.019 A 
ATOM     10  C   UNL A   1      31.925  25.118  26.502  1.00  0.00     0.127 A 
BRANCH   6  11
ATOM     11  C   UNL A   1      34.373  22.483  25.937  1.00  0.00     0.319 C 
BRANCH  11  12
ATOM     12  N   UNL A   1      34.450  21.632  24.732  1.00  0.00    -0.325 N 
ATOM     13  C   UNL A   1      33.332  19.459  24.891  1.00  0.00     0.245 C 
ATOM     14  C   UNL A   1      32.407  20.457  24.180  1.00  0.00     0.132 C 
ATOM     15  C   UNL A   1      34.694  20.205  24.977  1.00  0.00     0.328 C 
ATOM     16  C   UNL A   1      33.262  21.681  23.876  1.00  0.00     0.269 C 
ATOM     17  H   UNL A   1      35.257  22.052  24.272  1.00  0.00     0.348 HD
BRANCH  13  18
ATOM     18  N   UNL A   1      33.311  18.044  24.456  1.00  0.00    -0.333 N 
ATOM     19  C   UNL A   1      32.622  17.138  25.373  1.00  0.00     0.332 C 
ATOM     20  C   UNL A   1      32.867  17.820  23.087  1.00  0.00     0.332 C 
ATOM     21  H   UNL A   1      34.303  17.806  24.482  1.00  0.00     0.348 HD
ENDBRANCH  13  18
ENDBRANCH  11  12
ENDBRANCH   6  11
ENDBRANCH   3   5
ENDBRANCH   2   3
ENDBRANCH   1   2
BRANCH   1  22
ATOM     22  C   UNL A   1      31.571  30.881  26.104  1.00  0.00     0.275 C 
BRANCH  22  23
ATOM     23  O   UNL A   1      32.463  30.797  27.237  1.00  0.00    -0.458 OA
BRANCH  23  24
ATOM     24  C   UNL A   1      33.237  31.887  27.435  1.00  0.00     0.338 C 
ATOM     25  O   UNL A   1      32.877  33.052  27.487  1.00  0.00    -0.246 OA
BRANCH  24  26
ATOM     26  C   UNL A   1      34.632  31.505  27.714  1.00  0.00     0.060 A 
ATOM     27  C   UNL A   1      34.878  30.168  27.995  1.00  0.00     0.016 A 
ATOM     28  C   UNL A   1      35.615  32.454  27.969  1.00  0.00     0.016 A 
ATOM     29  C   UNL A   1      36.020  29.790  28.689  1.00  0.00     0.010 A 
ATOM     30  C   UNL A   1      36.835  32.048  28.536  1.00  0.00     0.010 A 
ATOM     31  C   UNL A   1      37.028  30.720  28.969  1.00  0.00    -0.014 A 
BRANCH  31  32
ATOM     32  C   UNL A   1      38.232  30.306  29.761  1.00  0.00     0.031 A 
ATOM     33  C   UNL A   1      39.265  29.382  29.156  1.00  0.00     0.074 A 
ATOM     34  C   UNL A   1      38.435  30.783  31.009  1.00  0.00     0.049 A 
ATOM     35  N   UNL A   1      40.292  28.797  29.726  1.00  0.00    -0.248 NA
ATOM     36  C   UNL A   1      39.117  29.053  27.729  1.00  0.00     0.031 C 
ATOM     37  C   UNL A   1      37.552  31.712  31.719  1.00  0.00     0.029 A 
ATOM     38  N   UNL A   1      39.456  30.560  31.905  1.00  0.00    -0.354 N 
ATOM     39  C   UNL A   1      40.862  27.985  28.751  1.00  0.00     0.074 A 
ATOM     40  C   UNL A   1      40.067  28.145  27.554  1.00  0.00     0.031 C 
ATOM     41  C   UNL A   1      38.088  32.015  32.909  1.00  0.00     0.029 A 
ATOM     42  C   UNL A   1      39.297  31.223  33.099  1.00  0.00     0.049 A 
ATOM     43  H   UNL A   1      40.228  29.981  31.708  1.00  0.00     0.167 HD
ATOM     44  C   UNL A   1      41.950  27.183  28.846  1.00  0.00     0.037 A 
ATOM     45  C   UNL A   1      40.008  31.167  34.243  1.00  0.00     0.037 A 
ATOM     46  C   UNL A   1      42.796  27.090  30.008  1.00  0.00     0.049 A 
ATOM     47  C   UNL A   1      41.202  30.254  34.321  1.00  0.00     0.074 A 
ATOM     48  C   UNL A   1      43.956  26.352  30.170  1.00  0.00     0.029 A 
ATOM     49  N   UNL A   1      42.584  27.765  31.199  1.00  0.00    -0.354 N 
ATOM     50  N   UNL A   1      41.719  29.486  33.394  1.00  0.00    -0.248 NA
ATOM     51  C   UNL A   1      41.903  30.189  35.611  1.00  0.00     0.031 C 
ATOM     52  C   UNL A   1      44.413  26.532  31.479  1.00  0.00     0.029 A 
ATOM     53  C   UNL A   1      43.574  27.435  32.112  1.00  0.00     0.049 A 
ATOM     54  H   UNL A   1      41.840  28.388  31.371  1.00  0.00     0.167 HD
ATOM     55  C   UNL A   1      42.815  28.867  33.981  1.00  0.00     0.074 A 
ATOM     56  C   UNL A   1      42.906  29.373  35.333  1.00  0.00     0.031 C 
ATOM     57  C   UNL A   1      43.663  27.954  33.450  1.00  0.00     0.037 A 
BRANCH  44  58
ATOM     58  C   UNL A   1      42.291  26.302  27.675  1.00  0.00     0.064 A 
ATOM     59  C   UNL A   1      43.290  26.636  26.751  1.00  0.00     0.173 A 
ATOM     60  C   UNL A   1      41.662  25.053  27.538  1.00  0.00     0.173 A 
ATOM     61  F   UNL A   1      43.917  27.818  26.831  1.00  0.00    -0.203 F 
ATOM     62  C   UNL A   1      43.638  25.758  25.724  1.00  0.00     0.198 A 
ATOM     63  C   UNL A   1      42.033  24.166  26.531  1.00  0.00     0.198 A 
ATOM     64  F   UNL A   1      40.706  24.679  28.401  1.00  0.00    -0.203 F 
ATOM     65  F   UNL A   1      44.575  26.110  24.833  1.00  0.00    -0.200 F 
ATOM     66  C   UNL A   1      43.018  24.521  25.623  1.00  0.00     0.200 A 
ATOM     67  F   UNL A   1      41.446  22.965  26.448  1.00  0.00    -0.200 F 
ATOM     68  F   UNL A   1      43.371  23.670  24.650  1.00  0.00    -0.200 F 
ENDBRANCH  44  58
BRANCH  45  69
ATOM     69  C   UNL A   1      39.578  31.946  35.439  1.00  0.00     0.064 A 
ATOM     70  C   UNL A   1      38.651  31.425  36.354  1.00  0.00     0.173 A 
ATOM     71  C   UNL A   1      40.044  33.251  35.663  1.00  0.00     0.173 A 
ATOM     72  F   UNL A   1      38.152  30.193  36.173  1.00  0.00    -0.203 F 
ATOM     73  C   UNL A   1      38.180  32.191  37.419  1.00  0.00     0.198 A 
ATOM     74  C   UNL A   1      39.606  34.000  36.753  1.00  0.00     0.198 A 
ATOM     75  F   UNL A   1      40.930  33.804  34.821  1.00  0.00    -0.203 F 
ATOM     76  F   UNL A   1      37.236  31.696  38.230  1.00  0.00    -0.200 F 
ATOM     77  C   UNL A   1      38.662  33.475  37.620  1.00  0.00     0.200 A 
ATOM     78  F   UNL A   1      40.088  35.234  36.952  1.00  0.00    -0.200 F 
ATOM     79  F   UNL A   1      38.204  34.212  38.641  1.00  0.00    -0.200 F 
ENDBRANCH  45  69
BRANCH  57  80
ATOM     80  C   UNL A   1      44.790  27.476  34.321  1.00  0.00     0.064 A 
ATOM     81  C   UNL A   1      44.671  26.329  35.120  1.00  0.00     0.173 A 
ATOM     82  C   UNL A   1      46.014  28.164  34.339  1.00  0.00     0.173 A 
ATOM     83  F   UNL A   1      43.517  25.645  35.151  1.00  0.00    -0.203 F 
ATOM     84  C   UNL A   1      45.721  25.912  35.933  1.00  0.00     0.198 A 
ATOM     85  C   UNL A   1      47.073  27.722  35.125  1.00  0.00     0.198 A 
ATOM     86  F   UNL A   1      46.184  29.262  33.587  1.00  0.00    -0.203 F 
ATOM     87  F   UNL A   1      45.562  24.850  36.736  1.00  0.00    -0.200 F 
ATOM     88  C   UNL A   1      46.922  26.603  35.931  1.00  0.00     0.200 A 
ATOM     89  F   UNL A   1      48.239  28.382  35.108  1.00  0.00    -0.200 F 
ATOM     90  F   UNL A   1      47.933  26.196  36.710  1.00  0.00    -0.200 F 
ENDBRANCH  57  80
ENDBRANCH  31  32
ENDBRANCH  24  26
ENDBRANCH  23  24
ENDBRANCH  22  23
ENDBRANCH   1  22
TORSDOF 14
ENDMDL
MODEL 3
REMARK VINA RESULT:     -11.7      3.660      8.332
REMARK SMILES C[NH+](C)[C@@H]1CC[N@@H+](Cc2ccc(C(=O)OCCOC(=O)c3ccc(-c4c5nc(c(-c6c(F)c(F)c(F)c(F)c6F)c6ccc([nH]6)c(-c6c(F)c(F)c(F)c(F)c6F)c6nc(c(-c7c(F)c(F)c(F)c(F)c7F)c7ccc4[nH]7)C=C6)C=C5)cc3)cn2)C1
REMARK SMILES IDX 16 1 15 2 13 3 14 4 12 5 9 6 10 7 85 8 11 9 84 10 8 11 7 12
REMARK SMILES IDX 4 13 5 14 86 15 6 16 2 18 1 19 3 20 17 22 18 23 19 24 20 25
REMARK SMILES IDX 21 26 22 27 83 28 23 29 82 30 24 31 25 32 26 33 76 34 27 35
REMARK SMILES IDX 81 36 75 37 77 38 28 39 80 40 74 41 73 42 29 44 61 45 41 46
REMARK SMILES IDX 60 47 42 48 45 49 59 50 78 51 43 52 44 53 58 55 79 56 46 57
REMARK SMILES IDX 30 58 31 59 39 60 32 61 33 62 37 63 40 64 34 65 35 66 38 67
REMARK SMILES IDX 36 68 62 69 63 70 71 71 64 72 65 73 69 74 72 75 66 76 67 77
REMARK SMILES IDX 70 78 68 79 47 80 48 81 56 82 49 83 50 84 54 85 57 86 51 87
REMARK SMILES IDX 52 88 55 89 53 90
REMARK H PARENT 7 17 2 21 77 43 45 54
REMARK Flexibility Score: inf
ROOT
ATOM      1  C   UNL A   1      32.120  29.205  25.102  1.00  0.00     0.275 C 
ENDROOT
BRANCH   1   2
ATOM      2  O   UNL A   1      31.232  28.108  25.394  1.00  0.00    -0.458 OA
BRANCH   2   3
ATOM      3  C   UNL A   1      31.578  27.354  26.460  1.00  0.00     0.339 C 
ATOM      4  O   UNL A   1      31.270  27.560  27.627  1.00  0.00    -0.246 OA
BRANCH   3   5
ATOM      5  C   UNL A   1      32.330  26.157  26.049  1.00  0.00     0.078 A 
ATOM      6  C   UNL A   1      33.632  23.768  25.677  1.00  0.00     0.095 A 
ATOM      7  C   UNL A   1      34.313  24.961  25.424  1.00  0.00     0.031 A 
ATOM      8  N   UNL A   1      32.317  23.740  25.990  1.00  0.00    -0.254 NA
ATOM      9  C   UNL A   1      33.648  26.176  25.604  1.00  0.00     0.019 A 
ATOM     10  C   UNL A   1      31.716  24.924  26.208  1.00  0.00     0.127 A 
BRANCH   6  11
ATOM     11  C   UNL A   1      34.378  22.466  25.866  1.00  0.00     0.319 C 
BRANCH  11  12
ATOM     12  N   UNL A   1      34.433  21.574  24.688  1.00  0.00    -0.325 N 
ATOM     13  C   UNL A   1      33.382  19.380  24.964  1.00  0.00     0.245 C 
ATOM     14  C   UNL A   1      32.404  20.328  24.256  1.00  0.00     0.132 C 
ATOM     15  C   UNL A   1      34.725  20.163  24.973  1.00  0.00     0.328 C 
ATOM     16  C   UNL A   1      33.212  21.562  23.878  1.00  0.00     0.269 C 
ATOM     17  H   UNL A   1      35.210  21.999  24.183  1.00  0.00     0.348 HD
BRANCH  13  18
ATOM     18  N   UNL A   1      33.384  17.950  24.580  1.00  0.00    -0.333 N 
ATOM     19  C   UNL A   1      32.539  17.097  25.413  1.00  0.00     0.332 C 
ATOM     20  C   UNL A   1      33.142  17.686  23.168  1.00  0.00     0.332 C 
ATOM     21  H   UNL A   1      34.353  17.689  24.761  1.00  0.00     0.348 HD
ENDBRANCH  13  18
ENDBRANCH  11  12
ENDBRANCH   6  11
ENDBRANCH   3   5
ENDBRANCH   2   3
ENDBRANCH   1   2
BRANCH   1  22
ATOM     22  C   UNL A   1      31.690  30.463  25.858  1.00  0.00     0.275 C 
BRANCH  22  23
ATOM     23  O   UNL A   1      32.388  30.580  27.116  1.00  0.00    -0.458 OA
BRANCH  23  24
ATOM     24  C   UNL A   1      33.121  31.705  27.260  1.00  0.00     0.338 C 
ATOM     25  O   UNL A   1      32.721  32.858  27.228  1.00  0.00    -0.246 OA
BRANCH  24  26
ATOM     26  C   UNL A   1      34.520  31.390  27.596  1.00  0.00     0.060 A 
ATOM     27  C   UNL A   1      34.825  30.062  27.853  1.00  0.00     0.016 A 
ATOM     28  C   UNL A   1      35.437  32.383  27.921  1.00  0.00     0.016 A 
ATOM     29  C   UNL A   1      35.953  29.725  28.592  1.00  0.00     0.010 A 
ATOM     30  C   UNL A   1      36.650  32.026  28.535  1.00  0.00     0.010 A 
ATOM     31  C   UNL A   1      36.895  30.699  28.943  1.00  0.00    -0.014 A 
BRANCH  31  32
ATOM     32  C   UNL A   1      38.081  30.327  29.780  1.00  0.00     0.031 A 
ATOM     33  C   UNL A   1      39.155  29.417  29.225  1.00  0.00     0.074 A 
ATOM     34  C   UNL A   1      38.233  30.830  31.025  1.00  0.00     0.049 A 
ATOM     35  N   UNL A   1      40.176  28.867  29.838  1.00  0.00    -0.248 NA
ATOM     36  C   UNL A   1      39.061  29.060  27.800  1.00  0.00     0.031 C 
ATOM     37  C   UNL A   1      37.307  31.750  31.689  1.00  0.00     0.029 A 
ATOM     38  N   UNL A   1      39.230  30.647  31.957  1.00  0.00    -0.354 N 
ATOM     39  C   UNL A   1      40.796  28.052  28.897  1.00  0.00     0.074 A 
ATOM     40  C   UNL A   1      40.037  28.172  27.671  1.00  0.00     0.031 C 
ATOM     41  C   UNL A   1      37.797  32.086  32.891  1.00  0.00     0.029 A 
ATOM     42  C   UNL A   1      39.017  31.327  33.133  1.00  0.00     0.049 A 
ATOM     43  H   UNL A   1      40.020  30.083  31.795  1.00  0.00     0.167 HD
ATOM     44  C   UNL A   1      41.899  27.277  29.040  1.00  0.00     0.037 A 
ATOM     45  C   UNL A   1      39.691  31.308  34.300  1.00  0.00     0.037 A 
ATOM     46  C   UNL A   1      42.709  27.225  30.230  1.00  0.00     0.049 A 
ATOM     47  C   UNL A   1      40.903  30.425  34.432  1.00  0.00     0.074 A 
ATOM     48  C   UNL A   1      43.879  26.517  30.443  1.00  0.00     0.029 A 
ATOM     49  N   UNL A   1      42.442  27.915  31.402  1.00  0.00    -0.354 N 
ATOM     50  N   UNL A   1      41.468  29.653  33.536  1.00  0.00    -0.248 NA
ATOM     51  C   UNL A   1      41.563  30.399  35.745  1.00  0.00     0.031 C 
ATOM     52  C   UNL A   1      44.289  26.731  31.762  1.00  0.00     0.029 A 
ATOM     53  C   UNL A   1      43.410  27.624  32.351  1.00  0.00     0.049 A 
ATOM     54  H   UNL A   1      41.679  28.523  31.539  1.00  0.00     0.167 HD
ATOM     55  C   UNL A   1      42.558  29.071  34.169  1.00  0.00     0.074 A 
ATOM     56  C   UNL A   1      42.594  29.601  35.515  1.00  0.00     0.031 C 
ATOM     57  C   UNL A   1      43.444  28.169  33.683  1.00  0.00     0.037 A 
BRANCH  44  58
ATOM     58  C   UNL A   1      42.298  26.385  27.897  1.00  0.00     0.064 A 
ATOM     59  C   UNL A   1      41.688  25.145  27.665  1.00  0.00     0.173 A 
ATOM     60  C   UNL A   1      43.248  26.833  26.964  1.00  0.00     0.173 A 
ATOM     61  F   UNL A   1      40.780  24.666  28.528  1.00  0.00    -0.203 F 
ATOM     62  C   UNL A   1      42.024  24.380  26.548  1.00  0.00     0.198 A 
ATOM     63  C   UNL A   1      43.558  26.081  25.834  1.00  0.00     0.198 A 
ATOM     64  F   UNL A   1      43.855  28.017  27.133  1.00  0.00    -0.203 F 
ATOM     65  F   UNL A   1      41.451  23.182  26.362  1.00  0.00    -0.200 F 
ATOM     66  C   UNL A   1      42.949  24.854  25.629  1.00  0.00     0.200 A 
ATOM     67  F   UNL A   1      44.437  26.551  24.939  1.00  0.00    -0.200 F 
ATOM     68  F   UNL A   1      43.252  24.127  24.545  1.00  0.00    -0.200 F 
ENDBRANCH  44  58
BRANCH  45  69
ATOM     69  C   UNL A   1      39.205  32.096  35.467  1.00  0.00     0.064 A 
ATOM     70  C   UNL A   1      39.610  33.424  35.671  1.00  0.00     0.173 A 
ATOM     71  C   UNL A   1      38.367  31.520  36.436  1.00  0.00     0.173 A 
ATOM     72  F   UNL A   1      40.433  34.014  34.791  1.00  0.00    -0.203 F 
ATOM     73  C   UNL A   1      39.229  34.127  36.812  1.00  0.00     0.198 A 
ATOM     74  C   UNL A   1      37.951  32.239  37.554  1.00  0.00     0.198 A 
ATOM     75  F   UNL A   1      37.948  30.254  36.296  1.00  0.00    -0.203 F 
ATOM     76  F   UNL A   1      39.696  35.366  37.018  1.00  0.00    -0.200 F 
ATOM     77  C   UNL A   1      38.396  33.536  37.750  1.00  0.00     0.200 A 
ATOM     78  F   UNL A   1      37.132  31.669  38.447  1.00  0.00    -0.200 F 
ATOM     79  F   UNL A   1      38.035  34.212  38.849  1.00  0.00    -0.200 F 
ENDBRANCH  45  69
BRANCH  57  80
ATOM     80  C   UNL A   1      44.553  27.732  34.597  1.00  0.00     0.064 A 
ATOM     81  C   UNL A   1      45.793  28.389  34.620  1.00  0.00     0.173 A 
ATOM     82  C   UNL A   1      44.364  26.655  35.476  1.00  0.00     0.173 A 
ATOM     83  F   UNL A   1      46.029  29.414  33.788  1.00  0.00    -0.203 F 
ATOM     84  C   UNL A   1      46.814  27.958  35.462  1.00  0.00     0.198 A 
ATOM     85  C   UNL A   1      45.375  26.251  36.342  1.00  0.00     0.198 A 
ATOM     86  F   UNL A   1      43.195  25.998  35.501  1.00  0.00    -0.203 F 
ATOM     87  F   UNL A   1      48.012  28.560  35.421  1.00  0.00    -0.200 F 
ATOM     88  C   UNL A   1      46.603  26.895  36.326  1.00  0.00     0.200 A 
ATOM     89  F   UNL A   1      45.164  25.234  37.190  1.00  0.00    -0.200 F 
ATOM     90  F   UNL A   1      47.587  26.486  37.140  1.00  0.00    -0.200 F 
ENDBRANCH  57  80
ENDBRANCH  31  32
ENDBRANCH  24  26
ENDBRANCH  23  24
ENDBRANCH  22  23
ENDBRANCH   1  22
TORSDOF 14
ENDMDL
