MODEL 1
REMARK VINA RESULT:     -12.0      0.000      0.000
REMARK SMILES C=CCOc1ccccc1-c1cc(C(=O)OCCOC(=O)c2ccc(-c3c4nc(c(-c5c(F)c(F)c(F)c(F)c5F)c5ccc([nH]5)c(-c5c(F)c(F)c(F)c(F)c5F)c5nc(c(-c6c(F)c(F)c(F)c(F)c6F)c6ccc3[nH]6)C=C5)C=C4)cc2)nc(N)n1
REMARK SMILES IDX 17 1 16 2 14 3 15 4 13 5 11 6 12 7 88 8 86 9 85 10 10 11
REMARK SMILES IDX 5 12 6 13 7 14 9 15 8 16 4 17 3 18 2 19 1 20 87 21 18 24
REMARK SMILES IDX 19 25 20 26 21 27 22 28 23 29 84 30 24 31 83 32 25 33 26 34
REMARK SMILES IDX 27 35 77 36 28 37 82 38 76 39 78 40 29 41 81 42 75 43 74 44
REMARK SMILES IDX 30 46 62 47 42 48 61 49 43 50 46 51 60 52 79 53 44 54 45 55
REMARK SMILES IDX 59 57 80 58 47 59 31 60 32 61 40 62 33 63 34 64 38 65 41 66
REMARK SMILES IDX 35 67 36 68 39 69 37 70 63 71 64 72 72 73 65 74 66 75 70 76
REMARK SMILES IDX 73 77 67 78 68 79 71 80 69 81 48 82 49 83 57 84 50 85 51 86
REMARK SMILES IDX 55 87 58 88 52 89 53 90 56 91 54 92
REMARK H PARENT 87 22 87 23 78 45 46 56
REMARK Flexibility Score: inf
ROOT
ATOM      1  C   UNL A   1      32.618  29.396  24.736  1.00  0.00     0.275 C 
ENDROOT
BRANCH   1   2
ATOM      2  O   UNL A   1      31.788  28.651  23.822  1.00  0.00    -0.457 OA
BRANCH   2   3
ATOM      3  C   UNL A   1      31.517  27.369  24.183  1.00  0.00     0.357 C 
ATOM      4  O   UNL A   1      30.750  27.013  25.064  1.00  0.00    -0.244 OA
BRANCH   3   5
ATOM      5  C   UNL A   1      32.176  26.407  23.261  1.00  0.00     0.154 A 
ATOM      6  C   UNL A   1      33.538  24.545  22.960  1.00  0.00     0.080 A 
ATOM      7  C   UNL A   1      33.049  25.502  23.813  1.00  0.00     0.065 A 
ATOM      8  N   UNL A   1      33.298  24.581  21.635  1.00  0.00    -0.213 NA
ATOM      9  C   UNL A   1      32.471  25.536  21.190  1.00  0.00     0.221 A 
ATOM     10  N   UNL A   1      31.862  26.444  21.951  1.00  0.00    -0.206 NA
BRANCH   6  11
ATOM     11  C   UNL A   1      34.291  23.397  23.478  1.00  0.00     0.042 A 
ATOM     12  C   UNL A   1      33.638  22.262  24.004  1.00  0.00     0.129 A 
ATOM     13  C   UNL A   1      34.351  21.215  24.594  1.00  0.00     0.047 A 
ATOM     14  C   UNL A   1      35.741  21.265  24.630  1.00  0.00     0.004 A 
ATOM     15  C   UNL A   1      35.693  23.412  23.505  1.00  0.00     0.014 A 
ATOM     16  C   UNL A   1      36.412  22.357  24.078  1.00  0.00     0.001 A 
BRANCH  12  17
ATOM     17  O   UNL A   1      32.265  22.195  24.016  1.00  0.00    -0.489 OA
BRANCH  17  18
ATOM     18  C   UNL A   1      31.772  21.827  25.312  1.00  0.00     0.257 C 
BRANCH  18  19
ATOM     19  C   UNL A   1      31.719  23.060  26.162  1.00  0.00     0.006 C 
ATOM     20  C   UNL A   1      30.589  23.704  26.484  1.00  0.00     0.007 C 
ENDBRANCH  18  19
ENDBRANCH  17  18
ENDBRANCH  12  17
ENDBRANCH   6  11
BRANCH   9  21
ATOM     21  N   UNL A   1      32.228  25.577  19.850  1.00  0.00    -0.368 N 
ATOM     22  H   UNL A   1      32.759  25.019  19.237  1.00  0.00     0.159 HD
ATOM     23  H   UNL A   1      31.523  26.164  19.494  1.00  0.00     0.159 HD
ENDBRANCH   9  21
ENDBRANCH   3   5
ENDBRANCH   2   3
ENDBRANCH   1   2
BRANCH   1  24
ATOM     24  C   UNL A   1      31.768  30.297  25.632  1.00  0.00     0.275 C 
BRANCH  24  25
ATOM     25  O   UNL A   1      32.374  30.396  26.935  1.00  0.00    -0.458 OA
BRANCH  25  26
ATOM     26  C   UNL A   1      33.047  31.536  27.194  1.00  0.00     0.338 C 
ATOM     27  O   UNL A   1      32.659  32.686  27.026  1.00  0.00    -0.246 OA
BRANCH  26  28
ATOM     28  C   UNL A   1      34.379  31.216  27.739  1.00  0.00     0.060 A 
ATOM     29  C   UNL A   1      34.716  29.892  28.010  1.00  0.00     0.016 A 
ATOM     30  C   UNL A   1      35.255  32.239  28.094  1.00  0.00     0.016 A 
ATOM     31  C   UNL A   1      35.879  29.590  28.718  1.00  0.00     0.010 A 
ATOM     32  C   UNL A   1      36.469  31.927  28.718  1.00  0.00     0.010 A 
ATOM     33  C   UNL A   1      36.778  30.602  29.078  1.00  0.00    -0.014 A 
BRANCH  33  34
ATOM     34  C   UNL A   1      38.001  30.300  29.879  1.00  0.00     0.031 A 
ATOM     35  C   UNL A   1      39.097  29.451  29.286  1.00  0.00     0.074 A 
ATOM     36  C   UNL A   1      38.154  30.776  31.132  1.00  0.00     0.049 A 
ATOM     37  N   UNL A   1      40.112  28.869  29.875  1.00  0.00    -0.248 NA
ATOM     38  C   UNL A   1      39.030  29.211  27.836  1.00  0.00     0.031 C 
ATOM     39  C   UNL A   1      37.221  31.663  31.825  1.00  0.00     0.029 A 
ATOM     40  N   UNL A   1      39.159  30.574  32.049  1.00  0.00    -0.354 N 
ATOM     41  C   UNL A   1      40.755  28.134  28.887  1.00  0.00     0.074 A 
ATOM     42  C   UNL A   1      40.024  28.352  27.657  1.00  0.00     0.031 C 
ATOM     43  C   UNL A   1      37.714  31.961  33.037  1.00  0.00     0.029 A 
ATOM     44  C   UNL A   1      38.946  31.210  33.248  1.00  0.00     0.049 A 
ATOM     45  H   UNL A   1      39.956  30.027  31.864  1.00  0.00     0.167 HD
ATOM     46  C   UNL A   1      41.851  27.344  28.999  1.00  0.00     0.037 A 
ATOM     47  C   UNL A   1      39.635  31.159  34.405  1.00  0.00     0.037 A 
ATOM     48  C   UNL A   1      42.623  27.188  30.205  1.00  0.00     0.049 A 
ATOM     49  C   UNL A   1      40.837  30.264  34.513  1.00  0.00     0.074 A 
ATOM     50  C   UNL A   1      43.756  26.420  30.413  1.00  0.00     0.029 A 
ATOM     51  N   UNL A   1      42.354  27.835  31.402  1.00  0.00    -0.354 N 
ATOM     52  N   UNL A   1      41.386  29.503  33.599  1.00  0.00    -0.248 NA
ATOM     53  C   UNL A   1      41.500  30.201  35.824  1.00  0.00     0.031 C 
ATOM     54  C   UNL A   1      44.160  26.583  31.743  1.00  0.00     0.029 A 
ATOM     55  C   UNL A   1      43.300  27.482  32.352  1.00  0.00     0.049 A 
ATOM     56  H   UNL A   1      41.603  28.453  31.555  1.00  0.00     0.167 HD
ATOM     57  C   UNL A   1      42.462  28.881  34.217  1.00  0.00     0.074 A 
ATOM     58  C   UNL A   1      42.501  29.367  35.581  1.00  0.00     0.031 C 
ATOM     59  C   UNL A   1      43.334  27.982  33.701  1.00  0.00     0.037 A 
BRANCH  46  60
ATOM     60  C   UNL A   1      42.267  26.555  27.792  1.00  0.00     0.064 A 
ATOM     61  C   UNL A   1      43.265  27.003  26.916  1.00  0.00     0.173 A 
ATOM     62  C   UNL A   1      41.680  25.305  27.535  1.00  0.00     0.173 A 
ATOM     63  F   UNL A   1      43.846  28.196  27.110  1.00  0.00    -0.203 F 
ATOM     64  C   UNL A   1      43.645  26.240  25.814  1.00  0.00     0.198 A 
ATOM     65  C   UNL A   1      42.082  24.532  26.448  1.00  0.00     0.198 A 
ATOM     66  F   UNL A   1      40.726  24.826  28.347  1.00  0.00    -0.203 F 
ATOM     67  F   UNL A   1      44.570  26.708  24.965  1.00  0.00    -0.200 F 
ATOM     68  C   UNL A   1      43.058  25.004  25.584  1.00  0.00     0.200 A 
ATOM     69  F   UNL A   1      41.523  23.333  26.238  1.00  0.00    -0.200 F 
ATOM     70  F   UNL A   1      43.431  24.269  24.528  1.00  0.00    -0.200 F 
ENDBRANCH  46  60
BRANCH  47  71
ATOM     71  C   UNL A   1      39.173  31.954  35.573  1.00  0.00     0.064 A 
ATOM     72  C   UNL A   1      39.566  33.289  35.734  1.00  0.00     0.173 A 
ATOM     73  C   UNL A   1      38.326  31.401  36.544  1.00  0.00     0.173 A 
ATOM     74  F   UNL A   1      40.401  33.853  34.848  1.00  0.00    -0.203 F 
ATOM     75  C   UNL A   1      39.133  34.039  36.826  1.00  0.00     0.198 A 
ATOM     76  C   UNL A   1      37.869  32.160  37.619  1.00  0.00     0.198 A 
ATOM     77  F   UNL A   1      37.925  30.124  36.439  1.00  0.00    -0.203 F 
ATOM     78  F   UNL A   1      39.554  35.302  36.977  1.00  0.00    -0.200 F 
ATOM     79  C   UNL A   1      38.277  33.477  37.762  1.00  0.00     0.200 A 
ATOM     80  F   UNL A   1      37.033  31.617  38.514  1.00  0.00    -0.200 F 
ATOM     81  F   UNL A   1      37.852  34.203  38.805  1.00  0.00    -0.200 F 
ENDBRANCH  47  71
BRANCH  59  82
ATOM     82  C   UNL A   1      44.429  27.495  34.602  1.00  0.00     0.064 A 
ATOM     83  C   UNL A   1      44.285  26.329  35.367  1.00  0.00     0.173 A 
ATOM     84  C   UNL A   1      45.649  28.184  34.671  1.00  0.00     0.173 A 
ATOM     85  F   UNL A   1      43.131  25.646  35.346  1.00  0.00    -0.203 F 
ATOM     86  C   UNL A   1      45.318  25.880  36.187  1.00  0.00     0.198 A 
ATOM     87  C   UNL A   1      46.688  27.720  35.475  1.00  0.00     0.198 A 
ATOM     88  F   UNL A   1      45.836  29.302  33.955  1.00  0.00    -0.203 F 
ATOM     89  F   UNL A   1      45.146  24.786  36.941  1.00  0.00    -0.200 F 
ATOM     90  C   UNL A   1      46.519  26.572  36.235  1.00  0.00     0.200 A 
ATOM     91  F   UNL A   1      47.850  28.385  35.515  1.00  0.00    -0.200 F 
ATOM     92  F   UNL A   1      47.514  26.138  37.022  1.00  0.00    -0.200 F 
ENDBRANCH  59  82
ENDBRANCH  33  34
ENDBRANCH  26  28
ENDBRANCH  25  26
ENDBRANCH  24  25
ENDBRANCH   1  24
TORSDOF 16
ENDMDL
MODEL 2
REMARK VINA RESULT:     -11.9      0.111      1.964
REMARK SMILES C=CCOc1ccccc1-c1cc(C(=O)OCCOC(=O)c2ccc(-c3c4nc(c(-c5c(F)c(F)c(F)c(F)c5F)c5ccc([nH]5)c(-c5c(F)c(F)c(F)c(F)c5F)c5nc(c(-c6c(F)c(F)c(F)c(F)c6F)c6ccc3[nH]6)C=C5)C=C4)cc2)nc(N)n1
REMARK SMILES IDX 17 1 16 2 14 3 15 4 13 5 11 6 12 7 88 8 86 9 85 10 10 11
REMARK SMILES IDX 5 12 6 13 7 14 9 15 8 16 4 17 3 18 2 19 1 20 87 21 18 24
REMARK SMILES IDX 19 25 20 26 21 27 22 28 23 29 84 30 24 31 83 32 25 33 26 34
REMARK SMILES IDX 27 35 77 36 28 37 82 38 76 39 78 40 29 41 81 42 75 43 74 44
REMARK SMILES IDX 30 46 62 47 42 48 61 49 43 50 46 51 60 52 79 53 44 54 45 55
REMARK SMILES IDX 59 57 80 58 47 59 31 60 32 61 40 62 33 63 34 64 38 65 41 66
REMARK SMILES IDX 35 67 36 68 39 69 37 70 63 71 64 72 72 73 65 74 66 75 70 76
REMARK SMILES IDX 73 77 67 78 68 79 71 80 69 81 48 82 49 83 57 84 50 85 51 86
REMARK SMILES IDX 55 87 58 88 52 89 53 90 56 91 54 92
REMARK H PARENT 87 22 87 23 78 45 46 56
REMARK Flexibility Score: inf
ROOT
ATOM      1  C   UNL A   1      32.613  29.339  24.744  1.00  0.00     0.275 C 
ENDROOT
BRANCH   1   2
ATOM      2  O   UNL A   1      31.766  28.615  23.829  1.00  0.00    -0.457 OA
BRANCH   2   3
ATOM      3  C   UNL A   1      31.489  27.330  24.172  1.00  0.00     0.357 C 
ATOM      4  O   UNL A   1      30.707  26.964  25.035  1.00  0.00    -0.244 OA
BRANCH   3   5
ATOM      5  C   UNL A   1      32.166  26.376  23.252  1.00  0.00     0.154 A 
ATOM      6  C   UNL A   1      33.537  24.521  22.958  1.00  0.00     0.080 A 
ATOM      7  C   UNL A   1      33.032  25.469  23.811  1.00  0.00     0.065 A 
ATOM      8  N   UNL A   1      33.319  24.568  21.630  1.00  0.00    -0.213 NA
ATOM      9  C   UNL A   1      32.498  25.525  21.179  1.00  0.00     0.221 A 
ATOM     10  N   UNL A   1      31.874  26.425  21.938  1.00  0.00    -0.206 NA
BRANCH   6  11
ATOM     11  C   UNL A   1      34.284  23.369  23.478  1.00  0.00     0.042 A 
ATOM     12  C   UNL A   1      33.625  22.250  24.030  1.00  0.00     0.129 A 
ATOM     13  C   UNL A   1      34.335  21.202  24.622  1.00  0.00     0.047 A 
ATOM     14  C   UNL A   1      35.726  21.234  24.633  1.00  0.00     0.004 A 
ATOM     15  C   UNL A   1      35.686  23.367  23.482  1.00  0.00     0.014 A 
ATOM     16  C   UNL A   1      36.401  22.310  24.056  1.00  0.00     0.001 A 
BRANCH  12  17
ATOM     17  O   UNL A   1      32.252  22.201  24.066  1.00  0.00    -0.489 OA
BRANCH  17  18
ATOM     18  C   UNL A   1      31.778  21.805  25.361  1.00  0.00     0.257 C 
BRANCH  18  19
ATOM     19  C   UNL A   1      31.679  23.030  26.220  1.00  0.00     0.006 C 
ATOM     20  C   UNL A   1      30.530  23.657  26.505  1.00  0.00     0.007 C 
ENDBRANCH  18  19
ENDBRANCH  17  18
ENDBRANCH  12  17
ENDBRANCH   6  11
BRANCH   9  21
ATOM     21  N   UNL A   1      32.277  25.578  19.835  1.00  0.00    -0.368 N 
ATOM     22  H   UNL A   1      31.383  25.803  19.492  1.00  0.00     0.159 HD
ATOM     23  H   UNL A   1      33.012  25.391  19.208  1.00  0.00     0.159 HD
ENDBRANCH   9  21
ENDBRANCH   3   5
ENDBRANCH   2   3
ENDBRANCH   1   2
BRANCH   1  24
ATOM     24  C   UNL A   1      31.781  30.227  25.669  1.00  0.00     0.275 C 
BRANCH  24  25
ATOM     25  O   UNL A   1      32.406  30.297  26.965  1.00  0.00    -0.458 OA
BRANCH  25  26
ATOM     26  C   UNL A   1      33.058  31.444  27.249  1.00  0.00     0.338 C 
ATOM     27  O   UNL A   1      32.649  32.590  27.104  1.00  0.00    -0.246 OA
BRANCH  26  28
ATOM     28  C   UNL A   1      34.393  31.137  27.792  1.00  0.00     0.060 A 
ATOM     29  C   UNL A   1      34.737  29.819  28.079  1.00  0.00     0.016 A 
ATOM     30  C   UNL A   1      35.267  32.169  28.128  1.00  0.00     0.016 A 
ATOM     31  C   UNL A   1      35.905  29.532  28.785  1.00  0.00     0.010 A 
ATOM     32  C   UNL A   1      36.485  31.871  28.750  1.00  0.00     0.010 A 
ATOM     33  C   UNL A   1      36.802  30.553  29.127  1.00  0.00    -0.014 A 
BRANCH  33  34
ATOM     34  C   UNL A   1      38.030  30.267  29.925  1.00  0.00     0.031 A 
ATOM     35  C   UNL A   1      39.121  29.404  29.343  1.00  0.00     0.074 A 
ATOM     36  C   UNL A   1      38.193  30.770  31.166  1.00  0.00     0.049 A 
ATOM     37  N   UNL A   1      40.140  28.834  29.938  1.00  0.00    -0.248 NA
ATOM     38  C   UNL A   1      39.044  29.132  27.900  1.00  0.00     0.031 C 
ATOM     39  C   UNL A   1      37.266  31.673  31.847  1.00  0.00     0.029 A 
ATOM     40  N   UNL A   1      39.204  30.587  32.080  1.00  0.00    -0.354 N 
ATOM     41  C   UNL A   1      40.775  28.076  28.962  1.00  0.00     0.074 A 
ATOM     42  C   UNL A   1      40.036  28.268  27.732  1.00  0.00     0.031 C 
ATOM     43  C   UNL A   1      37.767  31.997  33.048  1.00  0.00     0.029 A 
ATOM     44  C   UNL A   1      39.001  31.250  33.266  1.00  0.00     0.049 A 
ATOM     45  H   UNL A   1      40.000  30.035  31.901  1.00  0.00     0.167 HD
ATOM     46  C   UNL A   1      41.871  27.287  29.083  1.00  0.00     0.037 A 
ATOM     47  C   UNL A   1      39.698  31.224  34.420  1.00  0.00     0.037 A 
ATOM     48  C   UNL A   1      42.651  27.157  30.286  1.00  0.00     0.049 A 
ATOM     49  C   UNL A   1      40.900  30.330  34.538  1.00  0.00     0.074 A 
ATOM     50  C   UNL A   1      43.785  26.393  30.503  1.00  0.00     0.029 A 
ATOM     51  N   UNL A   1      42.392  27.831  31.471  1.00  0.00    -0.354 N 
ATOM     52  N   UNL A   1      41.442  29.548  33.638  1.00  0.00    -0.248 NA
ATOM     53  C   UNL A   1      41.572  30.295  35.845  1.00  0.00     0.031 C 
ATOM     54  C   UNL A   1      44.199  26.584  31.827  1.00  0.00     0.029 A 
ATOM     55  C   UNL A   1      43.344  27.498  32.422  1.00  0.00     0.049 A 
ATOM     56  H   UNL A   1      41.643  28.453  31.616  1.00  0.00     0.167 HD
ATOM     57  C   UNL A   1      42.521  28.938  34.261  1.00  0.00     0.074 A 
ATOM     58  C   UNL A   1      42.570  29.454  35.614  1.00  0.00     0.031 C 
ATOM     59  C   UNL A   1      43.389  28.027  33.759  1.00  0.00     0.037 A 
BRANCH  46  60
ATOM     60  C   UNL A   1      42.277  26.471  27.891  1.00  0.00     0.064 A 
ATOM     61  C   UNL A   1      41.699  25.226  27.609  1.00  0.00     0.173 A 
ATOM     62  C   UNL A   1      43.236  26.969  26.993  1.00  0.00     0.173 A 
ATOM     63  F   UNL A   1      40.790  24.699  28.442  1.00  0.00    -0.203 F 
ATOM     64  C   UNL A   1      42.082  24.498  26.484  1.00  0.00     0.198 A 
ATOM     65  C   UNL A   1      43.595  26.252  25.855  1.00  0.00     0.198 A 
ATOM     66  F   UNL A   1      43.813  28.160  27.213  1.00  0.00    -0.203 F 
ATOM     67  F   UNL A   1      41.548  23.290  26.256  1.00  0.00    -0.200 F 
ATOM     68  C   UNL A   1      43.024  25.014  25.605  1.00  0.00     0.200 A 
ATOM     69  F   UNL A   1      44.495  26.760  25.002  1.00  0.00    -0.200 F 
ATOM     70  F   UNL A   1      43.384  24.316  24.520  1.00  0.00    -0.200 F 
ENDBRANCH  46  60
BRANCH  47  71
ATOM     71  C   UNL A   1      39.245  32.044  35.573  1.00  0.00     0.064 A 
ATOM     72  C   UNL A   1      38.347  31.525  36.515  1.00  0.00     0.173 A 
ATOM     73  C   UNL A   1      39.704  33.355  35.762  1.00  0.00     0.173 A 
ATOM     74  F   UNL A   1      37.855  30.287  36.360  1.00  0.00    -0.203 F 
ATOM     75  C   UNL A   1      37.922  32.290  37.600  1.00  0.00     0.198 A 
ATOM     76  C   UNL A   1      39.303  34.108  36.863  1.00  0.00     0.198 A 
ATOM     77  F   UNL A   1      40.561  33.900  34.885  1.00  0.00    -0.203 F 
ATOM     78  F   UNL A   1      37.033  31.783  38.466  1.00  0.00    -0.200 F 
ATOM     79  C   UNL A   1      38.408  33.576  37.778  1.00  0.00     0.200 A 
ATOM     80  F   UNL A   1      39.784  35.347  37.038  1.00  0.00    -0.200 F 
ATOM     81  F   UNL A   1      38.007  34.307  38.828  1.00  0.00    -0.200 F 
ENDBRANCH  47  71
BRANCH  59  82
ATOM     82  C   UNL A   1      44.489  27.558  34.662  1.00  0.00     0.064 A 
ATOM     83  C   UNL A   1      45.707  28.248  34.753  1.00  0.00     0.173 A 
ATOM     84  C   UNL A   1      44.309  26.427  35.472  1.00  0.00     0.173 A 
ATOM     85  F   UNL A   1      45.932  29.325  33.986  1.00  0.00    -0.203 F 
ATOM     86  C   UNL A   1      46.714  27.808  35.609  1.00  0.00     0.198 A 
ATOM     87  C   UNL A   1      45.310  26.004  36.343  1.00  0.00     0.198 A 
ATOM     88  F   UNL A   1      43.160  25.737  35.423  1.00  0.00    -0.203 F 
ATOM     89  F   UNL A   1      47.886  28.458  35.652  1.00  0.00    -0.200 F 
ATOM     90  C   UNL A   1      46.513  26.692  36.406  1.00  0.00     0.200 A 
ATOM     91  F   UNL A   1      45.111  24.930  37.118  1.00  0.00    -0.200 F 
ATOM     92  F   UNL A   1      47.481  26.272  37.232  1.00  0.00    -0.200 F 
ENDBRANCH  59  82
ENDBRANCH  33  34
ENDBRANCH  26  28
ENDBRANCH  25  26
ENDBRANCH  24  25
ENDBRANCH   1  24
TORSDOF 16
ENDMDL
MODEL 3
REMARK VINA RESULT:     -11.9      1.334      2.081
REMARK SMILES C=CCOc1ccccc1-c1cc(C(=O)OCCOC(=O)c2ccc(-c3c4nc(c(-c5c(F)c(F)c(F)c(F)c5F)c5ccc([nH]5)c(-c5c(F)c(F)c(F)c(F)c5F)c5nc(c(-c6c(F)c(F)c(F)c(F)c6F)c6ccc3[nH]6)C=C5)C=C4)cc2)nc(N)n1
REMARK SMILES IDX 17 1 16 2 14 3 15 4 13 5 11 6 12 7 88 8 86 9 85 10 10 11
REMARK SMILES IDX 5 12 6 13 7 14 9 15 8 16 4 17 3 18 2 19 1 20 87 21 18 24
REMARK SMILES IDX 19 25 20 26 21 27 22 28 23 29 84 30 24 31 83 32 25 33 26 34
REMARK SMILES IDX 27 35 77 36 28 37 82 38 76 39 78 40 29 41 81 42 75 43 74 44
REMARK SMILES IDX 30 46 62 47 42 48 61 49 43 50 46 51 60 52 79 53 44 54 45 55
REMARK SMILES IDX 59 57 80 58 47 59 31 60 32 61 40 62 33 63 34 64 38 65 41 66
REMARK SMILES IDX 35 67 36 68 39 69 37 70 63 71 64 72 72 73 65 74 66 75 70 76
REMARK SMILES IDX 73 77 67 78 68 79 71 80 69 81 48 82 49 83 57 84 50 85 51 86
REMARK SMILES IDX 55 87 58 88 52 89 53 90 56 91 54 92
REMARK H PARENT 87 22 87 23 78 45 46 56
REMARK Flexibility Score: inf
ROOT
ATOM      1  C   UNL A   1      31.302  29.203  25.354  1.00  0.00     0.275 C 
ENDROOT
BRANCH   1   2
ATOM      2  O   UNL A   1      32.287  28.265  25.833  1.00  0.00    -0.457 OA
BRANCH   2   3
ATOM      3  C   UNL A   1      31.888  27.460  26.852  1.00  0.00     0.357 C 
ATOM      4  O   UNL A   1      31.394  27.822  27.909  1.00  0.00    -0.244 OA
BRANCH   3   5
ATOM      5  C   UNL A   1      31.993  26.027  26.470  1.00  0.00     0.154 A 
ATOM      6  C   UNL A   1      33.259  24.284  25.592  1.00  0.00     0.080 A 
ATOM      7  C   UNL A   1      33.132  25.632  25.812  1.00  0.00     0.065 A 
ATOM      8  N   UNL A   1      32.263  23.420  25.865  1.00  0.00    -0.213 NA
ATOM      9  C   UNL A   1      31.172  23.916  26.463  1.00  0.00     0.221 A 
ATOM     10  N   UNL A   1      30.996  25.188  26.815  1.00  0.00    -0.206 NA
BRANCH   6  11
ATOM     11  C   UNL A   1      34.526  23.722  25.109  1.00  0.00     0.042 A 
ATOM     12  C   UNL A   1      34.805  23.607  23.730  1.00  0.00     0.129 A 
ATOM     13  C   UNL A   1      35.962  22.974  23.268  1.00  0.00     0.047 A 
ATOM     14  C   UNL A   1      36.888  22.482  24.183  1.00  0.00     0.004 A 
ATOM     15  C   UNL A   1      35.485  23.238  26.010  1.00  0.00     0.014 A 
ATOM     16  C   UNL A   1      36.655  22.621  25.552  1.00  0.00     0.001 A 
BRANCH  12  17
ATOM     17  O   UNL A   1      33.897  24.051  22.799  1.00  0.00    -0.489 OA
BRANCH  17  18
ATOM     18  C   UNL A   1      33.477  22.989  21.931  1.00  0.00     0.257 C 
BRANCH  18  19
ATOM     19  C   UNL A   1      32.309  22.297  22.566  1.00  0.00     0.006 C 
ATOM     20  C   UNL A   1      32.370  21.083  23.130  1.00  0.00     0.007 C 
ENDBRANCH  18  19
ENDBRANCH  17  18
ENDBRANCH  12  17
ENDBRANCH   6  11
BRANCH   9  21
ATOM     21  N   UNL A   1      30.160  23.044  26.738  1.00  0.00    -0.368 N 
ATOM     22  H   UNL A   1      29.355  23.032  26.172  1.00  0.00     0.159 HD
ATOM     23  H   UNL A   1      30.235  22.428  27.501  1.00  0.00     0.159 HD
ENDBRANCH   9  21
ENDBRANCH   3   5
ENDBRANCH   2   3
ENDBRANCH   1   2
BRANCH   1  24
ATOM     24  C   UNL A   1      31.536  30.591  25.951  1.00  0.00     0.275 C 
BRANCH  24  25
ATOM     25  O   UNL A   1      32.948  30.810  26.129  1.00  0.00    -0.458 OA
BRANCH  25  26
ATOM     26  C   UNL A   1      33.297  31.702  27.079  1.00  0.00     0.338 C 
ATOM     27  O   UNL A   1      32.656  32.675  27.460  1.00  0.00    -0.246 OA
BRANCH  26  28
ATOM     28  C   UNL A   1      34.612  31.345  27.641  1.00  0.00     0.060 A 
ATOM     29  C   UNL A   1      34.878  30.024  27.993  1.00  0.00     0.016 A 
ATOM     30  C   UNL A   1      35.544  32.339  27.930  1.00  0.00     0.016 A 
ATOM     31  C   UNL A   1      36.027  29.704  28.716  1.00  0.00     0.010 A 
ATOM     32  C   UNL A   1      36.743  32.001  28.570  1.00  0.00     0.010 A 
ATOM     33  C   UNL A   1      36.982  30.686  29.011  1.00  0.00    -0.014 A 
BRANCH  33  34
ATOM     34  C   UNL A   1      38.190  30.368  29.827  1.00  0.00     0.031 A 
ATOM     35  C   UNL A   1      39.277  29.496  29.252  1.00  0.00     0.074 A 
ATOM     36  C   UNL A   1      38.338  30.850  31.079  1.00  0.00     0.049 A 
ATOM     37  N   UNL A   1      40.276  28.901  29.856  1.00  0.00    -0.248 NA
ATOM     38  C   UNL A   1      39.222  29.248  27.803  1.00  0.00     0.031 C 
ATOM     39  C   UNL A   1      37.414  31.758  31.756  1.00  0.00     0.029 A 
ATOM     40  N   UNL A   1      39.330  30.637  32.007  1.00  0.00    -0.354 N 
ATOM     41  C   UNL A   1      40.916  28.148  28.880  1.00  0.00     0.074 A 
ATOM     42  C   UNL A   1      40.203  28.370  27.640  1.00  0.00     0.031 C 
ATOM     43  C   UNL A   1      37.899  32.056  32.971  1.00  0.00     0.029 A 
ATOM     44  C   UNL A   1      39.116  31.286  33.200  1.00  0.00     0.049 A 
ATOM     45  H   UNL A   1      40.120  30.075  31.834  1.00  0.00     0.167 HD
ATOM     46  C   UNL A   1      41.997  27.340  29.009  1.00  0.00     0.037 A 
ATOM     47  C   UNL A   1      39.791  31.231  34.365  1.00  0.00     0.037 A 
ATOM     48  C   UNL A   1      42.753  27.179  30.223  1.00  0.00     0.049 A 
ATOM     49  C   UNL A   1      40.976  30.316  34.492  1.00  0.00     0.074 A 
ATOM     50  C   UNL A   1      43.870  26.393  30.449  1.00  0.00     0.029 A 
ATOM     51  N   UNL A   1      42.484  27.838  31.414  1.00  0.00    -0.354 N 
ATOM     52  N   UNL A   1      41.522  29.539  33.589  1.00  0.00    -0.248 NA
ATOM     53  C   UNL A   1      41.624  30.250  35.809  1.00  0.00     0.031 C 
ATOM     54  C   UNL A   1      44.263  26.557  31.782  1.00  0.00     0.029 A 
ATOM     55  C   UNL A   1      43.413  27.476  32.376  1.00  0.00     0.049 A 
ATOM     56  H   UNL A   1      41.742  28.470  31.554  1.00  0.00     0.167 HD
ATOM     57  C   UNL A   1      42.580  28.902  34.222  1.00  0.00     0.074 A 
ATOM     58  C   UNL A   1      42.613  29.397  35.583  1.00  0.00     0.031 C 
ATOM     59  C   UNL A   1      43.442  27.984  33.722  1.00  0.00     0.037 A 
BRANCH  46  60
ATOM     60  C   UNL A   1      42.412  26.535  27.812  1.00  0.00     0.064 A 
ATOM     61  C   UNL A   1      43.356  27.005  26.888  1.00  0.00     0.173 A 
ATOM     62  C   UNL A   1      41.881  25.250  27.612  1.00  0.00     0.173 A 
ATOM     63  F   UNL A   1      43.881  28.231  27.026  1.00  0.00    -0.203 F 
ATOM     64  C   UNL A   1      43.737  26.228  25.796  1.00  0.00     0.198 A 
ATOM     65  C   UNL A   1      42.285  24.464  26.535  1.00  0.00     0.198 A 
ATOM     66  F   UNL A   1      40.980  24.749  28.471  1.00  0.00    -0.203 F 
ATOM     67  F   UNL A   1      44.608  26.714  24.902  1.00  0.00    -0.200 F 
ATOM     68  C   UNL A   1      43.206  24.957  25.624  1.00  0.00     0.200 A 
ATOM     69  F   UNL A   1      41.782  23.233  26.380  1.00  0.00    -0.200 F 
ATOM     70  F   UNL A   1      43.580  24.209  24.578  1.00  0.00    -0.200 F 
ENDBRANCH  46  60
BRANCH  47  71
ATOM     71  C   UNL A   1      39.331  32.041  35.522  1.00  0.00     0.064 A 
ATOM     72  C   UNL A   1      38.465  31.498  36.481  1.00  0.00     0.173 A 
ATOM     73  C   UNL A   1      39.750  33.367  35.698  1.00  0.00     0.173 A 
ATOM     74  F   UNL A   1      38.011  30.243  36.339  1.00  0.00    -0.203 F 
ATOM     75  C   UNL A   1      38.033  32.253  37.570  1.00  0.00     0.198 A 
ATOM     76  C   UNL A   1      39.343  34.112  36.803  1.00  0.00     0.198 A 
ATOM     77  F   UNL A   1      40.575  33.936  34.805  1.00  0.00    -0.203 F 
ATOM     78  F   UNL A   1      37.176  31.721  38.452  1.00  0.00    -0.200 F 
ATOM     79  C   UNL A   1      38.480  33.555  37.735  1.00  0.00     0.200 A 
ATOM     80  F   UNL A   1      39.786  35.366  36.965  1.00  0.00    -0.200 F 
ATOM     81  F   UNL A   1      38.073  34.277  38.789  1.00  0.00    -0.200 F 
ENDBRANCH  47  71
BRANCH  59  82
ATOM     82  C   UNL A   1      44.518  27.484  34.637  1.00  0.00     0.064 A 
ATOM     83  C   UNL A   1      44.343  26.329  35.413  1.00  0.00     0.173 A 
ATOM     84  C   UNL A   1      45.751  28.149  34.711  1.00  0.00     0.173 A 
ATOM     85  F   UNL A   1      43.176  25.669  35.388  1.00  0.00    -0.203 F 
ATOM     86  C   UNL A   1      45.360  25.869  36.246  1.00  0.00     0.198 A 
ATOM     87  C   UNL A   1      46.773  27.673  35.529  1.00  0.00     0.198 A 
ATOM     88  F   UNL A   1      45.967  29.256  33.985  1.00  0.00    -0.203 F 
ATOM     89  F   UNL A   1      45.159  24.785  37.010  1.00  0.00    -0.200 F 
ATOM     90  C   UNL A   1      46.574  26.537  36.300  1.00  0.00     0.200 A 
ATOM     91  F   UNL A   1      47.948  28.315  35.573  1.00  0.00    -0.200 F 
ATOM     92  F   UNL A   1      47.553  26.091  37.099  1.00  0.00    -0.200 F 
ENDBRANCH  59  82
ENDBRANCH  33  34
ENDBRANCH  26  28
ENDBRANCH  25  26
ENDBRANCH  24  25
ENDBRANCH   1  24
TORSDOF 16
ENDMDL
