MODEL 1
REMARK VINA RESULT:     -12.1      0.000      0.000
REMARK SMILES O=C(OCCOC(=O)c1[nH]nc2c1CCC2)c1ccc(-c2c3nc(c(-c4c(F)c(F)c(F)c(F)c4F)c4ccc([nH]4)c(-c4c(F)c(F)c(F)c(F)c4F)c4nc(c(-c5c(F)c(F)c(F)c(F)c5F)c5ccc2[nH]5)C=C4)C=C3)cc1
REMARK SMILES IDX 4 1 3 2 2 3 1 4 17 5 18 6 79 7 19 8 78 9 20 10 21 11 22 12
REMARK SMILES IDX 72 13 23 14 77 15 71 16 73 17 24 18 76 19 70 20 69 21 25 23
REMARK SMILES IDX 57 24 37 25 56 26 38 27 41 28 55 29 74 30 39 31 40 32 54 34
REMARK SMILES IDX 75 35 42 36 26 37 27 38 35 39 28 40 29 41 33 42 36 43 30 44
REMARK SMILES IDX 31 45 34 46 32 47 58 48 59 49 67 50 60 51 61 52 65 53 68 54
REMARK SMILES IDX 62 55 63 56 66 57 64 58 43 59 44 60 52 61 45 62 46 63 50 64
REMARK SMILES IDX 53 65 47 66 48 67 51 68 49 69 5 70 6 71 7 72 8 73 9 74 10 75
REMARK SMILES IDX 13 76 11 77 12 79 14 80 16 81 15 82
REMARK H PARENT 73 22 41 33 10 78
REMARK Flexibility Score: inf
ROOT
ATOM      1  C   UNL A   1      40.812  19.589  26.124  1.00  0.00     0.275 C 
ENDROOT
BRANCH   1   2
ATOM      2  O   UNL A   1      40.440  20.688  26.983  1.00  0.00    -0.458 OA
BRANCH   2   3
ATOM      3  C   UNL A   1      39.724  21.704  26.460  1.00  0.00     0.338 C 
ATOM      4  O   UNL A   1      38.866  21.579  25.602  1.00  0.00    -0.246 OA
BRANCH   3   5
ATOM      5  C   UNL A   1      39.994  22.989  27.146  1.00  0.00     0.060 A 
ATOM      6  C   UNL A   1      39.125  24.079  27.038  1.00  0.00     0.016 A 
ATOM      7  C   UNL A   1      41.156  23.090  27.923  1.00  0.00     0.016 A 
ATOM      8  C   UNL A   1      39.442  25.283  27.649  1.00  0.00     0.010 A 
ATOM      9  C   UNL A   1      41.466  24.291  28.549  1.00  0.00     0.010 A 
ATOM     10  C   UNL A   1      40.633  25.401  28.368  1.00  0.00    -0.014 A 
BRANCH  10  11
ATOM     11  C   UNL A   1      41.003  26.736  28.834  1.00  0.00     0.031 A 
ATOM     12  C   UNL A   1      42.263  27.351  28.326  1.00  0.00     0.074 A 
ATOM     13  C   UNL A   1      40.188  27.439  29.647  1.00  0.00     0.049 A 
ATOM     14  N   UNL A   1      43.233  27.880  29.007  1.00  0.00    -0.248 NA
ATOM     15  C   UNL A   1      42.464  27.390  26.871  1.00  0.00     0.031 C 
ATOM     16  C   UNL A   1      38.812  27.118  30.037  1.00  0.00     0.029 A 
ATOM     17  N   UNL A   1      40.398  28.664  30.209  1.00  0.00    -0.354 N 
ATOM     18  C   UNL A   1      44.098  28.453  28.075  1.00  0.00     0.074 A 
ATOM     19  C   UNL A   1      43.607  28.072  26.774  1.00  0.00     0.031 C 
ATOM     20  C   UNL A   1      38.239  28.215  30.575  1.00  0.00     0.029 A 
ATOM     21  C   UNL A   1      39.245  29.257  30.689  1.00  0.00     0.049 A 
ATOM     22  H   UNL A   1      41.286  29.085  30.268  1.00  0.00     0.167 HD
ATOM     23  C   UNL A   1      45.079  29.333  28.421  1.00  0.00     0.037 A 
ATOM     24  C   UNL A   1      39.097  30.542  31.079  1.00  0.00     0.037 A 
ATOM     25  C   UNL A   1      45.448  29.236  29.805  1.00  0.00     0.049 A 
ATOM     26  C   UNL A   1      40.433  31.086  31.409  1.00  0.00     0.074 A 
ATOM     27  C   UNL A   1      45.981  28.244  30.606  1.00  0.00     0.029 A 
ATOM     28  N   UNL A   1      45.061  30.225  30.671  1.00  0.00    -0.354 N 
ATOM     29  N   UNL A   1      41.145  30.717  32.437  1.00  0.00    -0.248 NA
ATOM     30  C   UNL A   1      41.156  31.815  30.378  1.00  0.00     0.031 C 
ATOM     31  C   UNL A   1      45.440  28.479  31.905  1.00  0.00     0.029 A 
ATOM     32  C   UNL A   1      44.611  29.596  31.802  1.00  0.00     0.049 A 
ATOM     33  H   UNL A   1      45.100  31.196  30.512  1.00  0.00     0.167 HD
ATOM     34  C   UNL A   1      42.460  30.806  32.007  1.00  0.00     0.074 A 
ATOM     35  C   UNL A   1      42.408  31.606  30.789  1.00  0.00     0.031 C 
ATOM     36  C   UNL A   1      43.427  29.993  32.522  1.00  0.00     0.037 A 
BRANCH  23  37
ATOM     37  C   UNL A   1      45.535  30.479  27.554  1.00  0.00     0.064 A 
ATOM     38  C   UNL A   1      46.908  30.683  27.313  1.00  0.00     0.173 A 
ATOM     39  C   UNL A   1      44.686  31.546  27.194  1.00  0.00     0.173 A 
ATOM     40  F   UNL A   1      47.808  29.749  27.654  1.00  0.00    -0.203 F 
ATOM     41  C   UNL A   1      47.397  31.887  26.795  1.00  0.00     0.198 A 
ATOM     42  C   UNL A   1      45.171  32.726  26.632  1.00  0.00     0.198 A 
ATOM     43  F   UNL A   1      43.375  31.523  27.473  1.00  0.00    -0.203 F 
ATOM     44  F   UNL A   1      48.719  32.078  26.685  1.00  0.00    -0.200 F 
ATOM     45  C   UNL A   1      46.527  32.908  26.456  1.00  0.00     0.200 A 
ATOM     46  F   UNL A   1      44.316  33.714  26.330  1.00  0.00    -0.200 F 
ATOM     47  F   UNL A   1      46.997  34.080  26.009  1.00  0.00    -0.200 F 
ENDBRANCH  23  37
BRANCH  24  48
ATOM     48  C   UNL A   1      37.893  31.381  30.902  1.00  0.00     0.064 A 
ATOM     49  C   UNL A   1      37.452  31.772  29.632  1.00  0.00     0.173 A 
ATOM     50  C   UNL A   1      37.016  31.628  31.980  1.00  0.00     0.173 A 
ATOM     51  F   UNL A   1      38.202  31.519  28.551  1.00  0.00    -0.203 F 
ATOM     52  C   UNL A   1      36.205  32.378  29.450  1.00  0.00     0.198 A 
ATOM     53  C   UNL A   1      35.781  32.245  31.799  1.00  0.00     0.198 A 
ATOM     54  F   UNL A   1      37.306  31.197  33.216  1.00  0.00    -0.203 F 
ATOM     55  F   UNL A   1      35.791  32.695  28.215  1.00  0.00    -0.200 F 
ATOM     56  C   UNL A   1      35.371  32.613  30.532  1.00  0.00     0.200 A 
ATOM     57  F   UNL A   1      34.972  32.432  32.851  1.00  0.00    -0.200 F 
ATOM     58  F   UNL A   1      34.159  33.155  30.351  1.00  0.00    -0.200 F 
ENDBRANCH  24  48
BRANCH  36  59
ATOM     59  C   UNL A   1      43.092  29.215  33.760  1.00  0.00     0.064 A 
ATOM     60  C   UNL A   1      42.392  27.995  33.730  1.00  0.00     0.173 A 
ATOM     61  C   UNL A   1      43.614  29.632  34.989  1.00  0.00     0.173 A 
ATOM     62  F   UNL A   1      41.966  27.477  32.572  1.00  0.00    -0.203 F 
ATOM     63  C   UNL A   1      42.178  27.258  34.893  1.00  0.00     0.198 A 
ATOM     64  C   UNL A   1      43.429  28.875  36.144  1.00  0.00     0.198 A 
ATOM     65  F   UNL A   1      44.351  30.752  35.063  1.00  0.00    -0.203 F 
ATOM     66  F   UNL A   1      41.497  26.104  34.839  1.00  0.00    -0.200 F 
ATOM     67  C   UNL A   1      42.700  27.696  36.098  1.00  0.00     0.200 A 
ATOM     68  F   UNL A   1      43.981  29.273  37.299  1.00  0.00    -0.200 F 
ATOM     69  F   UNL A   1      42.529  26.967  37.209  1.00  0.00    -0.200 F 
ENDBRANCH  36  59
ENDBRANCH  10  11
ENDBRANCH   3   5
ENDBRANCH   2   3
ENDBRANCH   1   2
BRANCH   1  70
ATOM     70  C   UNL A   1      42.255  19.083  26.208  1.00  0.00     0.275 C 
BRANCH  70  71
ATOM     71  O   UNL A   1      42.932  19.274  24.952  1.00  0.00    -0.457 OA
BRANCH  71  72
ATOM     72  C   UNL A   1      44.289  19.163  24.988  1.00  0.00     0.356 C 
ATOM     73  O   UNL A   1      44.920  18.124  25.130  1.00  0.00    -0.244 OA
BRANCH  72  74
ATOM     74  C   UNL A   1      44.878  20.445  24.781  1.00  0.00     0.146 A 
ATOM     75  N   UNL A   1      46.230  20.644  24.593  1.00  0.00    -0.271 N 
ATOM     76  C   UNL A   1      44.359  21.710  24.846  1.00  0.00     0.008 A 
ATOM     77  N   UNL A   1      46.593  21.951  24.486  1.00  0.00    -0.180 NA
ATOM     78  H   UNL A   1      46.877  19.904  24.539  1.00  0.00     0.190 HD
ATOM     79  C   UNL A   1      45.438  22.572  24.680  1.00  0.00     0.066 A 
ATOM     80  C   UNL A   1      43.112  22.422  25.161  1.00  0.00     0.040 C 
ATOM     81  C   UNL A   1      45.087  23.988  24.878  1.00  0.00     0.059 C 
ATOM     82  C   UNL A   1      43.523  23.921  24.950  1.00  0.00     0.011 C 
ENDBRANCH  72  74
ENDBRANCH  71  72
ENDBRANCH  70  71
ENDBRANCH   1  70
TORSDOF 11
ENDMDL
MODEL 2
REMARK VINA RESULT:     -12.1      1.146      1.878
REMARK SMILES O=C(OCCOC(=O)c1[nH]nc2c1CCC2)c1ccc(-c2c3nc(c(-c4c(F)c(F)c(F)c(F)c4F)c4ccc([nH]4)c(-c4c(F)c(F)c(F)c(F)c4F)c4nc(c(-c5c(F)c(F)c(F)c(F)c5F)c5ccc2[nH]5)C=C4)C=C3)cc1
REMARK SMILES IDX 4 1 3 2 2 3 1 4 17 5 18 6 79 7 19 8 78 9 20 10 21 11 22 12
REMARK SMILES IDX 72 13 23 14 77 15 71 16 73 17 24 18 76 19 70 20 69 21 25 23
REMARK SMILES IDX 57 24 37 25 56 26 38 27 41 28 55 29 74 30 39 31 40 32 54 34
REMARK SMILES IDX 75 35 42 36 26 37 27 38 35 39 28 40 29 41 33 42 36 43 30 44
REMARK SMILES IDX 31 45 34 46 32 47 58 48 59 49 67 50 60 51 61 52 65 53 68 54
REMARK SMILES IDX 62 55 63 56 66 57 64 58 43 59 44 60 52 61 45 62 46 63 50 64
REMARK SMILES IDX 53 65 47 66 48 67 51 68 49 69 5 70 6 71 7 72 8 73 9 74 10 75
REMARK SMILES IDX 13 76 11 77 12 79 14 80 16 81 15 82
REMARK H PARENT 73 22 41 33 10 78
REMARK Flexibility Score: inf
ROOT
ATOM      1  C   UNL A   1      41.469  20.581  27.253  1.00  0.00     0.275 C 
ENDROOT
BRANCH   1   2
ATOM      2  O   UNL A   1      40.409  21.434  27.735  1.00  0.00    -0.458 OA
BRANCH   2   3
ATOM      3  C   UNL A   1      39.852  22.319  26.883  1.00  0.00     0.338 C 
ATOM      4  O   UNL A   1      39.095  22.024  25.973  1.00  0.00    -0.246 OA
BRANCH   3   5
ATOM      5  C   UNL A   1      40.150  23.720  27.258  1.00  0.00     0.060 A 
ATOM      6  C   UNL A   1      41.304  24.064  27.969  1.00  0.00     0.016 A 
ATOM      7  C   UNL A   1      39.239  24.714  26.874  1.00  0.00     0.016 A 
ATOM      8  C   UNL A   1      41.519  25.379  28.351  1.00  0.00     0.010 A 
ATOM      9  C   UNL A   1      39.463  26.035  27.242  1.00  0.00     0.010 A 
ATOM     10  C   UNL A   1      40.577  26.356  28.024  1.00  0.00    -0.014 A 
BRANCH  10  11
ATOM     11  C   UNL A   1      40.763  27.684  28.606  1.00  0.00     0.031 A 
ATOM     12  C   UNL A   1      41.931  28.503  28.168  1.00  0.00     0.074 A 
ATOM     13  C   UNL A   1      39.860  28.202  29.462  1.00  0.00     0.049 A 
ATOM     14  N   UNL A   1      42.819  29.098  28.905  1.00  0.00    -0.248 NA
ATOM     15  C   UNL A   1      42.129  28.692  26.724  1.00  0.00     0.031 C 
ATOM     16  C   UNL A   1      38.538  27.668  29.805  1.00  0.00     0.029 A 
ATOM     17  N   UNL A   1      39.901  29.392  30.127  1.00  0.00    -0.354 N 
ATOM     18  C   UNL A   1      43.602  29.858  28.036  1.00  0.00     0.074 A 
ATOM     19  C   UNL A   1      43.171  29.526  26.700  1.00  0.00     0.031 C 
ATOM     20  C   UNL A   1      37.822  28.630  30.425  1.00  0.00     0.029 A 
ATOM     21  C   UNL A   1      38.678  29.783  30.639  1.00  0.00     0.049 A 
ATOM     22  H   UNL A   1      40.725  29.921  30.234  1.00  0.00     0.167 HD
ATOM     23  C   UNL A   1      44.455  30.828  28.468  1.00  0.00     0.037 A 
ATOM     24  C   UNL A   1      38.358  30.999  31.133  1.00  0.00     0.037 A 
ATOM     25  C   UNL A   1      44.831  30.664  29.843  1.00  0.00     0.049 A 
ATOM     26  C   UNL A   1      39.608  31.687  31.526  1.00  0.00     0.074 A 
ATOM     27  C   UNL A   1      45.489  29.689  30.567  1.00  0.00     0.029 A 
ATOM     28  N   UNL A   1      44.312  31.517  30.784  1.00  0.00    -0.354 N 
ATOM     29  N   UNL A   1      40.361  31.331  32.529  1.00  0.00    -0.248 NA
ATOM     30  C   UNL A   1      40.229  32.590  30.570  1.00  0.00     0.031 C 
ATOM     31  C   UNL A   1      44.918  29.738  31.873  1.00  0.00     0.029 A 
ATOM     32  C   UNL A   1      43.947  30.740  31.851  1.00  0.00     0.049 A 
ATOM     33  H   UNL A   1      44.221  32.494  30.707  1.00  0.00     0.167 HD
ATOM     34  C   UNL A   1      41.652  31.631  32.126  1.00  0.00     0.074 A 
ATOM     35  C   UNL A   1      41.497  32.516  30.979  1.00  0.00     0.031 C 
ATOM     36  C   UNL A   1      42.719  30.913  32.585  1.00  0.00     0.037 A 
BRANCH  23  37
ATOM     37  C   UNL A   1      44.756  32.094  27.706  1.00  0.00     0.064 A 
ATOM     38  C   UNL A   1      46.000  32.257  27.064  1.00  0.00     0.173 A 
ATOM     39  C   UNL A   1      43.974  33.261  27.830  1.00  0.00     0.173 A 
ATOM     40  F   UNL A   1      46.840  31.220  26.927  1.00  0.00    -0.203 F 
ATOM     41  C   UNL A   1      46.447  33.508  26.626  1.00  0.00     0.198 A 
ATOM     42  C   UNL A   1      44.401  34.498  27.347  1.00  0.00     0.198 A 
ATOM     43  F   UNL A   1      42.823  33.264  28.516  1.00  0.00    -0.203 F 
ATOM     44  F   UNL A   1      47.682  33.635  26.121  1.00  0.00    -0.200 F 
ATOM     45  C   UNL A   1      45.647  34.627  26.769  1.00  0.00     0.200 A 
ATOM     46  F   UNL A   1      43.623  35.577  27.514  1.00  0.00    -0.200 F 
ATOM     47  F   UNL A   1      46.094  35.834  26.397  1.00  0.00    -0.200 F 
ENDBRANCH  23  37
BRANCH  24  48
ATOM     48  C   UNL A   1      37.053  31.682  31.010  1.00  0.00     0.064 A 
ATOM     49  C   UNL A   1      36.220  31.875  32.119  1.00  0.00     0.173 A 
ATOM     50  C   UNL A   1      36.700  32.365  29.827  1.00  0.00     0.173 A 
ATOM     51  F   UNL A   1      36.521  31.308  33.295  1.00  0.00    -0.203 F 
ATOM     52  C   UNL A   1      35.095  32.703  32.048  1.00  0.00     0.198 A 
ATOM     53  C   UNL A   1      35.571  33.177  29.753  1.00  0.00     0.198 A 
ATOM     54  F   UNL A   1      37.492  32.324  28.746  1.00  0.00    -0.203 F 
ATOM     55  F   UNL A   1      34.346  32.907  33.141  1.00  0.00    -0.200 F 
ATOM     56  C   UNL A   1      34.773  33.354  30.867  1.00  0.00     0.200 A 
ATOM     57  F   UNL A   1      35.294  33.827  28.615  1.00  0.00    -0.200 F 
ATOM     58  F   UNL A   1      33.719  34.180  30.812  1.00  0.00    -0.200 F 
ENDBRANCH  24  48
BRANCH  36  59
ATOM     59  C   UNL A   1      42.487  29.995  33.749  1.00  0.00     0.064 A 
ATOM     60  C   UNL A   1      42.008  28.681  33.603  1.00  0.00     0.173 A 
ATOM     61  C   UNL A   1      42.897  30.397  35.026  1.00  0.00     0.173 A 
ATOM     62  F   UNL A   1      41.708  28.191  32.395  1.00  0.00    -0.203 F 
ATOM     63  C   UNL A   1      41.891  27.830  34.700  1.00  0.00     0.198 A 
ATOM     64  C   UNL A   1      42.812  29.532  36.114  1.00  0.00     0.198 A 
ATOM     65  F   UNL A   1      43.430  31.616  35.210  1.00  0.00    -0.203 F 
ATOM     66  F   UNL A   1      41.419  26.586  34.536  1.00  0.00    -0.200 F 
ATOM     67  C   UNL A   1      42.297  28.254  35.953  1.00  0.00     0.200 A 
ATOM     68  F   UNL A   1      43.256  29.925  37.317  1.00  0.00    -0.200 F 
ATOM     69  F   UNL A   1      42.223  27.422  37.001  1.00  0.00    -0.200 F 
ENDBRANCH  36  59
ENDBRANCH  10  11
ENDBRANCH   3   5
ENDBRANCH   2   3
ENDBRANCH   1   2
BRANCH   1  70
ATOM     70  C   UNL A   1      41.084  19.440  26.309  1.00  0.00     0.275 C 
BRANCH  70  71
ATOM     71  O   UNL A   1      42.133  19.200  25.351  1.00  0.00    -0.457 OA
BRANCH  71  72
ATOM     72  C   UNL A   1      43.266  18.630  25.847  1.00  0.00     0.356 C 
ATOM     73  O   UNL A   1      43.316  17.656  26.585  1.00  0.00    -0.244 OA
BRANCH  72  74
ATOM     74  C   UNL A   1      44.408  19.311  25.328  1.00  0.00     0.146 A 
ATOM     75  N   UNL A   1      45.651  18.729  25.195  1.00  0.00    -0.271 N 
ATOM     76  C   UNL A   1      44.613  20.621  24.990  1.00  0.00     0.008 A 
ATOM     77  N   UNL A   1      46.619  19.574  24.748  1.00  0.00    -0.180 NA
ATOM     78  H   UNL A   1      45.822  17.782  25.404  1.00  0.00     0.190 HD
ATOM     79  C   UNL A   1      45.964  20.723  24.669  1.00  0.00     0.066 A 
ATOM     80  C   UNL A   1      43.937  21.926  24.994  1.00  0.00     0.040 C 
ATOM     81  C   UNL A   1      46.402  22.107  24.428  1.00  0.00     0.059 C 
ATOM     82  C   UNL A   1      45.034  22.873  24.396  1.00  0.00     0.011 C 
ENDBRANCH  72  74
ENDBRANCH  71  72
ENDBRANCH  70  71
ENDBRANCH   1  70
TORSDOF 11
ENDMDL
MODEL 3
REMARK VINA RESULT:     -12.0      4.270     10.963
REMARK SMILES O=C(OCCOC(=O)c1[nH]nc2c1CCC2)c1ccc(-c2c3nc(c(-c4c(F)c(F)c(F)c(F)c4F)c4ccc([nH]4)c(-c4c(F)c(F)c(F)c(F)c4F)c4nc(c(-c5c(F)c(F)c(F)c(F)c5F)c5ccc2[nH]5)C=C4)C=C3)cc1
REMARK SMILES IDX 4 1 3 2 2 3 1 4 17 5 18 6 79 7 19 8 78 9 20 10 21 11 22 12
REMARK SMILES IDX 72 13 23 14 77 15 71 16 73 17 24 18 76 19 70 20 69 21 25 23
REMARK SMILES IDX 57 24 37 25 56 26 38 27 41 28 55 29 74 30 39 31 40 32 54 34
REMARK SMILES IDX 75 35 42 36 26 37 27 38 35 39 28 40 29 41 33 42 36 43 30 44
REMARK SMILES IDX 31 45 34 46 32 47 58 48 59 49 67 50 60 51 61 52 65 53 68 54
REMARK SMILES IDX 62 55 63 56 66 57 64 58 43 59 44 60 52 61 45 62 46 63 50 64
REMARK SMILES IDX 53 65 47 66 48 67 51 68 49 69 5 70 6 71 7 72 8 73 9 74 10 75
REMARK SMILES IDX 13 76 11 77 12 79 14 80 16 81 15 82
REMARK H PARENT 73 22 41 33 10 78
REMARK Flexibility Score: inf
ROOT
ATOM      1  C   UNL A   1      33.658  33.863  27.843  1.00  0.00     0.275 C 
ENDROOT
BRANCH   1   2
ATOM      2  O   UNL A   1      34.887  33.105  27.880  1.00  0.00    -0.458 OA
BRANCH   2   3
ATOM      3  C   UNL A   1      34.821  31.761  27.790  1.00  0.00     0.338 C 
ATOM      4  O   UNL A   1      33.918  31.145  27.249  1.00  0.00    -0.246 OA
BRANCH   3   5
ATOM      5  C   UNL A   1      36.047  31.106  28.301  1.00  0.00     0.060 A 
ATOM      6  C   UNL A   1      37.160  31.846  28.714  1.00  0.00     0.016 A 
ATOM      7  C   UNL A   1      36.067  29.707  28.370  1.00  0.00     0.016 A 
ATOM      8  C   UNL A   1      38.310  31.194  29.134  1.00  0.00     0.010 A 
ATOM      9  C   UNL A   1      37.214  29.053  28.806  1.00  0.00     0.010 A 
ATOM     10  C   UNL A   1      38.350  29.798  29.139  1.00  0.00    -0.014 A 
BRANCH  10  11
ATOM     11  C   UNL A   1      39.640  29.169  29.415  1.00  0.00     0.031 A 
ATOM     12  C   UNL A   1      40.052  28.967  30.834  1.00  0.00     0.074 A 
ATOM     13  C   UNL A   1      40.416  28.703  28.414  1.00  0.00     0.049 A 
ATOM     14  N   UNL A   1      41.168  29.305  31.405  1.00  0.00    -0.248 NA
ATOM     15  C   UNL A   1      39.103  28.292  31.731  1.00  0.00     0.031 C 
ATOM     16  C   UNL A   1      40.070  28.575  26.995  1.00  0.00     0.029 A 
ATOM     17  N   UNL A   1      41.655  28.139  28.490  1.00  0.00    -0.354 N 
ATOM     18  C   UNL A   1      41.131  28.760  32.689  1.00  0.00     0.074 A 
ATOM     19  C   UNL A   1      39.814  28.196  32.856  1.00  0.00     0.031 C 
ATOM     20  C   UNL A   1      40.974  27.772  26.393  1.00  0.00     0.029 A 
ATOM     21  C   UNL A   1      42.021  27.452  27.347  1.00  0.00     0.049 A 
ATOM     22  H   UNL A   1      42.234  28.215  29.282  1.00  0.00     0.167 HD
ATOM     23  C   UNL A   1      42.234  28.669  33.484  1.00  0.00     0.037 A 
ATOM     24  C   UNL A   1      43.067  26.608  27.209  1.00  0.00     0.037 A 
ATOM     25  C   UNL A   1      43.269  29.588  33.104  1.00  0.00     0.049 A 
ATOM     26  C   UNL A   1      44.053  26.911  28.270  1.00  0.00     0.074 A 
ATOM     27  C   UNL A   1      43.374  30.963  33.026  1.00  0.00     0.029 A 
ATOM     28  N   UNL A   1      44.394  29.108  32.484  1.00  0.00    -0.354 N 
ATOM     29  N   UNL A   1      44.768  28.000  28.322  1.00  0.00    -0.248 NA
ATOM     30  C   UNL A   1      44.002  26.139  29.502  1.00  0.00     0.031 C 
ATOM     31  C   UNL A   1      44.281  31.211  31.954  1.00  0.00     0.029 A 
ATOM     32  C   UNL A   1      44.663  29.967  31.451  1.00  0.00     0.049 A 
ATOM     33  H   UNL A   1      44.907  28.306  32.733  1.00  0.00     0.167 HD
ATOM     34  C   UNL A   1      44.919  28.260  29.675  1.00  0.00     0.074 A 
ATOM     35  C   UNL A   1      44.543  27.021  30.344  1.00  0.00     0.031 C 
ATOM     36  C   UNL A   1      45.065  29.536  30.136  1.00  0.00     0.037 A 
BRANCH  23  37
ATOM     37  C   UNL A   1      42.481  27.551  34.465  1.00  0.00     0.064 A 
ATOM     38  C   UNL A   1      43.062  26.342  34.031  1.00  0.00     0.173 A 
ATOM     39  C   UNL A   1      41.902  27.524  35.750  1.00  0.00     0.173 A 
ATOM     40  F   UNL A   1      43.607  26.246  32.809  1.00  0.00    -0.203 F 
ATOM     41  C   UNL A   1      43.021  25.181  34.809  1.00  0.00     0.198 A 
ATOM     42  C   UNL A   1      41.905  26.378  36.545  1.00  0.00     0.198 A 
ATOM     43  F   UNL A   1      41.221  28.572  36.234  1.00  0.00    -0.203 F 
ATOM     44  F   UNL A   1      43.488  24.028  34.311  1.00  0.00    -0.200 F 
ATOM     45  C   UNL A   1      42.441  25.200  36.065  1.00  0.00     0.200 A 
ATOM     46  F   UNL A   1      41.319  26.407  37.750  1.00  0.00    -0.200 F 
ATOM     47  F   UNL A   1      42.354  24.077  36.790  1.00  0.00    -0.200 F 
ENDBRANCH  23  37
BRANCH  24  48
ATOM     48  C   UNL A   1      43.105  25.384  26.382  1.00  0.00     0.064 A 
ATOM     49  C   UNL A   1      44.139  25.151  25.466  1.00  0.00     0.173 A 
ATOM     50  C   UNL A   1      42.237  24.303  26.643  1.00  0.00     0.173 A 
ATOM     51  F   UNL A   1      45.040  26.109  25.209  1.00  0.00    -0.203 F 
ATOM     52  C   UNL A   1      44.293  23.908  24.844  1.00  0.00     0.198 A 
ATOM     53  C   UNL A   1      42.382  23.070  26.013  1.00  0.00     0.198 A 
ATOM     54  F   UNL A   1      41.282  24.398  27.580  1.00  0.00    -0.203 F 
ATOM     55  F   UNL A   1      45.323  23.701  24.011  1.00  0.00    -0.200 F 
ATOM     56  C   UNL A   1      43.417  22.869  25.119  1.00  0.00     0.200 A 
ATOM     57  F   UNL A   1      41.548  22.067  26.316  1.00  0.00    -0.200 F 
ATOM     58  F   UNL A   1      43.591  21.667  24.555  1.00  0.00    -0.200 F 
ENDBRANCH  24  48
BRANCH  36  59
ATOM     59  C   UNL A   1      45.351  30.609  29.127  1.00  0.00     0.064 A 
ATOM     60  C   UNL A   1      44.339  31.286  28.424  1.00  0.00     0.173 A 
ATOM     61  C   UNL A   1      46.664  31.068  28.974  1.00  0.00     0.173 A 
ATOM     62  F   UNL A   1      43.050  30.979  28.611  1.00  0.00    -0.203 F 
ATOM     63  C   UNL A   1      44.640  32.338  27.561  1.00  0.00     0.198 A 
ATOM     64  C   UNL A   1      46.958  32.143  28.137  1.00  0.00     0.198 A 
ATOM     65  F   UNL A   1      47.661  30.505  29.675  1.00  0.00    -0.203 F 
ATOM     66  F   UNL A   1      43.657  32.959  26.893  1.00  0.00    -0.200 F 
ATOM     67  C   UNL A   1      45.948  32.768  27.422  1.00  0.00     0.200 A 
ATOM     68  F   UNL A   1      48.218  32.593  28.046  1.00  0.00    -0.200 F 
ATOM     69  F   UNL A   1      46.233  33.806  26.624  1.00  0.00    -0.200 F 
ENDBRANCH  36  59
ENDBRANCH  10  11
ENDBRANCH   3   5
ENDBRANCH   2   3
ENDBRANCH   1   2
BRANCH   1  70
ATOM     70  C   UNL A   1      33.566  35.103  28.735  1.00  0.00     0.275 C 
BRANCH  70  71
ATOM     71  O   UNL A   1      32.906  34.787  29.975  1.00  0.00    -0.457 OA
BRANCH  71  72
ATOM     72  C   UNL A   1      33.113  35.663  30.996  1.00  0.00     0.356 C 
ATOM     73  O   UNL A   1      32.480  36.690  31.200  1.00  0.00    -0.244 OA
BRANCH  72  74
ATOM     74  C   UNL A   1      34.156  35.177  31.839  1.00  0.00     0.146 A 
ATOM     75  N   UNL A   1      34.911  35.982  32.665  1.00  0.00    -0.271 N 
ATOM     76  C   UNL A   1      34.738  33.943  31.950  1.00  0.00     0.008 A 
ATOM     77  N   UNL A   1      35.903  35.329  33.329  1.00  0.00    -0.180 NA
ATOM     78  H   UNL A   1      34.746  36.948  32.766  1.00  0.00     0.190 HD
ATOM     79  C   UNL A   1      35.792  34.100  32.845  1.00  0.00     0.066 A 
ATOM     80  C   UNL A   1      34.703  32.600  31.352  1.00  0.00     0.040 C 
ATOM     81  C   UNL A   1      36.635  32.899  32.968  1.00  0.00     0.059 C 
ATOM     82  C   UNL A   1      35.789  31.836  32.185  1.00  0.00     0.011 C 
ENDBRANCH  72  74
ENDBRANCH  71  72
ENDBRANCH  70  71
ENDBRANCH   1  70
TORSDOF 11
ENDMDL
