MODEL 1
REMARK VINA RESULT:     -12.1      0.000      0.000
REMARK SMILES COc1ccc(-c2noc(CC(=O)OCCOC(=O)c3ccc(-c4c5nc(c(-c6c(F)c(F)c(F)c(F)c6F)c6ccc([nH]6)c(-c6c(F)c(F)c(F)c(F)c6F)c6nc(c(-c7c(F)c(F)c(F)c(F)c7F)c7ccc4[nH]7)C=C6)C=C5)cc3)c2-c2ccc(OC)cc2)cc1
REMARK SMILES IDX 15 1 14 2 12 3 13 4 11 5 10 6 7 7 8 8 83 9 9 10 6 11 3 12
REMARK SMILES IDX 4 13 93 14 5 15 92 16 2 17 1 18 84 19 85 20 91 21 86 22
REMARK SMILES IDX 90 23 87 24 88 25 89 26 16 27 17 28 18 29 19 30 20 31 21 32
REMARK SMILES IDX 82 33 22 34 81 35 23 36 24 37 25 38 75 39 26 40 80 41 74 42
REMARK SMILES IDX 76 43 27 44 79 45 73 46 72 47 28 49 60 50 40 51 59 52 41 53
REMARK SMILES IDX 44 54 58 55 77 56 42 57 43 58 57 60 78 61 45 62 29 63 30 64
REMARK SMILES IDX 38 65 31 66 32 67 36 68 39 69 33 70 34 71 37 72 35 73 61 74
REMARK SMILES IDX 62 75 70 76 63 77 64 78 68 79 71 80 65 81 66 82 69 83 67 84
REMARK SMILES IDX 46 85 47 86 55 87 48 88 49 89 53 90 56 91 50 92 51 93 54 94
REMARK SMILES IDX 52 95
REMARK H PARENT 76 48 44 59
REMARK Flexibility Score: inf
ROOT
ATOM      1  C   UNL A   1      31.758  28.274  26.395  1.00  0.00     0.274 C 
ENDROOT
BRANCH   1   2
ATOM      2  O   UNL A   1      31.808  27.404  25.248  1.00  0.00    -0.462 OA
BRANCH   2   3
ATOM      3  C   UNL A   1      33.016  26.841  24.988  1.00  0.00     0.313 C 
ATOM      4  O   UNL A   1      33.998  26.930  25.720  1.00  0.00    -0.252 OA
BRANCH   3   5
ATOM      5  C   UNL A   1      33.101  26.153  23.654  1.00  0.00     0.201 C 
BRANCH   5   6
ATOM      6  C   UNL A   1      32.611  24.754  23.627  1.00  0.00     0.156 A 
ATOM      7  C   UNL A   1      32.179  22.579  23.713  1.00  0.00     0.122 A 
ATOM      8  N   UNL A   1      31.051  23.178  23.297  1.00  0.00    -0.079 NA
ATOM      9  C   UNL A   1      33.190  23.550  23.956  1.00  0.00     0.053 A 
ATOM     10  O   UNL A   1      31.319  24.536  23.265  1.00  0.00    -0.359 OA
BRANCH   7  11
ATOM     11  C   UNL A   1      32.285  21.132  23.859  1.00  0.00     0.005 A 
ATOM     12  C   UNL A   1      32.721  18.361  24.107  1.00  0.00     0.118 A 
ATOM     13  C   UNL A   1      32.378  18.921  22.873  1.00  0.00     0.047 A 
ATOM     14  C   UNL A   1      32.817  19.187  25.226  1.00  0.00     0.047 A 
ATOM     15  C   UNL A   1      32.152  20.295  22.747  1.00  0.00     0.014 A 
ATOM     16  C   UNL A   1      32.600  20.564  25.102  1.00  0.00     0.014 A 
BRANCH  12  17
ATOM     17  O   UNL A   1      32.949  17.013  24.084  1.00  0.00    -0.497 OA
ATOM     18  C   UNL A   1      33.610  16.453  25.211  1.00  0.00     0.278 C 
ENDBRANCH  12  17
ENDBRANCH   7  11
BRANCH   9  19
ATOM     19  C   UNL A   1      34.566  23.424  24.377  1.00  0.00    -0.012 A 
ATOM     20  C   UNL A   1      34.914  23.645  25.710  1.00  0.00     0.013 A 
ATOM     21  C   UNL A   1      35.547  23.038  23.458  1.00  0.00     0.013 A 
ATOM     22  C   UNL A   1      36.231  23.441  26.125  1.00  0.00     0.047 A 
ATOM     23  C   UNL A   1      36.862  22.830  23.878  1.00  0.00     0.047 A 
ATOM     24  C   UNL A   1      37.205  23.014  25.218  1.00  0.00     0.118 A 
BRANCH  24  25
ATOM     25  O   UNL A   1      38.444  22.816  25.759  1.00  0.00    -0.497 OA
ATOM     26  C   UNL A   1      38.881  23.778  26.712  1.00  0.00     0.278 C 
ENDBRANCH  24  25
ENDBRANCH   9  19
ENDBRANCH   5   6
ENDBRANCH   3   5
ENDBRANCH   2   3
ENDBRANCH   1   2
BRANCH   1  27
ATOM     27  C   UNL A   1      31.751  29.745  25.979  1.00  0.00     0.275 C 
BRANCH  27  28
ATOM     28  O   UNL A   1      33.089  30.274  25.993  1.00  0.00    -0.458 OA
BRANCH  28  29
ATOM     29  C   UNL A   1      33.344  31.202  26.942  1.00  0.00     0.338 C 
ATOM     30  O   UNL A   1      32.649  32.143  27.278  1.00  0.00    -0.246 OA
BRANCH  29  31
ATOM     31  C   UNL A   1      34.632  30.895  27.578  1.00  0.00     0.060 A 
ATOM     32  C   UNL A   1      34.929  29.571  27.907  1.00  0.00     0.016 A 
ATOM     33  C   UNL A   1      35.492  31.929  27.947  1.00  0.00     0.016 A 
ATOM     34  C   UNL A   1      36.093  29.274  28.615  1.00  0.00     0.010 A 
ATOM     35  C   UNL A   1      36.663  31.631  28.650  1.00  0.00     0.010 A 
ATOM     36  C   UNL A   1      36.961  30.304  29.004  1.00  0.00    -0.014 A 
BRANCH  36  37
ATOM     37  C   UNL A   1      38.143  29.992  29.844  1.00  0.00     0.031 A 
ATOM     38  C   UNL A   1      39.231  29.109  29.307  1.00  0.00     0.074 A 
ATOM     39  C   UNL A   1      38.251  30.519  31.077  1.00  0.00     0.049 A 
ATOM     40  N   UNL A   1      40.317  28.676  29.897  1.00  0.00    -0.248 NA
ATOM     41  C   UNL A   1      39.077  28.647  27.918  1.00  0.00     0.031 C 
ATOM     42  C   UNL A   1      37.276  31.413  31.700  1.00  0.00     0.029 A 
ATOM     43  N   UNL A   1      39.233  30.379  32.025  1.00  0.00    -0.354 N 
ATOM     44  C   UNL A   1      40.963  27.878  28.962  1.00  0.00     0.074 A 
ATOM     45  C   UNL A   1      40.143  27.874  27.770  1.00  0.00     0.031 C 
ATOM     46  C   UNL A   1      37.712  31.748  32.926  1.00  0.00     0.029 A 
ATOM     47  C   UNL A   1      38.976  31.064  33.186  1.00  0.00     0.049 A 
ATOM     48  H   UNL A   1      40.044  29.838  31.886  1.00  0.00     0.167 HD
ATOM     49  C   UNL A   1      42.136  27.213  29.088  1.00  0.00     0.037 A 
ATOM     50  C   UNL A   1      39.674  31.119  34.337  1.00  0.00     0.037 A 
ATOM     51  C   UNL A   1      42.964  27.233  30.266  1.00  0.00     0.049 A 
ATOM     52  C   UNL A   1      40.964  30.352  34.457  1.00  0.00     0.074 A 
ATOM     53  C   UNL A   1      44.178  26.603  30.482  1.00  0.00     0.029 A 
ATOM     54  N   UNL A   1      42.662  27.925  31.430  1.00  0.00    -0.354 N 
ATOM     55  N   UNL A   1      41.565  29.598  33.570  1.00  0.00    -0.248 NA
ATOM     56  C   UNL A   1      41.669  30.444  35.744  1.00  0.00     0.031 C 
ATOM     57  C   UNL A   1      44.596  26.888  31.786  1.00  0.00     0.029 A 
ATOM     58  C   UNL A   1      43.660  27.725  32.371  1.00  0.00     0.049 A 
ATOM     59  H   UNL A   1      41.858  28.476  31.566  1.00  0.00     0.167 HD
ATOM     60  C   UNL A   1      42.720  29.135  34.182  1.00  0.00     0.074 A 
ATOM     61  C   UNL A   1      42.749  29.711  35.511  1.00  0.00     0.031 C 
ATOM     62  C   UNL A   1      43.671  28.303  33.689  1.00  0.00     0.037 A 
BRANCH  49  63
ATOM     63  C   UNL A   1      42.586  26.383  27.923  1.00  0.00     0.064 A 
ATOM     64  C   UNL A   1      42.222  25.035  27.796  1.00  0.00     0.173 A 
ATOM     65  C   UNL A   1      43.363  26.955  26.905  1.00  0.00     0.173 A 
ATOM     66  F   UNL A   1      41.489  24.441  28.748  1.00  0.00    -0.203 F 
ATOM     67  C   UNL A   1      42.638  24.283  26.699  1.00  0.00     0.198 A 
ATOM     68  C   UNL A   1      43.759  26.207  25.799  1.00  0.00     0.198 A 
ATOM     69  F   UNL A   1      43.734  28.242  26.979  1.00  0.00    -0.203 F 
ATOM     70  F   UNL A   1      42.309  22.987  26.614  1.00  0.00    -0.200 F 
ATOM     71  C   UNL A   1      43.401  24.870  25.700  1.00  0.00     0.200 A 
ATOM     72  F   UNL A   1      44.487  26.778  24.831  1.00  0.00    -0.200 F 
ATOM     73  F   UNL A   1      43.796  24.147  24.644  1.00  0.00    -0.200 F 
ENDBRANCH  49  63
BRANCH  50  74
ATOM     74  C   UNL A   1      39.164  31.928  35.471  1.00  0.00     0.064 A 
ATOM     75  C   UNL A   1      39.500  33.281  35.602  1.00  0.00     0.173 A 
ATOM     76  C   UNL A   1      38.329  31.363  36.447  1.00  0.00     0.173 A 
ATOM     77  F   UNL A   1      40.317  33.856  34.708  1.00  0.00    -0.203 F 
ATOM     78  C   UNL A   1      39.032  34.037  36.673  1.00  0.00     0.198 A 
ATOM     79  C   UNL A   1      37.841  32.126  37.504  1.00  0.00     0.198 A 
ATOM     80  F   UNL A   1      37.981  30.070  36.367  1.00  0.00    -0.203 F 
ATOM     81  F   UNL A   1      39.399  35.320  36.797  1.00  0.00    -0.200 F 
ATOM     82  C   UNL A   1      38.197  33.461  37.620  1.00  0.00     0.200 A 
ATOM     83  F   UNL A   1      37.027  31.568  38.412  1.00  0.00    -0.200 F 
ATOM     84  F   UNL A   1      37.742  34.191  38.647  1.00  0.00    -0.200 F 
ENDBRANCH  50  74
BRANCH  62  85
ATOM     85  C   UNL A   1      44.826  27.981  34.589  1.00  0.00     0.064 A 
ATOM     86  C   UNL A   1      44.803  26.865  35.439  1.00  0.00     0.173 A 
ATOM     87  C   UNL A   1      45.975  28.786  34.590  1.00  0.00     0.173 A 
ATOM     88  F   UNL A   1      43.719  26.076  35.485  1.00  0.00    -0.203 F 
ATOM     89  C   UNL A   1      45.880  26.581  36.274  1.00  0.00     0.198 A 
ATOM     90  C   UNL A   1      47.059  28.484  35.410  1.00  0.00     0.198 A 
ATOM     91  F   UNL A   1      46.047  29.863  33.793  1.00  0.00    -0.203 F 
ATOM     92  F   UNL A   1      45.817  25.535  37.111  1.00  0.00    -0.200 F 
ATOM     93  C   UNL A   1      47.008  27.387  36.256  1.00  0.00     0.200 A 
ATOM     94  F   UNL A   1      48.152  29.261  35.386  1.00  0.00    -0.200 F 
ATOM     95  F   UNL A   1      48.041  27.113  37.063  1.00  0.00    -0.200 F 
ENDBRANCH  62  85
ENDBRANCH  36  37
ENDBRANCH  29  31
ENDBRANCH  28  29
ENDBRANCH  27  28
ENDBRANCH   1  27
TORSDOF 16
ENDMDL
MODEL 2
REMARK VINA RESULT:     -12.0      0.405      2.014
REMARK SMILES COc1ccc(-c2noc(CC(=O)OCCOC(=O)c3ccc(-c4c5nc(c(-c6c(F)c(F)c(F)c(F)c6F)c6ccc([nH]6)c(-c6c(F)c(F)c(F)c(F)c6F)c6nc(c(-c7c(F)c(F)c(F)c(F)c7F)c7ccc4[nH]7)C=C6)C=C5)cc3)c2-c2ccc(OC)cc2)cc1
REMARK SMILES IDX 15 1 14 2 12 3 13 4 11 5 10 6 7 7 8 8 83 9 9 10 6 11 3 12
REMARK SMILES IDX 4 13 93 14 5 15 92 16 2 17 1 18 84 19 85 20 91 21 86 22
REMARK SMILES IDX 90 23 87 24 88 25 89 26 16 27 17 28 18 29 19 30 20 31 21 32
REMARK SMILES IDX 82 33 22 34 81 35 23 36 24 37 25 38 75 39 26 40 80 41 74 42
REMARK SMILES IDX 76 43 27 44 79 45 73 46 72 47 28 49 60 50 40 51 59 52 41 53
REMARK SMILES IDX 44 54 58 55 77 56 42 57 43 58 57 60 78 61 45 62 29 63 30 64
REMARK SMILES IDX 38 65 31 66 32 67 36 68 39 69 33 70 34 71 37 72 35 73 61 74
REMARK SMILES IDX 62 75 70 76 63 77 64 78 68 79 71 80 65 81 66 82 69 83 67 84
REMARK SMILES IDX 46 85 47 86 55 87 48 88 49 89 53 90 56 91 50 92 51 93 54 94
REMARK SMILES IDX 52 95
REMARK H PARENT 76 48 44 59
REMARK Flexibility Score: inf
ROOT
ATOM      1  C   UNL A   1      31.574  28.947  24.831  1.00  0.00     0.274 C 
ENDROOT
BRANCH   1   2
ATOM      2  O   UNL A   1      32.816  28.340  24.431  1.00  0.00    -0.462 OA
BRANCH   2   3
ATOM      3  C   UNL A   1      32.948  27.021  24.722  1.00  0.00     0.313 C 
ATOM      4  O   UNL A   1      32.770  26.531  25.835  1.00  0.00    -0.252 OA
BRANCH   3   5
ATOM      5  C   UNL A   1      33.433  26.181  23.573  1.00  0.00     0.201 C 
BRANCH   5   6
ATOM      6  C   UNL A   1      32.888  24.803  23.519  1.00  0.00     0.156 A 
ATOM      7  C   UNL A   1      32.357  22.649  23.595  1.00  0.00     0.122 A 
ATOM      8  N   UNL A   1      31.304  23.285  23.058  1.00  0.00    -0.079 NA
ATOM      9  C   UNL A   1      33.380  23.582  23.924  1.00  0.00     0.053 A 
ATOM     10  O   UNL A   1      31.631  24.630  23.032  1.00  0.00    -0.359 OA
BRANCH   7  11
ATOM     11  C   UNL A   1      32.387  21.202  23.774  1.00  0.00     0.005 A 
ATOM     12  C   UNL A   1      32.673  18.416  24.073  1.00  0.00     0.118 A 
ATOM     13  C   UNL A   1      32.303  18.967  22.842  1.00  0.00     0.047 A 
ATOM     14  C   UNL A   1      32.872  19.261  25.164  1.00  0.00     0.047 A 
ATOM     15  C   UNL A   1      32.151  20.349  22.692  1.00  0.00     0.014 A 
ATOM     16  C   UNL A   1      32.729  20.645  25.014  1.00  0.00     0.014 A 
BRANCH  12  17
ATOM     17  O   UNL A   1      32.821  17.057  24.074  1.00  0.00    -0.497 OA
ATOM     18  C   UNL A   1      34.150  16.555  24.126  1.00  0.00     0.278 C 
ENDBRANCH  12  17
ENDBRANCH   7  11
BRANCH   9  19
ATOM     19  C   UNL A   1      34.700  23.409  24.483  1.00  0.00    -0.012 A 
ATOM     20  C   UNL A   1      35.753  22.977  23.676  1.00  0.00     0.013 A 
ATOM     21  C   UNL A   1      34.937  23.715  25.827  1.00  0.00     0.013 A 
ATOM     22  C   UNL A   1      37.041  22.891  24.205  1.00  0.00     0.047 A 
ATOM     23  C   UNL A   1      36.228  23.632  26.352  1.00  0.00     0.047 A 
ATOM     24  C   UNL A   1      37.289  23.237  25.536  1.00  0.00     0.118 A 
BRANCH  24  25
ATOM     25  O   UNL A   1      38.598  23.144  25.918  1.00  0.00    -0.497 OA
ATOM     26  C   UNL A   1      39.106  21.832  26.127  1.00  0.00     0.278 C 
ENDBRANCH  24  25
ENDBRANCH   9  19
ENDBRANCH   5   6
ENDBRANCH   3   5
ENDBRANCH   2   3
ENDBRANCH   1   2
BRANCH   1  27
ATOM     27  C   UNL A   1      31.770  29.886  26.023  1.00  0.00     0.275 C 
BRANCH  27  28
ATOM     28  O   UNL A   1      33.103  30.427  26.018  1.00  0.00    -0.458 OA
BRANCH  28  29
ATOM     29  C   UNL A   1      33.372  31.335  26.982  1.00  0.00     0.338 C 
ATOM     30  O   UNL A   1      32.695  32.285  27.328  1.00  0.00    -0.246 OA
BRANCH  29  31
ATOM     31  C   UNL A   1      34.651  30.993  27.620  1.00  0.00     0.060 A 
ATOM     32  C   UNL A   1      34.897  29.666  27.979  1.00  0.00     0.016 A 
ATOM     33  C   UNL A   1      35.552  32.001  27.959  1.00  0.00     0.016 A 
ATOM     34  C   UNL A   1      36.051  29.341  28.689  1.00  0.00     0.010 A 
ATOM     35  C   UNL A   1      36.714  31.673  28.665  1.00  0.00     0.010 A 
ATOM     36  C   UNL A   1      36.962  30.344  29.049  1.00  0.00    -0.014 A 
BRANCH  36  37
ATOM     37  C   UNL A   1      38.135  30.007  29.892  1.00  0.00     0.031 A 
ATOM     38  C   UNL A   1      39.206  29.101  29.355  1.00  0.00     0.074 A 
ATOM     39  C   UNL A   1      38.251  30.530  31.126  1.00  0.00     0.049 A 
ATOM     40  N   UNL A   1      40.281  28.645  29.947  1.00  0.00    -0.248 NA
ATOM     41  C   UNL A   1      39.045  28.646  27.966  1.00  0.00     0.031 C 
ATOM     42  C   UNL A   1      37.294  31.443  31.748  1.00  0.00     0.029 A 
ATOM     43  N   UNL A   1      39.228  30.367  32.076  1.00  0.00    -0.354 N 
ATOM     44  C   UNL A   1      40.912  27.835  29.013  1.00  0.00     0.074 A 
ATOM     45  C   UNL A   1      40.094  27.850  27.819  1.00  0.00     0.031 C 
ATOM     46  C   UNL A   1      37.734  31.767  32.975  1.00  0.00     0.029 A 
ATOM     47  C   UNL A   1      38.983  31.056  33.237  1.00  0.00     0.049 A 
ATOM     48  H   UNL A   1      40.028  29.810  31.938  1.00  0.00     0.167 HD
ATOM     49  C   UNL A   1      42.070  27.145  29.141  1.00  0.00     0.037 A 
ATOM     50  C   UNL A   1      39.680  31.094  34.390  1.00  0.00     0.037 A 
ATOM     51  C   UNL A   1      42.896  27.146  30.320  1.00  0.00     0.049 A 
ATOM     52  C   UNL A   1      40.952  30.300  34.511  1.00  0.00     0.074 A 
ATOM     53  C   UNL A   1      44.096  26.490  30.538  1.00  0.00     0.029 A 
ATOM     54  N   UNL A   1      42.606  27.842  31.484  1.00  0.00    -0.354 N 
ATOM     55  N   UNL A   1      41.539  29.535  33.625  1.00  0.00    -0.248 NA
ATOM     56  C   UNL A   1      41.656  30.375  35.800  1.00  0.00     0.031 C 
ATOM     57  C   UNL A   1      44.517  26.765  31.844  1.00  0.00     0.029 A 
ATOM     58  C   UNL A   1      43.597  27.620  32.427  1.00  0.00     0.049 A 
ATOM     59  H   UNL A   1      41.813  28.410  31.620  1.00  0.00     0.167 HD
ATOM     60  C   UNL A   1      42.683  29.047  34.239  1.00  0.00     0.074 A 
ATOM     61  C   UNL A   1      42.722  29.620  35.568  1.00  0.00     0.031 C 
ATOM     62  C   UNL A   1      43.618  28.196  33.747  1.00  0.00     0.037 A 
BRANCH  49  63
ATOM     63  C   UNL A   1      42.505  26.307  27.975  1.00  0.00     0.064 A 
ATOM     64  C   UNL A   1      43.390  26.799  27.006  1.00  0.00     0.173 A 
ATOM     65  C   UNL A   1      42.054  24.985  27.847  1.00  0.00     0.173 A 
ATOM     66  F   UNL A   1      43.840  28.060  27.078  1.00  0.00    -0.203 F 
ATOM     67  C   UNL A   1      43.793  26.001  25.936  1.00  0.00     0.198 A 
ATOM     68  C   UNL A   1      42.476  24.184  26.789  1.00  0.00     0.198 A 
ATOM     69  F   UNL A   1      41.209  24.468  28.751  1.00  0.00    -0.203 F 
ATOM     70  F   UNL A   1      44.612  26.502  25.001  1.00  0.00    -0.200 F 
ATOM     71  C   UNL A   1      43.340  24.694  25.832  1.00  0.00     0.200 A 
ATOM     72  F   UNL A   1      42.046  22.918  26.696  1.00  0.00    -0.200 F 
ATOM     73  F   UNL A   1      43.733  23.927  24.806  1.00  0.00    -0.200 F 
ENDBRANCH  49  63
BRANCH  50  74
ATOM     74  C   UNL A   1      39.183  31.912  35.524  1.00  0.00     0.064 A 
ATOM     75  C   UNL A   1      38.347  31.359  36.501  1.00  0.00     0.173 A 
ATOM     76  C   UNL A   1      39.535  33.264  35.652  1.00  0.00     0.173 A 
ATOM     77  F   UNL A   1      37.962  30.077  36.405  1.00  0.00    -0.203 F 
ATOM     78  C   UNL A   1      37.870  32.129  37.559  1.00  0.00     0.198 A 
ATOM     79  C   UNL A   1      39.079  34.027  36.723  1.00  0.00     0.198 A 
ATOM     80  F   UNL A   1      40.332  33.840  34.739  1.00  0.00    -0.203 F 
ATOM     81  F   UNL A   1      37.040  31.586  38.461  1.00  0.00    -0.200 F 
ATOM     82  C   UNL A   1      38.242  33.460  37.673  1.00  0.00     0.200 A 
ATOM     83  F   UNL A   1      39.447  35.311  36.835  1.00  0.00    -0.200 F 
ATOM     84  F   UNL A   1      37.788  34.200  38.694  1.00  0.00    -0.200 F 
ENDBRANCH  50  74
BRANCH  62  85
ATOM     85  C   UNL A   1      44.763  27.849  34.649  1.00  0.00     0.064 A 
ATOM     86  C   UNL A   1      45.905  28.661  34.729  1.00  0.00     0.173 A 
ATOM     87  C   UNL A   1      44.713  26.702  35.456  1.00  0.00     0.173 A 
ATOM     88  F   UNL A   1      46.005  29.758  33.964  1.00  0.00    -0.203 F 
ATOM     89  C   UNL A   1      46.964  28.323  35.566  1.00  0.00     0.198 A 
ATOM     90  C   UNL A   1      45.765  26.381  36.309  1.00  0.00     0.198 A 
ATOM     91  F   UNL A   1      43.642  25.895  35.418  1.00  0.00    -0.203 F 
ATOM     92  F   UNL A   1      48.065  29.089  35.592  1.00  0.00    -0.200 F 
ATOM     93  C   UNL A   1      46.892  27.187  36.358  1.00  0.00     0.200 A 
ATOM     94  F   UNL A   1      45.691  25.286  37.080  1.00  0.00    -0.200 F 
ATOM     95  F   UNL A   1      47.914  26.863  37.161  1.00  0.00    -0.200 F 
ENDBRANCH  62  85
ENDBRANCH  36  37
ENDBRANCH  29  31
ENDBRANCH  28  29
ENDBRANCH  27  28
ENDBRANCH   1  27
TORSDOF 16
ENDMDL
MODEL 3
REMARK VINA RESULT:     -11.9      0.590      7.265
REMARK SMILES COc1ccc(-c2noc(CC(=O)OCCOC(=O)c3ccc(-c4c5nc(c(-c6c(F)c(F)c(F)c(F)c6F)c6ccc([nH]6)c(-c6c(F)c(F)c(F)c(F)c6F)c6nc(c(-c7c(F)c(F)c(F)c(F)c7F)c7ccc4[nH]7)C=C6)C=C5)cc3)c2-c2ccc(OC)cc2)cc1
REMARK SMILES IDX 15 1 14 2 12 3 13 4 11 5 10 6 7 7 8 8 83 9 9 10 6 11 3 12
REMARK SMILES IDX 4 13 93 14 5 15 92 16 2 17 1 18 84 19 85 20 91 21 86 22
REMARK SMILES IDX 90 23 87 24 88 25 89 26 16 27 17 28 18 29 19 30 20 31 21 32
REMARK SMILES IDX 82 33 22 34 81 35 23 36 24 37 25 38 75 39 26 40 80 41 74 42
REMARK SMILES IDX 76 43 27 44 79 45 73 46 72 47 28 49 60 50 40 51 59 52 41 53
REMARK SMILES IDX 44 54 58 55 77 56 42 57 43 58 57 60 78 61 45 62 29 63 30 64
REMARK SMILES IDX 38 65 31 66 32 67 36 68 39 69 33 70 34 71 37 72 35 73 61 74
REMARK SMILES IDX 62 75 70 76 63 77 64 78 68 79 71 80 65 81 66 82 69 83 67 84
REMARK SMILES IDX 46 85 47 86 55 87 48 88 49 89 53 90 56 91 50 92 51 93 54 94
REMARK SMILES IDX 52 95
REMARK H PARENT 76 48 44 59
REMARK Flexibility Score: inf
ROOT
ATOM      1  C   UNL A   1      32.944  29.333  25.093  1.00  0.00     0.274 C 
ENDROOT
BRANCH   1   2
ATOM      2  O   UNL A   1      32.181  28.165  24.736  1.00  0.00    -0.462 OA
BRANCH   2   3
ATOM      3  C   UNL A   1      32.787  26.972  24.964  1.00  0.00     0.313 C 
ATOM      4  O   UNL A   1      33.106  26.553  26.074  1.00  0.00    -0.252 OA
BRANCH   3   5
ATOM      5  C   UNL A   1      33.140  26.211  23.716  1.00  0.00     0.201 C 
BRANCH   5   6
ATOM      6  C   UNL A   1      32.692  24.798  23.686  1.00  0.00     0.156 A 
ATOM      7  C   UNL A   1      32.328  22.610  23.765  1.00  0.00     0.122 A 
ATOM      8  N   UNL A   1      31.179  23.175  23.360  1.00  0.00    -0.079 NA
ATOM      9  C   UNL A   1      33.311  23.610  24.005  1.00  0.00     0.053 A 
ATOM     10  O   UNL A   1      31.405  24.541  23.333  1.00  0.00    -0.359 OA
BRANCH   7  11
ATOM     11  C   UNL A   1      32.480  21.166  23.903  1.00  0.00     0.005 A 
ATOM     12  C   UNL A   1      32.548  18.370  24.230  1.00  0.00     0.118 A 
ATOM     13  C   UNL A   1      32.904  19.219  25.282  1.00  0.00     0.047 A 
ATOM     14  C   UNL A   1      32.185  18.922  23.003  1.00  0.00     0.047 A 
ATOM     15  C   UNL A   1      32.880  20.608  25.121  1.00  0.00     0.014 A 
ATOM     16  C   UNL A   1      32.152  20.312  22.841  1.00  0.00     0.014 A 
BRANCH  12  17
ATOM     17  O   UNL A   1      32.581  17.037  24.531  1.00  0.00    -0.497 OA
ATOM     18  C   UNL A   1      33.750  16.321  24.154  1.00  0.00     0.278 C 
ENDBRANCH  12  17
ENDBRANCH   7  11
BRANCH   9  19
ATOM     19  C   UNL A   1      34.693  23.525  24.415  1.00  0.00    -0.012 A 
ATOM     20  C   UNL A   1      35.062  23.876  25.714  1.00  0.00     0.013 A 
ATOM     21  C   UNL A   1      35.659  23.047  23.524  1.00  0.00     0.013 A 
ATOM     22  C   UNL A   1      36.385  23.712  26.126  1.00  0.00     0.047 A 
ATOM     23  C   UNL A   1      36.981  22.881  23.941  1.00  0.00     0.047 A 
ATOM     24  C   UNL A   1      37.345  23.196  25.251  1.00  0.00     0.118 A 
BRANCH  24  25
ATOM     25  O   UNL A   1      38.593  23.052  25.789  1.00  0.00    -0.497 OA
ATOM     26  C   UNL A   1      38.990  21.727  26.121  1.00  0.00     0.278 C 
ENDBRANCH  24  25
ENDBRANCH   9  19
ENDBRANCH   5   6
ENDBRANCH   3   5
ENDBRANCH   2   3
ENDBRANCH   1   2
BRANCH   1  27
ATOM     27  C   UNL A   1      32.072  30.377  25.791  1.00  0.00     0.275 C 
BRANCH  27  28
ATOM     28  O   UNL A   1      32.507  30.564  27.150  1.00  0.00    -0.458 OA
BRANCH  28  29
ATOM     29  C   UNL A   1      33.297  31.637  27.372  1.00  0.00     0.338 C 
ATOM     30  O   UNL A   1      33.028  32.813  27.213  1.00  0.00    -0.246 OA
BRANCH  29  31
ATOM     31  C   UNL A   1      34.592  31.179  27.892  1.00  0.00     0.060 A 
ATOM     32  C   UNL A   1      34.740  29.843  28.267  1.00  0.00     0.016 A 
ATOM     33  C   UNL A   1      35.619  32.097  28.111  1.00  0.00     0.016 A 
ATOM     34  C   UNL A   1      35.922  29.416  28.872  1.00  0.00     0.010 A 
ATOM     35  C   UNL A   1      36.808  31.668  28.709  1.00  0.00     0.010 A 
ATOM     36  C   UNL A   1      36.959  30.329  29.109  1.00  0.00    -0.014 A 
BRANCH  36  37
ATOM     37  C   UNL A   1      38.171  29.891  29.844  1.00  0.00     0.031 A 
ATOM     38  C   UNL A   1      38.423  30.392  31.237  1.00  0.00     0.074 A 
ATOM     39  C   UNL A   1      39.030  29.027  29.273  1.00  0.00     0.049 A 
ATOM     40  N   UNL A   1      39.444  30.170  32.027  1.00  0.00    -0.248 NA
ATOM     41  C   UNL A   1      37.390  31.261  31.819  1.00  0.00     0.031 C 
ATOM     42  C   UNL A   1      38.881  28.448  27.939  1.00  0.00     0.029 A 
ATOM     43  N   UNL A   1      40.199  28.486  29.747  1.00  0.00    -0.354 N 
ATOM     44  C   UNL A   1      39.186  30.887  33.187  1.00  0.00     0.074 A 
ATOM     45  C   UNL A   1      37.920  31.562  32.996  1.00  0.00     0.031 C 
ATOM     46  C   UNL A   1      39.916  27.625  27.702  1.00  0.00     0.029 A 
ATOM     47  C   UNL A   1      40.817  27.650  28.852  1.00  0.00     0.049 A 
ATOM     48  H   UNL A   1      40.560  28.681  30.642  1.00  0.00     0.167 HD
ATOM     49  C   UNL A   1      39.936  30.970  34.312  1.00  0.00     0.037 A 
ATOM     50  C   UNL A   1      41.989  26.991  28.944  1.00  0.00     0.037 A 
ATOM     51  C   UNL A   1      41.185  30.282  34.512  1.00  0.00     0.049 A 
ATOM     52  C   UNL A   1      42.813  27.118  30.196  1.00  0.00     0.074 A 
ATOM     53  C   UNL A   1      42.010  30.292  35.625  1.00  0.00     0.029 A 
ATOM     54  N   UNL A   1      41.789  29.456  33.576  1.00  0.00    -0.354 N 
ATOM     55  N   UNL A   1      42.563  27.800  31.286  1.00  0.00    -0.248 NA
ATOM     56  C   UNL A   1      44.087  26.384  30.225  1.00  0.00     0.031 C 
ATOM     57  C   UNL A   1      43.128  29.497  35.350  1.00  0.00     0.029 A 
ATOM     58  C   UNL A   1      42.982  28.963  34.081  1.00  0.00     0.049 A 
ATOM     59  H   UNL A   1      41.424  29.251  32.685  1.00  0.00     0.167 HD
ATOM     60  C   UNL A   1      43.637  27.571  32.135  1.00  0.00     0.074 A 
ATOM     61  C   UNL A   1      44.532  26.668  31.442  1.00  0.00     0.031 C 
ATOM     62  C   UNL A   1      43.863  28.068  33.376  1.00  0.00     0.037 A 
BRANCH  49  63
ATOM     63  C   UNL A   1      39.435  31.859  35.411  1.00  0.00     0.064 A 
ATOM     64  C   UNL A   1      39.810  33.207  35.495  1.00  0.00     0.173 A 
ATOM     65  C   UNL A   1      38.542  31.361  36.371  1.00  0.00     0.173 A 
ATOM     66  F   UNL A   1      40.670  33.725  34.607  1.00  0.00    -0.203 F 
ATOM     67  C   UNL A   1      39.323  34.021  36.516  1.00  0.00     0.198 A 
ATOM     68  C   UNL A   1      38.040  32.183  37.377  1.00  0.00     0.198 A 
ATOM     69  F   UNL A   1      38.150  30.078  36.331  1.00  0.00    -0.203 F 
ATOM     70  F   UNL A   1      39.722  35.298  36.600  1.00  0.00    -0.200 F 
ATOM     71  C   UNL A   1      38.436  33.511  37.452  1.00  0.00     0.200 A 
ATOM     72  F   UNL A   1      37.175  31.691  38.274  1.00  0.00    -0.200 F 
ATOM     73  F   UNL A   1      37.965  34.296  38.429  1.00  0.00    -0.200 F 
ENDBRANCH  49  63
BRANCH  50  74
ATOM     74  C   UNL A   1      42.454  26.153  27.810  1.00  0.00     0.064 A 
ATOM     75  C   UNL A   1      43.319  26.670  26.838  1.00  0.00     0.173 A 
ATOM     76  C   UNL A   1      42.040  24.819  27.677  1.00  0.00     0.173 A 
ATOM     77  F   UNL A   1      43.720  27.948  26.911  1.00  0.00    -0.203 F 
ATOM     78  C   UNL A   1      43.746  25.888  25.767  1.00  0.00     0.198 A 
ATOM     79  C   UNL A   1      42.486  24.031  26.620  1.00  0.00     0.198 A 
ATOM     80  F   UNL A   1      41.208  24.280  28.580  1.00  0.00    -0.203 F 
ATOM     81  F   UNL A   1      44.544  26.417  24.830  1.00  0.00    -0.200 F 
ATOM     82  C   UNL A   1      43.335  24.567  25.662  1.00  0.00     0.200 A 
ATOM     83  F   UNL A   1      42.094  22.753  26.526  1.00  0.00    -0.200 F 
ATOM     84  F   UNL A   1      43.750  23.814  24.635  1.00  0.00    -0.200 F 
ENDBRANCH  50  74
BRANCH  62  85
ATOM     85  C   UNL A   1      45.122  27.632  34.064  1.00  0.00     0.064 A 
ATOM     86  C   UNL A   1      46.313  28.363  33.943  1.00  0.00     0.173 A 
ATOM     87  C   UNL A   1      45.132  26.482  34.868  1.00  0.00     0.173 A 
ATOM     88  F   UNL A   1      46.355  29.459  33.172  1.00  0.00    -0.203 F 
ATOM     89  C   UNL A   1      47.476  27.943  34.582  1.00  0.00     0.198 A 
ATOM     90  C   UNL A   1      46.293  26.080  35.524  1.00  0.00     0.198 A 
ATOM     91  F   UNL A   1      44.018  25.751  35.018  1.00  0.00    -0.203 F 
ATOM     92  F   UNL A   1      48.615  28.631  34.415  1.00  0.00    -0.200 F 
ATOM     93  C   UNL A   1      47.465  26.806  35.375  1.00  0.00     0.200 A 
ATOM     94  F   UNL A   1      46.278  24.984  36.297  1.00  0.00    -0.200 F 
ATOM     95  F   UNL A   1      48.586  26.403  35.988  1.00  0.00    -0.200 F 
ENDBRANCH  62  85
ENDBRANCH  36  37
ENDBRANCH  29  31
ENDBRANCH  28  29
ENDBRANCH  27  28
ENDBRANCH   1  27
TORSDOF 16
ENDMDL
