MODEL 1
REMARK VINA RESULT:     -11.7      0.000      0.000
REMARK SMILES Cc1cc2[nH]c(C(=O)OCCOC(=O)c3ccc(-c4c5nc(c(-c6c(F)c(F)c(F)c(F)c6F)c6ccc([nH]6)c(-c6c(F)c(F)c(F)c(F)c6F)c6nc(c(-c7c(F)c(F)c(F)c(F)c7F)c7ccc4[nH]7)C=C6)C=C5)cc3)c(C=O)c2s1
REMARK SMILES IDX 11 1 10 2 9 3 7 4 8 5 6 6 1 7 2 8 3 9 82 10 4 11 81 12 5 13
REMARK SMILES IDX 78 14 79 16 80 17 12 18 13 19 14 20 15 21 16 22 77 23 17 24
REMARK SMILES IDX 76 25 18 26 19 27 20 28 70 29 21 30 75 31 69 32 71 33 22 34
REMARK SMILES IDX 74 35 68 36 67 37 23 39 55 40 35 41 54 42 36 43 39 44 53 45
REMARK SMILES IDX 72 46 37 47 38 48 52 50 73 51 40 52 24 53 25 54 33 55 26 56
REMARK SMILES IDX 27 57 31 58 34 59 28 60 29 61 32 62 30 63 56 64 57 65 65 66
REMARK SMILES IDX 58 67 59 68 63 69 66 70 60 71 61 72 64 73 62 74 41 75 42 76
REMARK SMILES IDX 50 77 43 78 44 79 48 80 51 81 45 82 46 83 49 84 47 85
REMARK H PARENT 5 15 71 38 39 49
REMARK Flexibility Score: inf
ROOT
ATOM      1  C   UNL A   1      33.802  33.716  27.830  1.00  0.00     0.275 C 
ENDROOT
BRANCH   1   2
ATOM      2  C   UNL A   1      33.567  35.034  28.542  1.00  0.00     0.275 C 
BRANCH   2   3
ATOM      3  O   UNL A   1      32.685  34.836  29.651  1.00  0.00    -0.457 OA
BRANCH   3   4
ATOM      4  C   UNL A   1      32.828  35.613  30.751  1.00  0.00     0.355 C 
ATOM      5  O   UNL A   1      32.184  36.613  31.000  1.00  0.00    -0.244 OA
BRANCH   4   6
ATOM      6  C   UNL A   1      33.803  35.018  31.649  1.00  0.00     0.137 A 
ATOM      7  C   UNL A   1      37.594  31.626  34.627  1.00  0.00     0.056 C 
ATOM      8  C   UNL A   1      36.703  32.554  33.870  1.00  0.00     0.004 A 
ATOM      9  C   UNL A   1      36.168  32.389  32.606  1.00  0.00     0.041 A 
ATOM     10  S   UNL A   1      36.256  34.034  34.621  1.00  0.00    -0.138 S 
ATOM     11  C   UNL A   1      35.292  33.468  32.305  1.00  0.00     0.058 A 
ATOM     12  C   UNL A   1      35.234  34.415  33.278  1.00  0.00     0.064 A 
ATOM     13  N   UNL A   1      34.452  33.847  31.290  1.00  0.00    -0.348 N 
ATOM     14  C   UNL A   1      34.324  35.433  32.871  1.00  0.00     0.065 A 
ATOM     15  H   UNL A   1      34.330  33.366  30.440  1.00  0.00     0.167 HD
BRANCH  14  16
ATOM     16  C   UNL A   1      34.088  36.598  33.698  1.00  0.00     0.264 C 
ATOM     17  O   UNL A   1      34.095  37.770  33.334  1.00  0.00    -0.298 OA
ENDBRANCH  14  16
ENDBRANCH   4   6
ENDBRANCH   3   4
ENDBRANCH   2   3
ENDBRANCH   1   2
BRANCH   1  18
ATOM     18  O   UNL A   1      34.922  33.057  28.414  1.00  0.00    -0.458 OA
BRANCH  18  19
ATOM     19  C   UNL A   1      35.009  31.728  28.205  1.00  0.00     0.338 C 
ATOM     20  O   UNL A   1      34.187  30.985  27.696  1.00  0.00    -0.246 OA
BRANCH  19  21
ATOM     21  C   UNL A   1      36.179  31.243  28.936  1.00  0.00     0.060 A 
ATOM     22  C   UNL A   1      37.248  32.125  29.120  1.00  0.00     0.016 A 
ATOM     23  C   UNL A   1      36.310  29.859  29.112  1.00  0.00     0.016 A 
ATOM     24  C   UNL A   1      38.506  31.590  29.294  1.00  0.00     0.010 A 
ATOM     25  C   UNL A   1      37.560  29.329  29.252  1.00  0.00     0.010 A 
ATOM     26  C   UNL A   1      38.645  30.198  29.258  1.00  0.00    -0.014 A 
BRANCH  26  27
ATOM     27  C   UNL A   1      39.957  29.612  29.374  1.00  0.00     0.031 A 
ATOM     28  C   UNL A   1      40.383  29.498  30.786  1.00  0.00     0.074 A 
ATOM     29  C   UNL A   1      40.585  29.072  28.313  1.00  0.00     0.049 A 
ATOM     30  N   UNL A   1      41.345  30.134  31.365  1.00  0.00    -0.248 NA
ATOM     31  C   UNL A   1      39.508  28.758  31.716  1.00  0.00     0.031 C 
ATOM     32  C   UNL A   1      40.094  28.902  26.943  1.00  0.00     0.029 A 
ATOM     33  N   UNL A   1      41.793  28.452  28.280  1.00  0.00    -0.354 N 
ATOM     34  C   UNL A   1      41.328  29.700  32.685  1.00  0.00     0.074 A 
ATOM     35  C   UNL A   1      40.062  29.056  32.891  1.00  0.00     0.031 C 
ATOM     36  C   UNL A   1      40.894  28.031  26.284  1.00  0.00     0.029 A 
ATOM     37  C   UNL A   1      42.014  27.682  27.139  1.00  0.00     0.049 A 
ATOM     38  H   UNL A   1      42.458  28.539  29.001  1.00  0.00     0.167 HD
ATOM     39  C   UNL A   1      42.480  29.639  33.405  1.00  0.00     0.037 A 
ATOM     40  C   UNL A   1      43.013  26.770  27.004  1.00  0.00     0.037 A 
ATOM     41  C   UNL A   1      43.504  30.461  32.808  1.00  0.00     0.049 A 
ATOM     42  C   UNL A   1      44.035  27.097  28.040  1.00  0.00     0.074 A 
ATOM     43  C   UNL A   1      43.598  31.807  32.507  1.00  0.00     0.029 A 
ATOM     44  N   UNL A   1      44.461  29.840  32.041  1.00  0.00    -0.354 N 
ATOM     45  N   UNL A   1      44.766  28.179  28.008  1.00  0.00    -0.248 NA
ATOM     46  C   UNL A   1      43.869  26.492  29.356  1.00  0.00     0.031 C 
ATOM     47  C   UNL A   1      44.238  31.857  31.234  1.00  0.00     0.029 A 
ATOM     48  C   UNL A   1      44.579  30.554  30.874  1.00  0.00     0.049 A 
ATOM     49  H   UNL A   1      44.968  29.033  32.285  1.00  0.00     0.167 HD
ATOM     50  C   UNL A   1      44.789  28.626  29.320  1.00  0.00     0.074 A 
ATOM     51  C   UNL A   1      44.260  27.520  30.116  1.00  0.00     0.031 C 
ATOM     52  C   UNL A   1      44.936  29.952  29.612  1.00  0.00     0.037 A 
BRANCH  39  53
ATOM     53  C   UNL A   1      42.785  28.537  34.386  1.00  0.00     0.064 A 
ATOM     54  C   UNL A   1      43.193  28.884  35.688  1.00  0.00     0.173 A 
ATOM     55  C   UNL A   1      42.980  27.183  34.029  1.00  0.00     0.173 A 
ATOM     56  F   UNL A   1      43.076  30.147  36.125  1.00  0.00    -0.203 F 
ATOM     57  C   UNL A   1      43.815  27.963  36.533  1.00  0.00     0.198 A 
ATOM     58  C   UNL A   1      43.547  26.255  34.896  1.00  0.00     0.198 A 
ATOM     59  F   UNL A   1      42.742  26.722  32.796  1.00  0.00    -0.203 F 
ATOM     60  F   UNL A   1      44.304  28.371  37.713  1.00  0.00    -0.200 F 
ATOM     61  C   UNL A   1      43.997  26.650  36.135  1.00  0.00     0.200 A 
ATOM     62  F   UNL A   1      43.731  24.993  34.480  1.00  0.00    -0.200 F 
ATOM     63  F   UNL A   1      44.648  25.783  36.920  1.00  0.00    -0.200 F 
ENDBRANCH  39  53
BRANCH  40  64
ATOM     64  C   UNL A   1      42.993  25.455  26.312  1.00  0.00     0.064 A 
ATOM     65  C   UNL A   1      43.964  25.138  25.345  1.00  0.00     0.173 A 
ATOM     66  C   UNL A   1      42.218  24.381  26.789  1.00  0.00     0.173 A 
ATOM     67  F   UNL A   1      44.773  26.093  24.863  1.00  0.00    -0.203 F 
ATOM     68  C   UNL A   1      44.173  23.822  24.915  1.00  0.00     0.198 A 
ATOM     69  C   UNL A   1      42.424  23.070  26.354  1.00  0.00     0.198 A 
ATOM     70  F   UNL A   1      41.310  24.563  27.758  1.00  0.00    -0.203 F 
ATOM     71  F   UNL A   1      45.157  23.551  24.045  1.00  0.00    -0.200 F 
ATOM     72  C   UNL A   1      43.412  22.787  25.431  1.00  0.00     0.200 A 
ATOM     73  F   UNL A   1      41.704  22.073  26.889  1.00  0.00    -0.200 F 
ATOM     74  F   UNL A   1      43.659  21.520  25.075  1.00  0.00    -0.200 F 
ENDBRANCH  40  64
BRANCH  52  75
ATOM     75  C   UNL A   1      45.285  30.887  28.487  1.00  0.00     0.064 A 
ATOM     76  C   UNL A   1      44.342  31.466  27.618  1.00  0.00     0.173 A 
ATOM     77  C   UNL A   1      46.610  31.332  28.384  1.00  0.00     0.173 A 
ATOM     78  F   UNL A   1      43.040  31.175  27.721  1.00  0.00    -0.203 F 
ATOM     79  C   UNL A   1      44.720  32.410  26.663  1.00  0.00     0.198 A 
ATOM     80  C   UNL A   1      46.977  32.302  27.455  1.00  0.00     0.198 A 
ATOM     81  F   UNL A   1      47.542  30.860  29.224  1.00  0.00    -0.203 F 
ATOM     82  F   UNL A   1      43.801  32.938  25.839  1.00  0.00    -0.200 F 
ATOM     83  C   UNL A   1      46.035  32.832  26.587  1.00  0.00     0.200 A 
ATOM     84  F   UNL A   1      48.241  32.746  27.424  1.00  0.00    -0.200 F 
ATOM     85  F   UNL A   1      46.393  33.769  25.699  1.00  0.00    -0.200 F 
ENDBRANCH  52  75
ENDBRANCH  26  27
ENDBRANCH  19  21
ENDBRANCH  18  19
ENDBRANCH   1  18
TORSDOF 12
ENDMDL
MODEL 2
REMARK VINA RESULT:     -11.4      4.758     11.343
REMARK SMILES Cc1cc2[nH]c(C(=O)OCCOC(=O)c3ccc(-c4c5nc(c(-c6c(F)c(F)c(F)c(F)c6F)c6ccc([nH]6)c(-c6c(F)c(F)c(F)c(F)c6F)c6nc(c(-c7c(F)c(F)c(F)c(F)c7F)c7ccc4[nH]7)C=C6)C=C5)cc3)c(C=O)c2s1
REMARK SMILES IDX 11 1 10 2 9 3 7 4 8 5 6 6 1 7 2 8 3 9 82 10 4 11 81 12 5 13
REMARK SMILES IDX 78 14 79 16 80 17 12 18 13 19 14 20 15 21 16 22 77 23 17 24
REMARK SMILES IDX 76 25 18 26 19 27 20 28 70 29 21 30 75 31 69 32 71 33 22 34
REMARK SMILES IDX 74 35 68 36 67 37 23 39 55 40 35 41 54 42 36 43 39 44 53 45
REMARK SMILES IDX 72 46 37 47 38 48 52 50 73 51 40 52 24 53 25 54 33 55 26 56
REMARK SMILES IDX 27 57 31 58 34 59 28 60 29 61 32 62 30 63 56 64 57 65 65 66
REMARK SMILES IDX 58 67 59 68 63 69 66 70 60 71 61 72 64 73 62 74 41 75 42 76
REMARK SMILES IDX 50 77 43 78 44 79 48 80 51 81 45 82 46 83 49 84 47 85
REMARK H PARENT 5 15 71 38 39 49
REMARK Flexibility Score: inf
ROOT
ATOM      1  C   UNL A   1      40.297  20.439  26.020  1.00  0.00     0.275 C 
ENDROOT
BRANCH   1   2
ATOM      2  C   UNL A   1      41.180  19.299  26.490  1.00  0.00     0.275 C 
BRANCH   2   3
ATOM      3  O   UNL A   1      42.533  19.749  26.604  1.00  0.00    -0.457 OA
BRANCH   3   4
ATOM      4  C   UNL A   1      43.320  19.750  25.502  1.00  0.00     0.355 C 
ATOM      5  O   UNL A   1      43.374  18.865  24.670  1.00  0.00    -0.244 OA
BRANCH   4   6
ATOM      6  C   UNL A   1      44.024  21.017  25.402  1.00  0.00     0.137 A 
ATOM      7  C   UNL A   1      45.787  26.631  25.082  1.00  0.00     0.056 C 
ATOM      8  C   UNL A   1      45.411  25.195  25.230  1.00  0.00     0.004 A 
ATOM      9  C   UNL A   1      44.217  24.663  25.683  1.00  0.00     0.041 A 
ATOM     10  S   UNL A   1      46.576  24.007  24.798  1.00  0.00    -0.138 S 
ATOM     11  C   UNL A   1      44.242  23.246  25.570  1.00  0.00     0.058 A 
ATOM     12  C   UNL A   1      45.424  22.754  25.114  1.00  0.00     0.064 A 
ATOM     13  N   UNL A   1      43.395  22.191  25.786  1.00  0.00    -0.348 N 
ATOM     14  C   UNL A   1      45.328  21.335  25.034  1.00  0.00     0.065 A 
ATOM     15  H   UNL A   1      42.485  22.255  26.156  1.00  0.00     0.167 HD
BRANCH  14  16
ATOM     16  C   UNL A   1      46.457  20.532  24.612  1.00  0.00     0.264 C 
ATOM     17  O   UNL A   1      46.868  19.506  25.146  1.00  0.00    -0.298 OA
ENDBRANCH  14  16
ENDBRANCH   4   6
ENDBRANCH   3   4
ENDBRANCH   2   3
ENDBRANCH   1   2
BRANCH   1  18
ATOM     18  O   UNL A   1      40.482  21.564  26.875  1.00  0.00    -0.458 OA
BRANCH  18  19
ATOM     19  C   UNL A   1      39.581  22.560  26.756  1.00  0.00     0.338 C 
ATOM     20  O   UNL A   1      38.441  22.503  26.327  1.00  0.00    -0.246 OA
BRANCH  19  21
ATOM     21  C   UNL A   1      40.284  23.820  26.991  1.00  0.00     0.060 A 
ATOM     22  C   UNL A   1      41.309  23.830  27.941  1.00  0.00     0.016 A 
ATOM     23  C   UNL A   1      39.688  24.997  26.517  1.00  0.00     0.016 A 
ATOM     24  C   UNL A   1      41.603  25.025  28.563  1.00  0.00     0.010 A 
ATOM     25  C   UNL A   1      39.957  26.173  27.156  1.00  0.00     0.010 A 
ATOM     26  C   UNL A   1      40.849  26.153  28.222  1.00  0.00    -0.014 A 
BRANCH  26  27
ATOM     27  C   UNL A   1      41.091  27.401  28.901  1.00  0.00     0.031 A 
ATOM     28  C   UNL A   1      42.264  28.109  28.343  1.00  0.00     0.074 A 
ATOM     29  C   UNL A   1      40.213  27.905  29.787  1.00  0.00     0.049 A 
ATOM     30  N   UNL A   1      43.391  28.337  28.931  1.00  0.00    -0.248 NA
ATOM     31  C   UNL A   1      42.270  28.407  26.898  1.00  0.00     0.031 C 
ATOM     32  C   UNL A   1      38.897  27.388  30.172  1.00  0.00     0.029 A 
ATOM     33  N   UNL A   1      40.285  29.080  30.466  1.00  0.00    -0.354 N 
ATOM     34  C   UNL A   1      44.164  29.006  27.990  1.00  0.00     0.074 A 
ATOM     35  C   UNL A   1      43.527  28.812  26.718  1.00  0.00     0.031 C 
ATOM     36  C   UNL A   1      38.211  28.351  30.831  1.00  0.00     0.029 A 
ATOM     37  C   UNL A   1      39.078  29.500  31.021  1.00  0.00     0.049 A 
ATOM     38  H   UNL A   1      41.122  29.591  30.558  1.00  0.00     0.167 HD
ATOM     39  C   UNL A   1      45.093  29.917  28.385  1.00  0.00     0.037 A 
ATOM     40  C   UNL A   1      38.843  30.748  31.503  1.00  0.00     0.037 A 
ATOM     41  C   UNL A   1      45.440  29.730  29.772  1.00  0.00     0.049 A 
ATOM     42  C   UNL A   1      40.176  31.369  31.757  1.00  0.00     0.074 A 
ATOM     43  C   UNL A   1      45.962  28.674  30.496  1.00  0.00     0.029 A 
ATOM     44  N   UNL A   1      44.861  30.566  30.698  1.00  0.00    -0.354 N 
ATOM     45  N   UNL A   1      40.990  30.959  32.692  1.00  0.00    -0.248 NA
ATOM     46  C   UNL A   1      40.802  32.081  30.649  1.00  0.00     0.031 C 
ATOM     47  C   UNL A   1      45.240  28.677  31.726  1.00  0.00     0.029 A 
ATOM     48  C   UNL A   1      44.389  29.782  31.722  1.00  0.00     0.049 A 
ATOM     49  H   UNL A   1      44.796  31.546  30.637  1.00  0.00     0.167 HD
ATOM     50  C   UNL A   1      42.243  30.974  32.099  1.00  0.00     0.074 A 
ATOM     51  C   UNL A   1      42.073  31.721  30.854  1.00  0.00     0.031 C 
ATOM     52  C   UNL A   1      43.227  30.120  32.507  1.00  0.00     0.037 A 
BRANCH  39  53
ATOM     53  C   UNL A   1      45.366  31.198  27.640  1.00  0.00     0.064 A 
ATOM     54  C   UNL A   1      46.657  31.421  27.127  1.00  0.00     0.173 A 
ATOM     55  C   UNL A   1      44.517  32.328  27.663  1.00  0.00     0.173 A 
ATOM     56  F   UNL A   1      47.554  30.425  27.080  1.00  0.00    -0.203 F 
ATOM     57  C   UNL A   1      47.084  32.693  26.740  1.00  0.00     0.198 A 
ATOM     58  C   UNL A   1      44.928  33.582  27.221  1.00  0.00     0.198 A 
ATOM     59  F   UNL A   1      43.299  32.305  28.216  1.00  0.00    -0.203 F 
ATOM     60  F   UNL A   1      48.362  32.883  26.381  1.00  0.00    -0.200 F 
ATOM     61  C   UNL A   1      46.222  33.774  26.791  1.00  0.00     0.200 A 
ATOM     62  F   UNL A   1      44.080  34.618  27.299  1.00  0.00    -0.200 F 
ATOM     63  F   UNL A   1      46.648  35.003  26.478  1.00  0.00    -0.200 F 
ENDBRANCH  39  53
BRANCH  40  64
ATOM     64  C   UNL A   1      37.603  31.563  31.426  1.00  0.00     0.064 A 
ATOM     65  C   UNL A   1      36.852  31.839  32.584  1.00  0.00     0.173 A 
ATOM     66  C   UNL A   1      37.292  32.330  30.288  1.00  0.00     0.173 A 
ATOM     67  F   UNL A   1      37.106  31.182  33.725  1.00  0.00    -0.203 F 
ATOM     68  C   UNL A   1      35.881  32.848  32.609  1.00  0.00     0.198 A 
ATOM     69  C   UNL A   1      36.320  33.332  30.314  1.00  0.00     0.198 A 
ATOM     70  F   UNL A   1      37.991  32.193  29.152  1.00  0.00    -0.203 F 
ATOM     71  F   UNL A   1      35.237  33.128  33.751  1.00  0.00    -0.200 F 
ATOM     72  C   UNL A   1      35.627  33.603  31.478  1.00  0.00     0.200 A 
ATOM     73  F   UNL A   1      36.108  34.080  29.221  1.00  0.00    -0.200 F 
ATOM     74  F   UNL A   1      34.750  34.616  31.520  1.00  0.00    -0.200 F 
ENDBRANCH  40  64
BRANCH  52  75
ATOM     75  C   UNL A   1      42.989  29.313  33.753  1.00  0.00     0.064 A 
ATOM     76  C   UNL A   1      42.325  28.073  33.777  1.00  0.00     0.173 A 
ATOM     77  C   UNL A   1      43.592  29.740  34.944  1.00  0.00     0.173 A 
ATOM     78  F   UNL A   1      41.813  27.543  32.659  1.00  0.00    -0.203 F 
ATOM     79  C   UNL A   1      42.231  27.322  34.950  1.00  0.00     0.198 A 
ATOM     80  C   UNL A   1      43.529  28.972  36.103  1.00  0.00     0.198 A 
ATOM     81  F   UNL A   1      44.289  30.886  34.968  1.00  0.00    -0.203 F 
ATOM     82  F   UNL A   1      41.582  26.148  34.947  1.00  0.00    -0.200 F 
ATOM     83  C   UNL A   1      42.840  27.770  36.109  1.00  0.00     0.200 A 
ATOM     84  F   UNL A   1      44.167  29.384  37.207  1.00  0.00    -0.200 F 
ATOM     85  F   UNL A   1      42.787  27.031  37.226  1.00  0.00    -0.200 F 
ENDBRANCH  52  75
ENDBRANCH  26  27
ENDBRANCH  19  21
ENDBRANCH  18  19
ENDBRANCH   1  18
TORSDOF 12
ENDMDL
MODEL 3
REMARK VINA RESULT:     -11.4      5.540     10.820
REMARK SMILES Cc1cc2[nH]c(C(=O)OCCOC(=O)c3ccc(-c4c5nc(c(-c6c(F)c(F)c(F)c(F)c6F)c6ccc([nH]6)c(-c6c(F)c(F)c(F)c(F)c6F)c6nc(c(-c7c(F)c(F)c(F)c(F)c7F)c7ccc4[nH]7)C=C6)C=C5)cc3)c(C=O)c2s1
REMARK SMILES IDX 11 1 10 2 9 3 7 4 8 5 6 6 1 7 2 8 3 9 82 10 4 11 81 12 5 13
REMARK SMILES IDX 78 14 79 16 80 17 12 18 13 19 14 20 15 21 16 22 77 23 17 24
REMARK SMILES IDX 76 25 18 26 19 27 20 28 70 29 21 30 75 31 69 32 71 33 22 34
REMARK SMILES IDX 74 35 68 36 67 37 23 39 55 40 35 41 54 42 36 43 39 44 53 45
REMARK SMILES IDX 72 46 37 47 38 48 52 50 73 51 40 52 24 53 25 54 33 55 26 56
REMARK SMILES IDX 27 57 31 58 34 59 28 60 29 61 32 62 30 63 56 64 57 65 65 66
REMARK SMILES IDX 58 67 59 68 63 69 66 70 60 71 61 72 64 73 62 74 41 75 42 76
REMARK SMILES IDX 50 77 43 78 44 79 48 80 51 81 45 82 46 83 49 84 47 85
REMARK H PARENT 5 15 71 38 39 49
REMARK Flexibility Score: inf
ROOT
ATOM      1  C   UNL A   1      43.253  19.014  25.688  1.00  0.00     0.275 C 
ENDROOT
BRANCH   1   2
ATOM      2  C   UNL A   1      41.843  19.100  26.238  1.00  0.00     0.275 C 
BRANCH   2   3
ATOM      3  O   UNL A   1      41.315  20.411  26.016  1.00  0.00    -0.457 OA
BRANCH   3   4
ATOM      4  C   UNL A   1      40.550  20.982  26.976  1.00  0.00     0.355 C 
ATOM      5  O   UNL A   1      40.851  21.091  28.149  1.00  0.00    -0.244 OA
BRANCH   4   6
ATOM      6  C   UNL A   1      39.350  21.543  26.380  1.00  0.00     0.137 A 
ATOM      7  C   UNL A   1      34.627  24.683  24.776  1.00  0.00     0.056 C 
ATOM      8  C   UNL A   1      35.847  23.883  25.088  1.00  0.00     0.004 A 
ATOM      9  C   UNL A   1      36.949  24.255  25.836  1.00  0.00     0.041 A 
ATOM     10  S   UNL A   1      35.949  22.287  24.457  1.00  0.00    -0.138 S 
ATOM     11  C   UNL A   1      37.841  23.156  25.968  1.00  0.00     0.058 A 
ATOM     12  C   UNL A   1      37.444  22.045  25.294  1.00  0.00     0.064 A 
ATOM     13  N   UNL A   1      39.023  22.872  26.601  1.00  0.00    -0.348 N 
ATOM     14  C   UNL A   1      38.405  21.014  25.507  1.00  0.00     0.065 A 
ATOM     15  H   UNL A   1      39.556  23.510  27.128  1.00  0.00     0.167 HD
BRANCH  14  16
ATOM     16  C   UNL A   1      38.262  19.718  24.876  1.00  0.00     0.264 C 
ATOM     17  O   UNL A   1      37.333  18.930  25.020  1.00  0.00    -0.298 OA
ENDBRANCH  14  16
ENDBRANCH   4   6
ENDBRANCH   3   4
ENDBRANCH   2   3
ENDBRANCH   1   2
BRANCH   1  18
ATOM     18  O   UNL A   1      43.428  20.005  24.679  1.00  0.00    -0.458 OA
BRANCH  18  19
ATOM     19  C   UNL A   1      44.701  20.337  24.382  1.00  0.00     0.338 C 
ATOM     20  O   UNL A   1      45.619  19.604  24.057  1.00  0.00    -0.246 OA
BRANCH  19  21
ATOM     21  C   UNL A   1      44.892  21.734  24.767  1.00  0.00     0.060 A 
ATOM     22  C   UNL A   1      45.897  22.027  25.693  1.00  0.00     0.016 A 
ATOM     23  C   UNL A   1      43.867  22.641  24.460  1.00  0.00     0.016 A 
ATOM     24  C   UNL A   1      45.760  23.165  26.459  1.00  0.00     0.010 A 
ATOM     25  C   UNL A   1      43.715  23.749  25.241  1.00  0.00     0.010 A 
ATOM     26  C   UNL A   1      44.616  23.951  26.280  1.00  0.00    -0.014 A 
BRANCH  26  27
ATOM     27  C   UNL A   1      44.413  25.111  27.111  1.00  0.00     0.031 A 
ATOM     28  C   UNL A   1      45.457  26.135  26.885  1.00  0.00     0.074 A 
ATOM     29  C   UNL A   1      43.292  25.273  27.837  1.00  0.00     0.049 A 
ATOM     30  N   UNL A   1      46.365  26.522  27.715  1.00  0.00    -0.248 NA
ATOM     31  C   UNL A   1      45.652  26.631  25.508  1.00  0.00     0.031 C 
ATOM     32  C   UNL A   1      42.097  24.426  27.884  1.00  0.00     0.029 A 
ATOM     33  N   UNL A   1      42.946  26.325  28.625  1.00  0.00    -0.354 N 
ATOM     34  C   UNL A   1      47.107  27.475  27.028  1.00  0.00     0.074 A 
ATOM     35  C   UNL A   1      46.780  27.328  25.638  1.00  0.00     0.031 C 
ATOM     36  C   UNL A   1      41.086  25.107  28.472  1.00  0.00     0.029 A 
ATOM     37  C   UNL A   1      41.592  26.381  28.950  1.00  0.00     0.049 A 
ATOM     38  H   UNL A   1      43.599  26.991  28.940  1.00  0.00     0.167 HD
ATOM     39  C   UNL A   1      47.694  28.504  27.696  1.00  0.00     0.037 A 
ATOM     40  C   UNL A   1      40.972  27.463  29.488  1.00  0.00     0.037 A 
ATOM     41  C   UNL A   1      47.817  28.202  29.100  1.00  0.00     0.049 A 
ATOM     42  C   UNL A   1      42.041  28.322  30.076  1.00  0.00     0.074 A 
ATOM     43  C   UNL A   1      48.443  27.197  29.813  1.00  0.00     0.029 A 
ATOM     44  N   UNL A   1      46.890  28.746  29.959  1.00  0.00    -0.354 N 
ATOM     45  N   UNL A   1      42.746  27.975  31.119  1.00  0.00    -0.248 NA
ATOM     46  C   UNL A   1      42.662  29.308  29.199  1.00  0.00     0.031 C 
ATOM     47  C   UNL A   1      47.532  26.862  30.857  1.00  0.00     0.029 A 
ATOM     48  C   UNL A   1      46.449  27.738  30.780  1.00  0.00     0.049 A 
ATOM     49  H   UNL A   1      46.598  29.685  29.980  1.00  0.00     0.167 HD
ATOM     50  C   UNL A   1      44.043  28.354  30.808  1.00  0.00     0.074 A 
ATOM     51  C   UNL A   1      43.923  29.215  29.632  1.00  0.00     0.031 C 
ATOM     52  C   UNL A   1      45.116  27.692  31.331  1.00  0.00     0.037 A 
BRANCH  39  53
ATOM     53  C   UNL A   1      47.772  29.907  27.151  1.00  0.00     0.064 A 
ATOM     54  C   UNL A   1      48.993  30.600  27.240  1.00  0.00     0.173 A 
ATOM     55  C   UNL A   1      46.646  30.696  26.821  1.00  0.00     0.173 A 
ATOM     56  F   UNL A   1      50.122  29.955  27.570  1.00  0.00    -0.203 F 
ATOM     57  C   UNL A   1      49.064  31.987  27.085  1.00  0.00     0.198 A 
ATOM     58  C   UNL A   1      46.732  32.069  26.609  1.00  0.00     0.198 A 
ATOM     59  F   UNL A   1      45.402  30.206  26.801  1.00  0.00    -0.203 F 
ATOM     60  F   UNL A   1      50.224  32.620  27.307  1.00  0.00    -0.200 F 
ATOM     61  C   UNL A   1      47.933  32.721  26.774  1.00  0.00     0.200 A 
ATOM     62  F   UNL A   1      45.619  32.762  26.329  1.00  0.00    -0.200 F 
ATOM     63  F   UNL A   1      47.989  34.055  26.686  1.00  0.00    -0.200 F 
ENDBRANCH  39  53
BRANCH  40  64
ATOM     64  C   UNL A   1      39.604  27.983  29.230  1.00  0.00     0.064 A 
ATOM     65  C   UNL A   1      38.680  28.126  30.281  1.00  0.00     0.173 A 
ATOM     66  C   UNL A   1      39.274  28.625  28.021  1.00  0.00     0.173 A 
ATOM     67  F   UNL A   1      38.931  27.579  31.479  1.00  0.00    -0.203 F 
ATOM     68  C   UNL A   1      37.519  28.897  30.142  1.00  0.00     0.198 A 
ATOM     69  C   UNL A   1      38.113  29.389  27.883  1.00  0.00     0.198 A 
ATOM     70  F   UNL A   1      40.116  28.607  26.978  1.00  0.00    -0.203 F 
ATOM     71  F   UNL A   1      36.699  29.067  31.189  1.00  0.00    -0.200 F 
ATOM     72  C   UNL A   1      37.245  29.540  28.947  1.00  0.00     0.200 A 
ATOM     73  F   UNL A   1      37.878  30.035  26.732  1.00  0.00    -0.200 F 
ATOM     74  F   UNL A   1      36.173  30.336  28.835  1.00  0.00    -0.200 F 
ENDBRANCH  40  64
BRANCH  52  75
ATOM     75  C   UNL A   1      44.862  26.682  32.415  1.00  0.00     0.064 A 
ATOM     76  C   UNL A   1      44.692  27.006  33.774  1.00  0.00     0.173 A 
ATOM     77  C   UNL A   1      44.628  25.353  32.039  1.00  0.00     0.173 A 
ATOM     78  F   UNL A   1      44.793  28.271  34.199  1.00  0.00    -0.203 F 
ATOM     79  C   UNL A   1      44.352  26.033  34.715  1.00  0.00     0.198 A 
ATOM     80  C   UNL A   1      44.251  24.392  32.973  1.00  0.00     0.198 A 
ATOM     81  F   UNL A   1      44.717  24.997  30.749  1.00  0.00    -0.203 F 
ATOM     82  F   UNL A   1      44.208  26.367  36.006  1.00  0.00    -0.200 F 
ATOM     83  C   UNL A   1      44.125  24.729  34.311  1.00  0.00     0.200 A 
ATOM     84  F   UNL A   1      43.980  23.144  32.568  1.00  0.00    -0.200 F 
ATOM     85  F   UNL A   1      43.756  23.801  35.205  1.00  0.00    -0.200 F 
ENDBRANCH  52  75
ENDBRANCH  26  27
ENDBRANCH  19  21
ENDBRANCH  18  19
ENDBRANCH   1  18
TORSDOF 12
ENDMDL
