MODEL 1
REMARK VINA RESULT:     -11.1      0.000      0.000
REMARK SMILES O=C(OCCOC(=O)c1[nH]ncc1C[NH+]1CCC([N@H+]2CCC[C@@H](C(=O)N3CCCC3)C2)CC1)c1ccc(-c2c3nc(c(-c4c(F)c(F)c(F)c(F)c4F)c4ccc([nH]4)c(-c4c(F)c(F)c(F)c(F)c4F)c4nc(c(-c5c(F)c(F)c(F)c(F)c5F)c5ccc2[nH]5)C=C4)C=C3)cc1
REMARK SMILES IDX 5 1 4 2 3 3 2 4 1 5 34 6 35 7 96 8 36 9 95 10 37 11 38 12
REMARK SMILES IDX 39 13 89 14 40 15 94 16 88 17 90 18 41 19 93 20 87 21 86 22
REMARK SMILES IDX 42 24 74 25 54 26 73 27 55 28 58 29 72 30 91 31 56 32 57 33
REMARK SMILES IDX 71 35 92 36 59 37 43 38 44 39 52 40 45 41 46 42 50 43 53 44
REMARK SMILES IDX 47 45 48 46 51 47 49 48 75 49 76 50 84 51 77 52 78 53 82 54
REMARK SMILES IDX 85 55 79 56 80 57 83 58 81 59 60 60 61 61 69 62 62 63 63 64
REMARK SMILES IDX 67 65 70 66 64 67 65 68 68 69 66 70 6 71 7 72 8 73 9 74
REMARK SMILES IDX 10 75 13 76 11 77 12 79 14 80 15 81 16 82 33 83 17 85 32 86
REMARK SMILES IDX 18 87 19 88 20 89 31 90 21 92 23 93 22 94 24 95 25 96 26 97
REMARK SMILES IDX 27 98 30 99 28 100 29 101
REMARK H PARENT 90 23 58 34 10 78 15 84 19 91
REMARK Flexibility Score: inf
ROOT
ATOM      1  C   UNL A   1      33.577  33.999  28.278  1.00  0.00     0.275 C 
ENDROOT
BRANCH   1   2
ATOM      2  C   UNL A   1      34.676  32.952  28.079  1.00  0.00     0.275 C 
BRANCH   2   3
ATOM      3  O   UNL A   1      34.205  31.600  28.240  1.00  0.00    -0.458 OA
BRANCH   3   4
ATOM      4  C   UNL A   1      34.773  30.391  28.034  1.00  0.00     0.338 C 
ATOM      5  O   UNL A   1      34.079  29.533  27.487  1.00  0.00    -0.246 OA
BRANCH   4   6
ATOM      6  C   UNL A   1      36.159  29.974  28.457  1.00  0.00     0.060 A 
ATOM      7  C   UNL A   1      36.546  29.469  29.698  1.00  0.00     0.016 A 
ATOM      8  C   UNL A   1      37.168  30.100  27.476  1.00  0.00     0.016 A 
ATOM      9  C   UNL A   1      37.882  29.121  29.958  1.00  0.00     0.010 A 
ATOM     10  C   UNL A   1      38.496  29.726  27.718  1.00  0.00     0.010 A 
ATOM     11  C   UNL A   1      38.870  29.250  28.974  1.00  0.00    -0.014 A 
BRANCH  11  12
ATOM     12  C   UNL A   1      40.288  28.952  29.299  1.00  0.00     0.031 A 
ATOM     13  C   UNL A   1      40.891  27.667  28.847  1.00  0.00     0.074 A 
ATOM     14  C   UNL A   1      41.059  29.853  29.934  1.00  0.00     0.049 A 
ATOM     15  N   UNL A   1      42.126  27.258  28.965  1.00  0.00    -0.248 NA
ATOM     16  C   UNL A   1      39.994  26.722  28.168  1.00  0.00     0.031 C 
ATOM     17  C   UNL A   1      40.568  31.130  30.409  1.00  0.00     0.029 A 
ATOM     18  N   UNL A   1      42.386  29.870  30.278  1.00  0.00    -0.354 N 
ATOM     19  C   UNL A   1      42.163  26.018  28.356  1.00  0.00     0.074 A 
ATOM     20  C   UNL A   1      40.817  25.716  27.915  1.00  0.00     0.031 C 
ATOM     21  C   UNL A   1      41.574  31.845  30.927  1.00  0.00     0.029 A 
ATOM     22  C   UNL A   1      42.772  31.026  30.918  1.00  0.00     0.049 A 
ATOM     23  H   UNL A   1      43.003  29.128  30.085  1.00  0.00     0.167 HD
ATOM     24  C   UNL A   1      43.236  25.216  28.165  1.00  0.00     0.037 A 
ATOM     25  C   UNL A   1      43.944  31.381  31.475  1.00  0.00     0.037 A 
ATOM     26  C   UNL A   1      44.559  25.510  28.642  1.00  0.00     0.049 A 
ATOM     27  C   UNL A   1      45.089  30.425  31.352  1.00  0.00     0.074 A 
ATOM     28  C   UNL A   1      45.711  24.756  28.520  1.00  0.00     0.029 A 
ATOM     29  N   UNL A   1      44.904  26.654  29.354  1.00  0.00    -0.354 N 
ATOM     30  N   UNL A   1      45.118  29.262  30.749  1.00  0.00    -0.248 NA
ATOM     31  C   UNL A   1      46.358  30.821  31.971  1.00  0.00     0.031 C 
ATOM     32  C   UNL A   1      46.745  25.425  29.188  1.00  0.00     0.029 A 
ATOM     33  C   UNL A   1      46.247  26.615  29.695  1.00  0.00     0.049 A 
ATOM     34  H   UNL A   1      44.284  27.384  29.583  1.00  0.00     0.167 HD
ATOM     35  C   UNL A   1      46.412  28.793  30.891  1.00  0.00     0.074 A 
ATOM     36  C   UNL A   1      47.141  29.804  31.635  1.00  0.00     0.031 C 
ATOM     37  C   UNL A   1      46.947  27.635  30.437  1.00  0.00     0.037 A 
BRANCH  24  38
ATOM     38  C   UNL A   1      42.977  23.942  27.425  1.00  0.00     0.064 A 
ATOM     39  C   UNL A   1      42.515  22.796  28.093  1.00  0.00     0.173 A 
ATOM     40  C   UNL A   1      43.264  23.842  26.058  1.00  0.00     0.173 A 
ATOM     41  F   UNL A   1      42.260  22.838  29.409  1.00  0.00    -0.203 F 
ATOM     42  C   UNL A   1      42.384  21.584  27.421  1.00  0.00     0.198 A 
ATOM     43  C   UNL A   1      43.110  22.633  25.386  1.00  0.00     0.198 A 
ATOM     44  F   UNL A   1      43.720  24.906  25.383  1.00  0.00    -0.203 F 
ATOM     45  F   UNL A   1      42.006  20.486  28.091  1.00  0.00    -0.200 F 
ATOM     46  C   UNL A   1      42.683  21.503  26.070  1.00  0.00     0.200 A 
ATOM     47  F   UNL A   1      43.403  22.552  24.080  1.00  0.00    -0.200 F 
ATOM     48  F   UNL A   1      42.577  20.330  25.429  1.00  0.00    -0.200 F 
ENDBRANCH  24  38
BRANCH  25  49
ATOM     49  C   UNL A   1      44.066  32.666  32.214  1.00  0.00     0.064 A 
ATOM     50  C   UNL A   1      44.310  33.875  31.549  1.00  0.00     0.173 A 
ATOM     51  C   UNL A   1      43.918  32.713  33.610  1.00  0.00     0.173 A 
ATOM     52  F   UNL A   1      44.473  33.885  30.218  1.00  0.00    -0.203 F 
ATOM     53  C   UNL A   1      44.414  35.076  32.251  1.00  0.00     0.198 A 
ATOM     54  C   UNL A   1      43.998  33.918  34.308  1.00  0.00     0.198 A 
ATOM     55  F   UNL A   1      43.673  31.588  34.297  1.00  0.00    -0.203 F 
ATOM     56  F   UNL A   1      44.680  36.213  31.593  1.00  0.00    -0.200 F 
ATOM     57  C   UNL A   1      44.252  35.098  33.629  1.00  0.00     0.200 A 
ATOM     58  F   UNL A   1      43.829  33.932  35.637  1.00  0.00    -0.200 F 
ATOM     59  F   UNL A   1      44.346  36.254  34.300  1.00  0.00    -0.200 F 
ENDBRANCH  25  49
BRANCH  37  60
ATOM     60  C   UNL A   1      48.403  27.426  30.709  1.00  0.00     0.064 A 
ATOM     61  C   UNL A   1      49.388  27.898  29.831  1.00  0.00     0.173 A 
ATOM     62  C   UNL A   1      48.812  26.754  31.869  1.00  0.00     0.173 A 
ATOM     63  F   UNL A   1      49.038  28.522  28.697  1.00  0.00    -0.203 F 
ATOM     64  C   UNL A   1      50.737  27.688  30.099  1.00  0.00     0.198 A 
ATOM     65  C   UNL A   1      50.161  26.566  32.144  1.00  0.00     0.198 A 
ATOM     66  F   UNL A   1      47.901  26.280  32.733  1.00  0.00    -0.203 F 
ATOM     67  F   UNL A   1      51.664  28.108  29.227  1.00  0.00    -0.200 F 
ATOM     68  C   UNL A   1      51.122  27.029  31.257  1.00  0.00     0.200 A 
ATOM     69  F   UNL A   1      50.533  25.932  33.265  1.00  0.00    -0.200 F 
ATOM     70  F   UNL A   1      52.422  26.828  31.514  1.00  0.00    -0.200 F 
ENDBRANCH  37  60
ENDBRANCH  11  12
ENDBRANCH   4   6
ENDBRANCH   3   4
ENDBRANCH   2   3
ENDBRANCH   1   2
BRANCH   1  71
ATOM     71  O   UNL A   1      34.077  35.165  28.942  1.00  0.00    -0.457 OA
BRANCH  71  72
ATOM     72  C   UNL A   1      33.135  36.072  29.328  1.00  0.00     0.356 C 
ATOM     73  O   UNL A   1      32.115  36.345  28.712  1.00  0.00    -0.244 OA
BRANCH  72  74
ATOM     74  C   UNL A   1      33.427  36.514  30.657  1.00  0.00     0.152 A 
ATOM     75  N   UNL A   1      33.357  37.836  31.000  1.00  0.00    -0.271 N 
ATOM     76  C   UNL A   1      33.746  35.830  31.822  1.00  0.00     0.059 A 
ATOM     77  N   UNL A   1      33.455  38.052  32.321  1.00  0.00    -0.183 NA
ATOM     78  H   UNL A   1      33.244  38.560  30.343  1.00  0.00     0.190 HD
ATOM     79  C   UNL A   1      33.665  36.834  32.820  1.00  0.00     0.145 A 
BRANCH  76  80
ATOM     80  C   UNL A   1      34.053  34.375  31.973  1.00  0.00     0.303 C 
BRANCH  80  81
ATOM     81  N   UNL A   1      35.374  34.100  32.546  1.00  0.00    -0.331 N 
ATOM     82  C   UNL A   1      35.271  33.195  33.688  1.00  0.00     0.268 C 
ATOM     83  C   UNL A   1      36.415  33.668  31.607  1.00  0.00     0.268 C 
ATOM     84  H   UNL A   1      35.703  35.014  32.858  1.00  0.00     0.348 HD
ATOM     85  C   UNL A   1      36.600  33.141  34.421  1.00  0.00     0.126 C 
ATOM     86  C   UNL A   1      37.793  33.633  32.277  1.00  0.00     0.126 C 
ATOM     87  C   UNL A   1      37.723  32.673  33.469  1.00  0.00     0.195 C 
BRANCH  87  88
ATOM     88  N   UNL A   1      39.038  32.414  34.105  1.00  0.00    -0.331 N 
ATOM     89  C   UNL A   1      39.048  32.572  35.562  1.00  0.00     0.262 C 
ATOM     90  C   UNL A   1      39.482  31.076  33.692  1.00  0.00     0.275 C 
ATOM     91  H   UNL A   1      39.693  33.126  33.783  1.00  0.00     0.348 HD
ATOM     92  C   UNL A   1      40.398  32.173  36.164  1.00  0.00     0.062 C 
ATOM     93  C   UNL A   1      40.783  30.540  34.299  1.00  0.00     0.134 C 
ATOM     94  C   UNL A   1      40.752  30.727  35.817  1.00  0.00     0.025 C 
BRANCH  93  95
ATOM     95  C   UNL A   1      40.782  29.069  33.870  1.00  0.00     0.231 C 
ATOM     96  O   UNL A   1      39.839  28.575  33.252  1.00  0.00    -0.274 OA
ATOM     97  N   UNL A   1      41.992  28.408  33.988  1.00  0.00    -0.342 N 
ATOM     98  C   UNL A   1      43.056  28.640  34.951  1.00  0.00     0.119 C 
ATOM     99  C   UNL A   1      42.416  27.481  32.952  1.00  0.00     0.119 C 
ATOM    100  C   UNL A   1      44.318  28.291  34.182  1.00  0.00     0.023 C 
ATOM    101  C   UNL A   1      43.866  27.146  33.282  1.00  0.00     0.023 C 
ENDBRANCH  93  95
ENDBRANCH  87  88
ENDBRANCH  80  81
ENDBRANCH  76  80
ENDBRANCH  72  74
ENDBRANCH  71  72
ENDBRANCH   1  71
TORSDOF 15
ENDMDL
MODEL 2
REMARK VINA RESULT:     -11.1      4.057     11.082
REMARK SMILES O=C(OCCOC(=O)c1[nH]ncc1C[NH+]1CCC([N@H+]2CCC[C@@H](C(=O)N3CCCC3)C2)CC1)c1ccc(-c2c3nc(c(-c4c(F)c(F)c(F)c(F)c4F)c4ccc([nH]4)c(-c4c(F)c(F)c(F)c(F)c4F)c4nc(c(-c5c(F)c(F)c(F)c(F)c5F)c5ccc2[nH]5)C=C4)C=C3)cc1
REMARK SMILES IDX 5 1 4 2 3 3 2 4 1 5 34 6 35 7 96 8 36 9 95 10 37 11 38 12
REMARK SMILES IDX 39 13 89 14 40 15 94 16 88 17 90 18 41 19 93 20 87 21 86 22
REMARK SMILES IDX 42 24 74 25 54 26 73 27 55 28 58 29 72 30 91 31 56 32 57 33
REMARK SMILES IDX 71 35 92 36 59 37 43 38 44 39 52 40 45 41 46 42 50 43 53 44
REMARK SMILES IDX 47 45 48 46 51 47 49 48 75 49 76 50 84 51 77 52 78 53 82 54
REMARK SMILES IDX 85 55 79 56 80 57 83 58 81 59 60 60 61 61 69 62 62 63 63 64
REMARK SMILES IDX 67 65 70 66 64 67 65 68 68 69 66 70 6 71 7 72 8 73 9 74
REMARK SMILES IDX 10 75 13 76 11 77 12 79 14 80 15 81 16 82 33 83 17 85 32 86
REMARK SMILES IDX 18 87 19 88 20 89 31 90 21 92 23 93 22 94 24 95 25 96 26 97
REMARK SMILES IDX 27 98 30 99 28 100 29 101
REMARK H PARENT 90 23 58 34 10 78 15 84 19 91
REMARK Flexibility Score: inf
ROOT
ATOM      1  C   UNL A   1      41.031  19.939  26.641  1.00  0.00     0.275 C 
ENDROOT
BRANCH   1   2
ATOM      2  C   UNL A   1      40.732  21.379  27.063  1.00  0.00     0.275 C 
BRANCH   2   3
ATOM      3  O   UNL A   1      39.881  22.077  26.133  1.00  0.00    -0.458 OA
BRANCH   3   4
ATOM      4  C   UNL A   1      39.131  23.197  26.226  1.00  0.00     0.338 C 
ATOM      5  O   UNL A   1      38.037  23.186  25.659  1.00  0.00    -0.246 OA
BRANCH   4   6
ATOM      6  C   UNL A   1      39.526  24.480  26.911  1.00  0.00     0.060 A 
ATOM      7  C   UNL A   1      40.229  25.551  26.359  1.00  0.00     0.016 A 
ATOM      8  C   UNL A   1      39.123  24.609  28.260  1.00  0.00     0.016 A 
ATOM      9  C   UNL A   1      40.533  26.692  27.120  1.00  0.00     0.010 A 
ATOM     10  C   UNL A   1      39.396  25.757  29.015  1.00  0.00     0.010 A 
ATOM     11  C   UNL A   1      40.125  26.804  28.454  1.00  0.00    -0.014 A 
BRANCH  11  12
ATOM     12  C   UNL A   1      40.529  27.985  29.259  1.00  0.00     0.031 A 
ATOM     13  C   UNL A   1      41.913  28.064  29.805  1.00  0.00     0.074 A 
ATOM     14  C   UNL A   1      39.689  29.019  29.444  1.00  0.00     0.049 A 
ATOM     15  N   UNL A   1      42.478  29.041  30.462  1.00  0.00    -0.248 NA
ATOM     16  C   UNL A   1      42.778  26.899  29.576  1.00  0.00     0.031 C 
ATOM     17  C   UNL A   1      38.328  29.040  28.950  1.00  0.00     0.029 A 
ATOM     18  N   UNL A   1      39.828  30.237  30.059  1.00  0.00    -0.354 N 
ATOM     19  C   UNL A   1      43.771  28.621  30.708  1.00  0.00     0.074 A 
ATOM     20  C   UNL A   1      43.895  27.280  30.177  1.00  0.00     0.031 C 
ATOM     21  C   UNL A   1      37.762  30.224  29.214  1.00  0.00     0.029 A 
ATOM     22  C   UNL A   1      38.694  31.014  29.998  1.00  0.00     0.049 A 
ATOM     23  H   UNL A   1      40.659  30.528  30.499  1.00  0.00     0.167 HD
ATOM     24  C   UNL A   1      44.770  29.309  31.307  1.00  0.00     0.037 A 
ATOM     25  C   UNL A   1      38.410  32.211  30.543  1.00  0.00     0.037 A 
ATOM     26  C   UNL A   1      44.623  30.625  31.865  1.00  0.00     0.049 A 
ATOM     27  C   UNL A   1      39.498  32.904  31.302  1.00  0.00     0.074 A 
ATOM     28  C   UNL A   1      45.566  31.402  32.512  1.00  0.00     0.029 A 
ATOM     29  N   UNL A   1      43.440  31.357  31.857  1.00  0.00    -0.354 N 
ATOM     30  N   UNL A   1      40.729  32.506  31.507  1.00  0.00    -0.248 NA
ATOM     31  C   UNL A   1      39.172  34.205  31.897  1.00  0.00     0.031 C 
ATOM     32  C   UNL A   1      44.946  32.588  32.926  1.00  0.00     0.029 A 
ATOM     33  C   UNL A   1      43.626  32.568  32.505  1.00  0.00     0.049 A 
ATOM     34  H   UNL A   1      42.595  31.058  31.450  1.00  0.00     0.167 HD
ATOM     35  C   UNL A   1      41.338  33.513  32.233  1.00  0.00     0.074 A 
ATOM     36  C   UNL A   1      40.338  34.547  32.429  1.00  0.00     0.031 C 
ATOM     37  C   UNL A   1      42.613  33.578  32.686  1.00  0.00     0.037 A 
BRANCH  24  38
ATOM     38  C   UNL A   1      46.089  28.607  31.392  1.00  0.00     0.064 A 
ATOM     39  C   UNL A   1      47.121  28.889  30.483  1.00  0.00     0.173 A 
ATOM     40  C   UNL A   1      46.296  27.595  32.337  1.00  0.00     0.173 A 
ATOM     41  F   UNL A   1      46.954  29.827  29.540  1.00  0.00    -0.203 F 
ATOM     42  C   UNL A   1      48.303  28.154  30.497  1.00  0.00     0.198 A 
ATOM     43  C   UNL A   1      47.488  26.877  32.361  1.00  0.00     0.198 A 
ATOM     44  F   UNL A   1      45.333  27.283  33.216  1.00  0.00    -0.203 F 
ATOM     45  F   UNL A   1      49.250  28.393  29.578  1.00  0.00    -0.200 F 
ATOM     46  C   UNL A   1      48.485  27.148  31.435  1.00  0.00     0.200 A 
ATOM     47  F   UNL A   1      47.663  25.903  33.265  1.00  0.00    -0.200 F 
ATOM     48  F   UNL A   1      49.615  26.427  31.433  1.00  0.00    -0.200 F 
ENDBRANCH  24  38
BRANCH  25  49
ATOM     49  C   UNL A   1      37.045  32.791  30.415  1.00  0.00     0.064 A 
ATOM     50  C   UNL A   1      36.064  32.581  31.392  1.00  0.00     0.173 A 
ATOM     51  C   UNL A   1      36.700  33.590  29.312  1.00  0.00     0.173 A 
ATOM     52  F   UNL A   1      36.337  31.814  32.459  1.00  0.00    -0.203 F 
ATOM     53  C   UNL A   1      34.790  33.136  31.267  1.00  0.00     0.198 A 
ATOM     54  C   UNL A   1      35.434  34.163  29.199  1.00  0.00     0.198 A 
ATOM     55  F   UNL A   1      37.603  33.832  28.350  1.00  0.00    -0.203 F 
ATOM     56  F   UNL A   1      33.861  32.891  32.202  1.00  0.00    -0.200 F 
ATOM     57  C   UNL A   1      34.478  33.931  30.174  1.00  0.00     0.200 A 
ATOM     58  F   UNL A   1      35.144  34.940  28.147  1.00  0.00    -0.200 F 
ATOM     59  F   UNL A   1      33.256  34.467  30.059  1.00  0.00    -0.200 F 
ENDBRANCH  25  49
BRANCH  37  60
ATOM     60  C   UNL A   1      42.996  34.831  33.409  1.00  0.00     0.064 A 
ATOM     61  C   UNL A   1      42.924  34.923  34.805  1.00  0.00     0.173 A 
ATOM     62  C   UNL A   1      43.452  35.945  32.690  1.00  0.00     0.173 A 
ATOM     63  F   UNL A   1      42.468  33.890  35.527  1.00  0.00    -0.203 F 
ATOM     64  C   UNL A   1      43.280  36.099  35.457  1.00  0.00     0.198 A 
ATOM     65  C   UNL A   1      43.828  37.110  33.348  1.00  0.00     0.198 A 
ATOM     66  F   UNL A   1      43.530  35.901  31.351  1.00  0.00    -0.203 F 
ATOM     67  F   UNL A   1      43.164  36.185  36.790  1.00  0.00    -0.200 F 
ATOM     68  C   UNL A   1      43.737  37.188  34.730  1.00  0.00     0.200 A 
ATOM     69  F   UNL A   1      44.273  38.161  32.645  1.00  0.00    -0.200 F 
ATOM     70  F   UNL A   1      44.080  38.320  35.360  1.00  0.00    -0.200 F 
ENDBRANCH  37  60
ENDBRANCH  11  12
ENDBRANCH   4   6
ENDBRANCH   3   4
ENDBRANCH   2   3
ENDBRANCH   1   2
BRANCH   1  71
ATOM     71  O   UNL A   1      42.394  19.586  26.906  1.00  0.00    -0.457 OA
BRANCH  71  72
ATOM     72  C   UNL A   1      42.899  18.576  26.142  1.00  0.00     0.356 C 
ATOM     73  O   UNL A   1      42.277  17.597  25.753  1.00  0.00    -0.244 OA
BRANCH  72  74
ATOM     74  C   UNL A   1      44.214  18.932  25.706  1.00  0.00     0.152 A 
ATOM     75  N   UNL A   1      45.272  18.078  25.858  1.00  0.00    -0.271 N 
ATOM     76  C   UNL A   1      44.710  20.043  25.038  1.00  0.00     0.059 A 
ATOM     77  N   UNL A   1      46.379  18.477  25.213  1.00  0.00    -0.183 NA
ATOM     78  H   UNL A   1      45.226  17.251  26.389  1.00  0.00     0.190 HD
ATOM     79  C   UNL A   1      46.029  19.654  24.695  1.00  0.00     0.145 A 
BRANCH  76  80
ATOM     80  C   UNL A   1      43.993  21.318  24.726  1.00  0.00     0.303 C 
BRANCH  80  81
ATOM     81  N   UNL A   1      44.617  22.511  25.306  1.00  0.00    -0.331 N 
ATOM     82  C   UNL A   1      45.371  23.250  24.297  1.00  0.00     0.268 C 
ATOM     83  C   UNL A   1      43.738  23.396  26.079  1.00  0.00     0.268 C 
ATOM     84  H   UNL A   1      45.254  22.139  26.010  1.00  0.00     0.348 HD
ATOM     85  C   UNL A   1      46.217  24.317  24.968  1.00  0.00     0.126 C 
ATOM     86  C   UNL A   1      44.538  24.473  26.818  1.00  0.00     0.126 C 
ATOM     87  C   UNL A   1      45.326  25.281  25.781  1.00  0.00     0.195 C 
BRANCH  87  88
ATOM     88  N   UNL A   1      46.012  26.469  26.347  1.00  0.00    -0.331 N 
ATOM     89  C   UNL A   1      47.121  26.972  25.531  1.00  0.00     0.262 C 
ATOM     90  C   UNL A   1      44.997  27.500  26.595  1.00  0.00     0.275 C 
ATOM     91  H   UNL A   1      46.464  26.191  27.218  1.00  0.00     0.348 HD
ATOM     92  C   UNL A   1      47.704  28.266  26.108  1.00  0.00     0.062 C 
ATOM     93  C   UNL A   1      45.479  28.866  27.097  1.00  0.00     0.134 C 
ATOM     94  C   UNL A   1      46.635  29.352  26.222  1.00  0.00     0.025 C 
BRANCH  93  95
ATOM     95  C   UNL A   1      44.224  29.738  26.981  1.00  0.00     0.231 C 
ATOM     96  O   UNL A   1      43.131  29.261  26.674  1.00  0.00    -0.274 OA
ATOM     97  N   UNL A   1      44.335  31.021  27.485  1.00  0.00    -0.342 N 
ATOM     98  C   UNL A   1      45.517  31.865  27.549  1.00  0.00     0.119 C 
ATOM     99  C   UNL A   1      43.232  31.607  28.228  1.00  0.00     0.119 C 
ATOM    100  C   UNL A   1      45.302  32.689  28.806  1.00  0.00     0.023 C 
ATOM    101  C   UNL A   1      43.790  32.892  28.829  1.00  0.00     0.023 C 
ENDBRANCH  93  95
ENDBRANCH  87  88
ENDBRANCH  80  81
ENDBRANCH  76  80
ENDBRANCH  72  74
ENDBRANCH  71  72
ENDBRANCH   1  71
TORSDOF 15
ENDMDL
MODEL 3
REMARK VINA RESULT:     -10.9      0.618      7.072
REMARK SMILES O=C(OCCOC(=O)c1[nH]ncc1C[NH+]1CCC([N@H+]2CCC[C@@H](C(=O)N3CCCC3)C2)CC1)c1ccc(-c2c3nc(c(-c4c(F)c(F)c(F)c(F)c4F)c4ccc([nH]4)c(-c4c(F)c(F)c(F)c(F)c4F)c4nc(c(-c5c(F)c(F)c(F)c(F)c5F)c5ccc2[nH]5)C=C4)C=C3)cc1
REMARK SMILES IDX 5 1 4 2 3 3 2 4 1 5 34 6 35 7 96 8 36 9 95 10 37 11 38 12
REMARK SMILES IDX 39 13 89 14 40 15 94 16 88 17 90 18 41 19 93 20 87 21 86 22
REMARK SMILES IDX 42 24 74 25 54 26 73 27 55 28 58 29 72 30 91 31 56 32 57 33
REMARK SMILES IDX 71 35 92 36 59 37 43 38 44 39 52 40 45 41 46 42 50 43 53 44
REMARK SMILES IDX 47 45 48 46 51 47 49 48 75 49 76 50 84 51 77 52 78 53 82 54
REMARK SMILES IDX 85 55 79 56 80 57 83 58 81 59 60 60 61 61 69 62 62 63 63 64
REMARK SMILES IDX 67 65 70 66 64 67 65 68 68 69 66 70 6 71 7 72 8 73 9 74
REMARK SMILES IDX 10 75 13 76 11 77 12 79 14 80 15 81 16 82 33 83 17 85 32 86
REMARK SMILES IDX 18 87 19 88 20 89 31 90 21 92 23 93 22 94 24 95 25 96 26 97
REMARK SMILES IDX 27 98 30 99 28 100 29 101
REMARK H PARENT 90 23 58 34 10 78 15 84 19 91
REMARK Flexibility Score: inf
ROOT
ATOM      1  C   UNL A   1      34.513  33.889  28.943  1.00  0.00     0.275 C 
ENDROOT
BRANCH   1   2
ATOM      2  C   UNL A   1      34.085  32.884  27.872  1.00  0.00     0.275 C 
BRANCH   2   3
ATOM      3  O   UNL A   1      34.010  31.531  28.362  1.00  0.00    -0.458 OA
BRANCH   3   4
ATOM      4  C   UNL A   1      34.597  30.375  27.982  1.00  0.00     0.338 C 
ATOM      5  O   UNL A   1      33.902  29.575  27.353  1.00  0.00    -0.246 OA
BRANCH   4   6
ATOM      6  C   UNL A   1      36.006  29.944  28.301  1.00  0.00     0.060 A 
ATOM      7  C   UNL A   1      36.476  29.418  29.504  1.00  0.00     0.016 A 
ATOM      8  C   UNL A   1      36.945  30.081  27.254  1.00  0.00     0.016 A 
ATOM      9  C   UNL A   1      37.825  29.060  29.664  1.00  0.00     0.010 A 
ATOM     10  C   UNL A   1      38.285  29.696  27.396  1.00  0.00     0.010 A 
ATOM     11  C   UNL A   1      38.742  29.199  28.616  1.00  0.00    -0.014 A 
BRANCH  11  12
ATOM     12  C   UNL A   1      40.178  28.889  28.836  1.00  0.00     0.031 A 
ATOM     13  C   UNL A   1      41.046  29.879  29.533  1.00  0.00     0.074 A 
ATOM     14  C   UNL A   1      40.692  27.698  28.482  1.00  0.00     0.049 A 
ATOM     15  N   UNL A   1      42.298  29.763  29.886  1.00  0.00    -0.248 NA
ATOM     16  C   UNL A   1      40.426  31.164  29.885  1.00  0.00     0.031 C 
ATOM     17  C   UNL A   1      39.931  26.669  27.805  1.00  0.00     0.029 A 
ATOM     18  N   UNL A   1      41.932  27.132  28.638  1.00  0.00    -0.354 N 
ATOM     19  C   UNL A   1      42.612  30.948  30.523  1.00  0.00     0.074 A 
ATOM     20  C   UNL A   1      41.438  31.793  30.463  1.00  0.00     0.031 C 
ATOM     21  C   UNL A   1      40.680  25.570  27.653  1.00  0.00     0.029 A 
ATOM     22  C   UNL A   1      42.020  25.857  28.129  1.00  0.00     0.049 A 
ATOM     23  H   UNL A   1      42.684  27.593  29.073  1.00  0.00     0.167 HD
ATOM     24  C   UNL A   1      43.776  31.288  31.123  1.00  0.00     0.037 A 
ATOM     25  C   UNL A   1      43.067  25.018  28.016  1.00  0.00     0.037 A 
ATOM     26  C   UNL A   1      44.948  30.455  31.142  1.00  0.00     0.049 A 
ATOM     27  C   UNL A   1      44.377  25.463  28.586  1.00  0.00     0.074 A 
ATOM     28  C   UNL A   1      46.184  30.713  31.704  1.00  0.00     0.029 A 
ATOM     29  N   UNL A   1      45.032  29.199  30.551  1.00  0.00    -0.354 N 
ATOM     30  N   UNL A   1      44.657  26.580  29.210  1.00  0.00    -0.248 NA
ATOM     31  C   UNL A   1      45.511  24.543  28.448  1.00  0.00     0.031 C 
ATOM     32  C   UNL A   1      47.026  29.629  31.424  1.00  0.00     0.029 A 
ATOM     33  C   UNL A   1      46.305  28.678  30.719  1.00  0.00     0.049 A 
ATOM     34  H   UNL A   1      44.293  28.746  30.082  1.00  0.00     0.167 HD
ATOM     35  C   UNL A   1      45.991  26.493  29.565  1.00  0.00     0.074 A 
ATOM     36  C   UNL A   1      46.464  25.207  29.089  1.00  0.00     0.031 C 
ATOM     37  C   UNL A   1      46.749  27.395  30.233  1.00  0.00     0.037 A 
BRANCH  24  38
ATOM     38  C   UNL A   1      43.808  32.633  31.776  1.00  0.00     0.064 A 
ATOM     39  C   UNL A   1      43.661  32.770  33.166  1.00  0.00     0.173 A 
ATOM     40  C   UNL A   1      43.911  33.796  31.004  1.00  0.00     0.173 A 
ATOM     41  F   UNL A   1      43.526  31.683  33.941  1.00  0.00    -0.203 F 
ATOM     42  C   UNL A   1      43.579  34.028  33.754  1.00  0.00     0.198 A 
ATOM     43  C   UNL A   1      43.850  35.053  31.598  1.00  0.00     0.198 A 
ATOM     44  F   UNL A   1      44.039  33.715  29.672  1.00  0.00    -0.203 F 
ATOM     45  F   UNL A   1      43.371  34.138  35.073  1.00  0.00    -0.200 F 
ATOM     46  C   UNL A   1      43.672  35.169  32.970  1.00  0.00     0.200 A 
ATOM     47  F   UNL A   1      43.936  36.156  30.841  1.00  0.00    -0.200 F 
ATOM     48  F   UNL A   1      43.571  36.380  33.534  1.00  0.00    -0.200 F 
ENDBRANCH  24  38
BRANCH  25  49
ATOM     49  C   UNL A   1      42.914  23.716  27.313  1.00  0.00     0.064 A 
ATOM     50  C   UNL A   1      43.302  23.553  25.977  1.00  0.00     0.173 A 
ATOM     51  C   UNL A   1      42.391  22.594  27.977  1.00  0.00     0.173 A 
ATOM     52  F   UNL A   1      43.794  24.597  25.292  1.00  0.00    -0.203 F 
ATOM     53  C   UNL A   1      43.162  22.326  25.329  1.00  0.00     0.198 A 
ATOM     54  C   UNL A   1      42.274  21.361  27.336  1.00  0.00     0.198 A 
ATOM     55  F   UNL A   1      42.012  22.689  29.259  1.00  0.00    -0.203 F 
ATOM     56  F   UNL A   1      43.512  22.208  24.040  1.00  0.00    -0.200 F 
ATOM     57  C   UNL A   1      42.653  21.229  26.010  1.00  0.00     0.200 A 
ATOM     58  F   UNL A   1      41.793  20.303  28.004  1.00  0.00    -0.200 F 
ATOM     59  F   UNL A   1      42.526  20.050  25.388  1.00  0.00    -0.200 F 
ENDBRANCH  25  49
BRANCH  37  60
ATOM     60  C   UNL A   1      48.163  26.993  30.514  1.00  0.00     0.064 A 
ATOM     61  C   UNL A   1      48.493  26.192  31.615  1.00  0.00     0.173 A 
ATOM     62  C   UNL A   1      49.194  27.410  29.660  1.00  0.00     0.173 A 
ATOM     63  F   UNL A   1      47.540  25.795  32.470  1.00  0.00    -0.203 F 
ATOM     64  C   UNL A   1      49.814  25.835  31.861  1.00  0.00     0.198 A 
ATOM     65  C   UNL A   1      50.510  27.031  29.897  1.00  0.00     0.198 A 
ATOM     66  F   UNL A   1      48.922  28.183  28.598  1.00  0.00    -0.203 F 
ATOM     67  F   UNL A   1      50.117  25.104  32.943  1.00  0.00    -0.200 F 
ATOM     68  C   UNL A   1      50.820  26.248  31.000  1.00  0.00     0.200 A 
ATOM     69  F   UNL A   1      51.481  27.428  29.063  1.00  0.00    -0.200 F 
ATOM     70  F   UNL A   1      52.093  25.903  31.239  1.00  0.00    -0.200 F 
ENDBRANCH  37  60
ENDBRANCH  11  12
ENDBRANCH   4   6
ENDBRANCH   3   4
ENDBRANCH   2   3
ENDBRANCH   1   2
BRANCH   1  71
ATOM     71  O   UNL A   1      33.411  34.270  29.776  1.00  0.00    -0.457 OA
BRANCH  71  72
ATOM     72  C   UNL A   1      33.033  35.577  29.690  1.00  0.00     0.356 C 
ATOM     73  O   UNL A   1      32.441  36.087  28.750  1.00  0.00    -0.244 OA
BRANCH  72  74
ATOM     74  C   UNL A   1      33.266  36.214  30.949  1.00  0.00     0.152 A 
ATOM     75  N   UNL A   1      33.298  37.578  31.064  1.00  0.00    -0.271 N 
ATOM     76  C   UNL A   1      33.428  35.717  32.235  1.00  0.00     0.059 A 
ATOM     77  N   UNL A   1      33.317  38.007  32.335  1.00  0.00    -0.183 NA
ATOM     78  H   UNL A   1      33.306  38.184  30.289  1.00  0.00     0.190 HD
ATOM     79  C   UNL A   1      33.370  36.880  33.043  1.00  0.00     0.145 A 
BRANCH  76  80
ATOM     80  C   UNL A   1      33.581  34.289  32.649  1.00  0.00     0.303 C 
BRANCH  80  81
ATOM     81  N   UNL A   1      34.903  33.964  33.194  1.00  0.00    -0.331 N 
ATOM     82  C   UNL A   1      35.298  32.604  32.833  1.00  0.00     0.268 C 
ATOM     83  C   UNL A   1      35.975  34.927  32.922  1.00  0.00     0.268 C 
ATOM     84  H   UNL A   1      34.778  34.030  34.204  1.00  0.00     0.348 HD
ATOM     85  C   UNL A   1      36.531  32.201  33.623  1.00  0.00     0.126 C 
ATOM     86  C   UNL A   1      37.239  34.600  33.725  1.00  0.00     0.126 C 
ATOM     87  C   UNL A   1      37.691  33.184  33.351  1.00  0.00     0.195 C 
BRANCH  87  88
ATOM     88  N   UNL A   1      39.004  32.805  33.930  1.00  0.00    -0.331 N 
ATOM     89  C   UNL A   1      39.063  32.871  35.392  1.00  0.00     0.262 C 
ATOM     90  C   UNL A   1      39.350  31.470  33.423  1.00  0.00     0.275 C 
ATOM     91  H   UNL A   1      39.694  33.494  33.631  1.00  0.00     0.348 HD
ATOM     92  C   UNL A   1      40.401  32.352  35.927  1.00  0.00     0.062 C 
ATOM     93  C   UNL A   1      40.631  30.818  33.956  1.00  0.00     0.134 C 
ATOM     94  C   UNL A   1      40.652  30.911  35.483  1.00  0.00     0.025 C 
BRANCH  93  95
ATOM     95  C   UNL A   1      40.524  29.379  33.439  1.00  0.00     0.231 C 
ATOM     96  O   UNL A   1      39.580  29.010  32.740  1.00  0.00    -0.274 OA
ATOM     97  N   UNL A   1      41.660  28.603  33.584  1.00  0.00    -0.342 N 
ATOM     98  C   UNL A   1      42.679  28.682  34.618  1.00  0.00     0.119 C 
ATOM     99  C   UNL A   1      42.062  27.699  32.520  1.00  0.00     0.119 C 
ATOM    100  C   UNL A   1      43.950  28.260  33.902  1.00  0.00     0.023 C 
ATOM    101  C   UNL A   1      43.453  27.213  32.910  1.00  0.00     0.023 C 
ENDBRANCH  93  95
ENDBRANCH  87  88
ENDBRANCH  80  81
ENDBRANCH  76  80
ENDBRANCH  72  74
ENDBRANCH  71  72
ENDBRANCH   1  71
TORSDOF 15
ENDMDL
