MODEL 1
REMARK VINA RESULT:     -11.2      0.000      0.000
REMARK SMILES CN(CC(N)=O)C(=O)Cn1cccc1C(=O)OCCOC(=O)c1ccc(-c2c3nc(c(-c4c(F)c(F)c(F)c(F)c4F)c4ccc([nH]4)c(-c4c(F)c(F)c(F)c(F)c4F)c4nc(c(-c5c(F)c(F)c(F)c(F)c5F)c5ccc2[nH]5)C=C4)C=C3)cc1
REMARK SMILES IDX 17 1 15 2 16 3 14 4 10 5 11 6 12 7 13 8 9 9 7 10 8 11 2 12
REMARK SMILES IDX 1 13 3 14 4 15 5 16 6 17 18 20 19 21 20 22 21 23 22 24 23 25
REMARK SMILES IDX 24 26 85 27 25 28 84 29 26 30 27 31 28 32 78 33 29 34 83 35
REMARK SMILES IDX 77 36 79 37 30 38 82 39 76 40 75 41 31 43 63 44 43 45 62 46
REMARK SMILES IDX 44 47 47 48 61 49 80 50 45 51 46 52 60 54 81 55 48 56 32 57
REMARK SMILES IDX 33 58 41 59 34 60 35 61 39 62 42 63 36 64 37 65 40 66 38 67
REMARK SMILES IDX 64 68 65 69 73 70 66 71 67 72 71 73 74 74 68 75 69 76 72 77
REMARK SMILES IDX 70 78 49 79 50 80 58 81 51 82 52 83 56 84 59 85 53 86 54 87
REMARK SMILES IDX 57 88 55 89
REMARK H PARENT 5 18 5 19 79 42 47 53
REMARK Flexibility Score: inf
ROOT
ATOM      1  O   UNL A   1      31.858  28.391  26.281  1.00  0.00    -0.457 OA
ENDROOT
BRANCH   1   2
ATOM      2  C   UNL A   1      31.695  27.108  25.847  1.00  0.00     0.355 C 
ATOM      3  O   UNL A   1      31.255  26.207  26.535  1.00  0.00    -0.244 OA
BRANCH   2   4
ATOM      4  C   UNL A   1      31.978  26.981  24.420  1.00  0.00     0.128 A 
ATOM      5  N   UNL A   1      31.135  27.103  23.317  1.00  0.00    -0.333 N 
ATOM      6  C   UNL A   1      31.778  26.594  22.210  1.00  0.00     0.087 A 
ATOM      7  C   UNL A   1      33.088  26.346  22.535  1.00  0.00     0.020 A 
ATOM      8  C   UNL A   1      33.218  26.597  23.914  1.00  0.00     0.035 A 
BRANCH   5   9
ATOM      9  C   UNL A   1      29.799  27.702  23.322  1.00  0.00     0.222 C 
BRANCH   9  10
ATOM     10  C   UNL A   1      29.653  29.083  22.702  1.00  0.00     0.242 C 
ATOM     11  O   UNL A   1      30.373  29.378  21.740  1.00  0.00    -0.273 OA
BRANCH  10  12
ATOM     12  N   UNL A   1      28.676  29.972  23.148  1.00  0.00    -0.335 N 
ATOM     13  C   UNL A   1      27.293  29.516  23.090  1.00  0.00     0.147 C 
BRANCH  12  14
ATOM     14  C   UNL A   1      28.893  31.363  23.561  1.00  0.00     0.218 C 
BRANCH  14  15
ATOM     15  C   UNL A   1      28.696  32.418  22.476  1.00  0.00     0.237 C 
ATOM     16  N   UNL A   1      28.842  31.958  21.196  1.00  0.00    -0.368 N 
ATOM     17  O   UNL A   1      28.454  33.598  22.700  1.00  0.00    -0.273 OA
ATOM     18  H   UNL A   1      29.037  31.008  21.034  1.00  0.00     0.159 HD
ATOM     19  H   UNL A   1      28.752  32.579  20.437  1.00  0.00     0.159 HD
ENDBRANCH  14  15
ENDBRANCH  12  14
ENDBRANCH  10  12
ENDBRANCH   9  10
ENDBRANCH   5   9
ENDBRANCH   2   4
ENDBRANCH   1   2
BRANCH   1  20
ATOM     20  C   UNL A   1      32.921  28.603  27.230  1.00  0.00     0.275 C 
BRANCH  20  21
ATOM     21  C   UNL A   1      34.172  29.178  26.559  1.00  0.00     0.275 C 
BRANCH  21  22
ATOM     22  O   UNL A   1      35.392  28.867  27.251  1.00  0.00    -0.458 OA
BRANCH  22  23
ATOM     23  C   UNL A   1      36.036  29.967  27.701  1.00  0.00     0.338 C 
ATOM     24  O   UNL A   1      35.700  31.131  27.540  1.00  0.00    -0.246 OA
BRANCH  23  25
ATOM     25  C   UNL A   1      37.344  29.642  28.272  1.00  0.00     0.060 A 
ATOM     26  C   UNL A   1      38.446  29.701  27.412  1.00  0.00     0.016 A 
ATOM     27  C   UNL A   1      37.415  29.001  29.514  1.00  0.00     0.016 A 
ATOM     28  C   UNL A   1      39.604  29.029  27.755  1.00  0.00     0.010 A 
ATOM     29  C   UNL A   1      38.567  28.307  29.847  1.00  0.00     0.010 A 
ATOM     30  C   UNL A   1      39.646  28.299  28.949  1.00  0.00    -0.014 A 
BRANCH  30  31
ATOM     31  C   UNL A   1      40.906  27.619  29.296  1.00  0.00     0.031 A 
ATOM     32  C   UNL A   1      40.974  26.215  28.696  1.00  0.00     0.074 A 
ATOM     33  C   UNL A   1      41.773  28.302  30.103  1.00  0.00     0.049 A 
ATOM     34  N   UNL A   1      41.690  25.196  29.058  1.00  0.00    -0.248 NA
ATOM     35  C   UNL A   1      40.077  25.868  27.559  1.00  0.00     0.031 C 
ATOM     36  C   UNL A   1      41.550  29.678  30.597  1.00  0.00     0.029 A 
ATOM     37  N   UNL A   1      42.994  27.999  30.678  1.00  0.00    -0.354 N 
ATOM     38  C   UNL A   1      41.501  24.192  28.087  1.00  0.00     0.074 A 
ATOM     39  C   UNL A   1      40.407  24.610  27.267  1.00  0.00     0.031 C 
ATOM     40  C   UNL A   1      42.543  30.060  31.428  1.00  0.00     0.029 A 
ATOM     41  C   UNL A   1      43.518  28.994  31.547  1.00  0.00     0.049 A 
ATOM     42  H   UNL A   1      43.466  27.154  30.498  1.00  0.00     0.167 HD
ATOM     43  C   UNL A   1      42.369  23.156  27.917  1.00  0.00     0.037 A 
ATOM     44  C   UNL A   1      44.648  28.963  32.320  1.00  0.00     0.037 A 
ATOM     45  C   UNL A   1      43.394  23.202  28.901  1.00  0.00     0.049 A 
ATOM     46  C   UNL A   1      45.376  27.758  31.906  1.00  0.00     0.074 A 
ATOM     47  C   UNL A   1      43.393  22.958  30.248  1.00  0.00     0.029 A 
ATOM     48  N   UNL A   1      44.549  23.863  28.563  1.00  0.00    -0.354 N 
ATOM     49  N   UNL A   1      46.008  27.647  30.777  1.00  0.00    -0.248 NA
ATOM     50  C   UNL A   1      45.409  26.594  32.795  1.00  0.00     0.031 C 
ATOM     51  C   UNL A   1      44.365  23.845  30.755  1.00  0.00     0.029 A 
ATOM     52  C   UNL A   1      45.015  24.483  29.692  1.00  0.00     0.049 A 
ATOM     53  H   UNL A   1      44.965  23.887  27.672  1.00  0.00     0.167 HD
ATOM     54  C   UNL A   1      46.197  26.290  30.683  1.00  0.00     0.074 A 
ATOM     55  C   UNL A   1      46.115  25.765  32.028  1.00  0.00     0.031 C 
ATOM     56  C   UNL A   1      45.819  25.673  29.535  1.00  0.00     0.037 A 
BRANCH  43  57
ATOM     57  C   UNL A   1      42.565  22.204  26.773  1.00  0.00     0.064 A 
ATOM     58  C   UNL A   1      42.073  20.883  26.920  1.00  0.00     0.173 A 
ATOM     59  C   UNL A   1      43.501  22.409  25.753  1.00  0.00     0.173 A 
ATOM     60  F   UNL A   1      41.146  20.595  27.847  1.00  0.00    -0.203 F 
ATOM     61  C   UNL A   1      42.594  19.817  26.189  1.00  0.00     0.198 A 
ATOM     62  C   UNL A   1      43.982  21.344  24.985  1.00  0.00     0.198 A 
ATOM     63  F   UNL A   1      44.054  23.611  25.547  1.00  0.00    -0.203 F 
ATOM     64  F   UNL A   1      42.207  18.565  26.468  1.00  0.00    -0.200 F 
ATOM     65  C   UNL A   1      43.562  20.048  25.232  1.00  0.00     0.200 A 
ATOM     66  F   UNL A   1      44.919  21.571  24.054  1.00  0.00    -0.200 F 
ATOM     67  F   UNL A   1      44.118  19.020  24.577  1.00  0.00    -0.200 F 
ENDBRANCH  43  57
BRANCH  44  68
ATOM     68  C   UNL A   1      45.321  29.762  33.418  1.00  0.00     0.064 A 
ATOM     69  C   UNL A   1      46.540  30.440  33.313  1.00  0.00     0.173 A 
ATOM     70  C   UNL A   1      44.624  30.005  34.642  1.00  0.00     0.173 A 
ATOM     71  F   UNL A   1      47.339  30.267  32.256  1.00  0.00    -0.203 F 
ATOM     72  C   UNL A   1      46.974  31.351  34.296  1.00  0.00     0.198 A 
ATOM     73  C   UNL A   1      45.022  30.953  35.583  1.00  0.00     0.198 A 
ATOM     74  F   UNL A   1      43.502  29.343  34.958  1.00  0.00    -0.203 F 
ATOM     75  F   UNL A   1      48.149  31.980  34.144  1.00  0.00    -0.200 F 
ATOM     76  C   UNL A   1      46.196  31.639  35.404  1.00  0.00     0.200 A 
ATOM     77  F   UNL A   1      44.237  31.212  36.640  1.00  0.00    -0.200 F 
ATOM     78  F   UNL A   1      46.574  32.570  36.290  1.00  0.00    -0.200 F 
ENDBRANCH  44  68
BRANCH  56  79
ATOM     79  C   UNL A   1      45.874  26.591  28.323  1.00  0.00     0.064 A 
ATOM     80  C   UNL A   1      47.112  27.075  27.865  1.00  0.00     0.173 A 
ATOM     81  C   UNL A   1      44.738  27.143  27.709  1.00  0.00     0.173 A 
ATOM     82  F   UNL A   1      48.252  26.586  28.378  1.00  0.00    -0.203 F 
ATOM     83  C   UNL A   1      47.199  28.074  26.890  1.00  0.00     0.198 A 
ATOM     84  C   UNL A   1      44.819  28.139  26.733  1.00  0.00     0.198 A 
ATOM     85  F   UNL A   1      43.520  26.727  28.042  1.00  0.00    -0.203 F 
ATOM     86  F   UNL A   1      48.399  28.520  26.495  1.00  0.00    -0.200 F 
ATOM     87  C   UNL A   1      46.051  28.613  26.332  1.00  0.00     0.200 A 
ATOM     88  F   UNL A   1      43.698  28.633  26.186  1.00  0.00    -0.200 F 
ATOM     89  F   UNL A   1      46.134  29.571  25.397  1.00  0.00    -0.200 F 
ENDBRANCH  56  79
ENDBRANCH  30  31
ENDBRANCH  23  25
ENDBRANCH  22  23
ENDBRANCH  21  22
ENDBRANCH  20  21
ENDBRANCH   1  20
TORSDOF 16
ENDMDL
MODEL 2
REMARK VINA RESULT:     -10.9      1.016      2.018
REMARK SMILES CN(CC(N)=O)C(=O)Cn1cccc1C(=O)OCCOC(=O)c1ccc(-c2c3nc(c(-c4c(F)c(F)c(F)c(F)c4F)c4ccc([nH]4)c(-c4c(F)c(F)c(F)c(F)c4F)c4nc(c(-c5c(F)c(F)c(F)c(F)c5F)c5ccc2[nH]5)C=C4)C=C3)cc1
REMARK SMILES IDX 17 1 15 2 16 3 14 4 10 5 11 6 12 7 13 8 9 9 7 10 8 11 2 12
REMARK SMILES IDX 1 13 3 14 4 15 5 16 6 17 18 20 19 21 20 22 21 23 22 24 23 25
REMARK SMILES IDX 24 26 85 27 25 28 84 29 26 30 27 31 28 32 78 33 29 34 83 35
REMARK SMILES IDX 77 36 79 37 30 38 82 39 76 40 75 41 31 43 63 44 43 45 62 46
REMARK SMILES IDX 44 47 47 48 61 49 80 50 45 51 46 52 60 54 81 55 48 56 32 57
REMARK SMILES IDX 33 58 41 59 34 60 35 61 39 62 42 63 36 64 37 65 40 66 38 67
REMARK SMILES IDX 64 68 65 69 73 70 66 71 67 72 71 73 74 74 68 75 69 76 72 77
REMARK SMILES IDX 70 78 49 79 50 80 58 81 51 82 52 83 56 84 59 85 53 86 54 87
REMARK SMILES IDX 57 88 55 89
REMARK H PARENT 5 18 5 19 79 42 47 53
REMARK Flexibility Score: inf
ROOT
ATOM      1  O   UNL A   1      32.845  28.661  26.247  1.00  0.00    -0.457 OA
ENDROOT
BRANCH   1   2
ATOM      2  C   UNL A   1      31.744  27.924  26.576  1.00  0.00     0.355 C 
ATOM      3  O   UNL A   1      31.228  27.924  27.677  1.00  0.00    -0.244 OA
BRANCH   2   4
ATOM      4  C   UNL A   1      31.179  27.249  25.410  1.00  0.00     0.128 A 
ATOM      5  N   UNL A   1      30.514  27.767  24.300  1.00  0.00    -0.333 N 
ATOM      6  C   UNL A   1      29.899  26.732  23.630  1.00  0.00     0.087 A 
ATOM      7  C   UNL A   1      30.330  25.543  24.163  1.00  0.00     0.020 A 
ATOM      8  C   UNL A   1      31.138  25.864  25.269  1.00  0.00     0.035 A 
BRANCH   5   9
ATOM      9  C   UNL A   1      30.497  29.172  23.890  1.00  0.00     0.222 C 
BRANCH   9  10
ATOM     10  C   UNL A   1      29.524  29.565  22.788  1.00  0.00     0.242 C 
ATOM     11  O   UNL A   1      29.877  29.422  21.611  1.00  0.00    -0.273 OA
BRANCH  10  12
ATOM     12  N   UNL A   1      28.234  30.000  23.089  1.00  0.00    -0.335 N 
ATOM     13  C   UNL A   1      27.180  28.994  23.080  1.00  0.00     0.147 C 
BRANCH  12  14
ATOM     14  C   UNL A   1      27.814  31.390  23.300  1.00  0.00     0.218 C 
BRANCH  14  15
ATOM     15  C   UNL A   1      28.552  32.441  22.475  1.00  0.00     0.237 C 
ATOM     16  N   UNL A   1      28.564  32.207  21.127  1.00  0.00    -0.368 N 
ATOM     17  O   UNL A   1      29.123  33.414  22.953  1.00  0.00    -0.273 OA
ATOM     18  H   UNL A   1      28.101  31.421  20.760  1.00  0.00     0.159 HD
ATOM     19  H   UNL A   1      29.036  32.826  20.525  1.00  0.00     0.159 HD
ENDBRANCH  14  15
ENDBRANCH  12  14
ENDBRANCH  10  12
ENDBRANCH   9  10
ENDBRANCH   5   9
ENDBRANCH   2   4
ENDBRANCH   1   2
BRANCH   1  20
ATOM     20  C   UNL A   1      33.776  28.910  27.318  1.00  0.00     0.275 C 
BRANCH  20  21
ATOM     21  C   UNL A   1      34.214  30.378  27.356  1.00  0.00     0.275 C 
BRANCH  21  22
ATOM     22  O   UNL A   1      35.634  30.559  27.245  1.00  0.00    -0.458 OA
BRANCH  22  23
ATOM     23  C   UNL A   1      36.257  30.575  28.445  1.00  0.00     0.338 C 
ATOM     24  O   UNL A   1      36.082  31.376  29.351  1.00  0.00    -0.246 OA
BRANCH  23  25
ATOM     25  C   UNL A   1      37.355  29.609  28.506  1.00  0.00     0.060 A 
ATOM     26  C   UNL A   1      37.439  28.815  29.654  1.00  0.00     0.016 A 
ATOM     27  C   UNL A   1      38.423  29.720  27.609  1.00  0.00     0.016 A 
ATOM     28  C   UNL A   1      38.640  28.201  29.962  1.00  0.00     0.010 A 
ATOM     29  C   UNL A   1      39.633  29.124  27.929  1.00  0.00     0.010 A 
ATOM     30  C   UNL A   1      39.743  28.393  29.122  1.00  0.00    -0.014 A 
BRANCH  30  31
ATOM     31  C   UNL A   1      40.997  27.700  29.464  1.00  0.00     0.031 A 
ATOM     32  C   UNL A   1      41.156  26.399  28.679  1.00  0.00     0.074 A 
ATOM     33  C   UNL A   1      41.780  28.280  30.424  1.00  0.00     0.049 A 
ATOM     34  N   UNL A   1      41.879  25.355  28.947  1.00  0.00    -0.248 NA
ATOM     35  C   UNL A   1      40.356  26.198  27.438  1.00  0.00     0.031 C 
ATOM     36  C   UNL A   1      41.475  29.565  31.089  1.00  0.00     0.029 A 
ATOM     37  N   UNL A   1      42.966  27.927  31.042  1.00  0.00    -0.354 N 
ATOM     38  C   UNL A   1      41.794  24.497  27.832  1.00  0.00     0.074 A 
ATOM     39  C   UNL A   1      40.749  25.002  26.998  1.00  0.00     0.031 C 
ATOM     40  C   UNL A   1      42.392  29.847  32.038  1.00  0.00     0.029 A 
ATOM     41  C   UNL A   1      43.392  28.798  32.080  1.00  0.00     0.049 A 
ATOM     42  H   UNL A   1      43.478  27.127  30.781  1.00  0.00     0.167 HD
ATOM     43  C   UNL A   1      42.707  23.516  27.584  1.00  0.00     0.037 A 
ATOM     44  C   UNL A   1      44.463  28.682  32.925  1.00  0.00     0.037 A 
ATOM     45  C   UNL A   1      43.656  23.445  28.641  1.00  0.00     0.049 A 
ATOM     46  C   UNL A   1      45.259  27.567  32.401  1.00  0.00     0.074 A 
ATOM     47  C   UNL A   1      43.566  23.010  29.935  1.00  0.00     0.029 A 
ATOM     48  N   UNL A   1      44.809  24.174  28.488  1.00  0.00    -0.354 N 
ATOM     49  N   UNL A   1      45.975  27.634  31.320  1.00  0.00    -0.248 NA
ATOM     50  C   UNL A   1      45.268  26.288  33.117  1.00  0.00     0.031 C 
ATOM     51  C   UNL A   1      44.468  23.837  30.635  1.00  0.00     0.029 A 
ATOM     52  C   UNL A   1      45.171  24.637  29.726  1.00  0.00     0.049 A 
ATOM     53  H   UNL A   1      45.288  24.335  27.644  1.00  0.00     0.167 HD
ATOM     54  C   UNL A   1      46.216  26.310  31.050  1.00  0.00     0.074 A 
ATOM     55  C   UNL A   1      46.055  25.595  32.297  1.00  0.00     0.031 C 
ATOM     56  C   UNL A   1      45.943  25.855  29.801  1.00  0.00     0.037 A 
BRANCH  43  57
ATOM     57  C   UNL A   1      43.017  22.743  26.335  1.00  0.00     0.064 A 
ATOM     58  C   UNL A   1      42.924  21.330  26.392  1.00  0.00     0.173 A 
ATOM     59  C   UNL A   1      43.736  23.276  25.258  1.00  0.00     0.173 A 
ATOM     60  F   UNL A   1      42.226  20.727  27.367  1.00  0.00    -0.203 F 
ATOM     61  C   UNL A   1      43.624  20.510  25.510  1.00  0.00     0.198 A 
ATOM     62  C   UNL A   1      44.393  22.448  24.344  1.00  0.00     0.198 A 
ATOM     63  F   UNL A   1      43.913  24.597  25.126  1.00  0.00    -0.203 F 
ATOM     64  F   UNL A   1      43.627  19.182  25.694  1.00  0.00    -0.200 F 
ATOM     65  C   UNL A   1      44.373  21.072  24.495  1.00  0.00     0.200 A 
ATOM     66  F   UNL A   1      45.116  22.996  23.358  1.00  0.00    -0.200 F 
ATOM     67  F   UNL A   1      45.106  20.292  23.689  1.00  0.00    -0.200 F 
ENDBRANCH  43  57
BRANCH  44  68
ATOM     68  C   UNL A   1      45.027  29.332  34.173  1.00  0.00     0.064 A 
ATOM     69  C   UNL A   1      44.607  29.094  35.486  1.00  0.00     0.173 A 
ATOM     70  C   UNL A   1      46.190  30.156  34.075  1.00  0.00     0.173 A 
ATOM     71  F   UNL A   1      43.498  28.394  35.741  1.00  0.00    -0.203 F 
ATOM     72  C   UNL A   1      45.338  29.554  36.598  1.00  0.00     0.198 A 
ATOM     73  C   UNL A   1      46.949  30.557  35.174  1.00  0.00     0.198 A 
ATOM     74  F   UNL A   1      46.655  30.582  32.893  1.00  0.00    -0.203 F 
ATOM     75  F   UNL A   1      44.896  29.292  37.837  1.00  0.00    -0.200 F 
ATOM     76  C   UNL A   1      46.529  30.244  36.442  1.00  0.00     0.200 A 
ATOM     77  F   UNL A   1      48.102  31.216  34.983  1.00  0.00    -0.200 F 
ATOM     78  F   UNL A   1      47.263  30.603  37.502  1.00  0.00    -0.200 F 
ENDBRANCH  44  68
BRANCH  56  79
ATOM     79  C   UNL A   1      46.055  26.938  28.739  1.00  0.00     0.064 A 
ATOM     80  C   UNL A   1      44.908  27.360  28.042  1.00  0.00     0.173 A 
ATOM     81  C   UNL A   1      47.276  27.449  28.269  1.00  0.00     0.173 A 
ATOM     82  F   UNL A   1      43.696  26.941  28.436  1.00  0.00    -0.203 F 
ATOM     83  C   UNL A   1      44.990  28.198  26.926  1.00  0.00     0.198 A 
ATOM     84  C   UNL A   1      47.362  28.289  27.157  1.00  0.00     0.198 A 
ATOM     85  F   UNL A   1      48.416  27.144  28.881  1.00  0.00    -0.203 F 
ATOM     86  F   UNL A   1      43.873  28.560  26.279  1.00  0.00    -0.200 F 
ATOM     87  C   UNL A   1      46.218  28.655  26.478  1.00  0.00     0.200 A 
ATOM     88  F   UNL A   1      48.559  28.741  26.751  1.00  0.00    -0.200 F 
ATOM     89  F   UNL A   1      46.296  29.459  25.408  1.00  0.00    -0.200 F 
ENDBRANCH  56  79
ENDBRANCH  30  31
ENDBRANCH  23  25
ENDBRANCH  22  23
ENDBRANCH  21  22
ENDBRANCH  20  21
ENDBRANCH   1  20
TORSDOF 16
ENDMDL
MODEL 3
REMARK VINA RESULT:     -10.8      4.610      7.286
REMARK SMILES CN(CC(N)=O)C(=O)Cn1cccc1C(=O)OCCOC(=O)c1ccc(-c2c3nc(c(-c4c(F)c(F)c(F)c(F)c4F)c4ccc([nH]4)c(-c4c(F)c(F)c(F)c(F)c4F)c4nc(c(-c5c(F)c(F)c(F)c(F)c5F)c5ccc2[nH]5)C=C4)C=C3)cc1
REMARK SMILES IDX 17 1 15 2 16 3 14 4 10 5 11 6 12 7 13 8 9 9 7 10 8 11 2 12
REMARK SMILES IDX 1 13 3 14 4 15 5 16 6 17 18 20 19 21 20 22 21 23 22 24 23 25
REMARK SMILES IDX 24 26 85 27 25 28 84 29 26 30 27 31 28 32 78 33 29 34 83 35
REMARK SMILES IDX 77 36 79 37 30 38 82 39 76 40 75 41 31 43 63 44 43 45 62 46
REMARK SMILES IDX 44 47 47 48 61 49 80 50 45 51 46 52 60 54 81 55 48 56 32 57
REMARK SMILES IDX 33 58 41 59 34 60 35 61 39 62 42 63 36 64 37 65 40 66 38 67
REMARK SMILES IDX 64 68 65 69 73 70 66 71 67 72 71 73 74 74 68 75 69 76 72 77
REMARK SMILES IDX 70 78 49 79 50 80 58 81 51 82 52 83 56 84 59 85 53 86 54 87
REMARK SMILES IDX 57 88 55 89
REMARK H PARENT 5 18 5 19 79 42 47 53
REMARK Flexibility Score: inf
ROOT
ATOM      1  O   UNL A   1      33.818  34.250  29.089  1.00  0.00    -0.457 OA
ENDROOT
BRANCH   1   2
ATOM      2  C   UNL A   1      33.209  33.504  28.123  1.00  0.00     0.355 C 
ATOM      3  O   UNL A   1      32.186  33.831  27.552  1.00  0.00    -0.244 OA
BRANCH   2   4
ATOM      4  C   UNL A   1      34.010  32.338  27.757  1.00  0.00     0.128 A 
ATOM      5  N   UNL A   1      33.618  31.051  27.391  1.00  0.00    -0.333 N 
ATOM      6  C   UNL A   1      34.717  30.222  27.444  1.00  0.00     0.087 A 
ATOM      7  C   UNL A   1      35.840  30.989  27.629  1.00  0.00     0.020 A 
ATOM      8  C   UNL A   1      35.401  32.313  27.814  1.00  0.00     0.035 A 
BRANCH   5   9
ATOM      9  C   UNL A   1      32.271  30.649  26.983  1.00  0.00     0.222 C 
BRANCH   9  10
ATOM     10  C   UNL A   1      32.022  29.164  26.770  1.00  0.00     0.242 C 
ATOM     11  O   UNL A   1      31.787  28.457  27.758  1.00  0.00    -0.273 OA
BRANCH  10  12
ATOM     12  N   UNL A   1      31.977  28.619  25.488  1.00  0.00    -0.335 N 
ATOM     13  C   UNL A   1      32.916  29.155  24.510  1.00  0.00     0.147 C 
BRANCH  12  14
ATOM     14  C   UNL A   1      31.000  27.641  24.994  1.00  0.00     0.218 C 
BRANCH  14  15
ATOM     15  C   UNL A   1      31.348  26.174  25.231  1.00  0.00     0.237 C 
ATOM     16  N   UNL A   1      31.058  25.712  26.485  1.00  0.00    -0.368 N 
ATOM     17  O   UNL A   1      31.872  25.448  24.394  1.00  0.00    -0.273 OA
ATOM     18  H   UNL A   1      30.637  26.308  27.144  1.00  0.00     0.159 HD
ATOM     19  H   UNL A   1      31.270  24.781  26.727  1.00  0.00     0.159 HD
ENDBRANCH  14  15
ENDBRANCH  12  14
ENDBRANCH  10  12
ENDBRANCH   9  10
ENDBRANCH   5   9
ENDBRANCH   2   4
ENDBRANCH   1   2
BRANCH   1  20
ATOM     20  C   UNL A   1      33.600  35.673  29.014  1.00  0.00     0.275 C 
BRANCH  20  21
ATOM     21  C   UNL A   1      32.580  36.144  30.055  1.00  0.00     0.275 C 
BRANCH  21  22
ATOM     22  O   UNL A   1      32.406  35.228  31.147  1.00  0.00    -0.458 OA
BRANCH  22  23
ATOM     23  C   UNL A   1      32.762  35.757  32.339  1.00  0.00     0.338 C 
ATOM     24  O   UNL A   1      32.279  36.741  32.878  1.00  0.00    -0.246 OA
BRANCH  23  25
ATOM     25  C   UNL A   1      33.967  35.127  32.880  1.00  0.00     0.060 A 
ATOM     26  C   UNL A   1      35.197  35.671  32.494  1.00  0.00     0.016 A 
ATOM     27  C   UNL A   1      33.878  33.867  33.481  1.00  0.00     0.016 A 
ATOM     28  C   UNL A   1      36.341  34.905  32.619  1.00  0.00     0.010 A 
ATOM     29  C   UNL A   1      35.021  33.090  33.585  1.00  0.00     0.010 A 
ATOM     30  C   UNL A   1      36.242  33.603  33.123  1.00  0.00    -0.014 A 
BRANCH  30  31
ATOM     31  C   UNL A   1      37.486  32.826  33.270  1.00  0.00     0.031 A 
ATOM     32  C   UNL A   1      37.512  31.619  32.334  1.00  0.00     0.074 A 
ATOM     33  C   UNL A   1      38.376  33.261  34.213  1.00  0.00     0.049 A 
ATOM     34  N   UNL A   1      38.203  30.524  32.417  1.00  0.00    -0.248 NA
ATOM     35  C   UNL A   1      36.599  31.593  31.157  1.00  0.00     0.031 C 
ATOM     36  C   UNL A   1      38.194  34.472  35.042  1.00  0.00     0.029 A 
ATOM     37  N   UNL A   1      39.593  32.793  34.677  1.00  0.00    -0.354 N 
ATOM     38  C   UNL A   1      37.981  29.804  31.226  1.00  0.00     0.074 A 
ATOM     39  C   UNL A   1      36.893  30.442  30.553  1.00  0.00     0.031 C 
ATOM     40  C   UNL A   1      39.202  34.607  35.929  1.00  0.00     0.029 A 
ATOM     41  C   UNL A   1      40.149  33.522  35.761  1.00  0.00     0.049 A 
ATOM     42  H   UNL A   1      40.041  32.010  34.282  1.00  0.00     0.167 HD
ATOM     43  C   UNL A   1      38.820  28.824  30.788  1.00  0.00     0.037 A 
ATOM     44  C   UNL A   1      41.283  33.268  36.487  1.00  0.00     0.037 A 
ATOM     45  C   UNL A   1      39.852  28.594  31.739  1.00  0.00     0.049 A 
ATOM     46  C   UNL A   1      41.975  32.190  35.772  1.00  0.00     0.074 A 
ATOM     47  C   UNL A   1      39.853  28.017  32.980  1.00  0.00     0.029 A 
ATOM     48  N   UNL A   1      41.022  29.291  31.563  1.00  0.00    -0.354 N 
ATOM     49  N   UNL A   1      42.596  32.353  34.644  1.00  0.00    -0.248 NA
ATOM     50  C   UNL A   1      41.982  30.838  36.337  1.00  0.00     0.031 C 
ATOM     51  C   UNL A   1      40.851  28.722  33.681  1.00  0.00     0.029 A 
ATOM     52  C   UNL A   1      41.511  29.593  32.807  1.00  0.00     0.049 A 
ATOM     53  H   UNL A   1      41.433  29.529  30.702  1.00  0.00     0.167 HD
ATOM     54  C   UNL A   1      42.748  31.061  34.207  1.00  0.00     0.074 A 
ATOM     55  C   UNL A   1      42.660  30.214  35.377  1.00  0.00     0.031 C 
ATOM     56  C   UNL A   1      42.346  30.764  32.945  1.00  0.00     0.037 A 
BRANCH  43  57
ATOM     57  C   UNL A   1      38.982  28.188  29.438  1.00  0.00     0.064 A 
ATOM     58  C   UNL A   1      39.011  26.773  29.372  1.00  0.00     0.173 A 
ATOM     59  C   UNL A   1      39.471  28.873  28.319  1.00  0.00     0.173 A 
ATOM     60  F   UNL A   1      38.532  26.028  30.381  1.00  0.00    -0.203 F 
ATOM     61  C   UNL A   1      39.621  26.097  28.318  1.00  0.00     0.198 A 
ATOM     62  C   UNL A   1      40.033  28.187  27.238  1.00  0.00     0.198 A 
ATOM     63  F   UNL A   1      39.518  30.210  28.287  1.00  0.00    -0.203 F 
ATOM     64  F   UNL A   1      39.760  24.765  28.371  1.00  0.00    -0.200 F 
ATOM     65  C   UNL A   1      40.148  26.807  27.258  1.00  0.00     0.200 A 
ATOM     66  F   UNL A   1      40.541  28.880  26.209  1.00  0.00    -0.200 F 
ATOM     67  F   UNL A   1      40.799  26.169  26.277  1.00  0.00    -0.200 F 
ENDBRANCH  43  57
BRANCH  44  68
ATOM     68  C   UNL A   1      41.983  33.747  37.743  1.00  0.00     0.064 A 
ATOM     69  C   UNL A   1      43.185  34.461  37.792  1.00  0.00     0.173 A 
ATOM     70  C   UNL A   1      41.332  33.617  39.008  1.00  0.00     0.173 A 
ATOM     71  F   UNL A   1      43.945  34.614  36.704  1.00  0.00    -0.203 F 
ATOM     72  C   UNL A   1      43.642  35.072  38.977  1.00  0.00     0.198 A 
ATOM     73  C   UNL A   1      41.748  34.275  40.164  1.00  0.00     0.198 A 
ATOM     74  F   UNL A   1      40.235  32.862  39.161  1.00  0.00    -0.203 F 
ATOM     75  F   UNL A   1      44.798  35.751  38.969  1.00  0.00    -0.200 F 
ATOM     76  C   UNL A   1      42.902  35.016  40.146  1.00  0.00     0.200 A 
ATOM     77  F   UNL A   1      41.001  34.205  41.276  1.00  0.00    -0.200 F 
ATOM     78  F   UNL A   1      43.298  35.672  41.245  1.00  0.00    -0.200 F 
ENDBRANCH  44  68
BRANCH  56  79
ATOM     79  C   UNL A   1      42.418  31.957  32.005  1.00  0.00     0.064 A 
ATOM     80  C   UNL A   1      41.239  32.491  31.455  1.00  0.00     0.173 A 
ATOM     81  C   UNL A   1      43.618  32.479  31.496  1.00  0.00     0.173 A 
ATOM     82  F   UNL A   1      40.045  32.069  31.899  1.00  0.00    -0.203 F 
ATOM     83  C   UNL A   1      41.267  33.448  30.436  1.00  0.00     0.198 A 
ATOM     84  C   UNL A   1      43.652  33.438  30.481  1.00  0.00     0.198 A 
ATOM     85  F   UNL A   1      44.790  32.071  31.975  1.00  0.00    -0.203 F 
ATOM     86  F   UNL A   1      40.119  33.917  29.928  1.00  0.00    -0.200 F 
ATOM     87  C   UNL A   1      42.475  33.914  29.943  1.00  0.00     0.200 A 
ATOM     88  F   UNL A   1      44.831  33.895  30.030  1.00  0.00    -0.200 F 
ATOM     89  F   UNL A   1      42.501  34.832  28.966  1.00  0.00    -0.200 F 
ENDBRANCH  56  79
ENDBRANCH  30  31
ENDBRANCH  23  25
ENDBRANCH  22  23
ENDBRANCH  21  22
ENDBRANCH  20  21
ENDBRANCH   1  20
TORSDOF 16
ENDMDL
