MODEL 1
REMARK VINA RESULT:     -11.5      0.000      0.000
REMARK SMILES CCC[C@@]1(C(=O)N[C@@](C)(C(=O)OCCOC(=O)c2ccc(-c3c4nc(c(-c5c(F)c(F)c(F)c(F)c5F)c5ccc([nH]5)c(-c5c(F)c(F)c(F)c(F)c5F)c5nc(c(-c6c(F)c(F)c(F)c(F)c6F)c6ccc3[nH]6)C=C5)C=C4)cc2)C(F)(F)F)CC[NH2+]C1
REMARK SMILES IDX 13 1 12 2 10 3 11 4 8 5 9 6 7 7 5 8 6 9 4 11 85 12 88 13
REMARK SMILES IDX 86 14 87 15 3 18 2 19 1 20 81 21 82 22 83 23 84 24 14 25
REMARK SMILES IDX 15 26 16 27 17 28 18 29 19 30 80 31 20 32 79 33 21 34 22 35
REMARK SMILES IDX 23 36 73 37 24 38 78 39 72 40 74 41 25 42 77 43 71 44 70 45
REMARK SMILES IDX 26 47 58 48 38 49 57 50 39 51 42 52 56 53 75 54 40 55 41 56
REMARK SMILES IDX 55 58 76 59 43 60 27 61 28 62 36 63 29 64 30 65 34 66 37 67
REMARK SMILES IDX 31 68 32 69 35 70 33 71 59 72 60 73 68 74 61 75 62 76 66 77
REMARK SMILES IDX 69 78 63 79 64 80 67 81 65 82 44 83 45 84 53 85 46 86 47 87
REMARK SMILES IDX 51 88 54 89 48 90 49 91 52 92 50 93
REMARK H PARENT 7 10 87 16 87 17 74 46 42 57
REMARK Flexibility Score: inf
ROOT
ATOM      1  C   UNL A   1      32.500  29.210  25.027  1.00  0.00     0.274 C 
ENDROOT
BRANCH   1   2
ATOM      2  O   UNL A   1      31.890  27.975  25.458  1.00  0.00    -0.460 OA
BRANCH   2   3
ATOM      3  C   UNL A   1      31.312  27.193  24.497  1.00  0.00     0.341 C 
ATOM      4  O   UNL A   1      30.371  27.550  23.803  1.00  0.00    -0.249 OA
BRANCH   3   5
ATOM      5  C   UNL A   1      31.933  25.785  24.479  1.00  0.00     0.231 C 
ATOM      6  C   UNL A   1      30.894  24.850  23.842  1.00  0.00     0.058 C 
BRANCH   5   7
ATOM      7  N   UNL A   1      32.150  25.355  25.922  1.00  0.00    -0.332 N 
ATOM      8  C   UNL A   1      32.277  24.151  26.538  1.00  0.00     0.233 C 
ATOM      9  O   UNL A   1      31.404  23.901  27.378  1.00  0.00    -0.274 OA
ATOM     10  H   UNL A   1      32.213  26.114  26.544  1.00  0.00     0.164 HD
BRANCH   8  11
ATOM     11  C   UNL A   1      33.484  23.203  26.375  1.00  0.00     0.103 C 
ATOM     12  C   UNL A   1      33.163  22.283  25.138  1.00  0.00     0.084 C 
ATOM     13  C   UNL A   1      33.630  22.142  27.478  1.00  0.00     0.277 C 
ATOM     14  C   UNL A   1      32.715  20.962  25.720  1.00  0.00     0.261 C 
ATOM     15  N   UNL A   1      33.632  20.812  26.846  1.00  0.00    -0.345 N 
ATOM     16  H   UNL A   1      34.568  20.564  26.523  1.00  0.00     0.346 HD
ATOM     17  H   UNL A   1      33.354  20.069  27.487  1.00  0.00     0.346 HD
BRANCH  11  18
ATOM     18  C   UNL A   1      34.800  23.956  26.018  1.00  0.00     0.023 C 
BRANCH  18  19
ATOM     19  C   UNL A   1      35.968  23.193  25.380  1.00  0.00    -0.002 C 
ATOM     20  C   UNL A   1      37.358  23.652  25.797  1.00  0.00     0.004 C 
ENDBRANCH  18  19
ENDBRANCH  11  18
ENDBRANCH   8  11
ENDBRANCH   5   7
BRANCH   5  21
ATOM     21  C   UNL A   1      33.137  25.921  23.541  1.00  0.00     0.422 C 
ATOM     22  F   UNL A   1      34.230  26.414  24.154  1.00  0.00    -0.168 F 
ATOM     23  F   UNL A   1      33.488  24.722  23.036  1.00  0.00    -0.168 F 
ATOM     24  F   UNL A   1      32.886  26.716  22.476  1.00  0.00    -0.168 F 
ENDBRANCH   5  21
ENDBRANCH   3   5
ENDBRANCH   2   3
ENDBRANCH   1   2
BRANCH   1  25
ATOM     25  C   UNL A   1      31.766  30.368  25.699  1.00  0.00     0.275 C 
BRANCH  25  26
ATOM     26  O   UNL A   1      32.294  30.515  27.031  1.00  0.00    -0.458 OA
BRANCH  26  27
ATOM     27  C   UNL A   1      33.013  31.640  27.265  1.00  0.00     0.338 C 
ATOM     28  O   UNL A   1      32.627  32.789  27.149  1.00  0.00    -0.246 OA
BRANCH  27  29
ATOM     29  C   UNL A   1      34.372  31.283  27.736  1.00  0.00     0.060 A 
ATOM     30  C   UNL A   1      34.703  29.959  28.012  1.00  0.00     0.016 A 
ATOM     31  C   UNL A   1      35.293  32.290  28.023  1.00  0.00     0.016 A 
ATOM     32  C   UNL A   1      35.888  29.654  28.689  1.00  0.00     0.010 A 
ATOM     33  C   UNL A   1      36.532  31.965  28.597  1.00  0.00     0.010 A 
ATOM     34  C   UNL A   1      36.831  30.648  28.994  1.00  0.00    -0.014 A 
BRANCH  34  35
ATOM     35  C   UNL A   1      38.074  30.346  29.780  1.00  0.00     0.031 A 
ATOM     36  C   UNL A   1      39.173  29.497  29.177  1.00  0.00     0.074 A 
ATOM     37  C   UNL A   1      38.269  30.827  31.027  1.00  0.00     0.049 A 
ATOM     38  N   UNL A   1      40.185  28.901  29.762  1.00  0.00    -0.248 NA
ATOM     39  C   UNL A   1      39.120  29.278  27.724  1.00  0.00     0.031 C 
ATOM     40  C   UNL A   1      37.366  31.721  31.752  1.00  0.00     0.029 A 
ATOM     41  N   UNL A   1      39.309  30.632  31.909  1.00  0.00    -0.354 N 
ATOM     42  C   UNL A   1      40.836  28.183  28.765  1.00  0.00     0.074 A 
ATOM     43  C   UNL A   1      40.120  28.429  27.532  1.00  0.00     0.031 C 
ATOM     44  C   UNL A   1      37.914  32.043  32.932  1.00  0.00     0.029 A 
ATOM     45  C   UNL A   1      39.150  31.287  33.107  1.00  0.00     0.049 A 
ATOM     46  H   UNL A   1      40.095  30.075  31.702  1.00  0.00     0.167 HD
ATOM     47  C   UNL A   1      41.925  27.382  28.865  1.00  0.00     0.037 A 
ATOM     48  C   UNL A   1      39.869  31.244  34.246  1.00  0.00     0.037 A 
ATOM     49  C   UNL A   1      42.693  27.186  30.067  1.00  0.00     0.049 A 
ATOM     50  C   UNL A   1      41.047  30.317  34.355  1.00  0.00     0.074 A 
ATOM     51  C   UNL A   1      43.806  26.384  30.261  1.00  0.00     0.029 A 
ATOM     52  N   UNL A   1      42.449  27.824  31.272  1.00  0.00    -0.354 N 
ATOM     53  N   UNL A   1      41.569  29.534  33.444  1.00  0.00    -0.248 NA
ATOM     54  C   UNL A   1      41.706  30.235  35.667  1.00  0.00     0.031 C 
ATOM     55  C   UNL A   1      44.222  26.520  31.590  1.00  0.00     0.029 A 
ATOM     56  C   UNL A   1      43.387  27.432  32.213  1.00  0.00     0.049 A 
ATOM     57  H   UNL A   1      41.716  28.462  31.434  1.00  0.00     0.167 HD
ATOM     58  C   UNL A   1      42.607  28.862  34.073  1.00  0.00     0.074 A 
ATOM     59  C   UNL A   1      42.664  29.349  35.434  1.00  0.00     0.031 C 
ATOM     60  C   UNL A   1      43.431  27.913  33.567  1.00  0.00     0.037 A 
BRANCH  47  61
ATOM     61  C   UNL A   1      42.344  26.615  27.646  1.00  0.00     0.064 A 
ATOM     62  C   UNL A   1      43.342  27.082  26.783  1.00  0.00     0.173 A 
ATOM     63  C   UNL A   1      41.777  25.358  27.382  1.00  0.00     0.173 A 
ATOM     64  F   UNL A   1      43.904  28.284  26.985  1.00  0.00    -0.203 F 
ATOM     65  C   UNL A   1      43.754  26.321  25.690  1.00  0.00     0.198 A 
ATOM     66  C   UNL A   1      42.207  24.591  26.304  1.00  0.00     0.198 A 
ATOM     67  F   UNL A   1      40.823  24.865  28.184  1.00  0.00    -0.203 F 
ATOM     68  F   UNL A   1      44.693  26.797  24.860  1.00  0.00    -0.200 F 
ATOM     69  C   UNL A   1      43.193  25.074  25.457  1.00  0.00     0.200 A 
ATOM     70  F   UNL A   1      41.672  23.380  26.088  1.00  0.00    -0.200 F 
ATOM     71  F   UNL A   1      43.601  24.337  24.414  1.00  0.00    -0.200 F 
ENDBRANCH  47  61
BRANCH  48  72
ATOM     72  C   UNL A   1      39.443  32.057  35.415  1.00  0.00     0.064 A 
ATOM     73  C   UNL A   1      39.910  33.367  35.591  1.00  0.00     0.173 A 
ATOM     74  C   UNL A   1      38.557  31.544  36.375  1.00  0.00     0.173 A 
ATOM     75  F   UNL A   1      40.788  33.887  34.721  1.00  0.00    -0.203 F 
ATOM     76  C   UNL A   1      39.502  34.133  36.680  1.00  0.00     0.198 A 
ATOM     77  C   UNL A   1      38.126  32.322  37.445  1.00  0.00     0.198 A 
ATOM     78  F   UNL A   1      38.092  30.292  36.258  1.00  0.00    -0.203 F 
ATOM     79  F   UNL A   1      39.988  35.372  36.845  1.00  0.00    -0.200 F 
ATOM     80  C   UNL A   1      38.601  33.616  37.600  1.00  0.00     0.200 A 
ATOM     81  F   UNL A   1      37.248  31.821  38.324  1.00  0.00    -0.200 F 
ATOM     82  F   UNL A   1      38.197  34.359  38.638  1.00  0.00    -0.200 F 
ENDBRANCH  48  72
BRANCH  60  83
ATOM     83  C   UNL A   1      44.467  27.343  34.487  1.00  0.00     0.064 A 
ATOM     84  C   UNL A   1      44.232  26.163  35.205  1.00  0.00     0.173 A 
ATOM     85  C   UNL A   1      45.714  27.969  34.633  1.00  0.00     0.173 A 
ATOM     86  F   UNL A   1      43.048  25.539  35.109  1.00  0.00    -0.203 F 
ATOM     87  C   UNL A   1      45.202  25.639  36.055  1.00  0.00     0.198 A 
ATOM     88  C   UNL A   1      46.689  27.431  35.469  1.00  0.00     0.198 A 
ATOM     89  F   UNL A   1      45.987  29.098  33.964  1.00  0.00    -0.203 F 
ATOM     90  F   UNL A   1      44.944  24.530  36.762  1.00  0.00    -0.200 F 
ATOM     91  C   UNL A   1      46.430  26.270  36.183  1.00  0.00     0.200 A 
ATOM     92  F   UNL A   1      47.878  28.039  35.588  1.00  0.00    -0.200 F 
ATOM     93  F   UNL A   1      47.363  25.765  37.002  1.00  0.00    -0.200 F 
ENDBRANCH  60  83
ENDBRANCH  34  35
ENDBRANCH  27  29
ENDBRANCH  26  27
ENDBRANCH  25  26
ENDBRANCH   1  25
TORSDOF 16
ENDMDL
MODEL 2
REMARK VINA RESULT:     -11.5      0.407      1.704
REMARK SMILES CCC[C@@]1(C(=O)N[C@@](C)(C(=O)OCCOC(=O)c2ccc(-c3c4nc(c(-c5c(F)c(F)c(F)c(F)c5F)c5ccc([nH]5)c(-c5c(F)c(F)c(F)c(F)c5F)c5nc(c(-c6c(F)c(F)c(F)c(F)c6F)c6ccc3[nH]6)C=C5)C=C4)cc2)C(F)(F)F)CC[NH2+]C1
REMARK SMILES IDX 13 1 12 2 10 3 11 4 8 5 9 6 7 7 5 8 6 9 4 11 85 12 88 13
REMARK SMILES IDX 86 14 87 15 3 18 2 19 1 20 81 21 82 22 83 23 84 24 14 25
REMARK SMILES IDX 15 26 16 27 17 28 18 29 19 30 80 31 20 32 79 33 21 34 22 35
REMARK SMILES IDX 23 36 73 37 24 38 78 39 72 40 74 41 25 42 77 43 71 44 70 45
REMARK SMILES IDX 26 47 58 48 38 49 57 50 39 51 42 52 56 53 75 54 40 55 41 56
REMARK SMILES IDX 55 58 76 59 43 60 27 61 28 62 36 63 29 64 30 65 34 66 37 67
REMARK SMILES IDX 31 68 32 69 35 70 33 71 59 72 60 73 68 74 61 75 62 76 66 77
REMARK SMILES IDX 69 78 63 79 64 80 67 81 65 82 44 83 45 84 53 85 46 86 47 87
REMARK SMILES IDX 51 88 54 89 48 90 49 91 52 92 50 93
REMARK H PARENT 7 10 87 16 87 17 74 46 42 57
REMARK Flexibility Score: inf
ROOT
ATOM      1  C   UNL A   1      31.202  29.170  24.685  1.00  0.00     0.274 C 
ENDROOT
BRANCH   1   2
ATOM      2  O   UNL A   1      31.150  27.800  25.135  1.00  0.00    -0.460 OA
BRANCH   2   3
ATOM      3  C   UNL A   1      30.803  26.851  24.213  1.00  0.00     0.341 C 
ATOM      4  O   UNL A   1      29.802  26.914  23.515  1.00  0.00    -0.249 OA
BRANCH   3   5
ATOM      5  C   UNL A   1      31.781  25.663  24.245  1.00  0.00     0.231 C 
ATOM      6  C   UNL A   1      31.030  24.456  23.662  1.00  0.00     0.058 C 
BRANCH   5   7
ATOM      7  N   UNL A   1      32.108  25.370  25.702  1.00  0.00    -0.332 N 
ATOM      8  C   UNL A   1      32.397  24.238  26.394  1.00  0.00     0.233 C 
ATOM      9  O   UNL A   1      31.595  23.959  27.294  1.00  0.00    -0.274 OA
ATOM     10  H   UNL A   1      32.112  26.177  26.264  1.00  0.00     0.164 HD
BRANCH   8  11
ATOM     11  C   UNL A   1      33.694  23.418  26.236  1.00  0.00     0.103 C 
ATOM     12  C   UNL A   1      33.385  22.295  25.175  1.00  0.00     0.084 C 
ATOM     13  C   UNL A   1      34.070  22.554  27.451  1.00  0.00     0.277 C 
ATOM     14  C   UNL A   1      33.161  21.033  25.975  1.00  0.00     0.261 C 
ATOM     15  N   UNL A   1      34.184  21.154  27.010  1.00  0.00    -0.345 N 
ATOM     16  H   UNL A   1      35.112  20.968  26.627  1.00  0.00     0.346 HD
ATOM     17  H   UNL A   1      34.059  20.487  27.771  1.00  0.00     0.346 HD
BRANCH  11  18
ATOM     18  C   UNL A   1      34.869  24.254  25.645  1.00  0.00     0.023 C 
BRANCH  18  19
ATOM     19  C   UNL A   1      36.310  23.745  25.777  1.00  0.00    -0.002 C 
ATOM     20  C   UNL A   1      36.902  23.116  24.524  1.00  0.00     0.004 C 
ENDBRANCH  18  19
ENDBRANCH  11  18
ENDBRANCH   8  11
ENDBRANCH   5   7
BRANCH   5  21
ATOM     21  C   UNL A   1      32.901  26.076  23.286  1.00  0.00     0.422 C 
ATOM     22  F   UNL A   1      32.474  26.868  22.284  1.00  0.00    -0.168 F 
ATOM     23  F   UNL A   1      33.859  26.766  23.937  1.00  0.00    -0.168 F 
ATOM     24  F   UNL A   1      33.524  25.018  22.718  1.00  0.00    -0.168 F 
ENDBRANCH   5  21
ENDBRANCH   3   5
ENDBRANCH   2   3
ENDBRANCH   1   2
BRANCH   1  25
ATOM     25  C   UNL A   1      32.516  29.783  25.164  1.00  0.00     0.275 C 
BRANCH  25  26
ATOM     26  O   UNL A   1      32.403  30.028  26.579  1.00  0.00    -0.458 OA
BRANCH  26  27
ATOM     27  C   UNL A   1      32.961  31.178  27.030  1.00  0.00     0.338 C 
ATOM     28  O   UNL A   1      32.435  32.275  27.073  1.00  0.00    -0.246 OA
BRANCH  27  29
ATOM     29  C   UNL A   1      34.335  30.915  27.522  1.00  0.00     0.060 A 
ATOM     30  C   UNL A   1      34.769  29.613  27.752  1.00  0.00     0.016 A 
ATOM     31  C   UNL A   1      35.160  31.982  27.874  1.00  0.00     0.016 A 
ATOM     32  C   UNL A   1      35.961  29.379  28.447  1.00  0.00     0.010 A 
ATOM     33  C   UNL A   1      36.409  31.738  28.466  1.00  0.00     0.010 A 
ATOM     34  C   UNL A   1      36.809  30.434  28.816  1.00  0.00    -0.014 A 
BRANCH  34  35
ATOM     35  C   UNL A   1      38.055  30.203  29.622  1.00  0.00     0.031 A 
ATOM     36  C   UNL A   1      39.196  29.390  29.049  1.00  0.00     0.074 A 
ATOM     37  C   UNL A   1      38.215  30.719  30.860  1.00  0.00     0.049 A 
ATOM     38  N   UNL A   1      40.227  28.851  29.658  1.00  0.00    -0.248 NA
ATOM     39  C   UNL A   1      39.170  29.138  27.601  1.00  0.00     0.031 C 
ATOM     40  C   UNL A   1      37.266  31.588  31.556  1.00  0.00     0.029 A 
ATOM     41  N   UNL A   1      39.253  30.588  31.757  1.00  0.00    -0.354 N 
ATOM     42  C   UNL A   1      40.919  28.140  28.683  1.00  0.00     0.074 A 
ATOM     43  C   UNL A   1      40.207  28.329  27.438  1.00  0.00     0.031 C 
ATOM     44  C   UNL A   1      37.786  31.959  32.734  1.00  0.00     0.029 A 
ATOM     45  C   UNL A   1      39.051  31.261  32.939  1.00  0.00     0.049 A 
ATOM     46  H   UNL A   1      40.064  30.062  31.570  1.00  0.00     0.167 HD
ATOM     47  C   UNL A   1      42.040  27.390  28.813  1.00  0.00     0.037 A 
ATOM     48  C   UNL A   1      39.758  31.274  34.086  1.00  0.00     0.037 A 
ATOM     49  C   UNL A   1      42.803  27.254  30.026  1.00  0.00     0.049 A 
ATOM     50  C   UNL A   1      40.974  30.401  34.227  1.00  0.00     0.074 A 
ATOM     51  C   UNL A   1      43.947  26.505  30.249  1.00  0.00     0.029 A 
ATOM     52  N   UNL A   1      42.517  27.906  31.214  1.00  0.00    -0.354 N 
ATOM     53  N   UNL A   1      41.540  29.623  33.339  1.00  0.00    -0.248 NA
ATOM     54  C   UNL A   1      41.621  30.376  35.547  1.00  0.00     0.031 C 
ATOM     55  C   UNL A   1      44.341  26.687  31.579  1.00  0.00     0.029 A 
ATOM     56  C   UNL A   1      43.461  27.575  32.173  1.00  0.00     0.049 A 
ATOM     57  H   UNL A   1      41.756  28.515  31.355  1.00  0.00     0.167 HD
ATOM     58  C   UNL A   1      42.599  29.010  33.993  1.00  0.00     0.074 A 
ATOM     59  C   UNL A   1      42.619  29.527  35.344  1.00  0.00     0.031 C 
ATOM     60  C   UNL A   1      43.469  28.086  33.517  1.00  0.00     0.037 A 
BRANCH  47  61
ATOM     61  C   UNL A   1      42.505  26.616  27.615  1.00  0.00     0.064 A 
ATOM     62  C   UNL A   1      43.502  27.102  26.759  1.00  0.00     0.173 A 
ATOM     63  C   UNL A   1      41.988  25.336  27.365  1.00  0.00     0.173 A 
ATOM     64  F   UNL A   1      44.018  28.326  26.948  1.00  0.00    -0.203 F 
ATOM     65  C   UNL A   1      43.957  26.336  25.687  1.00  0.00     0.198 A 
ATOM     66  C   UNL A   1      42.462  24.564  26.309  1.00  0.00     0.198 A 
ATOM     67  F   UNL A   1      41.037  24.824  28.162  1.00  0.00    -0.203 F 
ATOM     68  F   UNL A   1      44.892  26.829  24.864  1.00  0.00    -0.200 F 
ATOM     69  C   UNL A   1      43.444  25.066  25.469  1.00  0.00     0.200 A 
ATOM     70  F   UNL A   1      41.973  23.332  26.107  1.00  0.00    -0.200 F 
ATOM     71  F   UNL A   1      43.895  24.325  24.446  1.00  0.00    -0.200 F 
ENDBRANCH  47  61
BRANCH  48  72
ATOM     72  C   UNL A   1      39.285  32.093  35.233  1.00  0.00     0.064 A 
ATOM     73  C   UNL A   1      38.484  31.532  36.236  1.00  0.00     0.173 A 
ATOM     74  C   UNL A   1      39.628  33.448  35.349  1.00  0.00     0.173 A 
ATOM     75  F   UNL A   1      38.098  30.251  36.149  1.00  0.00    -0.203 F 
ATOM     76  C   UNL A   1      38.049  32.296  37.317  1.00  0.00     0.198 A 
ATOM     77  C   UNL A   1      39.219  34.202  36.445  1.00  0.00     0.198 A 
ATOM     78  F   UNL A   1      40.381  34.034  34.408  1.00  0.00    -0.203 F 
ATOM     79  F   UNL A   1      37.256  31.747  38.248  1.00  0.00    -0.200 F 
ATOM     80  C   UNL A   1      38.426  33.627  37.428  1.00  0.00     0.200 A 
ATOM     81  F   UNL A   1      39.595  35.483  36.553  1.00  0.00    -0.200 F 
ATOM     82  F   UNL A   1      38.022  34.357  38.475  1.00  0.00    -0.200 F 
ENDBRANCH  48  72
BRANCH  60  83
ATOM     83  C   UNL A   1      44.518  27.582  34.459  1.00  0.00     0.064 A 
ATOM     84  C   UNL A   1      45.719  28.279  34.650  1.00  0.00     0.173 A 
ATOM     85  C   UNL A   1      44.312  26.406  35.195  1.00  0.00     0.173 A 
ATOM     86  F   UNL A   1      45.967  29.400  33.956  1.00  0.00    -0.203 F 
ATOM     87  C   UNL A   1      46.688  27.805  35.531  1.00  0.00     0.198 A 
ATOM     88  C   UNL A   1      45.275  25.945  36.090  1.00  0.00     0.198 A 
ATOM     89  F   UNL A   1      43.177  25.707  35.049  1.00  0.00    -0.203 F 
ATOM     90  F   UNL A   1      47.845  28.466  35.671  1.00  0.00    -0.200 F 
ATOM     91  C   UNL A   1      46.463  26.642  36.252  1.00  0.00     0.200 A 
ATOM     92  F   UNL A   1      45.055  24.825  36.790  1.00  0.00    -0.200 F 
ATOM     93  F   UNL A   1      47.397  26.186  37.099  1.00  0.00    -0.200 F 
ENDBRANCH  60  83
ENDBRANCH  34  35
ENDBRANCH  27  29
ENDBRANCH  26  27
ENDBRANCH  25  26
ENDBRANCH   1  25
TORSDOF 16
ENDMDL
MODEL 3
REMARK VINA RESULT:     -11.3      4.267      9.606
REMARK SMILES CCC[C@@]1(C(=O)N[C@@](C)(C(=O)OCCOC(=O)c2ccc(-c3c4nc(c(-c5c(F)c(F)c(F)c(F)c5F)c5ccc([nH]5)c(-c5c(F)c(F)c(F)c(F)c5F)c5nc(c(-c6c(F)c(F)c(F)c(F)c6F)c6ccc3[nH]6)C=C5)C=C4)cc2)C(F)(F)F)CC[NH2+]C1
REMARK SMILES IDX 13 1 12 2 10 3 11 4 8 5 9 6 7 7 5 8 6 9 4 11 85 12 88 13
REMARK SMILES IDX 86 14 87 15 3 18 2 19 1 20 81 21 82 22 83 23 84 24 14 25
REMARK SMILES IDX 15 26 16 27 17 28 18 29 19 30 80 31 20 32 79 33 21 34 22 35
REMARK SMILES IDX 23 36 73 37 24 38 78 39 72 40 74 41 25 42 77 43 71 44 70 45
REMARK SMILES IDX 26 47 58 48 38 49 57 50 39 51 42 52 56 53 75 54 40 55 41 56
REMARK SMILES IDX 55 58 76 59 43 60 27 61 28 62 36 63 29 64 30 65 34 66 37 67
REMARK SMILES IDX 31 68 32 69 35 70 33 71 59 72 60 73 68 74 61 75 62 76 66 77
REMARK SMILES IDX 69 78 63 79 64 80 67 81 65 82 44 83 45 84 53 85 46 86 47 87
REMARK SMILES IDX 51 88 54 89 48 90 49 91 52 92 50 93
REMARK H PARENT 7 10 87 16 87 17 74 46 42 57
REMARK Flexibility Score: inf
ROOT
ATOM      1  C   UNL A   1      35.121  21.028  24.707  1.00  0.00     0.274 C 
ENDROOT
BRANCH   1   2
ATOM      2  O   UNL A   1      34.647  22.259  24.123  1.00  0.00    -0.460 OA
BRANCH   2   3
ATOM      3  C   UNL A   1      33.309  22.350  23.854  1.00  0.00     0.341 C 
ATOM      4  O   UNL A   1      32.638  21.425  23.418  1.00  0.00    -0.249 OA
BRANCH   3   5
ATOM      5  C   UNL A   1      32.795  23.783  24.075  1.00  0.00     0.231 C 
ATOM      6  C   UNL A   1      31.364  23.831  23.518  1.00  0.00     0.058 C 
BRANCH   5   7
ATOM      7  N   UNL A   1      33.665  24.721  23.253  1.00  0.00    -0.332 N 
ATOM      8  C   UNL A   1      33.444  25.906  22.627  1.00  0.00     0.233 C 
ATOM      9  O   UNL A   1      33.607  25.886  21.401  1.00  0.00    -0.274 OA
ATOM     10  H   UNL A   1      34.590  24.400  23.154  1.00  0.00     0.164 HD
BRANCH   8  11
ATOM     11  C   UNL A   1      33.180  27.245  23.348  1.00  0.00     0.103 C 
ATOM     12  C   UNL A   1      31.633  27.297  23.637  1.00  0.00     0.084 C 
ATOM     13  C   UNL A   1      33.339  28.498  22.470  1.00  0.00     0.277 C 
ATOM     14  C   UNL A   1      31.054  28.212  22.583  1.00  0.00     0.261 C 
ATOM     15  N   UNL A   1      32.075  29.252  22.502  1.00  0.00    -0.345 N 
ATOM     16  H   UNL A   1      32.037  29.863  23.318  1.00  0.00     0.346 HD
ATOM     17  H   UNL A   1      31.957  29.861  21.693  1.00  0.00     0.346 HD
BRANCH  11  18
ATOM     18  C   UNL A   1      33.879  27.332  24.738  1.00  0.00     0.023 C 
BRANCH  18  19
ATOM     19  C   UNL A   1      33.085  27.799  25.964  1.00  0.00    -0.002 C 
ATOM     20  C   UNL A   1      33.857  28.653  26.959  1.00  0.00     0.004 C 
ENDBRANCH  18  19
ENDBRANCH  11  18
ENDBRANCH   8  11
ENDBRANCH   5   7
BRANCH   5  21
ATOM     21  C   UNL A   1      32.751  23.932  25.599  1.00  0.00     0.422 C 
ATOM     22  F   UNL A   1      31.791  24.777  26.020  1.00  0.00    -0.168 F 
ATOM     23  F   UNL A   1      32.503  22.745  26.189  1.00  0.00    -0.168 F 
ATOM     24  F   UNL A   1      33.921  24.369  26.118  1.00  0.00    -0.168 F 
ENDBRANCH   5  21
ENDBRANCH   3   5
ENDBRANCH   2   3
ENDBRANCH   1   2
BRANCH   1  25
ATOM     25  C   UNL A   1      36.172  21.370  25.761  1.00  0.00     0.275 C 
BRANCH  25  26
ATOM     26  O   UNL A   1      37.405  21.668  25.079  1.00  0.00    -0.458 OA
BRANCH  26  27
ATOM     27  C   UNL A   1      38.544  21.324  25.730  1.00  0.00     0.338 C 
ATOM     28  O   UNL A   1      39.061  20.222  25.760  1.00  0.00    -0.246 OA
BRANCH  27  29
ATOM     29  C   UNL A   1      39.124  22.514  26.397  1.00  0.00     0.060 A 
ATOM     30  C   UNL A   1      38.620  23.786  26.144  1.00  0.00     0.016 A 
ATOM     31  C   UNL A   1      40.263  22.377  27.189  1.00  0.00     0.016 A 
ATOM     32  C   UNL A   1      39.320  24.920  26.569  1.00  0.00     0.010 A 
ATOM     33  C   UNL A   1      40.896  23.516  27.712  1.00  0.00     0.010 A 
ATOM     34  C   UNL A   1      40.470  24.812  27.365  1.00  0.00    -0.014 A 
BRANCH  34  35
ATOM     35  C   UNL A   1      41.269  26.017  27.770  1.00  0.00     0.031 A 
ATOM     36  C   UNL A   1      40.653  27.081  28.654  1.00  0.00     0.074 A 
ATOM     37  C   UNL A   1      42.553  26.189  27.388  1.00  0.00     0.049 A 
ATOM     38  N   UNL A   1      41.060  28.305  28.897  1.00  0.00    -0.248 NA
ATOM     39  C   UNL A   1      39.406  26.727  29.348  1.00  0.00     0.031 C 
ATOM     40  C   UNL A   1      43.346  25.245  26.601  1.00  0.00     0.029 A 
ATOM     41  N   UNL A   1      43.425  27.229  27.622  1.00  0.00    -0.354 N 
ATOM     42  C   UNL A   1      40.084  28.881  29.703  1.00  0.00     0.074 A 
ATOM     43  C   UNL A   1      39.073  27.871  29.927  1.00  0.00     0.031 C 
ATOM     44  C   UNL A   1      44.595  25.716  26.470  1.00  0.00     0.029 A 
ATOM     45  C   UNL A   1      44.665  27.051  27.056  1.00  0.00     0.049 A 
ATOM     46  H   UNL A   1      43.184  28.027  28.147  1.00  0.00     0.167 HD
ATOM     47  C   UNL A   1      40.028  30.139  30.204  1.00  0.00     0.037 A 
ATOM     48  C   UNL A   1      45.724  27.879  26.955  1.00  0.00     0.037 A 
ATOM     49  C   UNL A   1      41.061  31.131  30.054  1.00  0.00     0.049 A 
ATOM     50  C   UNL A   1      45.628  29.285  27.477  1.00  0.00     0.074 A 
ATOM     51  C   UNL A   1      41.083  32.435  30.521  1.00  0.00     0.029 A 
ATOM     52  N   UNL A   1      42.271  30.917  29.414  1.00  0.00    -0.354 N 
ATOM     53  N   UNL A   1      44.642  29.864  28.115  1.00  0.00    -0.248 NA
ATOM     54  C   UNL A   1      46.777  30.165  27.221  1.00  0.00     0.031 C 
ATOM     55  C   UNL A   1      42.298  33.019  30.144  1.00  0.00     0.029 A 
ATOM     56  C   UNL A   1      43.044  32.066  29.471  1.00  0.00     0.049 A 
ATOM     57  H   UNL A   1      42.541  30.074  28.982  1.00  0.00     0.167 HD
ATOM     58  C   UNL A   1      45.047  31.174  28.328  1.00  0.00     0.074 A 
ATOM     59  C   UNL A   1      46.379  31.300  27.779  1.00  0.00     0.031 C 
ATOM     60  C   UNL A   1      44.364  32.187  28.914  1.00  0.00     0.037 A 
BRANCH  47  61
ATOM     61  C   UNL A   1      38.786  30.543  30.941  1.00  0.00     0.064 A 
ATOM     62  C   UNL A   1      38.703  30.495  32.338  1.00  0.00     0.173 A 
ATOM     63  C   UNL A   1      37.687  31.051  30.232  1.00  0.00     0.173 A 
ATOM     64  F   UNL A   1      39.723  30.005  33.060  1.00  0.00    -0.203 F 
ATOM     65  C   UNL A   1      37.558  30.933  33.001  1.00  0.00     0.198 A 
ATOM     66  C   UNL A   1      36.554  31.509  30.898  1.00  0.00     0.198 A 
ATOM     67  F   UNL A   1      37.721  31.124  28.893  1.00  0.00    -0.203 F 
ATOM     68  F   UNL A   1      37.488  30.855  34.336  1.00  0.00    -0.200 F 
ATOM     69  C   UNL A   1      36.489  31.448  32.282  1.00  0.00     0.200 A 
ATOM     70  F   UNL A   1      35.527  32.018  30.201  1.00  0.00    -0.200 F 
ATOM     71  F   UNL A   1      35.394  31.882  32.922  1.00  0.00    -0.200 F 
ENDBRANCH  47  61
BRANCH  48  72
ATOM     72  C   UNL A   1      46.952  27.419  26.256  1.00  0.00     0.064 A 
ATOM     73  C   UNL A   1      47.996  26.807  26.963  1.00  0.00     0.173 A 
ATOM     74  C   UNL A   1      47.103  27.577  24.870  1.00  0.00     0.173 A 
ATOM     75  F   UNL A   1      47.914  26.669  28.294  1.00  0.00    -0.203 F 
ATOM     76  C   UNL A   1      49.143  26.365  26.306  1.00  0.00     0.198 A 
ATOM     77  C   UNL A   1      48.236  27.107  24.212  1.00  0.00     0.198 A 
ATOM     78  F   UNL A   1      46.138  28.168  24.153  1.00  0.00    -0.203 F 
ATOM     79  F   UNL A   1      50.143  25.812  27.007  1.00  0.00    -0.200 F 
ATOM     80  C   UNL A   1      49.257  26.504  24.931  1.00  0.00     0.200 A 
ATOM     81  F   UNL A   1      48.336  27.233  22.882  1.00  0.00    -0.200 F 
ATOM     82  F   UNL A   1      50.353  26.064  24.298  1.00  0.00    -0.200 F 
ENDBRANCH  48  72
BRANCH  60  83
ATOM     83  C   UNL A   1      45.048  33.517  28.999  1.00  0.00     0.064 A 
ATOM     84  C   UNL A   1      44.865  34.493  28.009  1.00  0.00     0.173 A 
ATOM     85  C   UNL A   1      45.874  33.827  30.088  1.00  0.00     0.173 A 
ATOM     86  F   UNL A   1      44.097  34.234  26.940  1.00  0.00    -0.203 F 
ATOM     87  C   UNL A   1      45.502  35.727  28.097  1.00  0.00     0.198 A 
ATOM     88  C   UNL A   1      46.495  35.071  30.183  1.00  0.00     0.198 A 
ATOM     89  F   UNL A   1      46.078  32.928  31.061  1.00  0.00    -0.203 F 
ATOM     90  F   UNL A   1      45.345  36.632  27.121  1.00  0.00    -0.200 F 
ATOM     91  C   UNL A   1      46.313  36.017  29.185  1.00  0.00     0.200 A 
ATOM     92  F   UNL A   1      47.273  35.352  31.237  1.00  0.00    -0.200 F 
ATOM     93  F   UNL A   1      46.926  37.206  29.267  1.00  0.00    -0.200 F 
ENDBRANCH  60  83
ENDBRANCH  34  35
ENDBRANCH  27  29
ENDBRANCH  26  27
ENDBRANCH  25  26
ENDBRANCH   1  25
TORSDOF 16
ENDMDL
