MODEL 1
REMARK VINA RESULT:     -13.2      0.000      0.000
REMARK SMILES Cc1cccc(C(=O)OCCOC(=O)c2ccc(-c3c4nc(c(-c5c(F)c(F)c(F)c(F)c5F)c5ccc([nH]5)c(-c5c(F)c(F)c(F)c(F)c5F)c5nc(c(-c6c(F)c(F)c(F)c(F)c6F)c6ccc3[nH]6)C=C5)C=C4)cc2)c1NC(=O)Cc1ccccc1
REMARK SMILES IDX 10 1 9 2 7 3 8 4 6 5 1 6 2 7 3 8 78 9 4 10 5 11 79 12 80 13
REMARK SMILES IDX 81 15 82 16 83 17 84 18 88 19 85 20 87 21 86 22 11 23 12 24
REMARK SMILES IDX 13 25 14 26 15 27 16 28 77 29 17 30 76 31 18 32 19 33 20 34
REMARK SMILES IDX 70 35 21 36 75 37 69 38 71 39 22 40 74 41 68 42 67 43 23 45
REMARK SMILES IDX 55 46 35 47 54 48 36 49 39 50 53 51 72 52 37 53 38 54 52 56
REMARK SMILES IDX 73 57 40 58 24 59 25 60 33 61 26 62 27 63 31 64 34 65 28 66
REMARK SMILES IDX 29 67 32 68 30 69 56 70 57 71 65 72 58 73 59 74 63 75 66 76
REMARK SMILES IDX 60 77 61 78 64 79 62 80 41 81 42 82 50 83 43 84 44 85 48 86
REMARK SMILES IDX 51 87 45 88 46 89 49 90 47 91
REMARK H PARENT 79 14 71 44 39 55
REMARK Flexibility Score: inf
ROOT
ATOM      1  C   UNL A   1      33.221  30.693  26.925  1.00  0.00     0.275 C 
ENDROOT
BRANCH   1   2
ATOM      2  O   UNL A   1      33.291  29.400  27.543  1.00  0.00    -0.458 OA
BRANCH   2   3
ATOM      3  C   UNL A   1      32.374  28.336  27.019  1.00  0.00     0.340 C 
ATOM      4  O   UNL A   1      31.444  28.461  27.861  1.00  0.00    -0.246 OA
BRANCH   3   5
ATOM      5  C   UNL A   1      32.739  27.090  25.290  1.00  0.00     0.083 A 
ATOM      6  C   UNL A   1      32.625  23.418  23.253  1.00  0.00     0.046 C 
ATOM      7  C   UNL A   1      32.937  24.817  23.769  1.00  0.00    -0.027 A 
ATOM      8  C   UNL A   1      33.549  25.535  22.722  1.00  0.00     0.005 A 
ATOM      9  C   UNL A   1      32.609  25.426  25.083  1.00  0.00     0.058 A 
ATOM     10  C   UNL A   1      33.677  26.882  22.772  1.00  0.00     0.001 A 
ATOM     11  C   UNL A   1      33.231  27.569  23.902  1.00  0.00     0.018 A 
BRANCH   9  12
ATOM     12  N   UNL A   1      32.105  24.274  26.042  1.00  0.00    -0.325 N 
ATOM     13  C   UNL A   1      32.357  23.136  26.851  1.00  0.00     0.228 C 
ATOM     14  H   UNL A   1      31.133  24.416  26.111  1.00  0.00     0.169 HD
ATOM     15  O   UNL A   1      31.416  22.875  27.622  1.00  0.00    -0.274 OA
BRANCH  13  16
ATOM     16  C   UNL A   1      33.532  22.116  26.798  1.00  0.00     0.135 C 
BRANCH  16  17
ATOM     17  C   UNL A   1      34.853  22.185  26.025  1.00  0.00    -0.039 A 
ATOM     18  C   UNL A   1      35.540  23.430  26.121  1.00  0.00     0.004 A 
ATOM     19  C   UNL A   1      35.456  21.209  25.247  1.00  0.00     0.004 A 
ATOM     20  C   UNL A   1      36.813  23.658  25.600  1.00  0.00     0.000 A 
ATOM     21  C   UNL A   1      36.721  21.456  24.661  1.00  0.00     0.000 A 
ATOM     22  C   UNL A   1      37.412  22.657  24.863  1.00  0.00     0.000 A 
ENDBRANCH  16  17
ENDBRANCH  13  16
ENDBRANCH   9  12
ENDBRANCH   3   5
ENDBRANCH   2   3
ENDBRANCH   1   2
BRANCH   1  23
ATOM     23  C   UNL A   1      33.674  31.720  27.964  1.00  0.00     0.275 C 
BRANCH  23  24
ATOM     24  O   UNL A   1      35.061  32.153  27.814  1.00  0.00    -0.458 OA
BRANCH  24  25
ATOM     25  C   UNL A   1      36.067  31.791  28.669  1.00  0.00     0.338 C 
ATOM     26  O   UNL A   1      36.796  32.578  29.245  1.00  0.00    -0.246 OA
BRANCH  25  27
ATOM     27  C   UNL A   1      36.351  30.337  28.685  1.00  0.00     0.060 A 
ATOM     28  C   UNL A   1      36.675  29.565  30.269  1.00  0.00     0.016 A 
ATOM     29  C   UNL A   1      37.269  29.811  27.253  1.00  0.00     0.016 A 
ATOM     30  C   UNL A   1      37.991  28.284  30.432  1.00  0.00     0.010 A 
ATOM     31  C   UNL A   1      38.639  28.544  27.425  1.00  0.00     0.010 A 
ATOM     32  C   UNL A   1      38.980  27.816  29.027  1.00  0.00    -0.014 A 
BRANCH  32  33
ATOM     33  C   UNL A   1      40.371  27.393  29.045  1.00  0.00     0.031 A 
ATOM     34  C   UNL A   1      40.639  26.023  28.605  1.00  0.00     0.074 A 
ATOM     35  C   UNL A   1      41.335  28.346  29.111  1.00  0.00     0.049 A 
ATOM     36  N   UNL A   1      41.770  25.448  28.763  1.00  0.00    -0.248 NA
ATOM     37  C   UNL A   1      39.643  25.140  28.000  1.00  0.00     0.031 C 
ATOM     38  C   UNL A   1      42.753  28.283  28.750  1.00  0.00     0.029 A 
ATOM     39  N   UNL A   1      41.217  29.617  29.679  1.00  0.00    -0.354 N 
ATOM     40  C   UNL A   1      41.748  24.258  28.077  1.00  0.00     0.074 A 
ATOM     41  C   UNL A   1      40.373  24.057  27.718  1.00  0.00     0.031 C 
ATOM     42  C   UNL A   1      43.415  29.272  29.382  1.00  0.00     0.029 A 
ATOM     43  C   UNL A   1      42.461  29.973  30.221  1.00  0.00     0.049 A 
ATOM     44  H   UNL A   1      40.401  30.169  29.696  1.00  0.00     0.167 HD
ATOM     45  C   UNL A   1      42.947  23.669  27.827  1.00  0.00     0.037 A 
ATOM     46  C   UNL A   1      42.552  30.139  31.573  1.00  0.00     0.037 A 
ATOM     47  C   UNL A   1      43.985  24.384  28.575  1.00  0.00     0.049 A 
ATOM     48  C   UNL A   1      43.277  28.965  32.191  1.00  0.00     0.074 A 
ATOM     49  C   UNL A   1      44.887  25.369  28.218  1.00  0.00     0.029 A 
ATOM     50  N   UNL A   1      43.876  24.431  29.964  1.00  0.00    -0.354 N 
ATOM     51  N   UNL A   1      43.401  27.803  31.601  1.00  0.00    -0.248 NA
ATOM     52  C   UNL A   1      44.007  29.030  33.453  1.00  0.00     0.031 C 
ATOM     53  C   UNL A   1      45.234  26.079  29.407  1.00  0.00     0.029 A 
ATOM     54  C   UNL A   1      44.584  25.496  30.486  1.00  0.00     0.049 A 
ATOM     55  H   UNL A   1      43.361  23.788  30.504  1.00  0.00     0.167 HD
ATOM     56  C   UNL A   1      44.236  27.003  32.328  1.00  0.00     0.074 A 
ATOM     57  C   UNL A   1      44.587  27.818  33.479  1.00  0.00     0.031 C 
ATOM     58  C   UNL A   1      44.601  25.746  31.927  1.00  0.00     0.037 A 
BRANCH  45  59
ATOM     59  C   UNL A   1      43.241  22.591  26.812  1.00  0.00     0.064 A 
ATOM     60  C   UNL A   1      42.659  21.315  26.975  1.00  0.00     0.173 A 
ATOM     61  C   UNL A   1      44.147  22.689  25.734  1.00  0.00     0.173 A 
ATOM     62  F   UNL A   1      41.774  21.077  27.952  1.00  0.00    -0.203 F 
ATOM     63  C   UNL A   1      42.976  20.231  26.151  1.00  0.00     0.198 A 
ATOM     64  C   UNL A   1      44.436  21.613  24.888  1.00  0.00     0.198 A 
ATOM     65  F   UNL A   1      44.829  23.806  25.470  1.00  0.00    -0.203 F 
ATOM     66  F   UNL A   1      42.426  19.032  26.389  1.00  0.00    -0.200 F 
ATOM     67  C   UNL A   1      43.861  20.380  25.104  1.00  0.00     0.200 A 
ATOM     68  F   UNL A   1      45.296  21.781  23.873  1.00  0.00    -0.200 F 
ATOM     69  F   UNL A   1      44.164  19.343  24.313  1.00  0.00    -0.200 F 
ENDBRANCH  45  59
BRANCH  46  70
ATOM     70  C   UNL A   1      41.377  30.914  32.086  1.00  0.00     0.064 A 
ATOM     71  C   UNL A   1      40.498  30.197  32.936  1.00  0.00     0.173 A 
ATOM     72  C   UNL A   1      41.357  32.307  32.193  1.00  0.00     0.173 A 
ATOM     73  F   UNL A   1      40.437  28.858  32.849  1.00  0.00    -0.203 F 
ATOM     74  C   UNL A   1      39.812  30.819  33.978  1.00  0.00     0.198 A 
ATOM     75  C   UNL A   1      40.594  32.937  33.192  1.00  0.00     0.198 A 
ATOM     76  F   UNL A   1      42.184  33.059  31.452  1.00  0.00    -0.203 F 
ATOM     77  F   UNL A   1      39.176  30.075  34.897  1.00  0.00    -0.200 F 
ATOM     78  C   UNL A   1      39.877  32.190  34.119  1.00  0.00     0.200 A 
ATOM     79  F   UNL A   1      40.674  34.268  33.351  1.00  0.00    -0.200 F 
ATOM     80  F   UNL A   1      39.318  32.785  35.184  1.00  0.00    -0.200 F 
ENDBRANCH  46  70
BRANCH  58  81
ATOM     81  C   UNL A   1      45.127  24.676  32.861  1.00  0.00     0.064 A 
ATOM     82  C   UNL A   1      44.409  23.517  33.200  1.00  0.00     0.173 A 
ATOM     83  C   UNL A   1      46.455  24.717  33.356  1.00  0.00     0.173 A 
ATOM     84  F   UNL A   1      43.228  23.229  32.638  1.00  0.00    -0.203 F 
ATOM     85  C   UNL A   1      44.908  22.564  34.087  1.00  0.00     0.198 A 
ATOM     86  C   UNL A   1      46.989  23.709  34.156  1.00  0.00     0.198 A 
ATOM     87  F   UNL A   1      47.300  25.712  33.058  1.00  0.00    -0.203 F 
ATOM     88  F   UNL A   1      44.132  21.537  34.458  1.00  0.00    -0.200 F 
ATOM     89  C   UNL A   1      46.201  22.657  34.561  1.00  0.00     0.200 A 
ATOM     90  F   UNL A   1      48.279  23.764  34.517  1.00  0.00    -0.200 F 
ATOM     91  F   UNL A   1      46.692  21.720  35.381  1.00  0.00    -0.200 F 
ENDBRANCH  58  81
ENDBRANCH  32  33
ENDBRANCH  25  27
ENDBRANCH  24  25
ENDBRANCH  23  24
ENDBRANCH   1  23
TORSDOF 14
ENDMDL
MODEL 2
REMARK VINA RESULT:     -13.1      1.083      1.584
REMARK SMILES Cc1cccc(C(=O)OCCOC(=O)c2ccc(-c3c4nc(c(-c5c(F)c(F)c(F)c(F)c5F)c5ccc([nH]5)c(-c5c(F)c(F)c(F)c(F)c5F)c5nc(c(-c6c(F)c(F)c(F)c(F)c6F)c6ccc3[nH]6)C=C5)C=C4)cc2)c1NC(=O)Cc1ccccc1
REMARK SMILES IDX 10 1 9 2 7 3 8 4 6 5 1 6 2 7 3 8 78 9 4 10 5 11 79 12 80 13
REMARK SMILES IDX 81 15 82 16 83 17 84 18 88 19 85 20 87 21 86 22 11 23 12 24
REMARK SMILES IDX 13 25 14 26 15 27 16 28 77 29 17 30 76 31 18 32 19 33 20 34
REMARK SMILES IDX 70 35 21 36 75 37 69 38 71 39 22 40 74 41 68 42 67 43 23 45
REMARK SMILES IDX 55 46 35 47 54 48 36 49 39 50 53 51 72 52 37 53 38 54 52 56
REMARK SMILES IDX 73 57 40 58 24 59 25 60 33 61 26 62 27 63 31 64 34 65 28 66
REMARK SMILES IDX 29 67 32 68 30 69 56 70 57 71 65 72 58 73 59 74 63 75 66 76
REMARK SMILES IDX 60 77 61 78 64 79 62 80 41 81 42 82 50 83 43 84 44 85 48 86
REMARK SMILES IDX 51 87 45 88 46 89 49 90 47 91
REMARK H PARENT 79 14 71 44 39 55
REMARK Flexibility Score: inf
ROOT
ATOM      1  C   UNL A   1      33.797  30.313  27.258  1.00  0.00     0.275 C 
ENDROOT
BRANCH   1   2
ATOM      2  O   UNL A   1      32.447  30.257  26.774  1.00  0.00    -0.458 OA
BRANCH   2   3
ATOM      3  C   UNL A   1      31.783  28.913  26.743  1.00  0.00     0.340 C 
ATOM      4  O   UNL A   1      31.464  28.833  27.959  1.00  0.00    -0.246 OA
BRANCH   3   5
ATOM      5  C   UNL A   1      31.540  27.664  24.993  1.00  0.00     0.083 A 
ATOM      6  C   UNL A   1      30.795  23.978  23.122  1.00  0.00     0.046 C 
ATOM      7  C   UNL A   1      31.236  25.387  23.497  1.00  0.00    -0.027 A 
ATOM      8  C   UNL A   1      31.420  26.111  22.302  1.00  0.00     0.005 A 
ATOM      9  C   UNL A   1      31.383  25.997  24.843  1.00  0.00     0.058 A 
ATOM     10  C   UNL A   1      31.526  27.462  22.306  1.00  0.00     0.001 A 
ATOM     11  C   UNL A   1      31.495  28.145  23.522  1.00  0.00     0.018 A 
BRANCH   9  12
ATOM     12  N   UNL A   1      31.279  24.839  25.916  1.00  0.00    -0.325 N 
ATOM     13  C   UNL A   1      31.816  23.695  26.560  1.00  0.00     0.228 C 
ATOM     14  H   UNL A   1      30.410  24.985  26.354  1.00  0.00     0.169 HD
ATOM     15  O   UNL A   1      31.243  23.432  27.632  1.00  0.00    -0.274 OA
BRANCH  13  16
ATOM     16  C   UNL A   1      32.873  22.670  26.053  1.00  0.00     0.135 C 
BRANCH  16  17
ATOM     17  C   UNL A   1      34.180  22.909  25.290  1.00  0.00    -0.039 A 
ATOM     18  C   UNL A   1      35.274  23.343  26.094  1.00  0.00     0.004 A 
ATOM     19  C   UNL A   1      34.433  22.768  23.934  1.00  0.00     0.004 A 
ATOM     20  C   UNL A   1      36.576  23.494  25.620  1.00  0.00     0.000 A 
ATOM     21  C   UNL A   1      35.739  22.983  23.434  1.00  0.00     0.000 A 
ATOM     22  C   UNL A   1      36.812  23.310  24.273  1.00  0.00     0.000 A 
ENDBRANCH  16  17
ENDBRANCH  13  16
ENDBRANCH   9  12
ENDBRANCH   3   5
ENDBRANCH   2   3
ENDBRANCH   1   2
BRANCH   1  23
ATOM     23  C   UNL A   1      34.080  31.763  27.653  1.00  0.00     0.275 C 
BRANCH  23  24
ATOM     24  O   UNL A   1      34.758  31.912  28.939  1.00  0.00    -0.458 OA
BRANCH  24  25
ATOM     25  C   UNL A   1      36.093  31.668  29.128  1.00  0.00     0.338 C 
ATOM     26  O   UNL A   1      36.944  32.535  29.214  1.00  0.00    -0.246 OA
BRANCH  25  27
ATOM     27  C   UNL A   1      36.467  30.240  29.010  1.00  0.00     0.060 A 
ATOM     28  C   UNL A   1      36.737  29.318  30.522  1.00  0.00     0.016 A 
ATOM     29  C   UNL A   1      37.507  29.928  27.599  1.00  0.00     0.016 A 
ATOM     30  C   UNL A   1      38.119  28.104  30.641  1.00  0.00     0.010 A 
ATOM     31  C   UNL A   1      38.942  28.730  27.732  1.00  0.00     0.010 A 
ATOM     32  C   UNL A   1      39.224  27.850  29.268  1.00  0.00    -0.014 A 
BRANCH  32  33
ATOM     33  C   UNL A   1      40.636  27.507  29.341  1.00  0.00     0.031 A 
ATOM     34  C   UNL A   1      41.025  26.227  28.746  1.00  0.00     0.074 A 
ATOM     35  C   UNL A   1      41.528  28.495  29.608  1.00  0.00     0.049 A 
ATOM     36  N   UNL A   1      42.177  25.701  28.915  1.00  0.00    -0.248 NA
ATOM     37  C   UNL A   1      40.135  25.381  27.952  1.00  0.00     0.031 C 
ATOM     38  C   UNL A   1      42.968  28.561  29.355  1.00  0.00     0.029 A 
ATOM     39  N   UNL A   1      41.285  29.667  30.328  1.00  0.00    -0.354 N 
ATOM     40  C   UNL A   1      42.283  24.616  28.078  1.00  0.00     0.074 A 
ATOM     41  C   UNL A   1      40.953  24.389  27.588  1.00  0.00     0.031 C 
ATOM     42  C   UNL A   1      43.517  29.490  30.163  1.00  0.00     0.029 A 
ATOM     43  C   UNL A   1      42.462  30.015  31.009  1.00  0.00     0.049 A 
ATOM     44  H   UNL A   1      40.436  30.164  30.354  1.00  0.00     0.167 HD
ATOM     45  C   UNL A   1      43.533  24.135  27.848  1.00  0.00     0.037 A 
ATOM     46  C   UNL A   1      42.446  29.999  32.374  1.00  0.00     0.037 A 
ATOM     47  C   UNL A   1      44.465  24.798  28.764  1.00  0.00     0.049 A 
ATOM     48  C   UNL A   1      43.201  28.794  32.887  1.00  0.00     0.074 A 
ATOM     49  C   UNL A   1      45.324  25.872  28.613  1.00  0.00     0.029 A 
ATOM     50  N   UNL A   1      44.256  24.648  30.134  1.00  0.00    -0.354 N 
ATOM     51  N   UNL A   1      43.443  27.733  32.160  1.00  0.00    -0.248 NA
ATOM     52  C   UNL A   1      43.834  28.726  34.200  1.00  0.00     0.031 C 
ATOM     53  C   UNL A   1      45.538  26.431  29.909  1.00  0.00     0.029 A 
ATOM     54  C   UNL A   1      44.852  25.670  30.847  1.00  0.00     0.049 A 
ATOM     55  H   UNL A   1      43.747  23.910  30.541  1.00  0.00     0.167 HD
ATOM     56  C   UNL A   1      44.276  26.889  32.838  1.00  0.00     0.074 A 
ATOM     57  C   UNL A   1      44.489  27.556  34.111  1.00  0.00     0.031 C 
ATOM     58  C   UNL A   1      44.751  25.720  32.305  1.00  0.00     0.037 A 
BRANCH  45  59
ATOM     59  C   UNL A   1      43.969  23.225  26.726  1.00  0.00     0.064 A 
ATOM     60  C   UNL A   1      43.453  21.912  26.665  1.00  0.00     0.173 A 
ATOM     61  C   UNL A   1      44.949  23.515  25.752  1.00  0.00     0.173 A 
ATOM     62  F   UNL A   1      42.510  21.498  27.522  1.00  0.00    -0.203 F 
ATOM     63  C   UNL A   1      43.898  20.969  25.732  1.00  0.00     0.198 A 
ATOM     64  C   UNL A   1      45.366  22.583  24.797  1.00  0.00     0.198 A 
ATOM     65  F   UNL A   1      45.581  24.690  25.701  1.00  0.00    -0.203 F 
ATOM     66  F   UNL A   1      43.403  19.724  25.759  1.00  0.00    -0.200 F 
ATOM     67  C   UNL A   1      44.851  21.306  24.794  1.00  0.00     0.200 A 
ATOM     68  F   UNL A   1      46.291  22.932  23.891  1.00  0.00    -0.200 F 
ATOM     69  F   UNL A   1      45.276  20.405  23.900  1.00  0.00    -0.200 F 
ENDBRANCH  45  59
BRANCH  46  70
ATOM     70  C   UNL A   1      41.188  30.629  32.891  1.00  0.00     0.064 A 
ATOM     71  C   UNL A   1      40.946  31.955  32.454  1.00  0.00     0.173 A 
ATOM     72  C   UNL A   1      40.078  29.897  33.321  1.00  0.00     0.173 A 
ATOM     73  F   UNL A   1      41.977  32.726  32.070  1.00  0.00    -0.203 F 
ATOM     74  C   UNL A   1      39.655  32.438  32.250  1.00  0.00     0.198 A 
ATOM     75  C   UNL A   1      38.781  30.423  33.195  1.00  0.00     0.198 A 
ATOM     76  F   UNL A   1      40.214  28.622  33.715  1.00  0.00    -0.203 F 
ATOM     77  F   UNL A   1      39.471  33.609  31.620  1.00  0.00    -0.200 F 
ATOM     78  C   UNL A   1      38.569  31.662  32.601  1.00  0.00     0.200 A 
ATOM     79  F   UNL A   1      37.720  29.664  33.510  1.00  0.00    -0.200 F 
ATOM     80  F   UNL A   1      37.325  32.068  32.302  1.00  0.00    -0.200 F 
ENDBRANCH  46  70
BRANCH  58  81
ATOM     81  C   UNL A   1      45.279  24.564  33.128  1.00  0.00     0.064 A 
ATOM     82  C   UNL A   1      44.566  23.372  33.342  1.00  0.00     0.173 A 
ATOM     83  C   UNL A   1      46.604  24.562  33.632  1.00  0.00     0.173 A 
ATOM     84  F   UNL A   1      43.391  23.136  32.747  1.00  0.00    -0.203 F 
ATOM     85  C   UNL A   1      45.067  22.337  34.130  1.00  0.00     0.198 A 
ATOM     86  C   UNL A   1      47.140  23.481  34.328  1.00  0.00     0.198 A 
ATOM     87  F   UNL A   1      47.444  25.588  33.442  1.00  0.00    -0.203 F 
ATOM     88  F   UNL A   1      44.296  21.273  34.390  1.00  0.00    -0.200 F 
ATOM     89  C   UNL A   1      46.357  22.388  34.619  1.00  0.00     0.200 A 
ATOM     90  F   UNL A   1      48.428  23.506  34.700  1.00  0.00    -0.200 F 
ATOM     91  F   UNL A   1      46.850  21.376  35.341  1.00  0.00    -0.200 F 
ENDBRANCH  58  81
ENDBRANCH  32  33
ENDBRANCH  25  27
ENDBRANCH  24  25
ENDBRANCH  23  24
ENDBRANCH   1  23
TORSDOF 14
ENDMDL
MODEL 3
REMARK VINA RESULT:     -13.0      3.869     10.203
REMARK SMILES Cc1cccc(C(=O)OCCOC(=O)c2ccc(-c3c4nc(c(-c5c(F)c(F)c(F)c(F)c5F)c5ccc([nH]5)c(-c5c(F)c(F)c(F)c(F)c5F)c5nc(c(-c6c(F)c(F)c(F)c(F)c6F)c6ccc3[nH]6)C=C5)C=C4)cc2)c1NC(=O)Cc1ccccc1
REMARK SMILES IDX 10 1 9 2 7 3 8 4 6 5 1 6 2 7 3 8 78 9 4 10 5 11 79 12 80 13
REMARK SMILES IDX 81 15 82 16 83 17 84 18 88 19 85 20 87 21 86 22 11 23 12 24
REMARK SMILES IDX 13 25 14 26 15 27 16 28 77 29 17 30 76 31 18 32 19 33 20 34
REMARK SMILES IDX 70 35 21 36 75 37 69 38 71 39 22 40 74 41 68 42 67 43 23 45
REMARK SMILES IDX 55 46 35 47 54 48 36 49 39 50 53 51 72 52 37 53 38 54 52 56
REMARK SMILES IDX 73 57 40 58 24 59 25 60 33 61 26 62 27 63 31 64 34 65 28 66
REMARK SMILES IDX 29 67 32 68 30 69 56 70 57 71 65 72 58 73 59 74 63 75 66 76
REMARK SMILES IDX 60 77 61 78 64 79 62 80 41 81 42 82 50 83 43 84 44 85 48 86
REMARK SMILES IDX 51 87 45 88 46 89 49 90 47 91
REMARK H PARENT 79 14 71 44 39 55
REMARK Flexibility Score: inf
ROOT
ATOM      1  C   UNL A   1      38.843  21.270  25.544  1.00  0.00     0.275 C 
ENDROOT
BRANCH   1   2
ATOM      2  O   UNL A   1      38.066  22.283  26.198  1.00  0.00    -0.458 OA
BRANCH   2   3
ATOM      3  C   UNL A   1      36.966  22.925  25.408  1.00  0.00     0.340 C 
ATOM      4  O   UNL A   1      37.449  24.086  25.324  1.00  0.00    -0.246 OA
BRANCH   3   5
ATOM      5  C   UNL A   1      35.173  21.941  24.705  1.00  0.00     0.083 A 
ATOM      6  C   UNL A   1      31.757  21.714  22.271  1.00  0.00     0.046 C 
ATOM      7  C   UNL A   1      32.807  21.583  23.367  1.00  0.00    -0.027 A 
ATOM      8  C   UNL A   1      32.577  20.364  24.038  1.00  0.00     0.005 A 
ATOM      9  C   UNL A   1      33.951  22.476  23.682  1.00  0.00     0.058 A 
ATOM     10  C   UNL A   1      33.508  19.827  24.862  1.00  0.00     0.001 A 
ATOM     11  C   UNL A   1      34.703  20.514  25.082  1.00  0.00     0.018 A 
BRANCH   9  12
ATOM     12  N   UNL A   1      33.768  23.811  22.854  1.00  0.00    -0.325 N 
ATOM     13  C   UNL A   1      33.328  25.156  22.754  1.00  0.00     0.228 C 
ATOM     14  H   UNL A   1      34.148  23.608  21.969  1.00  0.00     0.169 HD
ATOM     15  O   UNL A   1      33.816  25.751  21.776  1.00  0.00    -0.274 OA
BRANCH  13  16
ATOM     16  C   UNL A   1      32.240  25.913  23.571  1.00  0.00     0.135 C 
BRANCH  16  17
ATOM     17  C   UNL A   1      32.357  26.649  24.909  1.00  0.00    -0.039 A 
ATOM     18  C   UNL A   1      33.663  27.131  25.216  1.00  0.00     0.004 A 
ATOM     19  C   UNL A   1      31.373  26.899  25.853  1.00  0.00     0.004 A 
ATOM     20  C   UNL A   1      33.958  27.933  26.318  1.00  0.00     0.000 A 
ATOM     21  C   UNL A   1      31.679  27.658  27.008  1.00  0.00     0.000 A 
ATOM     22  C   UNL A   1      32.952  28.202  27.224  1.00  0.00     0.000 A 
ENDBRANCH  16  17
ENDBRANCH  13  16
ENDBRANCH   9  12
ENDBRANCH   3   5
ENDBRANCH   2   3
ENDBRANCH   1   2
BRANCH   1  23
ATOM     23  C   UNL A   1      40.257  21.333  26.122  1.00  0.00     0.275 C 
BRANCH  23  24
ATOM     24  O   UNL A   1      40.407  22.262  27.240  1.00  0.00    -0.458 OA
BRANCH  24  25
ATOM     25  C   UNL A   1      41.197  23.379  27.200  1.00  0.00     0.338 C 
ATOM     26  O   UNL A   1      42.375  23.398  27.508  1.00  0.00    -0.246 OA
BRANCH  25  27
ATOM     27  C   UNL A   1      40.454  24.636  26.952  1.00  0.00     0.060 A 
ATOM     28  C   UNL A   1      41.287  25.936  26.044  1.00  0.00     0.016 A 
ATOM     29  C   UNL A   1      39.379  25.065  28.305  1.00  0.00     0.016 A 
ATOM     30  C   UNL A   1      41.089  27.699  26.545  1.00  0.00     0.010 A 
ATOM     31  C   UNL A   1      39.214  26.851  28.846  1.00  0.00     0.010 A 
ATOM     32  C   UNL A   1      40.092  28.134  27.954  1.00  0.00    -0.014 A 
BRANCH  32  33
ATOM     33  C   UNL A   1      40.312  29.249  28.864  1.00  0.00     0.031 A 
ATOM     34  C   UNL A   1      39.200  30.190  29.018  1.00  0.00     0.074 A 
ATOM     35  C   UNL A   1      41.333  29.165  29.753  1.00  0.00     0.049 A 
ATOM     36  N   UNL A   1      39.317  31.316  29.611  1.00  0.00    -0.248 NA
ATOM     37  C   UNL A   1      37.863  29.985  28.466  1.00  0.00     0.031 C 
ATOM     38  C   UNL A   1      41.556  29.886  31.008  1.00  0.00     0.029 A 
ATOM     39  N   UNL A   1      42.514  28.434  29.603  1.00  0.00    -0.354 N 
ATOM     40  C   UNL A   1      38.064  31.861  29.752  1.00  0.00     0.074 A 
ATOM     41  C   UNL A   1      37.210  31.057  28.926  1.00  0.00     0.031 C 
ATOM     42  C   UNL A   1      42.865  29.832  31.323  1.00  0.00     0.029 A 
ATOM     43  C   UNL A   1      43.546  29.127  30.253  1.00  0.00     0.049 A 
ATOM     44  H   UNL A   1      42.607  27.578  29.123  1.00  0.00     0.167 HD
ATOM     45  C   UNL A   1      37.930  32.871  30.652  1.00  0.00     0.037 A 
ATOM     46  C   UNL A   1      44.572  29.615  29.497  1.00  0.00     0.037 A 
ATOM     47  C   UNL A   1      39.263  33.275  31.104  1.00  0.00     0.049 A 
ATOM     48  C   UNL A   1      44.445  31.116  29.358  1.00  0.00     0.074 A 
ATOM     49  C   UNL A   1      40.009  32.961  32.226  1.00  0.00     0.029 A 
ATOM     50  N   UNL A   1      40.164  33.746  30.150  1.00  0.00    -0.354 N 
ATOM     51  N   UNL A   1      43.324  31.764  29.551  1.00  0.00    -0.248 NA
ATOM     52  C   UNL A   1      45.570  32.009  29.104  1.00  0.00     0.031 C 
ATOM     53  C   UNL A   1      41.384  33.147  31.889  1.00  0.00     0.029 A 
ATOM     54  C   UNL A   1      41.468  33.621  30.586  1.00  0.00     0.049 A 
ATOM     55  H   UNL A   1      39.904  34.120  29.277  1.00  0.00     0.167 HD
ATOM     56  C   UNL A   1      43.558  33.110  29.512  1.00  0.00     0.074 A 
ATOM     57  C   UNL A   1      44.979  33.210  29.227  1.00  0.00     0.031 C 
ATOM     58  C   UNL A   1      42.582  34.043  29.739  1.00  0.00     0.037 A 
BRANCH  45  59
ATOM     59  C   UNL A   1      36.648  33.385  31.262  1.00  0.00     0.064 A 
ATOM     60  C   UNL A   1      35.718  34.060  30.441  1.00  0.00     0.173 A 
ATOM     61  C   UNL A   1      36.308  33.357  32.632  1.00  0.00     0.173 A 
ATOM     62  F   UNL A   1      35.907  34.160  29.118  1.00  0.00    -0.203 F 
ATOM     63  C   UNL A   1      34.569  34.673  30.950  1.00  0.00     0.198 A 
ATOM     64  C   UNL A   1      35.140  33.939  33.133  1.00  0.00     0.198 A 
ATOM     65  F   UNL A   1      37.102  32.809  33.555  1.00  0.00    -0.203 F 
ATOM     66  F   UNL A   1      33.752  35.341  30.124  1.00  0.00    -0.200 F 
ATOM     67  C   UNL A   1      34.276  34.609  32.296  1.00  0.00     0.200 A 
ATOM     68  F   UNL A   1      34.872  33.861  34.445  1.00  0.00    -0.200 F 
ATOM     69  F   UNL A   1      33.175  35.194  32.784  1.00  0.00    -0.200 F 
ENDBRANCH  45  59
BRANCH  46  70
ATOM     70  C   UNL A   1      45.011  28.596  28.490  1.00  0.00     0.064 A 
ATOM     71  C   UNL A   1      45.353  27.326  29.016  1.00  0.00     0.173 A 
ATOM     72  C   UNL A   1      44.654  28.641  27.139  1.00  0.00     0.173 A 
ATOM     73  F   UNL A   1      45.748  27.223  30.296  1.00  0.00    -0.203 F 
ATOM     74  C   UNL A   1      45.135  26.150  28.301  1.00  0.00     0.198 A 
ATOM     75  C   UNL A   1      44.520  27.456  26.395  1.00  0.00     0.198 A 
ATOM     76  F   UNL A   1      44.281  29.797  26.572  1.00  0.00    -0.203 F 
ATOM     77  F   UNL A   1      45.252  24.962  28.915  1.00  0.00    -0.200 F 
ATOM     78  C   UNL A   1      44.696  26.215  26.994  1.00  0.00     0.200 A 
ATOM     79  F   UNL A   1      44.069  27.511  25.132  1.00  0.00    -0.200 F 
ATOM     80  F   UNL A   1      44.372  25.091  26.335  1.00  0.00    -0.200 F 
ENDBRANCH  46  70
BRANCH  58  81
ATOM     81  C   UNL A   1      42.662  35.483  29.277  1.00  0.00     0.064 A 
ATOM     82  C   UNL A   1      41.895  36.005  28.221  1.00  0.00     0.173 A 
ATOM     83  C   UNL A   1      43.431  36.443  29.981  1.00  0.00     0.173 A 
ATOM     84  F   UNL A   1      40.960  35.275  27.600  1.00  0.00    -0.203 F 
ATOM     85  C   UNL A   1      42.012  37.328  27.799  1.00  0.00     0.198 A 
ATOM     86  C   UNL A   1      43.463  37.788  29.623  1.00  0.00     0.198 A 
ATOM     87  F   UNL A   1      44.154  36.126  31.064  1.00  0.00    -0.203 F 
ATOM     88  F   UNL A   1      41.338  37.738  26.715  1.00  0.00    -0.200 F 
ATOM     89  C   UNL A   1      42.792  38.223  28.503  1.00  0.00     0.200 A 
ATOM     90  F   UNL A   1      44.140  38.661  30.384  1.00  0.00    -0.200 F 
ATOM     91  F   UNL A   1      42.872  39.503  28.121  1.00  0.00    -0.200 F 
ENDBRANCH  58  81
ENDBRANCH  32  33
ENDBRANCH  25  27
ENDBRANCH  24  25
ENDBRANCH  23  24
ENDBRANCH   1  23
TORSDOF 14
ENDMDL
