MODEL 1
REMARK VINA RESULT:     -12.1      0.000      0.000
REMARK SMILES O=C(OCCOC(=O)c1cc(Br)ccc1NC(=O)c1ccc(Br)s1)c1ccc(-c2c3nc(c(-c4c(F)c(F)c(F)c(F)c4F)c4ccc([nH]4)c(-c4c(F)c(F)c(F)c(F)c4F)c4nc(c(-c5c(F)c(F)c(F)c(F)c5F)c5ccc2[nH]5)C=C4)C=C3)cc1
REMARK SMILES IDX 4 1 3 2 2 3 1 4 25 5 26 6 87 7 27 8 86 9 28 10 29 11 30 12
REMARK SMILES IDX 80 13 31 14 85 15 79 16 81 17 32 18 84 19 78 20 77 21 33 23
REMARK SMILES IDX 65 24 45 25 64 26 46 27 49 28 63 29 82 30 47 31 48 32 62 34
REMARK SMILES IDX 83 35 50 36 34 37 35 38 43 39 36 40 37 41 41 42 44 43 38 44
REMARK SMILES IDX 39 45 42 46 40 47 66 48 67 49 75 50 68 51 69 52 73 53 76 54
REMARK SMILES IDX 70 55 71 56 74 57 72 58 51 59 52 60 60 61 53 62 54 63 58 64
REMARK SMILES IDX 61 65 55 66 56 67 59 68 57 69 5 70 6 71 7 72 8 73 9 74 10 75
REMARK SMILES IDX 15 76 11 77 14 78 12 79 13 80 16 81 17 82 18 84 19 85 20 86
REMARK SMILES IDX 24 87 21 88 22 89 23 90
REMARK H PARENT 81 22 49 33 16 83
REMARK Flexibility Score: inf
ROOT
ATOM      1  C   UNL A   1      31.697  31.943  27.044  1.00  0.00     0.275 C 
ENDROOT
BRANCH   1   2
ATOM      2  O   UNL A   1      32.486  33.144  27.031  1.00  0.00    -0.458 OA
BRANCH   2   3
ATOM      3  C   UNL A   1      33.178  33.753  28.019  1.00  0.00     0.338 C 
ATOM      4  O   UNL A   1      32.818  34.866  28.393  1.00  0.00    -0.246 OA
BRANCH   3   5
ATOM      5  C   UNL A   1      34.447  33.215  28.596  1.00  0.00     0.060 A 
ATOM      6  C   UNL A   1      35.737  33.468  28.126  1.00  0.00     0.016 A 
ATOM      7  C   UNL A   1      34.312  32.362  29.706  1.00  0.00     0.016 A 
ATOM      8  C   UNL A   1      36.858  32.963  28.790  1.00  0.00     0.010 A 
ATOM      9  C   UNL A   1      35.428  31.875  30.391  1.00  0.00     0.010 A 
ATOM     10  C   UNL A   1      36.715  32.172  29.930  1.00  0.00    -0.014 A 
BRANCH  10  11
ATOM     11  C   UNL A   1      37.902  31.519  30.521  1.00  0.00     0.031 A 
ATOM     12  C   UNL A   1      38.324  31.931  31.900  1.00  0.00     0.074 A 
ATOM     13  C   UNL A   1      38.546  30.527  29.880  1.00  0.00     0.049 A 
ATOM     14  N   UNL A   1      39.299  31.471  32.639  1.00  0.00    -0.248 NA
ATOM     15  C   UNL A   1      37.521  32.983  32.546  1.00  0.00     0.031 C 
ATOM     16  C   UNL A   1      38.164  29.977  28.581  1.00  0.00     0.029 A 
ATOM     17  N   UNL A   1      39.655  29.801  30.234  1.00  0.00    -0.354 N 
ATOM     18  C   UNL A   1      39.198  32.147  33.845  1.00  0.00     0.074 A 
ATOM     19  C   UNL A   1      38.133  33.114  33.711  1.00  0.00     0.031 C 
ATOM     20  C   UNL A   1      39.046  29.024  28.231  1.00  0.00     0.029 A 
ATOM     21  C   UNL A   1      40.063  28.915  29.268  1.00  0.00     0.049 A 
ATOM     22  H   UNL A   1      40.114  29.906  31.099  1.00  0.00     0.167 HD
ATOM     23  C   UNL A   1      39.896  31.941  34.984  1.00  0.00     0.037 A 
ATOM     24  C   UNL A   1      41.144  28.113  29.221  1.00  0.00     0.037 A 
ATOM     25  C   UNL A   1      40.965  30.990  35.105  1.00  0.00     0.049 A 
ATOM     26  C   UNL A   1      42.024  28.030  30.437  1.00  0.00     0.074 A 
ATOM     27  C   UNL A   1      41.749  30.705  36.206  1.00  0.00     0.029 A 
ATOM     28  N   UNL A   1      41.407  30.174  34.072  1.00  0.00    -0.354 N 
ATOM     29  N   UNL A   1      41.899  28.646  31.586  1.00  0.00    -0.248 NA
ATOM     30  C   UNL A   1      43.168  27.112  30.367  1.00  0.00     0.031 C 
ATOM     31  C   UNL A   1      42.701  29.753  35.824  1.00  0.00     0.029 A 
ATOM     32  C   UNL A   1      42.474  29.405  34.501  1.00  0.00     0.049 A 
ATOM     33  H   UNL A   1      41.018  30.147  33.167  1.00  0.00     0.167 HD
ATOM     34  C   UNL A   1      42.908  28.150  32.398  1.00  0.00     0.074 A 
ATOM     35  C   UNL A   1      43.645  27.190  31.602  1.00  0.00     0.031 C 
ATOM     36  C   UNL A   1      43.184  28.446  33.692  1.00  0.00     0.037 A 
BRANCH  23  37
ATOM     37  C   UNL A   1      39.509  32.774  36.169  1.00  0.00     0.064 A 
ATOM     38  C   UNL A   1      40.158  33.987  36.453  1.00  0.00     0.173 A 
ATOM     39  C   UNL A   1      38.513  32.339  37.054  1.00  0.00     0.173 A 
ATOM     40  F   UNL A   1      41.137  34.433  35.650  1.00  0.00    -0.203 F 
ATOM     41  C   UNL A   1      39.853  34.712  37.600  1.00  0.00     0.198 A 
ATOM     42  C   UNL A   1      38.189  33.081  38.185  1.00  0.00     0.198 A 
ATOM     43  F   UNL A   1      37.867  31.185  36.830  1.00  0.00    -0.203 F 
ATOM     44  F   UNL A   1      40.534  35.830  37.886  1.00  0.00    -0.200 F 
ATOM     45  C   UNL A   1      38.867  34.260  38.464  1.00  0.00     0.200 A 
ATOM     46  F   UNL A   1      37.233  32.647  39.017  1.00  0.00    -0.200 F 
ATOM     47  F   UNL A   1      38.578  34.953  39.574  1.00  0.00    -0.200 F 
ENDBRANCH  23  37
BRANCH  24  48
ATOM     48  C   UNL A   1      41.446  27.326  27.997  1.00  0.00     0.064 A 
ATOM     49  C   UNL A   1      40.972  26.020  27.829  1.00  0.00     0.173 A 
ATOM     50  C   UNL A   1      42.252  27.863  26.979  1.00  0.00     0.173 A 
ATOM     51  F   UNL A   1      40.217  25.455  28.781  1.00  0.00    -0.203 F 
ATOM     52  C   UNL A   1      41.307  25.270  26.701  1.00  0.00     0.198 A 
ATOM     53  C   UNL A   1      42.570  27.121  25.843  1.00  0.00     0.198 A 
ATOM     54  F   UNL A   1      42.737  29.109  27.094  1.00  0.00    -0.203 F 
ATOM     55  F   UNL A   1      40.877  24.006  26.587  1.00  0.00    -0.200 F 
ATOM     56  C   UNL A   1      42.105  25.822  25.709  1.00  0.00     0.200 A 
ATOM     57  F   UNL A   1      43.338  27.659  24.886  1.00  0.00    -0.200 F 
ATOM     58  F   UNL A   1      42.434  25.098  24.631  1.00  0.00    -0.200 F 
ENDBRANCH  24  48
BRANCH  36  59
ATOM     59  C   UNL A   1      44.294  27.681  34.346  1.00  0.00     0.064 A 
ATOM     60  C   UNL A   1      44.078  26.433  34.946  1.00  0.00     0.173 A 
ATOM     61  C   UNL A   1      45.602  28.187  34.324  1.00  0.00     0.173 A 
ATOM     62  F   UNL A   1      42.842  25.918  35.008  1.00  0.00    -0.203 F 
ATOM     63  C   UNL A   1      45.132  25.728  35.521  1.00  0.00     0.198 A 
ATOM     64  C   UNL A   1      46.658  27.465  34.870  1.00  0.00     0.198 A 
ATOM     65  F   UNL A   1      45.859  29.376  33.758  1.00  0.00    -0.203 F 
ATOM     66  F   UNL A   1      44.898  24.558  36.131  1.00  0.00    -0.200 F 
ATOM     67  C   UNL A   1      46.421  26.239  35.474  1.00  0.00     0.200 A 
ATOM     68  F   UNL A   1      47.905  27.953  34.809  1.00  0.00    -0.200 F 
ATOM     69  F   UNL A   1      47.435  25.552  36.016  1.00  0.00    -0.200 F 
ENDBRANCH  36  59
ENDBRANCH  10  11
ENDBRANCH   3   5
ENDBRANCH   2   3
ENDBRANCH   1   2
BRANCH   1  70
ATOM     70  C   UNL A   1      32.502  30.644  26.967  1.00  0.00     0.275 C 
BRANCH  70  71
ATOM     71  O   UNL A   1      31.743  29.446  27.200  1.00  0.00    -0.458 OA
BRANCH  71  72
ATOM     72  C   UNL A   1      32.232  28.316  26.622  1.00  0.00     0.340 C 
ATOM     73  O   UNL A   1      33.193  27.660  26.983  1.00  0.00    -0.246 OA
BRANCH  72  74
ATOM     74  C   UNL A   1      31.332  27.913  25.522  1.00  0.00     0.084 A 
ATOM     75  C   UNL A   1      31.200  28.785  24.430  1.00  0.00     0.033 A 
ATOM     76  C   UNL A   1      30.623  26.696  25.567  1.00  0.00     0.056 A 
ATOM     77  C   UNL A   1      30.301  28.480  23.416  1.00  0.00     0.018 A 
ATOM     78  C   UNL A   1      29.586  26.538  24.643  1.00  0.00     0.028 A 
ATOM     79  Br  UNL A   1      30.259  29.519  21.839  1.00  0.00    -0.051 Br
ATOM     80  C   UNL A   1      29.437  27.404  23.557  1.00  0.00     0.018 A 
BRANCH  76  81
ATOM     81  N   UNL A   1      30.955  25.718  26.538  1.00  0.00    -0.320 N 
ATOM     82  C   UNL A   1      31.760  24.589  26.522  1.00  0.00     0.265 C 
ATOM     83  H   UNL A   1      30.524  25.874  27.409  1.00  0.00     0.170 HD
ATOM     84  O   UNL A   1      31.732  23.865  27.518  1.00  0.00    -0.268 OA
BRANCH  82  85
ATOM     85  C   UNL A   1      32.619  24.300  25.394  1.00  0.00     0.093 A 
ATOM     86  C   UNL A   1      32.324  24.263  24.041  1.00  0.00     0.027 A 
ATOM     87  S   UNL A   1      34.280  23.975  25.681  1.00  0.00    -0.123 S 
ATOM     88  C   UNL A   1      33.439  23.835  23.257  1.00  0.00     0.028 A 
ATOM     89  C   UNL A   1      34.551  23.651  24.041  1.00  0.00     0.071 A 
ATOM     90  Br  UNL A   1      36.206  23.089  23.370  1.00  0.00    -0.039 Br
ENDBRANCH  82  85
ENDBRANCH  76  81
ENDBRANCH  72  74
ENDBRANCH  71  72
ENDBRANCH  70  71
ENDBRANCH   1  70
TORSDOF 13
ENDMDL
MODEL 2
REMARK VINA RESULT:     -11.9      5.639     10.879
REMARK SMILES O=C(OCCOC(=O)c1cc(Br)ccc1NC(=O)c1ccc(Br)s1)c1ccc(-c2c3nc(c(-c4c(F)c(F)c(F)c(F)c4F)c4ccc([nH]4)c(-c4c(F)c(F)c(F)c(F)c4F)c4nc(c(-c5c(F)c(F)c(F)c(F)c5F)c5ccc2[nH]5)C=C4)C=C3)cc1
REMARK SMILES IDX 4 1 3 2 2 3 1 4 25 5 26 6 87 7 27 8 86 9 28 10 29 11 30 12
REMARK SMILES IDX 80 13 31 14 85 15 79 16 81 17 32 18 84 19 78 20 77 21 33 23
REMARK SMILES IDX 65 24 45 25 64 26 46 27 49 28 63 29 82 30 47 31 48 32 62 34
REMARK SMILES IDX 83 35 50 36 34 37 35 38 43 39 36 40 37 41 41 42 44 43 38 44
REMARK SMILES IDX 39 45 42 46 40 47 66 48 67 49 75 50 68 51 69 52 73 53 76 54
REMARK SMILES IDX 70 55 71 56 74 57 72 58 51 59 52 60 60 61 53 62 54 63 58 64
REMARK SMILES IDX 61 65 55 66 56 67 59 68 57 69 5 70 6 71 7 72 8 73 9 74 10 75
REMARK SMILES IDX 15 76 11 77 14 78 12 79 13 80 16 81 17 82 18 84 19 85 20 86
REMARK SMILES IDX 24 87 21 88 22 89 23 90
REMARK H PARENT 81 22 49 33 16 83
REMARK Flexibility Score: inf
ROOT
ATOM      1  C   UNL A   1      40.354  20.626  26.215  1.00  0.00     0.275 C 
ENDROOT
BRANCH   1   2
ATOM      2  O   UNL A   1      39.454  21.534  26.870  1.00  0.00    -0.458 OA
BRANCH   2   3
ATOM      3  C   UNL A   1      38.901  22.690  26.438  1.00  0.00     0.338 C 
ATOM      4  O   UNL A   1      38.097  22.649  25.510  1.00  0.00    -0.246 OA
BRANCH   3   5
ATOM      5  C   UNL A   1      39.313  24.040  26.927  1.00  0.00     0.060 A 
ATOM      6  C   UNL A   1      39.914  25.044  26.167  1.00  0.00     0.016 A 
ATOM      7  C   UNL A   1      39.082  24.304  28.290  1.00  0.00     0.016 A 
ATOM      8  C   UNL A   1      40.195  26.297  26.718  1.00  0.00     0.010 A 
ATOM      9  C   UNL A   1      39.335  25.562  28.842  1.00  0.00     0.010 A 
ATOM     10  C   UNL A   1      39.899  26.569  28.054  1.00  0.00    -0.014 A 
BRANCH  10  11
ATOM     11  C   UNL A   1      40.349  27.842  28.657  1.00  0.00     0.031 A 
ATOM     12  C   UNL A   1      41.795  27.978  29.028  1.00  0.00     0.074 A 
ATOM     13  C   UNL A   1      39.508  28.883  28.800  1.00  0.00     0.049 A 
ATOM     14  N   UNL A   1      42.429  29.008  29.526  1.00  0.00    -0.248 NA
ATOM     15  C   UNL A   1      42.651  26.806  28.779  1.00  0.00     0.031 C 
ATOM     16  C   UNL A   1      38.108  28.899  28.382  1.00  0.00     0.029 A 
ATOM     17  N   UNL A   1      39.708  30.131  29.332  1.00  0.00    -0.354 N 
ATOM     18  C   UNL A   1      43.756  28.619  29.607  1.00  0.00     0.074 A 
ATOM     19  C   UNL A   1      43.828  27.234  29.202  1.00  0.00     0.031 C 
ATOM     20  C   UNL A   1      37.566  30.085  28.707  1.00  0.00     0.029 A 
ATOM     21  C   UNL A   1      38.571  30.900  29.374  1.00  0.00     0.049 A 
ATOM     22  H   UNL A   1      40.584  30.445  29.655  1.00  0.00     0.167 HD
ATOM     23  C   UNL A   1      44.832  29.368  29.939  1.00  0.00     0.037 A 
ATOM     24  C   UNL A   1      38.364  32.121  29.901  1.00  0.00     0.037 A 
ATOM     25  C   UNL A   1      44.752  30.739  30.358  1.00  0.00     0.049 A 
ATOM     26  C   UNL A   1      39.546  32.878  30.439  1.00  0.00     0.074 A 
ATOM     27  C   UNL A   1      45.774  31.592  30.729  1.00  0.00     0.029 A 
ATOM     28  N   UNL A   1      43.567  31.455  30.472  1.00  0.00    -0.354 N 
ATOM     29  N   UNL A   1      40.805  32.515  30.479  1.00  0.00    -0.248 NA
ATOM     30  C   UNL A   1      39.290  34.224  30.966  1.00  0.00     0.031 C 
ATOM     31  C   UNL A   1      45.202  32.808  31.119  1.00  0.00     0.029 A 
ATOM     32  C   UNL A   1      43.829  32.731  30.937  1.00  0.00     0.049 A 
ATOM     33  H   UNL A   1      42.672  31.104  30.255  1.00  0.00     0.167 HD
ATOM     34  C   UNL A   1      41.501  33.606  30.976  1.00  0.00     0.074 A 
ATOM     35  C   UNL A   1      40.519  34.640  31.238  1.00  0.00     0.031 C 
ATOM     36  C   UNL A   1      42.834  33.747  31.177  1.00  0.00     0.037 A 
BRANCH  23  37
ATOM     37  C   UNL A   1      46.169  28.696  29.858  1.00  0.00     0.064 A 
ATOM     38  C   UNL A   1      47.001  28.856  28.737  1.00  0.00     0.173 A 
ATOM     39  C   UNL A   1      46.607  27.851  30.886  1.00  0.00     0.173 A 
ATOM     40  F   UNL A   1      46.614  29.634  27.714  1.00  0.00    -0.203 F 
ATOM     41  C   UNL A   1      48.202  28.161  28.631  1.00  0.00     0.198 A 
ATOM     42  C   UNL A   1      47.823  27.180  30.790  1.00  0.00     0.198 A 
ATOM     43  F   UNL A   1      45.848  27.661  31.975  1.00  0.00    -0.203 F 
ATOM     44  F   UNL A   1      48.945  28.275  27.522  1.00  0.00    -0.200 F 
ATOM     45  C   UNL A   1      48.613  27.327  29.659  1.00  0.00     0.200 A 
ATOM     46  F   UNL A   1      48.223  26.378  31.786  1.00  0.00    -0.200 F 
ATOM     47  F   UNL A   1      49.766  26.651  29.553  1.00  0.00    -0.200 F 
ENDBRANCH  23  37
BRANCH  24  48
ATOM     48  C   UNL A   1      36.996  32.704  29.939  1.00  0.00     0.064 A 
ATOM     49  C   UNL A   1      36.524  33.532  28.913  1.00  0.00     0.173 A 
ATOM     50  C   UNL A   1      36.143  32.464  31.029  1.00  0.00     0.173 A 
ATOM     51  F   UNL A   1      37.308  33.808  27.862  1.00  0.00    -0.203 F 
ATOM     52  C   UNL A   1      35.260  34.118  28.984  1.00  0.00     0.198 A 
ATOM     53  C   UNL A   1      34.873  33.034  31.090  1.00  0.00     0.198 A 
ATOM     54  F   UNL A   1      36.551  31.683  32.040  1.00  0.00    -0.203 F 
ATOM     55  F   UNL A   1      34.850  34.943  28.011  1.00  0.00    -0.200 F 
ATOM     56  C   UNL A   1      34.436  33.868  30.071  1.00  0.00     0.200 A 
ATOM     57  F   UNL A   1      34.079  32.787  32.140  1.00  0.00    -0.200 F 
ATOM     58  F   UNL A   1      33.225  34.438  30.143  1.00  0.00    -0.200 F 
ENDBRANCH  24  48
BRANCH  36  59
ATOM     59  C   UNL A   1      43.317  35.085  31.649  1.00  0.00     0.064 A 
ATOM     60  C   UNL A   1      43.659  36.106  30.753  1.00  0.00     0.173 A 
ATOM     61  C   UNL A   1      43.388  35.360  33.023  1.00  0.00     0.173 A 
ATOM     62  F   UNL A   1      43.624  35.883  29.431  1.00  0.00    -0.203 F 
ATOM     63  C   UNL A   1      44.076  37.350  31.217  1.00  0.00     0.198 A 
ATOM     64  C   UNL A   1      43.773  36.615  33.483  1.00  0.00     0.198 A 
ATOM     65  F   UNL A   1      43.068  34.415  33.920  1.00  0.00    -0.203 F 
ATOM     66  F   UNL A   1      44.443  38.299  30.343  1.00  0.00    -0.200 F 
ATOM     67  C   UNL A   1      44.123  37.607  32.579  1.00  0.00     0.200 A 
ATOM     68  F   UNL A   1      43.803  36.865  34.799  1.00  0.00    -0.200 F 
ATOM     69  F   UNL A   1      44.512  38.810  33.022  1.00  0.00    -0.200 F 
ENDBRANCH  36  59
ENDBRANCH  10  11
ENDBRANCH   3   5
ENDBRANCH   2   3
ENDBRANCH   1   2
BRANCH   1  70
ATOM     70  C   UNL A   1      41.666  20.373  26.960  1.00  0.00     0.275 C 
BRANCH  70  71
ATOM     71  O   UNL A   1      42.118  21.464  27.780  1.00  0.00    -0.458 OA
BRANCH  71  72
ATOM     72  C   UNL A   1      42.872  22.403  27.148  1.00  0.00     0.340 C 
ATOM     73  O   UNL A   1      42.752  22.797  26.002  1.00  0.00    -0.246 OA
BRANCH  72  74
ATOM     74  C   UNL A   1      43.822  22.985  28.119  1.00  0.00     0.084 A 
ATOM     75  C   UNL A   1      43.474  22.950  29.479  1.00  0.00     0.033 A 
ATOM     76  C   UNL A   1      45.037  23.560  27.697  1.00  0.00     0.056 A 
ATOM     77  C   UNL A   1      44.303  23.558  30.413  1.00  0.00     0.018 A 
ATOM     78  C   UNL A   1      45.724  24.338  28.635  1.00  0.00     0.028 A 
ATOM     79  Br  UNL A   1      43.971  23.343  32.260  1.00  0.00    -0.051 Br
ATOM     80  C   UNL A   1      45.381  24.321  29.989  1.00  0.00     0.018 A 
BRANCH  76  81
ATOM     81  N   UNL A   1      45.491  23.363  26.369  1.00  0.00    -0.320 N 
ATOM     82  C   UNL A   1      45.483  24.151  25.228  1.00  0.00     0.265 C 
ATOM     83  H   UNL A   1      45.900  22.479  26.226  1.00  0.00     0.170 HD
ATOM     84  O   UNL A   1      45.847  23.621  24.177  1.00  0.00    -0.268 OA
BRANCH  82  85
ATOM     85  C   UNL A   1      45.093  25.543  25.286  1.00  0.00     0.093 A 
ATOM     86  C   UNL A   1      45.875  26.680  25.403  1.00  0.00     0.027 A 
ATOM     87  S   UNL A   1      43.427  25.940  25.165  1.00  0.00    -0.123 S 
ATOM     88  C   UNL A   1      45.088  27.866  25.526  1.00  0.00     0.028 A 
ATOM     89  C   UNL A   1      43.750  27.584  25.411  1.00  0.00     0.071 A 
ATOM     90  Br  UNL A   1      42.407  28.884  25.523  1.00  0.00    -0.039 Br
ENDBRANCH  82  85
ENDBRANCH  76  81
ENDBRANCH  72  74
ENDBRANCH  71  72
ENDBRANCH  70  71
ENDBRANCH   1  70
TORSDOF 13
ENDMDL
MODEL 3
REMARK VINA RESULT:     -11.9      4.952     10.576
REMARK SMILES O=C(OCCOC(=O)c1cc(Br)ccc1NC(=O)c1ccc(Br)s1)c1ccc(-c2c3nc(c(-c4c(F)c(F)c(F)c(F)c4F)c4ccc([nH]4)c(-c4c(F)c(F)c(F)c(F)c4F)c4nc(c(-c5c(F)c(F)c(F)c(F)c5F)c5ccc2[nH]5)C=C4)C=C3)cc1
REMARK SMILES IDX 4 1 3 2 2 3 1 4 25 5 26 6 87 7 27 8 86 9 28 10 29 11 30 12
REMARK SMILES IDX 80 13 31 14 85 15 79 16 81 17 32 18 84 19 78 20 77 21 33 23
REMARK SMILES IDX 65 24 45 25 64 26 46 27 49 28 63 29 82 30 47 31 48 32 62 34
REMARK SMILES IDX 83 35 50 36 34 37 35 38 43 39 36 40 37 41 41 42 44 43 38 44
REMARK SMILES IDX 39 45 42 46 40 47 66 48 67 49 75 50 68 51 69 52 73 53 76 54
REMARK SMILES IDX 70 55 71 56 74 57 72 58 51 59 52 60 60 61 53 62 54 63 58 64
REMARK SMILES IDX 61 65 55 66 56 67 59 68 57 69 5 70 6 71 7 72 8 73 9 74 10 75
REMARK SMILES IDX 15 76 11 77 14 78 12 79 13 80 16 81 17 82 18 84 19 85 20 86
REMARK SMILES IDX 24 87 21 88 22 89 23 90
REMARK H PARENT 81 22 49 33 16 83
REMARK Flexibility Score: inf
ROOT
ATOM      1  C   UNL A   1      38.977  19.456  25.506  1.00  0.00     0.275 C 
ENDROOT
BRANCH   1   2
ATOM      2  O   UNL A   1      40.328  19.766  25.883  1.00  0.00    -0.458 OA
BRANCH   2   3
ATOM      3  C   UNL A   1      40.823  20.299  27.023  1.00  0.00     0.338 C 
ATOM      4  O   UNL A   1      40.906  19.587  28.020  1.00  0.00    -0.246 OA
BRANCH   3   5
ATOM      5  C   UNL A   1      41.147  21.748  27.188  1.00  0.00     0.060 A 
ATOM      6  C   UNL A   1      40.854  22.767  26.281  1.00  0.00     0.016 A 
ATOM      7  C   UNL A   1      41.827  22.101  28.369  1.00  0.00     0.016 A 
ATOM      8  C   UNL A   1      41.147  24.102  26.575  1.00  0.00     0.010 A 
ATOM      9  C   UNL A   1      42.099  23.435  28.682  1.00  0.00     0.010 A 
ATOM     10  C   UNL A   1      41.761  24.447  27.779  1.00  0.00    -0.014 A 
BRANCH  10  11
ATOM     11  C   UNL A   1      42.204  25.840  28.000  1.00  0.00     0.031 A 
ATOM     12  C   UNL A   1      43.562  26.239  27.503  1.00  0.00     0.074 A 
ATOM     13  C   UNL A   1      41.388  26.753  28.558  1.00  0.00     0.049 A 
ATOM     14  N   UNL A   1      44.147  27.407  27.541  1.00  0.00    -0.248 NA
ATOM     15  C   UNL A   1      44.358  25.185  26.852  1.00  0.00     0.031 C 
ATOM     16  C   UNL A   1      40.013  26.504  28.986  1.00  0.00     0.029 A 
ATOM     17  N   UNL A   1      41.594  28.075  28.859  1.00  0.00    -0.354 N 
ATOM     18  C   UNL A   1      45.354  27.235  26.883  1.00  0.00     0.074 A 
ATOM     19  C   UNL A   1      45.466  25.836  26.541  1.00  0.00     0.031 C 
ATOM     20  C   UNL A   1      39.511  27.628  29.527  1.00  0.00     0.029 A 
ATOM     21  C   UNL A   1      40.534  28.664  29.504  1.00  0.00     0.049 A 
ATOM     22  H   UNL A   1      42.423  28.556  28.634  1.00  0.00     0.167 HD
ATOM     23  C   UNL A   1      46.266  28.174  26.544  1.00  0.00     0.037 A 
ATOM     24  C   UNL A   1      40.409  29.898  30.028  1.00  0.00     0.037 A 
ATOM     25  C   UNL A   1      46.157  29.560  26.903  1.00  0.00     0.049 A 
ATOM     26  C   UNL A   1      41.519  30.886  29.801  1.00  0.00     0.074 A 
ATOM     27  C   UNL A   1      47.027  30.597  26.624  1.00  0.00     0.029 A 
ATOM     28  N   UNL A   1      45.108  30.099  27.637  1.00  0.00    -0.354 N 
ATOM     29  N   UNL A   1      42.642  30.725  29.146  1.00  0.00    -0.248 NA
ATOM     30  C   UNL A   1      41.328  32.236  30.348  1.00  0.00     0.031 C 
ATOM     31  C   UNL A   1      46.530  31.753  27.234  1.00  0.00     0.029 A 
ATOM     32  C   UNL A   1      45.323  31.449  27.846  1.00  0.00     0.049 A 
ATOM     33  H   UNL A   1      44.328  29.593  27.960  1.00  0.00     0.167 HD
ATOM     34  C   UNL A   1      43.266  31.963  29.146  1.00  0.00     0.074 A 
ATOM     35  C   UNL A   1      42.400  32.863  29.882  1.00  0.00     0.031 C 
ATOM     36  C   UNL A   1      44.439  32.327  28.571  1.00  0.00     0.037 A 
BRANCH  23  37
ATOM     37  C   UNL A   1      47.450  27.705  25.753  1.00  0.00     0.064 A 
ATOM     38  C   UNL A   1      48.648  27.328  26.383  1.00  0.00     0.173 A 
ATOM     39  C   UNL A   1      47.406  27.673  24.352  1.00  0.00     0.173 A 
ATOM     40  F   UNL A   1      48.748  27.368  27.721  1.00  0.00    -0.203 F 
ATOM     41  C   UNL A   1      49.769  26.976  25.639  1.00  0.00     0.198 A 
ATOM     42  C   UNL A   1      48.521  27.292  23.612  1.00  0.00     0.198 A 
ATOM     43  F   UNL A   1      46.288  28.029  23.703  1.00  0.00    -0.203 F 
ATOM     44  F   UNL A   1      50.921  26.688  26.261  1.00  0.00    -0.200 F 
ATOM     45  C   UNL A   1      49.704  26.955  24.254  1.00  0.00     0.200 A 
ATOM     46  F   UNL A   1      48.457  27.268  22.274  1.00  0.00    -0.200 F 
ATOM     47  F   UNL A   1      50.787  26.625  23.537  1.00  0.00    -0.200 F 
ENDBRANCH  23  37
BRANCH  24  48
ATOM     48  C   UNL A   1      39.195  30.269  30.802  1.00  0.00     0.064 A 
ATOM     49  C   UNL A   1      38.097  30.888  30.192  1.00  0.00     0.173 A 
ATOM     50  C   UNL A   1      39.127  30.036  32.185  1.00  0.00     0.173 A 
ATOM     51  F   UNL A   1      38.123  31.151  28.878  1.00  0.00    -0.203 F 
ATOM     52  C   UNL A   1      36.986  31.282  30.937  1.00  0.00     0.198 A 
ATOM     53  C   UNL A   1      38.007  30.412  32.926  1.00  0.00     0.198 A 
ATOM     54  F   UNL A   1      40.154  29.451  32.818  1.00  0.00    -0.203 F 
ATOM     55  F   UNL A   1      35.969  31.914  30.337  1.00  0.00    -0.200 F 
ATOM     56  C   UNL A   1      36.942  31.043  32.303  1.00  0.00     0.200 A 
ATOM     57  F   UNL A   1      37.968  30.175  34.244  1.00  0.00    -0.200 F 
ATOM     58  F   UNL A   1      35.877  31.429  33.019  1.00  0.00    -0.200 F 
ENDBRANCH  24  48
BRANCH  36  59
ATOM     59  C   UNL A   1      44.825  33.771  28.663  1.00  0.00     0.064 A 
ATOM     60  C   UNL A   1      45.656  34.251  29.684  1.00  0.00     0.173 A 
ATOM     61  C   UNL A   1      44.394  34.677  27.681  1.00  0.00     0.173 A 
ATOM     62  F   UNL A   1      46.077  33.428  30.655  1.00  0.00    -0.203 F 
ATOM     63  C   UNL A   1      46.025  35.593  29.730  1.00  0.00     0.198 A 
ATOM     64  C   UNL A   1      44.792  36.009  27.711  1.00  0.00     0.198 A 
ATOM     65  F   UNL A   1      43.600  34.264  26.682  1.00  0.00    -0.203 F 
ATOM     66  F   UNL A   1      46.783  36.042  30.741  1.00  0.00    -0.200 F 
ATOM     67  C   UNL A   1      45.602  36.467  28.740  1.00  0.00     0.200 A 
ATOM     68  F   UNL A   1      44.394  36.848  26.745  1.00  0.00    -0.200 F 
ATOM     69  F   UNL A   1      45.970  37.755  28.779  1.00  0.00    -0.200 F 
ENDBRANCH  36  59
ENDBRANCH  10  11
ENDBRANCH   3   5
ENDBRANCH   2   3
ENDBRANCH   1   2
BRANCH   1  70
ATOM     70  C   UNL A   1      38.132  20.662  25.091  1.00  0.00     0.275 C 
BRANCH  70  71
ATOM     71  O   UNL A   1      36.862  20.769  25.755  1.00  0.00    -0.458 OA
BRANCH  71  72
ATOM     72  C   UNL A   1      35.880  21.397  25.053  1.00  0.00     0.340 C 
ATOM     73  O   UNL A   1      35.954  22.467  24.477  1.00  0.00    -0.246 OA
BRANCH  72  74
ATOM     74  C   UNL A   1      34.699  20.511  24.987  1.00  0.00     0.084 A 
ATOM     75  C   UNL A   1      34.857  19.250  24.390  1.00  0.00     0.033 A 
ATOM     76  C   UNL A   1      33.452  20.917  25.502  1.00  0.00     0.056 A 
ATOM     77  C   UNL A   1      33.752  18.422  24.237  1.00  0.00     0.018 A 
ATOM     78  C   UNL A   1      32.340  20.151  25.136  1.00  0.00     0.028 A 
ATOM     79  Br  UNL A   1      33.972  16.645  23.637  1.00  0.00    -0.051 Br
ATOM     80  C   UNL A   1      32.484  18.900  24.532  1.00  0.00     0.018 A 
BRANCH  76  81
ATOM     81  N   UNL A   1      33.365  22.071  26.321  1.00  0.00    -0.320 N 
ATOM     82  C   UNL A   1      33.023  23.392  26.079  1.00  0.00     0.265 C 
ATOM     83  H   UNL A   1      33.596  21.897  27.262  1.00  0.00     0.170 HD
ATOM     84  O   UNL A   1      33.177  24.191  27.004  1.00  0.00    -0.268 OA
BRANCH  82  85
ATOM     85  C   UNL A   1      32.479  23.801  24.802  1.00  0.00     0.093 A 
ATOM     86  C   UNL A   1      31.248  23.521  24.232  1.00  0.00     0.027 A 
ATOM     87  S   UNL A   1      33.422  24.816  23.788  1.00  0.00    -0.123 S 
ATOM     88  C   UNL A   1      31.140  24.035  22.903  1.00  0.00     0.028 A 
ATOM     89  C   UNL A   1      32.258  24.753  22.559  1.00  0.00     0.071 A 
ATOM     90  Br  UNL A   1      32.485  25.577  20.893  1.00  0.00    -0.039 Br
ENDBRANCH  82  85
ENDBRANCH  76  81
ENDBRANCH  72  74
ENDBRANCH  71  72
ENDBRANCH  70  71
ENDBRANCH   1  70
TORSDOF 13
ENDMDL
