MODEL 1
REMARK VINA RESULT:     -13.1      0.000      0.000
REMARK SMILES Cc1ccc([C@H](C)Nc2ccc(C(=O)OCCOC(=O)c3ccc(-c4c5nc(c(-c6c(F)c(F)c(F)c(F)c6F)c6ccc([nH]6)c(-c6c(F)c(F)c(F)c(F)c6F)c6nc(c(-c7c(F)c(F)c(F)c(F)c7F)c7ccc4[nH]7)C=C6)C=C5)cc3)cc2Cl)cc1F
REMARK SMILES IDX 16 1 15 2 13 3 14 4 12 5 9 6 10 7 85 8 11 9 84 10 86 11 8 12
REMARK SMILES IDX 6 14 7 15 5 16 1 17 2 18 3 19 88 20 4 21 87 22 89 23 17 24
REMARK SMILES IDX 18 25 19 26 20 27 21 28 22 29 83 30 23 31 82 32 24 33 25 34
REMARK SMILES IDX 26 35 76 36 27 37 81 38 75 39 77 40 28 41 80 42 74 43 73 44
REMARK SMILES IDX 29 46 61 47 41 48 60 49 42 50 45 51 59 52 78 53 43 54 44 55
REMARK SMILES IDX 58 57 79 58 46 59 30 60 31 61 39 62 32 63 33 64 37 65 40 66
REMARK SMILES IDX 34 67 35 68 38 69 36 70 62 71 63 72 71 73 64 74 65 75 69 76
REMARK SMILES IDX 72 77 66 78 67 79 70 80 68 81 47 82 48 83 56 84 49 85 50 86
REMARK SMILES IDX 54 87 57 88 51 89 52 90 55 91 53 92
REMARK H PARENT 8 13 77 45 45 56
REMARK Flexibility Score: inf
ROOT
ATOM      1  C   UNL A   1      43.306  18.318  25.734  1.00  0.00     0.275 C 
ENDROOT
BRANCH   1   2
ATOM      2  O   UNL A   1      42.188  19.205  25.503  1.00  0.00    -0.458 OA
BRANCH   2   3
ATOM      3  C   UNL A   1      41.458  19.592  26.591  1.00  0.00     0.338 C 
ATOM      4  O   UNL A   1      41.791  19.506  27.749  1.00  0.00    -0.246 OA
BRANCH   3   5
ATOM      5  C   UNL A   1      40.199  20.262  26.154  1.00  0.00     0.061 A 
ATOM      6  C   UNL A   1      37.747  21.454  25.363  1.00  0.00     0.053 A 
ATOM      7  C   UNL A   1      38.053  20.125  25.031  1.00  0.00     0.028 A 
ATOM      8  C   UNL A   1      38.732  22.185  26.062  1.00  0.00     0.065 A 
ATOM      9  C   UNL A   1      39.281  19.553  25.376  1.00  0.00     0.018 A 
ATOM     10  C   UNL A   1      39.920  21.580  26.494  1.00  0.00     0.038 A 
ATOM     11  Cl  UNL A   1      38.568  23.851  26.500  1.00  0.00    -0.082 Cl
BRANCH   6  12
ATOM     12  N   UNL A   1      36.521  21.937  24.929  1.00  0.00    -0.377 N 
ATOM     13  H   UNL A   1      36.488  22.398  24.060  1.00  0.00     0.161 HD
BRANCH  12  14
ATOM     14  C   UNL A   1      35.276  21.805  25.682  1.00  0.00     0.106 C 
ATOM     15  C   UNL A   1      34.701  23.221  25.856  1.00  0.00     0.036 C 
BRANCH  14  16
ATOM     16  C   UNL A   1      34.382  20.777  24.989  1.00  0.00    -0.023 A 
ATOM     17  C   UNL A   1      32.153  18.079  22.423  1.00  0.00     0.047 C 
ATOM     18  C   UNL A   1      32.892  18.986  23.355  1.00  0.00    -0.015 A 
ATOM     19  C   UNL A   1      33.854  18.507  24.250  1.00  0.00     0.007 A 
ATOM     20  C   UNL A   1      32.661  20.355  23.307  1.00  0.00     0.126 A 
ATOM     21  C   UNL A   1      34.593  19.392  25.052  1.00  0.00     0.006 A 
ATOM     22  C   UNL A   1      33.374  21.232  24.116  1.00  0.00     0.045 A 
ATOM     23  F   UNL A   1      31.759  20.854  22.450  1.00  0.00    -0.207 F 
ENDBRANCH  14  16
ENDBRANCH  12  14
ENDBRANCH   6  12
ENDBRANCH   3   5
ENDBRANCH   2   3
ENDBRANCH   1   2
BRANCH   1  24
ATOM     24  C   UNL A   1      44.651  18.919  25.325  1.00  0.00     0.275 C 
BRANCH  24  25
ATOM     25  O   UNL A   1      44.447  20.108  24.563  1.00  0.00    -0.458 OA
BRANCH  25  26
ATOM     26  C   UNL A   1      44.892  21.200  25.212  1.00  0.00     0.338 C 
ATOM     27  O   UNL A   1      45.999  21.388  25.697  1.00  0.00    -0.246 OA
BRANCH  26  28
ATOM     28  C   UNL A   1      43.803  22.144  25.432  1.00  0.00     0.060 A 
ATOM     29  C   UNL A   1      43.774  23.197  24.503  1.00  0.00     0.016 A 
ATOM     30  C   UNL A   1      43.539  22.326  26.783  1.00  0.00     0.016 A 
ATOM     31  C   UNL A   1      43.839  24.489  24.958  1.00  0.00     0.010 A 
ATOM     32  C   UNL A   1      43.616  23.609  27.242  1.00  0.00     0.010 A 
ATOM     33  C   UNL A   1      43.856  24.657  26.331  1.00  0.00    -0.014 A 
BRANCH  33  34
ATOM     34  C   UNL A   1      43.922  25.951  26.951  1.00  0.00     0.031 A 
ATOM     35  C   UNL A   1      42.645  26.662  27.046  1.00  0.00     0.074 A 
ATOM     36  C   UNL A   1      45.012  26.194  27.703  1.00  0.00     0.049 A 
ATOM     37  N   UNL A   1      42.496  27.808  27.595  1.00  0.00    -0.248 NA
ATOM     38  C   UNL A   1      41.409  26.131  26.468  1.00  0.00     0.031 C 
ATOM     39  C   UNL A   1      45.095  26.991  28.915  1.00  0.00     0.029 A 
ATOM     40  N   UNL A   1      46.344  25.866  27.403  1.00  0.00    -0.354 N 
ATOM     41  C   UNL A   1      41.143  28.005  27.751  1.00  0.00     0.074 A 
ATOM     42  C   UNL A   1      40.519  27.025  26.901  1.00  0.00     0.031 C 
ATOM     43  C   UNL A   1      46.380  27.324  29.125  1.00  0.00     0.029 A 
ATOM     44  C   UNL A   1      47.112  26.936  27.931  1.00  0.00     0.049 A 
ATOM     45  H   UNL A   1      46.673  25.067  26.929  1.00  0.00     0.167 HD
ATOM     46  C   UNL A   1      40.746  28.881  28.715  1.00  0.00     0.037 A 
ATOM     47  C   UNL A   1      47.719  27.823  27.080  1.00  0.00     0.037 A 
ATOM     48  C   UNL A   1      41.919  29.545  29.287  1.00  0.00     0.049 A 
ATOM     49  C   UNL A   1      47.200  29.245  27.191  1.00  0.00     0.074 A 
ATOM     50  C   UNL A   1      42.699  29.348  30.413  1.00  0.00     0.029 A 
ATOM     51  N   UNL A   1      42.647  30.367  28.456  1.00  0.00    -0.354 N 
ATOM     52  N   UNL A   1      46.097  29.570  27.808  1.00  0.00    -0.248 NA
ATOM     53  C   UNL A   1      47.843  30.401  26.568  1.00  0.00     0.031 C 
ATOM     54  C   UNL A   1      43.923  30.063  30.226  1.00  0.00     0.029 A 
ATOM     55  C   UNL A   1      43.869  30.695  28.995  1.00  0.00     0.049 A 
ATOM     56  H   UNL A   1      42.331  30.684  27.579  1.00  0.00     0.167 HD
ATOM     57  C   UNL A   1      45.867  30.909  27.671  1.00  0.00     0.074 A 
ATOM     58  C   UNL A   1      46.979  31.388  26.872  1.00  0.00     0.031 C 
ATOM     59  C   UNL A   1      44.766  31.515  28.201  1.00  0.00     0.037 A 
BRANCH  46  60
ATOM     60  C   UNL A   1      39.365  29.034  29.303  1.00  0.00     0.064 A 
ATOM     61  C   UNL A   1      38.343  29.610  28.513  1.00  0.00     0.173 A 
ATOM     62  C   UNL A   1      38.969  28.698  30.611  1.00  0.00     0.173 A 
ATOM     63  F   UNL A   1      38.542  29.918  27.224  1.00  0.00    -0.203 F 
ATOM     64  C   UNL A   1      37.072  29.893  29.013  1.00  0.00     0.198 A 
ATOM     65  C   UNL A   1      37.698  28.988  31.114  1.00  0.00     0.198 A 
ATOM     66  F   UNL A   1      39.767  28.051  31.460  1.00  0.00    -0.203 F 
ATOM     67  F   UNL A   1      36.160  30.463  28.215  1.00  0.00    -0.200 F 
ATOM     68  C   UNL A   1      36.752  29.595  30.319  1.00  0.00     0.200 A 
ATOM     69  F   UNL A   1      37.401  28.667  32.383  1.00  0.00    -0.200 F 
ATOM     70  F   UNL A   1      35.538  29.878  30.806  1.00  0.00    -0.200 F 
ENDBRANCH  46  60
BRANCH  47  71
ATOM     71  C   UNL A   1      48.139  27.163  25.808  1.00  0.00     0.064 A 
ATOM     72  C   UNL A   1      47.400  27.455  24.642  1.00  0.00     0.173 A 
ATOM     73  C   UNL A   1      49.454  26.708  25.645  1.00  0.00     0.173 A 
ATOM     74  F   UNL A   1      46.132  27.885  24.745  1.00  0.00    -0.203 F 
ATOM     75  C   UNL A   1      48.004  27.453  23.387  1.00  0.00     0.198 A 
ATOM     76  C   UNL A   1      50.053  26.701  24.384  1.00  0.00     0.198 A 
ATOM     77  F   UNL A   1      50.198  26.393  26.715  1.00  0.00    -0.203 F 
ATOM     78  F   UNL A   1      47.315  27.866  22.314  1.00  0.00    -0.200 F 
ATOM     79  C   UNL A   1      49.342  27.113  23.265  1.00  0.00     0.200 A 
ATOM     80  F   UNL A   1      51.349  26.375  24.263  1.00  0.00    -0.200 F 
ATOM     81  F   UNL A   1      49.955  27.210  22.077  1.00  0.00    -0.200 F 
ENDBRANCH  47  71
BRANCH  59  82
ATOM     82  C   UNL A   1      44.422  32.958  27.991  1.00  0.00     0.064 A 
ATOM     83  C   UNL A   1      44.474  33.898  29.026  1.00  0.00     0.173 A 
ATOM     84  C   UNL A   1      43.905  33.415  26.756  1.00  0.00     0.173 A 
ATOM     85  F   UNL A   1      44.906  33.547  30.246  1.00  0.00    -0.203 F 
ATOM     86  C   UNL A   1      44.066  35.219  28.828  1.00  0.00     0.198 A 
ATOM     87  C   UNL A   1      43.436  34.711  26.582  1.00  0.00     0.198 A 
ATOM     88  F   UNL A   1      43.872  32.625  25.671  1.00  0.00    -0.203 F 
ATOM     89  F   UNL A   1      44.188  36.107  29.824  1.00  0.00    -0.200 F 
ATOM     90  C   UNL A   1      43.532  35.619  27.613  1.00  0.00     0.200 A 
ATOM     91  F   UNL A   1      42.903  35.072  25.405  1.00  0.00    -0.200 F 
ATOM     92  F   UNL A   1      43.121  36.882  27.434  1.00  0.00    -0.200 F 
ENDBRANCH  59  82
ENDBRANCH  33  34
ENDBRANCH  26  28
ENDBRANCH  25  26
ENDBRANCH  24  25
ENDBRANCH   1  24
TORSDOF 14
ENDMDL
MODEL 2
REMARK VINA RESULT:     -13.0      1.345      1.756
REMARK SMILES Cc1ccc([C@H](C)Nc2ccc(C(=O)OCCOC(=O)c3ccc(-c4c5nc(c(-c6c(F)c(F)c(F)c(F)c6F)c6ccc([nH]6)c(-c6c(F)c(F)c(F)c(F)c6F)c6nc(c(-c7c(F)c(F)c(F)c(F)c7F)c7ccc4[nH]7)C=C6)C=C5)cc3)cc2Cl)cc1F
REMARK SMILES IDX 16 1 15 2 13 3 14 4 12 5 9 6 10 7 85 8 11 9 84 10 86 11 8 12
REMARK SMILES IDX 6 14 7 15 5 16 1 17 2 18 3 19 88 20 4 21 87 22 89 23 17 24
REMARK SMILES IDX 18 25 19 26 20 27 21 28 22 29 83 30 23 31 82 32 24 33 25 34
REMARK SMILES IDX 26 35 76 36 27 37 81 38 75 39 77 40 28 41 80 42 74 43 73 44
REMARK SMILES IDX 29 46 61 47 41 48 60 49 42 50 45 51 59 52 78 53 43 54 44 55
REMARK SMILES IDX 58 57 79 58 46 59 30 60 31 61 39 62 32 63 33 64 37 65 40 66
REMARK SMILES IDX 34 67 35 68 38 69 36 70 62 71 63 72 71 73 64 74 65 75 69 76
REMARK SMILES IDX 72 77 66 78 67 79 70 80 68 81 47 82 48 83 56 84 49 85 50 86
REMARK SMILES IDX 54 87 57 88 51 89 52 90 55 91 53 92
REMARK H PARENT 8 13 77 45 45 56
REMARK Flexibility Score: inf
ROOT
ATOM      1  C   UNL A   1      43.517  18.312  25.714  1.00  0.00     0.275 C 
ENDROOT
BRANCH   1   2
ATOM      2  O   UNL A   1      42.362  19.151  25.491  1.00  0.00    -0.458 OA
BRANCH   2   3
ATOM      3  C   UNL A   1      41.612  19.490  26.581  1.00  0.00     0.338 C 
ATOM      4  O   UNL A   1      41.935  19.376  27.741  1.00  0.00    -0.246 OA
BRANCH   3   5
ATOM      5  C   UNL A   1      40.345  20.148  26.151  1.00  0.00     0.061 A 
ATOM      6  C   UNL A   1      37.878  21.316  25.371  1.00  0.00     0.053 A 
ATOM      7  C   UNL A   1      38.196  19.991  25.036  1.00  0.00     0.028 A 
ATOM      8  C   UNL A   1      38.858  22.056  26.067  1.00  0.00     0.065 A 
ATOM      9  C   UNL A   1      39.431  19.430  25.376  1.00  0.00     0.018 A 
ATOM     10  C   UNL A   1      40.054  21.463  26.494  1.00  0.00     0.038 A 
ATOM     11  Cl  UNL A   1      38.679  23.720  26.507  1.00  0.00    -0.082 Cl
BRANCH   6  12
ATOM     12  N   UNL A   1      36.645  21.787  24.943  1.00  0.00    -0.377 N 
ATOM     13  H   UNL A   1      35.864  21.197  25.048  1.00  0.00     0.161 HD
BRANCH  12  14
ATOM     14  C   UNL A   1      36.434  23.103  24.345  1.00  0.00     0.106 C 
ATOM     15  C   UNL A   1      36.654  22.952  22.831  1.00  0.00     0.036 C 
BRANCH  14  16
ATOM     16  C   UNL A   1      35.076  23.642  24.795  1.00  0.00    -0.023 A 
ATOM     17  C   UNL A   1      31.536  25.285  26.694  1.00  0.00     0.047 C 
ATOM     18  C   UNL A   1      32.724  24.712  25.988  1.00  0.00    -0.015 A 
ATOM     19  C   UNL A   1      33.391  25.405  24.974  1.00  0.00     0.007 A 
ATOM     20  C   UNL A   1      33.222  23.474  26.377  1.00  0.00     0.126 A 
ATOM     21  C   UNL A   1      34.554  24.879  24.389  1.00  0.00     0.006 A 
ATOM     22  C   UNL A   1      34.359  22.939  25.784  1.00  0.00     0.045 A 
ATOM     23  F   UNL A   1      32.620  22.786  27.358  1.00  0.00    -0.207 F 
ENDBRANCH  14  16
ENDBRANCH  12  14
ENDBRANCH   6  12
ENDBRANCH   3   5
ENDBRANCH   2   3
ENDBRANCH   1   2
BRANCH   1  24
ATOM     24  C   UNL A   1      44.784  18.833  25.033  1.00  0.00     0.275 C 
BRANCH  24  25
ATOM     25  O   UNL A   1      44.504  20.047  24.338  1.00  0.00    -0.458 OA
BRANCH  25  26
ATOM     26  C   UNL A   1      44.942  21.124  25.017  1.00  0.00     0.338 C 
ATOM     27  O   UNL A   1      46.017  21.270  25.582  1.00  0.00    -0.246 OA
BRANCH  26  28
ATOM     28  C   UNL A   1      43.877  22.109  25.155  1.00  0.00     0.060 A 
ATOM     29  C   UNL A   1      43.979  23.179  24.250  1.00  0.00     0.016 A 
ATOM     30  C   UNL A   1      43.494  22.278  26.478  1.00  0.00     0.016 A 
ATOM     31  C   UNL A   1      44.055  24.459  24.738  1.00  0.00     0.010 A 
ATOM     32  C   UNL A   1      43.580  23.548  26.971  1.00  0.00     0.010 A 
ATOM     33  C   UNL A   1      43.948  24.601  26.110  1.00  0.00    -0.014 A 
BRANCH  33  34
ATOM     34  C   UNL A   1      44.009  25.879  26.762  1.00  0.00     0.031 A 
ATOM     35  C   UNL A   1      42.736  26.602  26.837  1.00  0.00     0.074 A 
ATOM     36  C   UNL A   1      45.078  26.093  27.551  1.00  0.00     0.049 A 
ATOM     37  N   UNL A   1      42.582  27.735  27.408  1.00  0.00    -0.248 NA
ATOM     38  C   UNL A   1      41.513  26.097  26.210  1.00  0.00     0.031 C 
ATOM     39  C   UNL A   1      45.134  26.861  28.783  1.00  0.00     0.029 A 
ATOM     40  N   UNL A   1      46.415  25.758  27.282  1.00  0.00    -0.354 N 
ATOM     41  C   UNL A   1      41.227  27.943  27.530  1.00  0.00     0.074 A 
ATOM     42  C   UNL A   1      40.619  26.990  26.639  1.00  0.00     0.031 C 
ATOM     43  C   UNL A   1      46.415  27.176  29.038  1.00  0.00     0.029 A 
ATOM     44  C   UNL A   1      47.178  26.808  27.857  1.00  0.00     0.049 A 
ATOM     45  H   UNL A   1      46.750  24.968  26.799  1.00  0.00     0.167 HD
ATOM     46  C   UNL A   1      40.811  28.800  28.502  1.00  0.00     0.037 A 
ATOM     47  C   UNL A   1      47.818  27.709  27.045  1.00  0.00     0.037 A 
ATOM     48  C   UNL A   1      41.973  29.439  29.123  1.00  0.00     0.049 A 
ATOM     49  C   UNL A   1      47.310  29.133  27.175  1.00  0.00     0.074 A 
ATOM     50  C   UNL A   1      42.718  29.207  30.266  1.00  0.00     0.029 A 
ATOM     51  N   UNL A   1      42.733  30.273  28.333  1.00  0.00    -0.354 N 
ATOM     52  N   UNL A   1      46.192  29.455  27.767  1.00  0.00    -0.248 NA
ATOM     53  C   UNL A   1      47.982  30.296  26.598  1.00  0.00     0.031 C 
ATOM     54  C   UNL A   1      43.954  29.913  30.131  1.00  0.00     0.029 A 
ATOM     55  C   UNL A   1      43.942  30.575  28.915  1.00  0.00     0.049 A 
ATOM     56  H   UNL A   1      42.446  30.613  27.455  1.00  0.00     0.167 HD
ATOM     57  C   UNL A   1      45.979  30.799  27.655  1.00  0.00     0.074 A 
ATOM     58  C   UNL A   1      47.119  31.285  26.900  1.00  0.00     0.031 C 
ATOM     59  C   UNL A   1      44.870  31.404  28.166  1.00  0.00     0.037 A 
BRANCH  46  60
ATOM     60  C   UNL A   1      39.415  28.953  29.053  1.00  0.00     0.064 A 
ATOM     61  C   UNL A   1      38.398  29.462  28.212  1.00  0.00     0.173 A 
ATOM     62  C   UNL A   1      38.999  28.681  30.370  1.00  0.00     0.173 A 
ATOM     63  F   UNL A   1      38.617  29.703  26.913  1.00  0.00    -0.203 F 
ATOM     64  C   UNL A   1      37.111  29.743  28.671  1.00  0.00     0.198 A 
ATOM     65  C   UNL A   1      37.711  28.969  30.831  1.00  0.00     0.198 A 
ATOM     66  F   UNL A   1      39.793  28.100  31.269  1.00  0.00    -0.203 F 
ATOM     67  F   UNL A   1      36.203  30.248  27.824  1.00  0.00    -0.200 F 
ATOM     68  C   UNL A   1      36.770  29.511  29.985  1.00  0.00     0.200 A 
ATOM     69  F   UNL A   1      37.395  28.712  32.109  1.00  0.00    -0.200 F 
ATOM     70  F   UNL A   1      35.540  29.791  30.431  1.00  0.00    -0.200 F 
ENDBRANCH  46  60
BRANCH  47  71
ATOM     71  C   UNL A   1      48.268  27.075  25.770  1.00  0.00     0.064 A 
ATOM     72  C   UNL A   1      47.552  27.382  24.595  1.00  0.00     0.173 A 
ATOM     73  C   UNL A   1      49.590  26.631  25.627  1.00  0.00     0.173 A 
ATOM     74  F   UNL A   1      46.279  27.800  24.680  1.00  0.00    -0.203 F 
ATOM     75  C   UNL A   1      48.181  27.406  23.352  1.00  0.00     0.198 A 
ATOM     76  C   UNL A   1      50.215  26.651  24.378  1.00  0.00     0.198 A 
ATOM     77  F   UNL A   1      50.315  26.303  26.706  1.00  0.00    -0.203 F 
ATOM     78  F   UNL A   1      47.510  27.833  22.273  1.00  0.00    -0.200 F 
ATOM     79  C   UNL A   1      49.523  27.077  23.252  1.00  0.00     0.200 A 
ATOM     80  F   UNL A   1      51.516  26.336  24.278  1.00  0.00    -0.200 F 
ATOM     81  F   UNL A   1      50.159  27.200  22.079  1.00  0.00    -0.200 F 
ENDBRANCH  47  71
BRANCH  59  82
ATOM     82  C   UNL A   1      44.546  32.855  27.981  1.00  0.00     0.064 A 
ATOM     83  C   UNL A   1      44.664  33.787  29.018  1.00  0.00     0.173 A 
ATOM     84  C   UNL A   1      43.983  33.330  26.774  1.00  0.00     0.173 A 
ATOM     85  F   UNL A   1      45.144  33.418  30.215  1.00  0.00    -0.203 F 
ATOM     86  C   UNL A   1      44.275  35.117  28.846  1.00  0.00     0.198 A 
ATOM     87  C   UNL A   1      43.533  34.636  26.629  1.00  0.00     0.198 A 
ATOM     88  F   UNL A   1      43.884  32.549  25.687  1.00  0.00    -0.203 F 
ATOM     89  F   UNL A   1      44.460  35.995  29.841  1.00  0.00    -0.200 F 
ATOM     90  C   UNL A   1      43.694  35.536  27.660  1.00  0.00     0.200 A 
ATOM     91  F   UNL A   1      42.954  35.016  25.480  1.00  0.00    -0.200 F 
ATOM     92  F   UNL A   1      43.301  36.808  27.507  1.00  0.00    -0.200 F 
ENDBRANCH  59  82
ENDBRANCH  33  34
ENDBRANCH  26  28
ENDBRANCH  25  26
ENDBRANCH  24  25
ENDBRANCH   1  24
TORSDOF 14
ENDMDL
MODEL 3
REMARK VINA RESULT:     -12.7      4.990     10.208
REMARK SMILES Cc1ccc([C@H](C)Nc2ccc(C(=O)OCCOC(=O)c3ccc(-c4c5nc(c(-c6c(F)c(F)c(F)c(F)c6F)c6ccc([nH]6)c(-c6c(F)c(F)c(F)c(F)c6F)c6nc(c(-c7c(F)c(F)c(F)c(F)c7F)c7ccc4[nH]7)C=C6)C=C5)cc3)cc2Cl)cc1F
REMARK SMILES IDX 16 1 15 2 13 3 14 4 12 5 9 6 10 7 85 8 11 9 84 10 86 11 8 12
REMARK SMILES IDX 6 14 7 15 5 16 1 17 2 18 3 19 88 20 4 21 87 22 89 23 17 24
REMARK SMILES IDX 18 25 19 26 20 27 21 28 22 29 83 30 23 31 82 32 24 33 25 34
REMARK SMILES IDX 26 35 76 36 27 37 81 38 75 39 77 40 28 41 80 42 74 43 73 44
REMARK SMILES IDX 29 46 61 47 41 48 60 49 42 50 45 51 59 52 78 53 43 54 44 55
REMARK SMILES IDX 58 57 79 58 46 59 30 60 31 61 39 62 32 63 33 64 37 65 40 66
REMARK SMILES IDX 34 67 35 68 38 69 36 70 62 71 63 72 71 73 64 74 65 75 69 76
REMARK SMILES IDX 72 77 66 78 67 79 70 80 68 81 47 82 48 83 56 84 49 85 50 86
REMARK SMILES IDX 54 87 57 88 51 89 52 90 55 91 53 92
REMARK H PARENT 8 13 77 45 45 56
REMARK Flexibility Score: inf
ROOT
ATOM      1  C   UNL A   1      32.522  30.728  26.744  1.00  0.00     0.275 C 
ENDROOT
BRANCH   1   2
ATOM      2  O   UNL A   1      31.794  29.504  26.503  1.00  0.00    -0.458 OA
BRANCH   2   3
ATOM      3  C   UNL A   1      31.416  29.241  25.217  1.00  0.00     0.338 C 
ATOM      4  O   UNL A   1      30.784  29.969  24.489  1.00  0.00    -0.246 OA
BRANCH   3   5
ATOM      5  C   UNL A   1      31.997  27.944  24.764  1.00  0.00     0.061 A 
ATOM      6  C   UNL A   1      33.155  25.468  23.998  1.00  0.00     0.053 A 
ATOM      7  C   UNL A   1      33.938  26.508  24.521  1.00  0.00     0.028 A 
ATOM      8  C   UNL A   1      31.778  25.725  23.821  1.00  0.00     0.065 A 
ATOM      9  C   UNL A   1      33.377  27.745  24.852  1.00  0.00     0.018 A 
ATOM     10  C   UNL A   1      31.201  26.930  24.246  1.00  0.00     0.038 A 
ATOM     11  Cl  UNL A   1      30.666  24.595  23.129  1.00  0.00    -0.082 Cl
BRANCH   6  12
ATOM     12  N   UNL A   1      33.820  24.298  23.658  1.00  0.00    -0.377 N 
ATOM     13  H   UNL A   1      34.373  24.303  22.843  1.00  0.00     0.161 HD
BRANCH  12  14
ATOM     14  C   UNL A   1      33.751  23.062  24.433  1.00  0.00     0.106 C 
ATOM     15  C   UNL A   1      33.149  21.986  23.514  1.00  0.00     0.036 C 
BRANCH  14  16
ATOM     16  C   UNL A   1      35.129  22.770  25.027  1.00  0.00    -0.023 A 
ATOM     17  C   UNL A   1      39.271  21.962  26.043  1.00  0.00     0.047 C 
ATOM     18  C   UNL A   1      37.829  22.238  25.752  1.00  0.00    -0.015 A 
ATOM     19  C   UNL A   1      37.222  23.450  26.094  1.00  0.00     0.007 A 
ATOM     20  C   UNL A   1      37.072  21.289  25.075  1.00  0.00     0.126 A 
ATOM     21  C   UNL A   1      35.891  23.714  25.732  1.00  0.00     0.006 A 
ATOM     22  C   UNL A   1      35.748  21.538  24.735  1.00  0.00     0.045 A 
ATOM     23  F   UNL A   1      37.625  20.122  24.715  1.00  0.00    -0.207 F 
ENDBRANCH  14  16
ENDBRANCH  12  14
ENDBRANCH   6  12
ENDBRANCH   3   5
ENDBRANCH   2   3
ENDBRANCH   1   2
BRANCH   1  24
ATOM     24  C   UNL A   1      33.780  30.528  27.590  1.00  0.00     0.275 C 
BRANCH  24  25
ATOM     25  O   UNL A   1      34.760  31.509  27.254  1.00  0.00    -0.458 OA
BRANCH  25  26
ATOM     26  C   UNL A   1      35.858  31.403  28.025  1.00  0.00     0.338 C 
ATOM     27  O   UNL A   1      36.487  32.302  28.565  1.00  0.00    -0.246 OA
BRANCH  26  28
ATOM     28  C   UNL A   1      36.351  30.031  28.028  1.00  0.00     0.060 A 
ATOM     29  C   UNL A   1      36.313  29.422  29.293  1.00  0.00     0.016 A 
ATOM     30  C   UNL A   1      37.403  29.855  27.141  1.00  0.00     0.016 A 
ATOM     31  C   UNL A   1      37.475  28.930  29.831  1.00  0.00     0.010 A 
ATOM     32  C   UNL A   1      38.565  29.378  27.675  1.00  0.00     0.010 A 
ATOM     33  C   UNL A   1      38.603  29.011  29.034  1.00  0.00    -0.014 A 
BRANCH  33  34
ATOM     34  C   UNL A   1      39.889  28.537  29.464  1.00  0.00     0.031 A 
ATOM     35  C   UNL A   1      40.223  27.174  29.042  1.00  0.00     0.074 A 
ATOM     36  C   UNL A   1      40.773  29.478  29.843  1.00  0.00     0.049 A 
ATOM     37  N   UNL A   1      41.332  26.591  29.297  1.00  0.00    -0.248 NA
ATOM     38  C   UNL A   1      39.277  26.327  28.314  1.00  0.00     0.031 C 
ATOM     39  C   UNL A   1      42.215  29.463  29.671  1.00  0.00     0.029 A 
ATOM     40  N   UNL A   1      40.522  30.613  30.631  1.00  0.00    -0.354 N 
ATOM     41  C   UNL A   1      41.389  25.469  28.502  1.00  0.00     0.074 A 
ATOM     42  C   UNL A   1      40.040  25.267  28.041  1.00  0.00     0.031 C 
ATOM     43  C   UNL A   1      42.761  30.349  30.522  1.00  0.00     0.029 A 
ATOM     44  C   UNL A   1      41.696  30.785  31.410  1.00  0.00     0.049 A 
ATOM     45  H   UNL A   1      39.709  31.169  30.640  1.00  0.00     0.167 HD
ATOM     46  C   UNL A   1      42.621  24.962  28.223  1.00  0.00     0.037 A 
ATOM     47  C   UNL A   1      41.664  30.524  32.756  1.00  0.00     0.037 A 
ATOM     48  C   UNL A   1      43.635  25.685  28.991  1.00  0.00     0.049 A 
ATOM     49  C   UNL A   1      42.552  29.372  33.187  1.00  0.00     0.074 A 
ATOM     50  C   UNL A   1      44.496  26.735  28.725  1.00  0.00     0.029 A 
ATOM     51  N   UNL A   1      43.595  25.561  30.363  1.00  0.00    -0.354 N 
ATOM     52  N   UNL A   1      43.078  28.511  32.360  1.00  0.00    -0.248 NA
ATOM     53  C   UNL A   1      42.867  29.060  34.581  1.00  0.00     0.031 C 
ATOM     54  C   UNL A   1      44.959  27.248  29.976  1.00  0.00     0.029 A 
ATOM     55  C   UNL A   1      44.384  26.498  30.988  1.00  0.00     0.049 A 
ATOM     56  H   UNL A   1      43.065  24.883  30.839  1.00  0.00     0.167 HD
ATOM     57  C   UNL A   1      43.763  27.557  33.058  1.00  0.00     0.074 A 
ATOM     58  C   UNL A   1      43.591  27.932  34.449  1.00  0.00     0.031 C 
ATOM     59  C   UNL A   1      44.395  26.519  32.441  1.00  0.00     0.037 A 
BRANCH  46  60
ATOM     60  C   UNL A   1      42.980  23.968  27.145  1.00  0.00     0.064 A 
ATOM     61  C   UNL A   1      42.625  22.610  27.318  1.00  0.00     0.173 A 
ATOM     62  C   UNL A   1      43.694  24.237  25.962  1.00  0.00     0.173 A 
ATOM     63  F   UNL A   1      41.883  22.206  28.358  1.00  0.00    -0.203 F 
ATOM     64  C   UNL A   1      43.018  21.609  26.430  1.00  0.00     0.198 A 
ATOM     65  C   UNL A   1      44.093  23.232  25.076  1.00  0.00     0.198 A 
ATOM     66  F   UNL A   1      44.018  25.473  25.583  1.00  0.00    -0.203 F 
ATOM     67  F   UNL A   1      42.668  20.338  26.670  1.00  0.00    -0.200 F 
ATOM     68  C   UNL A   1      43.765  21.917  25.314  1.00  0.00     0.200 A 
ATOM     69  F   UNL A   1      44.800  23.559  23.983  1.00  0.00    -0.200 F 
ATOM     70  F   UNL A   1      44.154  20.957  24.467  1.00  0.00    -0.200 F 
ENDBRANCH  46  60
BRANCH  47  71
ATOM     71  C   UNL A   1      40.328  30.841  33.344  1.00  0.00     0.064 A 
ATOM     72  C   UNL A   1      39.989  32.199  33.509  1.00  0.00     0.173 A 
ATOM     73  C   UNL A   1      39.279  29.915  33.260  1.00  0.00     0.173 A 
ATOM     74  F   UNL A   1      40.959  33.123  33.605  1.00  0.00    -0.203 F 
ATOM     75  C   UNL A   1      38.666  32.628  33.423  1.00  0.00     0.198 A 
ATOM     76  C   UNL A   1      37.954  30.349  33.181  1.00  0.00     0.198 A 
ATOM     77  F   UNL A   1      39.539  28.607  33.125  1.00  0.00    -0.203 F 
ATOM     78  F   UNL A   1      38.386  33.938  33.447  1.00  0.00    -0.200 F 
ATOM     79  C   UNL A   1      37.653  31.703  33.220  1.00  0.00     0.200 A 
ATOM     80  F   UNL A   1      36.971  29.457  32.982  1.00  0.00    -0.200 F 
ATOM     81  F   UNL A   1      36.392  32.118  33.032  1.00  0.00    -0.200 F 
ENDBRANCH  47  71
BRANCH  59  82
ATOM     82  C   UNL A   1      45.071  25.397  33.169  1.00  0.00     0.064 A 
ATOM     83  C   UNL A   1      44.361  24.471  33.940  1.00  0.00     0.173 A 
ATOM     84  C   UNL A   1      46.481  25.297  33.210  1.00  0.00     0.173 A 
ATOM     85  F   UNL A   1      43.023  24.516  34.001  1.00  0.00    -0.203 F 
ATOM     86  C   UNL A   1      45.020  23.486  34.680  1.00  0.00     0.198 A 
ATOM     87  C   UNL A   1      47.135  24.360  34.000  1.00  0.00     0.198 A 
ATOM     88  F   UNL A   1      47.266  26.084  32.457  1.00  0.00    -0.203 F 
ATOM     89  F   UNL A   1      44.307  22.578  35.358  1.00  0.00    -0.200 F 
ATOM     90  C   UNL A   1      46.404  23.443  34.723  1.00  0.00     0.200 A 
ATOM     91  F   UNL A   1      48.476  24.348  34.045  1.00  0.00    -0.200 F 
ATOM     92  F   UNL A   1      47.034  22.510  35.451  1.00  0.00    -0.200 F 
ENDBRANCH  59  82
ENDBRANCH  33  34
ENDBRANCH  26  28
ENDBRANCH  25  26
ENDBRANCH  24  25
ENDBRANCH   1  24
TORSDOF 14
ENDMDL
