MODEL 1
REMARK VINA RESULT:      -9.3      0.000      0.000
REMARK SMILES O=C(CCCC(=O)OCCOC(=O)c1ccc(-c2c3nc(c(-c4c(F)c(F)c(F)c(F)c4F)c4ccc([nH]4)c(-c4c(F)c(F)c(F)c(F)c4F)c4nc(c(-c5c(F)c(F)c(F)c(F)c5F)c5ccc2[nH]5)C=C4)C=C3)cc1)Nc1ccccc1F
REMARK SMILES IDX 9 1 8 2 6 3 7 4 5 5 4 6 3 7 2 8 1 9 77 10 78 12 79 13 83 14
REMARK SMILES IDX 80 15 82 16 84 17 81 18 10 19 11 20 12 21 13 22 14 23 15 24
REMARK SMILES IDX 76 25 16 26 75 27 17 28 18 29 19 30 69 31 20 32 74 33 68 34
REMARK SMILES IDX 70 35 21 36 73 37 67 38 66 39 22 41 54 42 34 43 53 44 35 45
REMARK SMILES IDX 38 46 52 47 71 48 36 49 37 50 51 52 72 53 39 54 23 55 24 56
REMARK SMILES IDX 32 57 25 58 26 59 30 60 33 61 27 62 28 63 31 64 29 65 55 66
REMARK SMILES IDX 56 67 64 68 57 69 58 70 62 71 65 72 59 73 60 74 63 75 61 76
REMARK SMILES IDX 40 77 41 78 49 79 42 80 43 81 47 82 50 83 44 84 45 85 48 86
REMARK SMILES IDX 46 87
REMARK H PARENT 77 11 70 40 38 51
REMARK Flexibility Score: inf
ROOT
ATOM      1  C   UNL A   1      45.731  20.342  24.439  1.00  0.00     0.274 C 
ENDROOT
BRANCH   1   2
ATOM      2  O   UNL A   1      46.238  21.519  25.104  1.00  0.00    -0.462 OA
BRANCH   2   3
ATOM      3  C   UNL A   1      45.958  22.724  24.558  1.00  0.00     0.305 C 
ATOM      4  O   UNL A   1      45.392  22.890  23.485  1.00  0.00    -0.252 OA
BRANCH   3   5
ATOM      5  C   UNL A   1      46.495  23.882  25.380  1.00  0.00     0.123 C 
BRANCH   5   6
ATOM      6  C   UNL A   1      47.638  24.708  24.778  1.00  0.00     0.022 C 
BRANCH   6   7
ATOM      7  C   UNL A   1      47.735  26.191  25.161  1.00  0.00     0.101 C 
BRANCH   7   8
ATOM      8  C   UNL A   1      46.467  26.981  24.896  1.00  0.00     0.224 C 
ATOM      9  O   UNL A   1      46.353  27.683  23.896  1.00  0.00    -0.275 OA
ATOM     10  N   UNL A   1      45.555  26.898  25.933  1.00  0.00    -0.324 N 
ATOM     11  H   UNL A   1      45.740  26.270  26.668  1.00  0.00     0.170 HD
BRANCH  10  12
ATOM     12  C   UNL A   1      44.379  27.663  25.994  1.00  0.00     0.077 A 
ATOM     13  C   UNL A   1      44.396  28.822  26.779  1.00  0.00     0.029 A 
ATOM     14  C   UNL A   1      43.208  27.302  25.325  1.00  0.00     0.146 A 
ATOM     15  C   UNL A   1      43.265  29.639  26.840  1.00  0.00     0.002 A 
ATOM     16  C   UNL A   1      42.066  28.092  25.423  1.00  0.00     0.041 A 
ATOM     17  F   UNL A   1      43.126  26.135  24.668  1.00  0.00    -0.205 F 
ATOM     18  C   UNL A   1      42.099  29.271  26.168  1.00  0.00     0.003 A 
ENDBRANCH  10  12
ENDBRANCH   7   8
ENDBRANCH   6   7
ENDBRANCH   5   6
ENDBRANCH   3   5
ENDBRANCH   2   3
ENDBRANCH   1   2
BRANCH   1  19
ATOM     19  C   UNL A   1      44.686  19.627  25.299  1.00  0.00     0.275 C 
BRANCH  19  20
ATOM     20  O   UNL A   1      43.360  19.837  24.780  1.00  0.00    -0.458 OA
BRANCH  20  21
ATOM     21  C   UNL A   1      42.381  19.880  25.712  1.00  0.00     0.338 C 
ATOM     22  O   UNL A   1      41.622  18.984  26.034  1.00  0.00    -0.246 OA
BRANCH  21  23
ATOM     23  C   UNL A   1      42.489  21.139  26.466  1.00  0.00     0.060 A 
ATOM     24  C   UNL A   1      42.658  22.306  25.723  1.00  0.00     0.016 A 
ATOM     25  C   UNL A   1      42.484  21.180  27.859  1.00  0.00     0.016 A 
ATOM     26  C   UNL A   1      42.806  23.529  26.360  1.00  0.00     0.010 A 
ATOM     27  C   UNL A   1      42.641  22.413  28.506  1.00  0.00     0.010 A 
ATOM     28  C   UNL A   1      42.805  23.593  27.758  1.00  0.00    -0.014 A 
BRANCH  28  29
ATOM     29  C   UNL A   1      43.034  24.908  28.398  1.00  0.00     0.031 A 
ATOM     30  C   UNL A   1      44.424  25.331  28.765  1.00  0.00     0.074 A 
ATOM     31  C   UNL A   1      42.000  25.755  28.554  1.00  0.00     0.049 A 
ATOM     32  N   UNL A   1      44.835  26.454  29.298  1.00  0.00    -0.248 NA
ATOM     33  C   UNL A   1      45.496  24.363  28.492  1.00  0.00     0.031 C 
ATOM     34  C   UNL A   1      40.616  25.471  28.179  1.00  0.00     0.029 A 
ATOM     35  N   UNL A   1      41.960  27.037  29.042  1.00  0.00    -0.354 N 
ATOM     36  C   UNL A   1      46.208  26.320  29.445  1.00  0.00     0.074 A 
ATOM     37  C   UNL A   1      46.560  25.003  28.956  1.00  0.00     0.031 C 
ATOM     38  C   UNL A   1      39.866  26.559  28.416  1.00  0.00     0.029 A 
ATOM     39  C   UNL A   1      40.709  27.599  29.001  1.00  0.00     0.049 A 
ATOM     40  H   UNL A   1      42.753  27.507  29.388  1.00  0.00     0.167 HD
ATOM     41  C   UNL A   1      47.093  27.219  29.940  1.00  0.00     0.037 A 
ATOM     42  C   UNL A   1      40.291  28.815  29.398  1.00  0.00     0.037 A 
ATOM     43  C   UNL A   1      46.740  28.535  30.405  1.00  0.00     0.049 A 
ATOM     44  C   UNL A   1      41.287  29.776  29.986  1.00  0.00     0.074 A 
ATOM     45  C   UNL A   1      47.563  29.524  30.913  1.00  0.00     0.029 A 
ATOM     46  N   UNL A   1      45.449  29.046  30.418  1.00  0.00    -0.354 N 
ATOM     47  N   UNL A   1      42.582  29.636  30.137  1.00  0.00    -0.248 NA
ATOM     48  C   UNL A   1      40.759  31.059  30.467  1.00  0.00     0.031 C 
ATOM     49  C   UNL A   1      46.767  30.618  31.271  1.00  0.00     0.029 A 
ATOM     50  C   UNL A   1      45.450  30.328  30.947  1.00  0.00     0.049 A 
ATOM     51  H   UNL A   1      44.650  28.569  30.097  1.00  0.00     0.167 HD
ATOM     52  C   UNL A   1      43.026  30.813  30.723  1.00  0.00     0.074 A 
ATOM     53  C   UNL A   1      41.865  31.666  30.875  1.00  0.00     0.031 C 
ATOM     54  C   UNL A   1      44.281  31.153  31.106  1.00  0.00     0.037 A 
BRANCH  41  55
ATOM     55  C   UNL A   1      48.524  26.781  30.044  1.00  0.00     0.064 A 
ATOM     56  C   UNL A   1      49.007  26.082  31.160  1.00  0.00     0.173 A 
ATOM     57  C   UNL A   1      49.426  27.070  29.009  1.00  0.00     0.173 A 
ATOM     58  F   UNL A   1      48.189  25.797  32.185  1.00  0.00    -0.203 F 
ATOM     59  C   UNL A   1      50.348  25.715  31.248  1.00  0.00     0.198 A 
ATOM     60  C   UNL A   1      50.759  26.681  29.089  1.00  0.00     0.198 A 
ATOM     61  F   UNL A   1      49.014  27.737  27.921  1.00  0.00    -0.203 F 
ATOM     62  F   UNL A   1      50.801  25.095  32.348  1.00  0.00    -0.200 F 
ATOM     63  C   UNL A   1      51.222  26.011  30.213  1.00  0.00     0.200 A 
ATOM     64  F   UNL A   1      51.601  26.961  28.085  1.00  0.00    -0.200 F 
ATOM     65  F   UNL A   1      52.513  25.662  30.303  1.00  0.00    -0.200 F 
ENDBRANCH  41  55
BRANCH  42  66
ATOM     66  C   UNL A   1      38.861  29.187  29.251  1.00  0.00     0.064 A 
ATOM     67  C   UNL A   1      38.326  29.506  27.997  1.00  0.00     0.173 A 
ATOM     68  C   UNL A   1      38.000  29.218  30.359  1.00  0.00     0.173 A 
ATOM     69  F   UNL A   1      39.116  29.515  26.914  1.00  0.00    -0.203 F 
ATOM     70  C   UNL A   1      36.982  29.846  27.855  1.00  0.00     0.198 A 
ATOM     71  C   UNL A   1      36.652  29.533  30.212  1.00  0.00     0.198 A 
ATOM     72  F   UNL A   1      38.467  28.925  31.580  1.00  0.00    -0.203 F 
ATOM     73  F   UNL A   1      36.500  30.177  26.650  1.00  0.00    -0.200 F 
ATOM     74  C   UNL A   1      36.145  29.851  28.961  1.00  0.00     0.200 A 
ATOM     75  F   UNL A   1      35.845  29.526  31.281  1.00  0.00    -0.200 F 
ATOM     76  F   UNL A   1      34.849  30.167  28.822  1.00  0.00    -0.200 F 
ENDBRANCH  42  66
BRANCH  54  77
ATOM     77  C   UNL A   1      44.453  32.511  31.724  1.00  0.00     0.064 A 
ATOM     78  C   UNL A   1      44.731  33.640  30.940  1.00  0.00     0.173 A 
ATOM     79  C   UNL A   1      44.335  32.684  33.111  1.00  0.00     0.173 A 
ATOM     80  F   UNL A   1      44.871  33.521  29.611  1.00  0.00    -0.203 F 
ATOM     81  C   UNL A   1      44.915  34.889  31.526  1.00  0.00     0.198 A 
ATOM     82  C   UNL A   1      44.493  33.939  33.691  1.00  0.00     0.198 A 
ATOM     83  F   UNL A   1      44.066  31.635  33.904  1.00  0.00    -0.203 F 
ATOM     84  F   UNL A   1      45.233  35.944  30.764  1.00  0.00    -0.200 F 
ATOM     85  C   UNL A   1      44.792  35.039  32.899  1.00  0.00     0.200 A 
ATOM     86  F   UNL A   1      44.367  34.085  35.017  1.00  0.00    -0.200 F 
ATOM     87  F   UNL A   1      44.975  36.241  33.462  1.00  0.00    -0.200 F 
ENDBRANCH  54  77
ENDBRANCH  28  29
ENDBRANCH  21  23
ENDBRANCH  20  21
ENDBRANCH  19  20
ENDBRANCH   1  19
TORSDOF 15
ENDMDL
MODEL 2
REMARK VINA RESULT:      -9.0      2.629      4.279
REMARK SMILES O=C(CCCC(=O)OCCOC(=O)c1ccc(-c2c3nc(c(-c4c(F)c(F)c(F)c(F)c4F)c4ccc([nH]4)c(-c4c(F)c(F)c(F)c(F)c4F)c4nc(c(-c5c(F)c(F)c(F)c(F)c5F)c5ccc2[nH]5)C=C4)C=C3)cc1)Nc1ccccc1F
REMARK SMILES IDX 9 1 8 2 6 3 7 4 5 5 4 6 3 7 2 8 1 9 77 10 78 12 79 13 83 14
REMARK SMILES IDX 80 15 82 16 84 17 81 18 10 19 11 20 12 21 13 22 14 23 15 24
REMARK SMILES IDX 76 25 16 26 75 27 17 28 18 29 19 30 69 31 20 32 74 33 68 34
REMARK SMILES IDX 70 35 21 36 73 37 67 38 66 39 22 41 54 42 34 43 53 44 35 45
REMARK SMILES IDX 38 46 52 47 71 48 36 49 37 50 51 52 72 53 39 54 23 55 24 56
REMARK SMILES IDX 32 57 25 58 26 59 30 60 33 61 27 62 28 63 31 64 29 65 55 66
REMARK SMILES IDX 56 67 64 68 57 69 58 70 62 71 65 72 59 73 60 74 63 75 61 76
REMARK SMILES IDX 40 77 41 78 49 79 42 80 43 81 47 82 50 83 44 84 45 85 48 86
REMARK SMILES IDX 46 87
REMARK H PARENT 77 11 70 40 38 51
REMARK Flexibility Score: inf
ROOT
ATOM      1  C   UNL A   1      41.922  20.075  26.696  1.00  0.00     0.274 C 
ENDROOT
BRANCH   1   2
ATOM      2  O   UNL A   1      42.907  20.025  25.642  1.00  0.00    -0.462 OA
BRANCH   2   3
ATOM      3  C   UNL A   1      43.489  18.833  25.376  1.00  0.00     0.305 C 
ATOM      4  O   UNL A   1      43.062  17.748  25.752  1.00  0.00    -0.252 OA
BRANCH   3   5
ATOM      5  C   UNL A   1      44.797  18.972  24.618  1.00  0.00     0.123 C 
BRANCH   5   6
ATOM      6  C   UNL A   1      45.746  20.097  25.044  1.00  0.00     0.022 C 
BRANCH   6   7
ATOM      7  C   UNL A   1      45.652  21.438  24.304  1.00  0.00     0.101 C 
BRANCH   7   8
ATOM      8  C   UNL A   1      45.420  22.630  25.214  1.00  0.00     0.224 C 
ATOM      9  O   UNL A   1      45.153  23.737  24.755  1.00  0.00    -0.275 OA
ATOM     10  N   UNL A   1      45.652  22.342  26.547  1.00  0.00    -0.324 N 
ATOM     11  H   UNL A   1      45.822  21.406  26.799  1.00  0.00     0.170 HD
BRANCH  10  12
ATOM     12  C   UNL A   1      45.658  23.315  27.559  1.00  0.00     0.077 A 
ATOM     13  C   UNL A   1      44.586  23.326  28.460  1.00  0.00     0.029 A 
ATOM     14  C   UNL A   1      46.670  24.269  27.683  1.00  0.00     0.146 A 
ATOM     15  C   UNL A   1      44.566  24.247  29.509  1.00  0.00     0.002 A 
ATOM     16  C   UNL A   1      46.627  25.217  28.701  1.00  0.00     0.041 A 
ATOM     17  F   UNL A   1      47.642  24.360  26.763  1.00  0.00    -0.205 F 
ATOM     18  C   UNL A   1      45.582  25.197  29.626  1.00  0.00     0.003 A 
ENDBRANCH  10  12
ENDBRANCH   7   8
ENDBRANCH   6   7
ENDBRANCH   5   6
ENDBRANCH   3   5
ENDBRANCH   2   3
ENDBRANCH   1   2
BRANCH   1  19
ATOM     19  C   UNL A   1      40.505  20.173  26.125  1.00  0.00     0.275 C 
BRANCH  19  20
ATOM     20  O   UNL A   1      39.653  20.944  26.991  1.00  0.00    -0.458 OA
BRANCH  20  21
ATOM     21  C   UNL A   1      39.044  22.000  26.403  1.00  0.00     0.338 C 
ATOM     22  O   UNL A   1      38.032  21.990  25.725  1.00  0.00    -0.246 OA
BRANCH  21  23
ATOM     23  C   UNL A   1      39.671  23.242  26.878  1.00  0.00     0.060 A 
ATOM     24  C   UNL A   1      39.433  24.395  26.131  1.00  0.00     0.016 A 
ATOM     25  C   UNL A   1      40.513  23.279  27.989  1.00  0.00     0.016 A 
ATOM     26  C   UNL A   1      40.019  25.599  26.491  1.00  0.00     0.010 A 
ATOM     27  C   UNL A   1      41.111  24.493  28.352  1.00  0.00     0.010 A 
ATOM     28  C   UNL A   1      40.869  25.657  27.602  1.00  0.00    -0.014 A 
BRANCH  28  29
ATOM     29  C   UNL A   1      41.526  26.947  27.912  1.00  0.00     0.031 A 
ATOM     30  C   UNL A   1      42.898  27.235  27.382  1.00  0.00     0.074 A 
ATOM     31  C   UNL A   1      40.844  27.891  28.586  1.00  0.00     0.049 A 
ATOM     32  N   UNL A   1      43.626  28.315  27.511  1.00  0.00    -0.248 NA
ATOM     33  C   UNL A   1      43.534  26.167  26.598  1.00  0.00     0.031 C 
ATOM     34  C   UNL A   1      39.483  27.740  29.098  1.00  0.00     0.029 A 
ATOM     35  N   UNL A   1      41.193  29.172  28.930  1.00  0.00    -0.354 N 
ATOM     36  C   UNL A   1      44.814  28.050  26.845  1.00  0.00     0.074 A 
ATOM     37  C   UNL A   1      44.715  26.703  26.323  1.00  0.00     0.031 C 
ATOM     38  C   UNL A   1      39.096  28.897  29.659  1.00  0.00     0.029 A 
ATOM     39  C   UNL A   1      40.198  29.853  29.586  1.00  0.00     0.049 A 
ATOM     40  H   UNL A   1      42.071  29.566  28.725  1.00  0.00     0.167 HD
ATOM     41  C   UNL A   1      45.887  28.862  26.683  1.00  0.00     0.037 A 
ATOM     42  C   UNL A   1      40.183  31.105  30.079  1.00  0.00     0.037 A 
ATOM     43  C   UNL A   1      45.971  30.207  27.187  1.00  0.00     0.049 A 
ATOM     44  C   UNL A   1      41.404  31.968  29.924  1.00  0.00     0.074 A 
ATOM     45  C   UNL A   1      47.010  31.114  27.066  1.00  0.00     0.029 A 
ATOM     46  N   UNL A   1      44.972  30.841  27.912  1.00  0.00    -0.354 N 
ATOM     47  N   UNL A   1      42.531  31.704  29.307  1.00  0.00    -0.248 NA
ATOM     48  C   UNL A   1      41.354  33.298  30.543  1.00  0.00     0.031 C 
ATOM     49  C   UNL A   1      46.655  32.282  27.752  1.00  0.00     0.029 A 
ATOM     50  C   UNL A   1      45.378  32.119  28.266  1.00  0.00     0.049 A 
ATOM     51  H   UNL A   1      44.102  30.442  28.142  1.00  0.00     0.167 HD
ATOM     52  C   UNL A   1      43.320  32.835  29.457  1.00  0.00     0.074 A 
ATOM     53  C   UNL A   1      42.533  33.797  30.201  1.00  0.00     0.031 C 
ATOM     54  C   UNL A   1      44.586  33.054  29.022  1.00  0.00     0.037 A 
BRANCH  41  55
ATOM     55  C   UNL A   1      47.074  28.288  25.967  1.00  0.00     0.064 A 
ATOM     56  C   UNL A   1      47.094  28.127  24.574  1.00  0.00     0.173 A 
ATOM     57  C   UNL A   1      48.209  27.891  26.690  1.00  0.00     0.173 A 
ATOM     58  F   UNL A   1      46.026  28.475  23.838  1.00  0.00    -0.203 F 
ATOM     59  C   UNL A   1      48.195  27.561  23.935  1.00  0.00     0.198 A 
ATOM     60  C   UNL A   1      49.317  27.349  26.046  1.00  0.00     0.198 A 
ATOM     61  F   UNL A   1      48.240  28.024  28.024  1.00  0.00    -0.203 F 
ATOM     62  F   UNL A   1      48.171  27.367  22.608  1.00  0.00    -0.200 F 
ATOM     63  C   UNL A   1      49.306  27.176  24.670  1.00  0.00     0.200 A 
ATOM     64  F   UNL A   1      50.393  26.984  26.757  1.00  0.00    -0.200 F 
ATOM     65  F   UNL A   1      50.362  26.626  24.053  1.00  0.00    -0.200 F 
ENDBRANCH  41  55
BRANCH  42  66
ATOM     66  C   UNL A   1      38.967  31.614  30.763  1.00  0.00     0.064 A 
ATOM     67  C   UNL A   1      37.985  32.318  30.057  1.00  0.00     0.173 A 
ATOM     68  C   UNL A   1      38.757  31.392  32.133  1.00  0.00     0.173 A 
ATOM     69  F   UNL A   1      38.153  32.577  28.752  1.00  0.00    -0.203 F 
ATOM     70  C   UNL A   1      36.838  32.788  30.695  1.00  0.00     0.198 A 
ATOM     71  C   UNL A   1      37.599  31.839  32.764  1.00  0.00     0.198 A 
ATOM     72  F   UNL A   1      39.671  30.726  32.852  1.00  0.00    -0.203 F 
ATOM     73  F   UNL A   1      35.927  33.486  30.004  1.00  0.00    -0.200 F 
ATOM     74  C   UNL A   1      36.643  32.540  32.046  1.00  0.00     0.200 A 
ATOM     75  F   UNL A   1      37.411  31.589  34.066  1.00  0.00    -0.200 F 
ATOM     76  F   UNL A   1      35.535  32.982  32.657  1.00  0.00    -0.200 F 
ENDBRANCH  42  66
BRANCH  54  77
ATOM     77  C   UNL A   1      45.188  34.391  29.345  1.00  0.00     0.064 A 
ATOM     78  C   UNL A   1      45.044  35.485  28.479  1.00  0.00     0.173 A 
ATOM     79  C   UNL A   1      45.910  34.582  30.532  1.00  0.00     0.173 A 
ATOM     80  F   UNL A   1      44.377  35.347  27.322  1.00  0.00    -0.203 F 
ATOM     81  C   UNL A   1      45.629  36.713  28.775  1.00  0.00     0.198 A 
ATOM     82  C   UNL A   1      46.472  35.818  30.837  1.00  0.00     0.198 A 
ATOM     83  F   UNL A   1      46.073  33.567  31.395  1.00  0.00    -0.203 F 
ATOM     84  F   UNL A   1      45.525  37.729  27.907  1.00  0.00    -0.200 F 
ATOM     85  C   UNL A   1      46.338  36.880  29.954  1.00  0.00     0.200 A 
ATOM     86  F   UNL A   1      47.150  35.981  31.982  1.00  0.00    -0.200 F 
ATOM     87  F   UNL A   1      46.905  38.061  30.235  1.00  0.00    -0.200 F 
ENDBRANCH  54  77
ENDBRANCH  28  29
ENDBRANCH  21  23
ENDBRANCH  20  21
ENDBRANCH  19  20
ENDBRANCH   1  19
TORSDOF 15
ENDMDL
MODEL 3
REMARK VINA RESULT:      -8.9      2.409      4.180
REMARK SMILES O=C(CCCC(=O)OCCOC(=O)c1ccc(-c2c3nc(c(-c4c(F)c(F)c(F)c(F)c4F)c4ccc([nH]4)c(-c4c(F)c(F)c(F)c(F)c4F)c4nc(c(-c5c(F)c(F)c(F)c(F)c5F)c5ccc2[nH]5)C=C4)C=C3)cc1)Nc1ccccc1F
REMARK SMILES IDX 9 1 8 2 6 3 7 4 5 5 4 6 3 7 2 8 1 9 77 10 78 12 79 13 83 14
REMARK SMILES IDX 80 15 82 16 84 17 81 18 10 19 11 20 12 21 13 22 14 23 15 24
REMARK SMILES IDX 76 25 16 26 75 27 17 28 18 29 19 30 69 31 20 32 74 33 68 34
REMARK SMILES IDX 70 35 21 36 73 37 67 38 66 39 22 41 54 42 34 43 53 44 35 45
REMARK SMILES IDX 38 46 52 47 71 48 36 49 37 50 51 52 72 53 39 54 23 55 24 56
REMARK SMILES IDX 32 57 25 58 26 59 30 60 33 61 27 62 28 63 31 64 29 65 55 66
REMARK SMILES IDX 56 67 64 68 57 69 58 70 62 71 65 72 59 73 60 74 63 75 61 76
REMARK SMILES IDX 40 77 41 78 49 79 42 80 43 81 47 82 50 83 44 84 45 85 48 86
REMARK SMILES IDX 46 87
REMARK H PARENT 77 11 70 40 38 51
REMARK Flexibility Score: inf
ROOT
ATOM      1  C   UNL A   1      41.949  20.118  26.449  1.00  0.00     0.274 C 
ENDROOT
BRANCH   1   2
ATOM      2  O   UNL A   1      42.832  19.964  25.317  1.00  0.00    -0.462 OA
BRANCH   2   3
ATOM      3  C   UNL A   1      43.777  18.998  25.380  1.00  0.00     0.305 C 
ATOM      4  O   UNL A   1      43.726  18.017  26.111  1.00  0.00    -0.252 OA
BRANCH   3   5
ATOM      5  C   UNL A   1      44.977  19.291  24.497  1.00  0.00     0.123 C 
BRANCH   5   6
ATOM      6  C   UNL A   1      45.965  20.361  24.976  1.00  0.00     0.022 C 
BRANCH   6   7
ATOM      7  C   UNL A   1      45.696  21.819  24.578  1.00  0.00     0.101 C 
BRANCH   7   8
ATOM      8  C   UNL A   1      45.088  22.659  25.686  1.00  0.00     0.224 C 
ATOM      9  O   UNL A   1      44.132  23.398  25.471  1.00  0.00    -0.275 OA
ATOM     10  N   UNL A   1      45.791  22.571  26.874  1.00  0.00    -0.324 N 
ATOM     11  H   UNL A   1      46.520  21.912  26.938  1.00  0.00     0.170 HD
BRANCH  10  12
ATOM     12  C   UNL A   1      45.520  23.373  27.995  1.00  0.00     0.077 A 
ATOM     13  C   UNL A   1      44.380  23.074  28.751  1.00  0.00     0.029 A 
ATOM     14  C   UNL A   1      46.325  24.452  28.363  1.00  0.00     0.146 A 
ATOM     15  C   UNL A   1      44.089  23.816  29.897  1.00  0.00     0.002 A 
ATOM     16  C   UNL A   1      46.009  25.222  29.479  1.00  0.00     0.041 A 
ATOM     17  F   UNL A   1      47.351  24.838  27.589  1.00  0.00    -0.205 F 
ATOM     18  C   UNL A   1      44.900  24.893  30.258  1.00  0.00     0.003 A 
ENDBRANCH  10  12
ENDBRANCH   7   8
ENDBRANCH   6   7
ENDBRANCH   5   6
ENDBRANCH   3   5
ENDBRANCH   2   3
ENDBRANCH   1   2
BRANCH   1  19
ATOM     19  C   UNL A   1      40.481  20.040  26.020  1.00  0.00     0.275 C 
BRANCH  19  20
ATOM     20  O   UNL A   1      39.651  20.849  26.874  1.00  0.00    -0.458 OA
BRANCH  20  21
ATOM     21  C   UNL A   1      39.048  21.894  26.262  1.00  0.00     0.338 C 
ATOM     22  O   UNL A   1      38.098  21.861  25.500  1.00  0.00    -0.246 OA
BRANCH  21  23
ATOM     23  C   UNL A   1      39.576  23.147  26.820  1.00  0.00     0.060 A 
ATOM     24  C   UNL A   1      39.247  24.325  26.150  1.00  0.00     0.016 A 
ATOM     25  C   UNL A   1      40.416  23.177  27.933  1.00  0.00     0.016 A 
ATOM     26  C   UNL A   1      39.737  25.545  26.591  1.00  0.00     0.010 A 
ATOM     27  C   UNL A   1      40.918  24.407  28.377  1.00  0.00     0.010 A 
ATOM     28  C   UNL A   1      40.582  25.596  27.705  1.00  0.00    -0.014 A 
BRANCH  28  29
ATOM     29  C   UNL A   1      41.137  26.911  28.102  1.00  0.00     0.031 A 
ATOM     30  C   UNL A   1      42.554  27.259  27.759  1.00  0.00     0.074 A 
ATOM     31  C   UNL A   1      40.332  27.820  28.681  1.00  0.00     0.049 A 
ATOM     32  N   UNL A   1      43.211  28.369  27.985  1.00  0.00    -0.248 NA
ATOM     33  C   UNL A   1      43.334  26.225  27.065  1.00  0.00     0.031 C 
ATOM     34  C   UNL A   1      38.922  27.608  29.006  1.00  0.00     0.029 A 
ATOM     35  N   UNL A   1      40.577  29.112  29.069  1.00  0.00    -0.354 N 
ATOM     36  C   UNL A   1      44.487  28.158  27.482  1.00  0.00     0.074 A 
ATOM     37  C   UNL A   1      44.516  26.812  26.949  1.00  0.00     0.031 C 
ATOM     38  C   UNL A   1      38.415  28.744  29.513  1.00  0.00     0.029 A 
ATOM     39  C   UNL A   1      39.476  29.746  29.588  1.00  0.00     0.049 A 
ATOM     40  H   UNL A   1      41.457  29.544  28.983  1.00  0.00     0.167 HD
ATOM     41  C   UNL A   1      45.537  29.015  27.465  1.00  0.00     0.037 A 
ATOM     42  C   UNL A   1      39.342  30.993  30.076  1.00  0.00     0.037 A 
ATOM     43  C   UNL A   1      45.496  30.360  27.978  1.00  0.00     0.049 A 
ATOM     44  C   UNL A   1      40.535  31.907  30.086  1.00  0.00     0.074 A 
ATOM     45  C   UNL A   1      46.502  31.311  27.997  1.00  0.00     0.029 A 
ATOM     46  N   UNL A   1      44.383  30.946  28.565  1.00  0.00    -0.354 N 
ATOM     47  N   UNL A   1      41.744  31.696  29.624  1.00  0.00    -0.248 NA
ATOM     48  C   UNL A   1      40.346  33.230  30.695  1.00  0.00     0.031 C 
ATOM     49  C   UNL A   1      46.010  32.458  28.631  1.00  0.00     0.029 A 
ATOM     50  C   UNL A   1      44.684  32.237  28.971  1.00  0.00     0.049 A 
ATOM     51  H   UNL A   1      43.508  30.509  28.676  1.00  0.00     0.167 HD
ATOM     52  C   UNL A   1      42.458  32.858  29.879  1.00  0.00     0.074 A 
ATOM     53  C   UNL A   1      41.539  33.780  30.513  1.00  0.00     0.031 C 
ATOM     54  C   UNL A   1      43.759  33.133  29.617  1.00  0.00     0.037 A 
BRANCH  41  55
ATOM     55  C   UNL A   1      46.832  28.497  26.912  1.00  0.00     0.064 A 
ATOM     56  C   UNL A   1      47.892  28.109  27.744  1.00  0.00     0.173 A 
ATOM     57  C   UNL A   1      47.012  28.390  25.525  1.00  0.00     0.173 A 
ATOM     58  F   UNL A   1      47.777  28.210  29.078  1.00  0.00    -0.203 F 
ATOM     59  C   UNL A   1      49.097  27.663  27.206  1.00  0.00     0.198 A 
ATOM     60  C   UNL A   1      48.208  27.920  24.991  1.00  0.00     0.198 A 
ATOM     61  F   UNL A   1      46.029  28.748  24.686  1.00  0.00    -0.203 F 
ATOM     62  F   UNL A   1      50.117  27.349  28.018  1.00  0.00    -0.200 F 
ATOM     63  C   UNL A   1      49.253  27.565  25.831  1.00  0.00     0.200 A 
ATOM     64  F   UNL A   1      48.355  27.819  23.663  1.00  0.00    -0.200 F 
ATOM     65  F   UNL A   1      50.415  27.140  25.316  1.00  0.00    -0.200 F 
ENDBRANCH  41  55
BRANCH  42  66
ATOM     66  C   UNL A   1      38.026  31.445  30.593  1.00  0.00     0.064 A 
ATOM     67  C   UNL A   1      37.755  31.449  31.967  1.00  0.00     0.173 A 
ATOM     68  C   UNL A   1      37.018  31.894  29.726  1.00  0.00     0.173 A 
ATOM     69  F   UNL A   1      38.678  31.005  32.833  1.00  0.00    -0.203 F 
ATOM     70  C   UNL A   1      36.524  31.883  32.456  1.00  0.00     0.198 A 
ATOM     71  C   UNL A   1      35.798  32.351  30.216  1.00  0.00     0.198 A 
ATOM     72  F   UNL A   1      37.228  31.905  28.402  1.00  0.00    -0.203 F 
ATOM     73  F   UNL A   1      36.278  31.849  33.772  1.00  0.00    -0.200 F 
ATOM     74  C   UNL A   1      35.550  32.341  31.580  1.00  0.00     0.200 A 
ATOM     75  F   UNL A   1      34.864  32.802  29.368  1.00  0.00    -0.200 F 
ATOM     76  F   UNL A   1      34.370  32.768  32.052  1.00  0.00    -0.200 F 
ENDBRANCH  42  66
BRANCH  54  77
ATOM     77  C   UNL A   1      44.256  34.492  30.018  1.00  0.00     0.064 A 
ATOM     78  C   UNL A   1      44.816  34.720  31.284  1.00  0.00     0.173 A 
ATOM     79  C   UNL A   1      44.175  35.573  29.129  1.00  0.00     0.173 A 
ATOM     80  F   UNL A   1      44.897  33.721  32.176  1.00  0.00    -0.203 F 
ATOM     81  C   UNL A   1      45.248  35.990  31.656  1.00  0.00     0.198 A 
ATOM     82  C   UNL A   1      44.633  36.836  29.495  1.00  0.00     0.198 A 
ATOM     83  F   UNL A   1      43.651  35.405  27.905  1.00  0.00    -0.203 F 
ATOM     84  F   UNL A   1      45.729  36.197  32.889  1.00  0.00    -0.200 F 
ATOM     85  C   UNL A   1      45.160  37.045  30.761  1.00  0.00     0.200 A 
ATOM     86  F   UNL A   1      44.555  37.854  28.626  1.00  0.00    -0.200 F 
ATOM     87  F   UNL A   1      45.572  38.268  31.122  1.00  0.00    -0.200 F 
ENDBRANCH  54  77
ENDBRANCH  28  29
ENDBRANCH  21  23
ENDBRANCH  20  21
ENDBRANCH  19  20
ENDBRANCH   1  19
TORSDOF 15
ENDMDL
