MODEL 1
REMARK VINA RESULT:     -12.0      0.000      0.000
REMARK SMILES Cn1ccc(NC(=O)[C@@H]2CCCC[C@@H]2C(=O)OCCOC(=O)c2ccc(-c3c4nc(c(-c5c(F)c(F)c(F)c(F)c5F)c5ccc([nH]5)c(-c5c(F)c(F)c(F)c(F)c5F)c5nc(c(-c6c(F)c(F)c(F)c(F)c6F)c6ccc3[nH]6)C=C5)C=C4)cc2)n1
REMARK SMILES IDX 18 1 17 2 15 3 16 4 14 5 9 6 10 7 11 8 13 9 12 10 7 11 6 12
REMARK SMILES IDX 8 14 5 15 1 16 2 17 3 18 86 19 4 20 19 21 20 22 21 23 22 24
REMARK SMILES IDX 23 25 24 26 85 27 25 28 84 29 26 30 27 31 28 32 78 33 29 34
REMARK SMILES IDX 83 35 77 36 79 37 30 38 82 39 76 40 75 41 31 43 63 44 43 45
REMARK SMILES IDX 62 46 44 47 47 48 61 49 80 50 45 51 46 52 60 54 81 55 48 56
REMARK SMILES IDX 32 57 33 58 41 59 34 60 35 61 39 62 42 63 36 64 37 65 40 66
REMARK SMILES IDX 38 67 64 68 65 69 73 70 66 71 67 72 71 73 74 74 68 75 69 76
REMARK SMILES IDX 72 77 70 78 49 79 50 80 58 81 51 82 52 83 56 84 59 85 53 86
REMARK SMILES IDX 54 87 57 88 55 89
REMARK H PARENT 6 13 79 42 47 53
REMARK Flexibility Score: inf
ROOT
ATOM      1  C   UNL A   1      31.850  28.152  27.223  1.00  0.00     0.274 C 
ENDROOT
BRANCH   1   2
ATOM      2  O   UNL A   1      31.023  27.083  26.716  1.00  0.00    -0.462 OA
BRANCH   2   3
ATOM      3  C   UNL A   1      31.669  25.961  26.323  1.00  0.00     0.309 C 
ATOM      4  O   UNL A   1      31.580  24.875  26.890  1.00  0.00    -0.252 OA
BRANCH   3   5
ATOM      5  C   UNL A   1      32.564  26.154  25.109  1.00  0.00     0.111 C 
ATOM      6  C   UNL A   1      32.241  25.358  23.821  1.00  0.00     0.093 C 
ATOM      7  C   UNL A   1      32.976  23.996  23.827  1.00  0.00     0.014 C 
ATOM      8  C   UNL A   1      34.475  24.141  24.061  1.00  0.00     0.001 C 
ATOM      9  C   UNL A   1      34.060  26.177  25.456  1.00  0.00     0.016 C 
ATOM     10  C   UNL A   1      34.737  24.819  25.392  1.00  0.00     0.001 C 
BRANCH   6  11
ATOM     11  C   UNL A   1      30.746  25.120  23.520  1.00  0.00     0.229 C 
ATOM     12  N   UNL A   1      29.862  26.129  23.296  1.00  0.00    -0.309 N 
ATOM     13  H   UNL A   1      28.926  25.843  23.193  1.00  0.00     0.171 HD
ATOM     14  O   UNL A   1      30.279  23.974  23.489  1.00  0.00    -0.274 OA
BRANCH  12  15
ATOM     15  C   UNL A   1      30.065  27.480  23.191  1.00  0.00     0.154 A 
ATOM     16  C   UNL A   1      28.921  30.738  23.500  1.00  0.00     0.173 C 
ATOM     17  N   UNL A   1      29.727  29.564  23.261  1.00  0.00    -0.274 N 
ATOM     18  C   UNL A   1      30.744  29.424  22.367  1.00  0.00     0.110 A 
ATOM     19  N   UNL A   1      29.394  28.411  23.862  1.00  0.00    -0.155 NA
ATOM     20  C   UNL A   1      31.009  28.074  22.320  1.00  0.00     0.068 A 
ENDBRANCH  12  15
ENDBRANCH   6  11
ENDBRANCH   3   5
ENDBRANCH   2   3
ENDBRANCH   1   2
BRANCH   1  21
ATOM     21  C   UNL A   1      31.564  29.448  26.474  1.00  0.00     0.275 C 
BRANCH  21  22
ATOM     22  O   UNL A   1      32.815  30.076  26.151  1.00  0.00    -0.458 OA
BRANCH  22  23
ATOM     23  C   UNL A   1      33.188  31.098  26.951  1.00  0.00     0.338 C 
ATOM     24  O   UNL A   1      32.523  32.082  27.248  1.00  0.00    -0.246 OA
BRANCH  23  25
ATOM     25  C   UNL A   1      34.542  30.852  27.493  1.00  0.00     0.060 A 
ATOM     26  C   UNL A   1      35.025  29.555  27.661  1.00  0.00     0.016 A 
ATOM     27  C   UNL A   1      35.293  31.930  27.965  1.00  0.00     0.016 A 
ATOM     28  C   UNL A   1      36.184  29.328  28.405  1.00  0.00     0.010 A 
ATOM     29  C   UNL A   1      36.516  31.703  28.606  1.00  0.00     0.010 A 
ATOM     30  C   UNL A   1      36.960  30.396  28.871  1.00  0.00    -0.014 A 
BRANCH  30  31
ATOM     31  C   UNL A   1      38.206  30.165  29.660  1.00  0.00     0.031 A 
ATOM     32  C   UNL A   1      39.327  29.342  29.081  1.00  0.00     0.074 A 
ATOM     33  C   UNL A   1      38.349  30.672  30.902  1.00  0.00     0.049 A 
ATOM     34  N   UNL A   1      40.333  28.764  29.689  1.00  0.00    -0.248 NA
ATOM     35  C   UNL A   1      39.302  29.119  27.627  1.00  0.00     0.031 C 
ATOM     36  C   UNL A   1      37.389  31.538  31.588  1.00  0.00     0.029 A 
ATOM     37  N   UNL A   1      39.368  30.527  31.814  1.00  0.00    -0.354 N 
ATOM     38  C   UNL A   1      41.000  28.035  28.713  1.00  0.00     0.074 A 
ATOM     39  C   UNL A   1      40.306  28.269  27.463  1.00  0.00     0.031 C 
ATOM     40  C   UNL A   1      37.883  31.886  32.785  1.00  0.00     0.029 A 
ATOM     41  C   UNL A   1      39.137  31.173  33.003  1.00  0.00     0.049 A 
ATOM     42  H   UNL A   1      40.186  30.009  31.632  1.00  0.00     0.167 HD
ATOM     43  C   UNL A   1      42.082  27.232  28.855  1.00  0.00     0.037 A 
ATOM     44  C   UNL A   1      39.814  31.151  34.167  1.00  0.00     0.037 A 
ATOM     45  C   UNL A   1      42.825  27.078  30.079  1.00  0.00     0.049 A 
ATOM     46  C   UNL A   1      41.020  30.267  34.300  1.00  0.00     0.074 A 
ATOM     47  C   UNL A   1      43.945  26.300  30.320  1.00  0.00     0.029 A 
ATOM     48  N   UNL A   1      42.541  27.744  31.261  1.00  0.00    -0.354 N 
ATOM     49  N   UNL A   1      41.569  29.480  33.408  1.00  0.00    -0.248 NA
ATOM     50  C   UNL A   1      41.677  30.240  35.614  1.00  0.00     0.031 C 
ATOM     51  C   UNL A   1      44.328  26.482  31.653  1.00  0.00     0.029 A 
ATOM     52  C   UNL A   1      43.466  27.398  32.233  1.00  0.00     0.049 A 
ATOM     53  H   UNL A   1      41.793  28.371  31.392  1.00  0.00     0.167 HD
ATOM     54  C   UNL A   1      42.627  28.857  34.053  1.00  0.00     0.074 A 
ATOM     55  C   UNL A   1      42.664  29.379  35.403  1.00  0.00     0.031 C 
ATOM     56  C   UNL A   1      43.482  27.922  33.573  1.00  0.00     0.037 A 
BRANCH  43  57
ATOM     57  C   UNL A   1      42.513  26.418  27.671  1.00  0.00     0.064 A 
ATOM     58  C   UNL A   1      43.516  26.851  26.792  1.00  0.00     0.173 A 
ATOM     59  C   UNL A   1      41.949  25.151  27.453  1.00  0.00     0.173 A 
ATOM     60  F   UNL A   1      44.076  28.058  26.950  1.00  0.00    -0.203 F 
ATOM     61  C   UNL A   1      43.931  26.047  25.732  1.00  0.00     0.198 A 
ATOM     62  C   UNL A   1      42.383  24.341  26.408  1.00  0.00     0.198 A 
ATOM     63  F   UNL A   1      40.990  24.688  28.270  1.00  0.00    -0.203 F 
ATOM     64  F   UNL A   1      44.871  26.490  24.887  1.00  0.00    -0.200 F 
ATOM     65  C   UNL A   1      43.371  24.790  25.547  1.00  0.00     0.200 A 
ATOM     66  F   UNL A   1      41.849  23.123  26.238  1.00  0.00    -0.200 F 
ATOM     67  F   UNL A   1      43.783  24.014  24.535  1.00  0.00    -0.200 F 
ENDBRANCH  43  57
BRANCH  44  68
ATOM     68  C   UNL A   1      39.317  31.945  35.318  1.00  0.00     0.064 A 
ATOM     69  C   UNL A   1      39.640  33.302  35.448  1.00  0.00     0.173 A 
ATOM     70  C   UNL A   1      38.482  31.375  36.290  1.00  0.00     0.173 A 
ATOM     71  F   UNL A   1      40.458  33.883  34.558  1.00  0.00    -0.203 F 
ATOM     72  C   UNL A   1      39.143  34.059  36.505  1.00  0.00     0.198 A 
ATOM     73  C   UNL A   1      37.961  32.140  37.329  1.00  0.00     0.198 A 
ATOM     74  F   UNL A   1      38.145  30.079  36.210  1.00  0.00    -0.203 F 
ATOM     75  F   UNL A   1      39.487  35.349  36.622  1.00  0.00    -0.200 F 
ATOM     76  C   UNL A   1      38.294  33.482  37.438  1.00  0.00     0.200 A 
ATOM     77  F   UNL A   1      37.128  31.582  38.218  1.00  0.00    -0.200 F 
ATOM     78  F   UNL A   1      37.800  34.217  38.443  1.00  0.00    -0.200 F 
ENDBRANCH  44  68
BRANCH  56  79
ATOM     79  C   UNL A   1      44.532  27.416  34.514  1.00  0.00     0.064 A 
ATOM     80  C   UNL A   1      45.762  28.074  34.652  1.00  0.00     0.173 A 
ATOM     81  C   UNL A   1      44.299  26.277  35.296  1.00  0.00     0.173 A 
ATOM     82  F   UNL A   1      46.035  29.159  33.910  1.00  0.00    -0.203 F 
ATOM     83  C   UNL A   1      46.732  27.595  35.526  1.00  0.00     0.198 A 
ATOM     84  C   UNL A   1      45.264  25.812  36.183  1.00  0.00     0.198 A 
ATOM     85  F   UNL A   1      43.135  25.617  35.199  1.00  0.00    -0.203 F 
ATOM     86  F   UNL A   1      47.919  28.214  35.614  1.00  0.00    -0.200 F 
ATOM     87  C   UNL A   1      46.482  26.467  36.293  1.00  0.00     0.200 A 
ATOM     88  F   UNL A   1      45.020  24.725  36.928  1.00  0.00    -0.200 F 
ATOM     89  F   UNL A   1      47.419  26.004  37.133  1.00  0.00    -0.200 F 
ENDBRANCH  56  79
ENDBRANCH  30  31
ENDBRANCH  23  25
ENDBRANCH  22  23
ENDBRANCH  21  22
ENDBRANCH   1  21
TORSDOF 13
ENDMDL
MODEL 2
REMARK VINA RESULT:     -12.0      1.636      3.183
REMARK SMILES Cn1ccc(NC(=O)[C@@H]2CCCC[C@@H]2C(=O)OCCOC(=O)c2ccc(-c3c4nc(c(-c5c(F)c(F)c(F)c(F)c5F)c5ccc([nH]5)c(-c5c(F)c(F)c(F)c(F)c5F)c5nc(c(-c6c(F)c(F)c(F)c(F)c6F)c6ccc3[nH]6)C=C5)C=C4)cc2)n1
REMARK SMILES IDX 18 1 17 2 15 3 16 4 14 5 9 6 10 7 11 8 13 9 12 10 7 11 6 12
REMARK SMILES IDX 8 14 5 15 1 16 2 17 3 18 86 19 4 20 19 21 20 22 21 23 22 24
REMARK SMILES IDX 23 25 24 26 85 27 25 28 84 29 26 30 27 31 28 32 78 33 29 34
REMARK SMILES IDX 83 35 77 36 79 37 30 38 82 39 76 40 75 41 31 43 63 44 43 45
REMARK SMILES IDX 62 46 44 47 47 48 61 49 80 50 45 51 46 52 60 54 81 55 48 56
REMARK SMILES IDX 32 57 33 58 41 59 34 60 35 61 39 62 42 63 36 64 37 65 40 66
REMARK SMILES IDX 38 67 64 68 65 69 73 70 66 71 67 72 71 73 74 74 68 75 69 76
REMARK SMILES IDX 72 77 70 78 49 79 50 80 58 81 51 82 52 83 56 84 59 85 53 86
REMARK SMILES IDX 54 87 57 88 55 89
REMARK H PARENT 6 13 79 42 47 53
REMARK Flexibility Score: inf
ROOT
ATOM      1  C   UNL A   1      33.144  29.308  24.682  1.00  0.00     0.274 C 
ENDROOT
BRANCH   1   2
ATOM      2  O   UNL A   1      32.854  27.944  24.307  1.00  0.00    -0.462 OA
BRANCH   2   3
ATOM      3  C   UNL A   1      33.182  26.992  25.211  1.00  0.00     0.309 C 
ATOM      4  O   UNL A   1      34.089  27.099  26.033  1.00  0.00    -0.252 OA
BRANCH   3   5
ATOM      5  C   UNL A   1      32.342  25.728  25.115  1.00  0.00     0.111 C 
ATOM      6  C   UNL A   1      32.389  24.910  23.801  1.00  0.00     0.093 C 
ATOM      7  C   UNL A   1      31.300  25.401  22.818  1.00  0.00     0.014 C 
ATOM      8  C   UNL A   1      29.911  25.419  23.444  1.00  0.00     0.001 C 
ATOM      9  C   UNL A   1      30.925  25.898  25.681  1.00  0.00     0.016 C 
ATOM     10  C   UNL A   1      29.890  26.330  24.656  1.00  0.00     0.001 C 
BRANCH   6  11
ATOM     11  C   UNL A   1      33.746  24.870  23.068  1.00  0.00     0.229 C 
ATOM     12  N   UNL A   1      34.741  23.999  23.389  1.00  0.00    -0.309 N 
ATOM     13  H   UNL A   1      35.581  24.132  22.895  1.00  0.00     0.171 HD
ATOM     14  O   UNL A   1      33.995  25.660  22.149  1.00  0.00    -0.274 OA
BRANCH  12  15
ATOM     15  C   UNL A   1      34.760  22.967  24.290  1.00  0.00     0.154 A 
ATOM     16  C   UNL A   1      33.273  20.184  25.725  1.00  0.00     0.173 C 
ATOM     17  N   UNL A   1      34.180  21.252  25.379  1.00  0.00    -0.274 N 
ATOM     18  C   UNL A   1      35.084  21.868  26.189  1.00  0.00     0.110 A 
ATOM     19  N   UNL A   1      34.071  21.835  24.176  1.00  0.00    -0.155 NA
ATOM     20  C   UNL A   1      35.505  22.979  25.493  1.00  0.00     0.068 A 
ENDBRANCH  12  15
ENDBRANCH   6  11
ENDBRANCH   3   5
ENDBRANCH   2   3
ENDBRANCH   1   2
BRANCH   1  21
ATOM     21  C   UNL A   1      32.003  29.886  25.511  1.00  0.00     0.275 C 
BRANCH  21  22
ATOM     22  O   UNL A   1      32.452  30.034  26.868  1.00  0.00    -0.458 OA
BRANCH  22  23
ATOM     23  C   UNL A   1      33.084  31.192  27.158  1.00  0.00     0.338 C 
ATOM     24  O   UNL A   1      32.629  32.324  27.061  1.00  0.00    -0.246 OA
BRANCH  23  25
ATOM     25  C   UNL A   1      34.441  30.914  27.679  1.00  0.00     0.060 A 
ATOM     26  C   UNL A   1      34.837  29.616  27.999  1.00  0.00     0.016 A 
ATOM     27  C   UNL A   1      35.286  31.983  27.979  1.00  0.00     0.016 A 
ATOM     28  C   UNL A   1      36.008  29.398  28.724  1.00  0.00     0.010 A 
ATOM     29  C   UNL A   1      36.518  31.747  28.600  1.00  0.00     0.010 A 
ATOM     30  C   UNL A   1      36.880  30.455  29.019  1.00  0.00    -0.014 A 
BRANCH  30  31
ATOM     31  C   UNL A   1      38.140  30.232  29.786  1.00  0.00     0.031 A 
ATOM     32  C   UNL A   1      39.253  29.410  29.191  1.00  0.00     0.074 A 
ATOM     33  C   UNL A   1      38.303  30.745  31.023  1.00  0.00     0.049 A 
ATOM     34  N   UNL A   1      40.273  28.839  29.783  1.00  0.00    -0.248 NA
ATOM     35  C   UNL A   1      39.203  29.181  27.738  1.00  0.00     0.031 C 
ATOM     36  C   UNL A   1      37.352  31.610  31.722  1.00  0.00     0.029 A 
ATOM     37  N   UNL A   1      39.339  30.607  31.917  1.00  0.00    -0.354 N 
ATOM     38  C   UNL A   1      40.925  28.108  28.798  1.00  0.00     0.074 A 
ATOM     39  C   UNL A   1      40.207  28.334  27.560  1.00  0.00     0.031 C 
ATOM     40  C   UNL A   1      37.866  31.965  32.908  1.00  0.00     0.029 A 
ATOM     41  C   UNL A   1      39.127  31.258  33.108  1.00  0.00     0.049 A 
ATOM     42  H   UNL A   1      40.155  30.091  31.723  1.00  0.00     0.167 HD
ATOM     43  C   UNL A   1      42.012  27.310  28.924  1.00  0.00     0.037 A 
ATOM     44  C   UNL A   1      39.824  31.243  34.259  1.00  0.00     0.037 A 
ATOM     45  C   UNL A   1      42.778  27.164  30.136  1.00  0.00     0.049 A 
ATOM     46  C   UNL A   1      41.036  30.364  34.374  1.00  0.00     0.074 A 
ATOM     47  C   UNL A   1      43.904  26.391  30.360  1.00  0.00     0.029 A 
ATOM     48  N   UNL A   1      42.512  27.834  31.320  1.00  0.00    -0.354 N 
ATOM     49  N   UNL A   1      41.572  29.575  33.476  1.00  0.00    -0.248 NA
ATOM     50  C   UNL A   1      41.716  30.345  35.677  1.00  0.00     0.031 C 
ATOM     51  C   UNL A   1      44.311  26.581  31.685  1.00  0.00     0.029 A 
ATOM     52  C   UNL A   1      43.456  27.495  32.277  1.00  0.00     0.049 A 
ATOM     53  H   UNL A   1      41.764  28.459  31.461  1.00  0.00     0.167 HD
ATOM     54  C   UNL A   1      42.643  28.959  34.105  1.00  0.00     0.074 A 
ATOM     55  C   UNL A   1      42.702  29.487  35.452  1.00  0.00     0.031 C 
ATOM     56  C   UNL A   1      43.493  28.025  33.613  1.00  0.00     0.037 A 
BRANCH  43  57
ATOM     57  C   UNL A   1      42.426  26.493  27.736  1.00  0.00     0.064 A 
ATOM     58  C   UNL A   1      43.405  26.929  26.834  1.00  0.00     0.173 A 
ATOM     59  C   UNL A   1      41.869  25.218  27.539  1.00  0.00     0.173 A 
ATOM     60  F   UNL A   1      43.957  28.142  26.972  1.00  0.00    -0.203 F 
ATOM     61  C   UNL A   1      43.805  26.122  25.769  1.00  0.00     0.198 A 
ATOM     62  C   UNL A   1      42.288  24.406  26.489  1.00  0.00     0.198 A 
ATOM     63  F   UNL A   1      40.932  24.753  28.379  1.00  0.00    -0.203 F 
ATOM     64  F   UNL A   1      44.722  26.568  24.902  1.00  0.00    -0.200 F 
ATOM     65  C   UNL A   1      43.253  24.859  25.604  1.00  0.00     0.200 A 
ATOM     66  F   UNL A   1      41.762  23.182  26.339  1.00  0.00    -0.200 F 
ATOM     67  F   UNL A   1      43.650  24.081  24.588  1.00  0.00    -0.200 F 
ENDBRANCH  43  57
BRANCH  44  68
ATOM     68  C   UNL A   1      39.344  32.040  35.416  1.00  0.00     0.064 A 
ATOM     69  C   UNL A   1      38.478  31.482  36.364  1.00  0.00     0.173 A 
ATOM     70  C   UNL A   1      39.770  33.363  35.615  1.00  0.00     0.173 A 
ATOM     71  F   UNL A   1      38.023  30.230  36.200  1.00  0.00    -0.203 F 
ATOM     72  C   UNL A   1      38.058  32.215  37.471  1.00  0.00     0.198 A 
ATOM     73  C   UNL A   1      39.372  34.083  36.737  1.00  0.00     0.198 A 
ATOM     74  F   UNL A   1      40.598  33.942  34.734  1.00  0.00    -0.203 F 
ATOM     75  F   UNL A   1      37.208  31.667  38.351  1.00  0.00    -0.200 F 
ATOM     76  C   UNL A   1      38.515  33.510  37.664  1.00  0.00     0.200 A 
ATOM     77  F   UNL A   1      39.831  35.328  36.928  1.00  0.00    -0.200 F 
ATOM     78  F   UNL A   1      38.126  34.207  38.740  1.00  0.00    -0.200 F 
ENDBRANCH  44  68
BRANCH  56  79
ATOM     79  C   UNL A   1      44.562  27.528  34.538  1.00  0.00     0.064 A 
ATOM     80  C   UNL A   1      44.361  26.394  35.337  1.00  0.00     0.173 A 
ATOM     81  C   UNL A   1      45.800  28.180  34.612  1.00  0.00     0.173 A 
ATOM     82  F   UNL A   1      43.185  25.749  35.311  1.00  0.00    -0.203 F 
ATOM     83  C   UNL A   1      45.358  25.942  36.196  1.00  0.00     0.198 A 
ATOM     84  C   UNL A   1      46.802  27.714  35.458  1.00  0.00     0.198 A 
ATOM     85  F   UNL A   1      46.037  29.268  33.865  1.00  0.00    -0.203 F 
ATOM     86  F   UNL A   1      45.133  24.880  36.983  1.00  0.00    -0.200 F 
ATOM     87  C   UNL A   1      46.578  26.599  36.253  1.00  0.00     0.200 A 
ATOM     88  F   UNL A   1      47.982  28.347  35.510  1.00  0.00    -0.200 F 
ATOM     89  F   UNL A   1      47.537  26.165  37.084  1.00  0.00    -0.200 F 
ENDBRANCH  56  79
ENDBRANCH  30  31
ENDBRANCH  23  25
ENDBRANCH  22  23
ENDBRANCH  21  22
ENDBRANCH   1  21
TORSDOF 13
ENDMDL
MODEL 3
REMARK VINA RESULT:     -12.0      1.204      2.469
REMARK SMILES Cn1ccc(NC(=O)[C@@H]2CCCC[C@@H]2C(=O)OCCOC(=O)c2ccc(-c3c4nc(c(-c5c(F)c(F)c(F)c(F)c5F)c5ccc([nH]5)c(-c5c(F)c(F)c(F)c(F)c5F)c5nc(c(-c6c(F)c(F)c(F)c(F)c6F)c6ccc3[nH]6)C=C5)C=C4)cc2)n1
REMARK SMILES IDX 18 1 17 2 15 3 16 4 14 5 9 6 10 7 11 8 13 9 12 10 7 11 6 12
REMARK SMILES IDX 8 14 5 15 1 16 2 17 3 18 86 19 4 20 19 21 20 22 21 23 22 24
REMARK SMILES IDX 23 25 24 26 85 27 25 28 84 29 26 30 27 31 28 32 78 33 29 34
REMARK SMILES IDX 83 35 77 36 79 37 30 38 82 39 76 40 75 41 31 43 63 44 43 45
REMARK SMILES IDX 62 46 44 47 47 48 61 49 80 50 45 51 46 52 60 54 81 55 48 56
REMARK SMILES IDX 32 57 33 58 41 59 34 60 35 61 39 62 42 63 36 64 37 65 40 66
REMARK SMILES IDX 38 67 64 68 65 69 73 70 66 71 67 72 71 73 74 74 68 75 69 76
REMARK SMILES IDX 72 77 70 78 49 79 50 80 58 81 51 82 52 83 56 84 59 85 53 86
REMARK SMILES IDX 54 87 57 88 55 89
REMARK H PARENT 6 13 79 42 47 53
REMARK Flexibility Score: inf
ROOT
ATOM      1  C   UNL A   1      31.408  29.860  25.400  1.00  0.00     0.274 C 
ENDROOT
BRANCH   1   2
ATOM      2  O   UNL A   1      31.406  28.518  25.933  1.00  0.00    -0.462 OA
BRANCH   2   3
ATOM      3  C   UNL A   1      31.802  27.538  25.089  1.00  0.00     0.309 C 
ATOM      4  O   UNL A   1      32.086  26.395  25.438  1.00  0.00    -0.252 OA
BRANCH   3   5
ATOM      5  C   UNL A   1      31.902  27.974  23.635  1.00  0.00     0.111 C 
ATOM      6  C   UNL A   1      30.778  27.549  22.659  1.00  0.00     0.093 C 
ATOM      7  C   UNL A   1      31.113  26.187  22.006  1.00  0.00     0.014 C 
ATOM      8  C   UNL A   1      32.488  26.174  21.351  1.00  0.00     0.001 C 
ATOM      9  C   UNL A   1      33.313  27.815  23.051  1.00  0.00     0.016 C 
ATOM     10  C   UNL A   1      33.563  26.478  22.376  1.00  0.00     0.001 C 
BRANCH   6  11
ATOM     11  C   UNL A   1      29.351  27.489  23.244  1.00  0.00     0.229 C 
ATOM     12  N   UNL A   1      28.494  28.545  23.229  1.00  0.00    -0.309 N 
ATOM     13  H   UNL A   1      27.645  28.395  23.704  1.00  0.00     0.171 HD
ATOM     14  O   UNL A   1      28.927  26.455  23.778  1.00  0.00    -0.274 OA
BRANCH  12  15
ATOM     15  C   UNL A   1      28.624  29.785  22.661  1.00  0.00     0.154 A 
ATOM     16  C   UNL A   1      28.913  33.227  22.956  1.00  0.00     0.173 C 
ATOM     17  N   UNL A   1      28.822  31.878  22.451  1.00  0.00    -0.274 N 
ATOM     18  C   UNL A   1      28.313  31.472  21.255  1.00  0.00     0.110 A 
ATOM     19  N   UNL A   1      29.134  30.855  23.262  1.00  0.00    -0.155 NA
ATOM     20  C   UNL A   1      28.199  30.103  21.349  1.00  0.00     0.068 A 
ENDBRANCH  12  15
ENDBRANCH   6  11
ENDBRANCH   3   5
ENDBRANCH   2   3
ENDBRANCH   1   2
BRANCH   1  21
ATOM     21  C   UNL A   1      31.790  30.863  26.481  1.00  0.00     0.275 C 
BRANCH  21  22
ATOM     22  O   UNL A   1      33.218  30.845  26.639  1.00  0.00    -0.458 OA
BRANCH  22  23
ATOM     23  C   UNL A   1      33.743  31.834  27.393  1.00  0.00     0.338 C 
ATOM     24  O   UNL A   1      33.231  32.917  27.647  1.00  0.00    -0.246 OA
BRANCH  23  25
ATOM     25  C   UNL A   1      35.051  31.416  27.943  1.00  0.00     0.060 A 
ATOM     26  C   UNL A   1      35.265  30.107  28.373  1.00  0.00     0.016 A 
ATOM     27  C   UNL A   1      36.039  32.379  28.158  1.00  0.00     0.016 A 
ATOM     28  C   UNL A   1      36.400  29.790  29.120  1.00  0.00     0.010 A 
ATOM     29  C   UNL A   1      37.229  32.027  28.803  1.00  0.00     0.010 A 
ATOM     30  C   UNL A   1      37.411  30.736  29.331  1.00  0.00    -0.014 A 
BRANCH  30  31
ATOM     31  C   UNL A   1      38.633  30.406  30.121  1.00  0.00     0.031 A 
ATOM     32  C   UNL A   1      39.705  29.530  29.527  1.00  0.00     0.074 A 
ATOM     33  C   UNL A   1      38.797  30.869  31.377  1.00  0.00     0.049 A 
ATOM     34  N   UNL A   1      40.668  28.874  30.126  1.00  0.00    -0.248 NA
ATOM     35  C   UNL A   1      39.678  29.350  28.067  1.00  0.00     0.031 C 
ATOM     36  C   UNL A   1      37.887  31.774  32.081  1.00  0.00     0.029 A 
ATOM     37  N   UNL A   1      39.797  30.635  32.292  1.00  0.00    -0.354 N 
ATOM     38  C   UNL A   1      41.296  28.132  29.134  1.00  0.00     0.074 A 
ATOM     39  C   UNL A   1      40.628  28.443  27.887  1.00  0.00     0.031 C 
ATOM     40  C   UNL A   1      38.391  32.057  33.290  1.00  0.00     0.029 A 
ATOM     41  C   UNL A   1      39.596  31.261  33.497  1.00  0.00     0.049 A 
ATOM     42  H   UNL A   1      40.582  30.072  32.101  1.00  0.00     0.167 HD
ATOM     43  C   UNL A   1      42.324  27.259  29.261  1.00  0.00     0.037 A 
ATOM     44  C   UNL A   1      40.261  31.165  34.664  1.00  0.00     0.037 A 
ATOM     45  C   UNL A   1      43.046  27.025  30.486  1.00  0.00     0.049 A 
ATOM     46  C   UNL A   1      41.408  30.204  34.781  1.00  0.00     0.074 A 
ATOM     47  C   UNL A   1      44.112  26.172  30.712  1.00  0.00     0.029 A 
ATOM     48  N   UNL A   1      42.794  27.675  31.683  1.00  0.00    -0.354 N 
ATOM     49  N   UNL A   1      41.914  29.409  33.871  1.00  0.00    -0.248 NA
ATOM     50  C   UNL A   1      42.050  30.099  36.099  1.00  0.00     0.031 C 
ATOM     51  C   UNL A   1      44.495  26.293  32.053  1.00  0.00     0.029 A 
ATOM     52  C   UNL A   1      43.687  27.245  32.652  1.00  0.00     0.049 A 
ATOM     53  H   UNL A   1      42.086  28.344  31.826  1.00  0.00     0.167 HD
ATOM     54  C   UNL A   1      42.925  28.703  34.506  1.00  0.00     0.074 A 
ATOM     55  C   UNL A   1      42.983  29.185  35.871  1.00  0.00     0.031 C 
ATOM     56  C   UNL A   1      43.724  27.730  34.006  1.00  0.00     0.037 A 
BRANCH  43  57
ATOM     57  C   UNL A   1      42.714  26.452  28.057  1.00  0.00     0.064 A 
ATOM     58  C   UNL A   1      42.121  25.218  27.761  1.00  0.00     0.173 A 
ATOM     59  C   UNL A   1      43.659  26.963  27.152  1.00  0.00     0.173 A 
ATOM     60  F   UNL A   1      41.223  24.682  28.600  1.00  0.00    -0.203 F 
ATOM     61  C   UNL A   1      42.467  24.519  26.606  1.00  0.00     0.198 A 
ATOM     62  C   UNL A   1      43.985  26.274  25.988  1.00  0.00     0.198 A 
ATOM     63  F   UNL A   1      44.251  28.145  27.388  1.00  0.00    -0.203 F 
ATOM     64  F   UNL A   1      41.909  23.327  26.354  1.00  0.00    -0.200 F 
ATOM     65  C   UNL A   1      43.391  25.051  25.717  1.00  0.00     0.200 A 
ATOM     66  F   UNL A   1      44.868  26.796  25.125  1.00  0.00    -0.200 F 
ATOM     67  F   UNL A   1      43.711  24.383  24.600  1.00  0.00    -0.200 F 
ENDBRANCH  43  57
BRANCH  44  68
ATOM     68  C   UNL A   1      39.804  31.957  35.834  1.00  0.00     0.064 A 
ATOM     69  C   UNL A   1      38.733  31.520  36.623  1.00  0.00     0.173 A 
ATOM     70  C   UNL A   1      40.450  33.146  36.206  1.00  0.00     0.173 A 
ATOM     71  F   UNL A   1      38.067  30.405  36.291  1.00  0.00    -0.203 F 
ATOM     72  C   UNL A   1      38.328  32.241  37.744  1.00  0.00     0.198 A 
ATOM     73  C   UNL A   1      40.064  33.848  37.343  1.00  0.00     0.198 A 
ATOM     74  F   UNL A   1      41.480  33.605  35.481  1.00  0.00    -0.203 F 
ATOM     75  F   UNL A   1      37.283  31.817  38.469  1.00  0.00    -0.200 F 
ATOM     76  C   UNL A   1      39.001  33.397  38.111  1.00  0.00     0.200 A 
ATOM     77  F   UNL A   1      40.728  34.955  37.702  1.00  0.00    -0.200 F 
ATOM     78  F   UNL A   1      38.623  34.078  39.201  1.00  0.00    -0.200 F 
ENDBRANCH  44  68
BRANCH  56  79
ATOM     79  C   UNL A   1      44.732  27.134  34.940  1.00  0.00     0.064 A 
ATOM     80  C   UNL A   1      44.438  25.987  35.691  1.00  0.00     0.173 A 
ATOM     81  C   UNL A   1      46.006  27.703  35.071  1.00  0.00     0.173 A 
ATOM     82  F   UNL A   1      43.225  25.419  35.610  1.00  0.00    -0.203 F 
ATOM     83  C   UNL A   1      45.380  25.443  36.559  1.00  0.00     0.198 A 
ATOM     84  C   UNL A   1      46.951  27.145  35.926  1.00  0.00     0.198 A 
ATOM     85  F   UNL A   1      46.332  28.800  34.371  1.00  0.00    -0.203 F 
ATOM     86  F   UNL A   1      45.066  24.370  37.299  1.00  0.00    -0.200 F 
ATOM     87  C   UNL A   1      46.636  26.020  36.673  1.00  0.00     0.200 A 
ATOM     88  F   UNL A   1      48.167  27.700  36.033  1.00  0.00    -0.200 F 
ATOM     89  F   UNL A   1      47.541  25.497  37.513  1.00  0.00    -0.200 F 
ENDBRANCH  56  79
ENDBRANCH  30  31
ENDBRANCH  23  25
ENDBRANCH  22  23
ENDBRANCH  21  22
ENDBRANCH   1  21
TORSDOF 13
ENDMDL
