MODEL 1
REMARK VINA RESULT:     -12.8      0.000      0.000
REMARK SMILES C[C@H]1N=N[C@H](S/C(=C/c2ccc(-c3cccc(Cl)c3)o2)C(=O)OCCOC(=O)c2ccc(-c3c4nc(c(-c5c(F)c(F)c(F)c(F)c5F)c5ccc([nH]5)c(-c5c(F)c(F)c(F)c(F)c5F)c5nc(c(-c6c(F)c(F)c(F)c(F)c6F)c6ccc3[nH]6)C=C5)C=C4)cc2)[NH2+]1
REMARK SMILES IDX 24 1 23 2 21 3 22 4 7 5 8 6 6 7 5 8 1 9 2 10 3 11 92 12 4 13
REMARK SMILES IDX 9 16 10 17 20 18 11 19 12 20 13 21 14 22 19 23 15 24 17 25
REMARK SMILES IDX 16 26 18 27 25 28 26 29 27 30 28 31 29 32 30 33 91 34 31 35
REMARK SMILES IDX 90 36 32 37 33 38 34 39 84 40 35 41 89 42 83 43 85 44 36 45
REMARK SMILES IDX 88 46 82 47 81 48 37 50 69 51 49 52 68 53 50 54 53 55 67 56
REMARK SMILES IDX 86 57 51 58 52 59 66 61 87 62 54 63 38 64 39 65 47 66 40 67
REMARK SMILES IDX 41 68 45 69 48 70 42 71 43 72 46 73 44 74 70 75 71 76 79 77
REMARK SMILES IDX 72 78 73 79 77 80 80 81 74 82 75 83 78 84 76 85 55 86 56 87
REMARK SMILES IDX 64 88 57 89 58 90 62 91 65 92 59 93 60 94 63 95 61 96
REMARK H PARENT 92 14 92 15 85 49 53 60
REMARK Flexibility Score: inf
ROOT
ATOM      1  C   UNL A   1      31.672  28.514  26.411  1.00  0.00     0.275 C 
ENDROOT
BRANCH   1   2
ATOM      2  O   UNL A   1      31.065  28.932  25.172  1.00  0.00    -0.458 OA
BRANCH   2   3
ATOM      3  C   UNL A   1      31.404  28.226  24.059  1.00  0.00     0.345 C 
ATOM      4  O   UNL A   1      32.480  28.272  23.482  1.00  0.00    -0.246 OA
BRANCH   3   5
ATOM      5  C   UNL A   1      30.252  27.372  23.618  1.00  0.00     0.104 C 
ATOM      6  C   UNL A   1      30.246  26.045  23.840  1.00  0.00     0.070 C 
BRANCH   5   7
ATOM      7  S   UNL A   1      28.933  28.289  22.938  1.00  0.00    -0.028 SA
BRANCH   7   8
ATOM      8  C   UNL A   1      29.617  29.870  22.362  1.00  0.00     0.393 C 
ATOM      9  C   UNL A   1      28.862  33.245  22.925  1.00  0.00     0.106 C 
ATOM     10  C   UNL A   1      28.486  31.772  22.804  1.00  0.00     0.324 C 
ATOM     11  N   UNL A   1      28.353  31.443  21.379  1.00  0.00    -0.126 NA
ATOM     12  N   UNL A   1      29.509  30.904  23.392  1.00  0.00    -0.293 N 
ATOM     13  N   UNL A   1      28.985  30.391  21.130  1.00  0.00    -0.115 NA
ATOM     14  H   UNL A   1      29.203  30.515  24.283  1.00  0.00     0.350 HD
ATOM     15  H   UNL A   1      30.387  31.374  23.610  1.00  0.00     0.350 HD
ENDBRANCH   7   8
ENDBRANCH   5   7
BRANCH   6  16
ATOM     16  C   UNL A   1      31.227  25.358  24.615  1.00  0.00     0.128 A 
ATOM     17  C   UNL A   1      31.123  24.787  25.880  1.00  0.00     0.051 A 
ATOM     18  O   UNL A   1      32.490  25.078  24.139  1.00  0.00    -0.457 OA
ATOM     19  C   UNL A   1      32.353  24.166  26.182  1.00  0.00     0.051 A 
ATOM     20  C   UNL A   1      33.161  24.364  25.087  1.00  0.00     0.134 A 
BRANCH  20  21
ATOM     21  C   UNL A   1      34.506  23.934  24.751  1.00  0.00     0.019 A 
ATOM     22  C   UNL A   1      34.728  23.208  23.570  1.00  0.00     0.012 A 
ATOM     23  C   UNL A   1      35.589  24.207  25.596  1.00  0.00     0.032 A 
ATOM     24  C   UNL A   1      36.009  22.761  23.238  1.00  0.00     0.002 A 
ATOM     25  C   UNL A   1      36.863  23.748  25.265  1.00  0.00     0.041 A 
ATOM     26  C   UNL A   1      37.078  23.027  24.090  1.00  0.00     0.020 A 
ATOM     27  Cl  UNL A   1      38.187  24.058  26.321  1.00  0.00    -0.084 Cl
ENDBRANCH  20  21
ENDBRANCH   6  16
ENDBRANCH   3   5
ENDBRANCH   2   3
ENDBRANCH   1   2
BRANCH   1  28
ATOM     28  C   UNL A   1      32.066  29.735  27.239  1.00  0.00     0.275 C 
BRANCH  28  29
ATOM     29  O   UNL A   1      33.023  30.514  26.499  1.00  0.00    -0.458 OA
BRANCH  29  30
ATOM     30  C   UNL A   1      33.480  31.614  27.135  1.00  0.00     0.338 C 
ATOM     31  O   UNL A   1      32.904  32.675  27.319  1.00  0.00    -0.246 OA
BRANCH  30  32
ATOM     32  C   UNL A   1      34.760  31.277  27.763  1.00  0.00     0.060 A 
ATOM     33  C   UNL A   1      34.950  29.950  28.148  1.00  0.00     0.016 A 
ATOM     34  C   UNL A   1      35.730  32.243  28.021  1.00  0.00     0.016 A 
ATOM     35  C   UNL A   1      36.116  29.574  28.808  1.00  0.00     0.010 A 
ATOM     36  C   UNL A   1      36.903  31.867  28.683  1.00  0.00     0.010 A 
ATOM     37  C   UNL A   1      37.095  30.533  29.095  1.00  0.00    -0.014 A 
BRANCH  37  38
ATOM     38  C   UNL A   1      38.273  30.153  29.911  1.00  0.00     0.031 A 
ATOM     39  C   UNL A   1      39.300  29.220  29.337  1.00  0.00     0.074 A 
ATOM     40  C   UNL A   1      38.447  30.673  31.140  1.00  0.00     0.049 A 
ATOM     41  N   UNL A   1      40.360  28.702  29.902  1.00  0.00    -0.248 NA
ATOM     42  C   UNL A   1      39.104  28.814  27.936  1.00  0.00     0.031 C 
ATOM     43  C   UNL A   1      37.551  31.631  31.784  1.00  0.00     0.029 A 
ATOM     44  N   UNL A   1      39.445  30.473  32.060  1.00  0.00    -0.354 N 
ATOM     45  C   UNL A   1      40.941  27.887  28.939  1.00  0.00     0.074 A 
ATOM     46  C   UNL A   1      40.111  27.972  27.755  1.00  0.00     0.031 C 
ATOM     47  C   UNL A   1      38.047  31.948  32.992  1.00  0.00     0.029 A 
ATOM     48  C   UNL A   1      39.271  31.182  33.222  1.00  0.00     0.049 A 
ATOM     49  H   UNL A   1      40.213  29.877  31.901  1.00  0.00     0.167 HD
ATOM     50  C   UNL A   1      42.066  27.140  29.034  1.00  0.00     0.037 A 
ATOM     51  C   UNL A   1      40.005  31.196  34.350  1.00  0.00     0.037 A 
ATOM     52  C   UNL A   1      42.905  27.078  30.201  1.00  0.00     0.049 A 
ATOM     53  C   UNL A   1      41.234  30.331  34.441  1.00  0.00     0.074 A 
ATOM     54  C   UNL A   1      44.064  26.346  30.396  1.00  0.00     0.029 A 
ATOM     55  N   UNL A   1      42.679  27.787  31.371  1.00  0.00    -0.354 N 
ATOM     56  N   UNL A   1      41.755  29.536  33.540  1.00  0.00    -0.248 NA
ATOM     57  C   UNL A   1      41.971  30.361  35.712  1.00  0.00     0.031 C 
ATOM     58  C   UNL A   1      44.524  26.592  31.695  1.00  0.00     0.029 A 
ATOM     59  C   UNL A   1      43.671  27.504  32.296  1.00  0.00     0.049 A 
ATOM     60  H   UNL A   1      41.925  28.402  31.522  1.00  0.00     0.167 HD
ATOM     61  C   UNL A   1      42.882  28.979  34.126  1.00  0.00     0.074 A 
ATOM     62  C   UNL A   1      42.984  29.544  35.457  1.00  0.00     0.031 C 
ATOM     63  C   UNL A   1      43.753  28.075  33.615  1.00  0.00     0.037 A 
BRANCH  50  64
ATOM     64  C   UNL A   1      42.436  26.300  27.848  1.00  0.00     0.064 A 
ATOM     65  C   UNL A   1      43.377  26.732  26.903  1.00  0.00     0.173 A 
ATOM     66  C   UNL A   1      41.855  25.036  27.670  1.00  0.00     0.173 A 
ATOM     67  F   UNL A   1      43.944  27.942  27.020  1.00  0.00    -0.203 F 
ATOM     68  C   UNL A   1      43.707  25.937  25.809  1.00  0.00     0.198 A 
ATOM     69  C   UNL A   1      42.206  24.233  26.588  1.00  0.00     0.198 A 
ATOM     70  F   UNL A   1      40.951  24.577  28.548  1.00  0.00    -0.203 F 
ATOM     71  F   UNL A   1      44.579  26.386  24.894  1.00  0.00    -0.200 F 
ATOM     72  C   UNL A   1      43.127  24.686  25.655  1.00  0.00     0.200 A 
ATOM     73  F   UNL A   1      41.650  23.022  26.445  1.00  0.00    -0.200 F 
ATOM     74  F   UNL A   1      43.449  23.921  24.604  1.00  0.00    -0.200 F 
ENDBRANCH  50  64
BRANCH  51  75
ATOM     75  C   UNL A   1      39.590  32.047  35.493  1.00  0.00     0.064 A 
ATOM     76  C   UNL A   1      40.105  33.340  35.655  1.00  0.00     0.173 A 
ATOM     77  C   UNL A   1      38.674  31.584  36.449  1.00  0.00     0.173 A 
ATOM     78  F   UNL A   1      41.006  33.815  34.783  1.00  0.00    -0.203 F 
ATOM     79  C   UNL A   1      39.727  34.134  36.736  1.00  0.00     0.198 A 
ATOM     80  C   UNL A   1      38.278  32.387  37.516  1.00  0.00     0.198 A 
ATOM     81  F   UNL A   1      38.157  30.351  36.342  1.00  0.00    -0.203 F 
ATOM     82  F   UNL A   1      40.267  35.351  36.891  1.00  0.00    -0.200 F 
ATOM     83  C   UNL A   1      38.810  33.660  37.662  1.00  0.00     0.200 A 
ATOM     84  F   UNL A   1      37.387  31.928  38.404  1.00  0.00    -0.200 F 
ATOM     85  F   UNL A   1      38.446  34.425  38.700  1.00  0.00    -0.200 F 
ENDBRANCH  51  75
BRANCH  63  86
ATOM     86  C   UNL A   1      44.894  27.655  34.491  1.00  0.00     0.064 A 
ATOM     87  C   UNL A   1      46.104  28.365  34.505  1.00  0.00     0.173 A 
ATOM     88  C   UNL A   1      44.769  26.548  35.343  1.00  0.00     0.173 A 
ATOM     89  F   UNL A   1      46.275  29.422  33.696  1.00  0.00    -0.203 F 
ATOM     90  C   UNL A   1      47.155  27.967  35.324  1.00  0.00     0.198 A 
ATOM     91  C   UNL A   1      45.815  26.167  36.177  1.00  0.00     0.198 A 
ATOM     92  F   UNL A   1      43.630  25.840  35.369  1.00  0.00    -0.203 F 
ATOM     93  F   UNL A   1      48.318  28.634  35.291  1.00  0.00    -0.200 F 
ATOM     94  C   UNL A   1      47.009  26.871  36.163  1.00  0.00     0.200 A 
ATOM     95  F   UNL A   1      45.670  25.113  36.993  1.00  0.00    -0.200 F 
ATOM     96  F   UNL A   1      48.024  26.490  36.951  1.00  0.00    -0.200 F 
ENDBRANCH  63  86
ENDBRANCH  37  38
ENDBRANCH  30  32
ENDBRANCH  29  30
ENDBRANCH  28  29
ENDBRANCH   1  28
TORSDOF 15
ENDMDL
MODEL 2
REMARK VINA RESULT:     -12.5      2.672      4.752
REMARK SMILES C[C@H]1N=N[C@H](S/C(=C/c2ccc(-c3cccc(Cl)c3)o2)C(=O)OCCOC(=O)c2ccc(-c3c4nc(c(-c5c(F)c(F)c(F)c(F)c5F)c5ccc([nH]5)c(-c5c(F)c(F)c(F)c(F)c5F)c5nc(c(-c6c(F)c(F)c(F)c(F)c6F)c6ccc3[nH]6)C=C5)C=C4)cc2)[NH2+]1
REMARK SMILES IDX 24 1 23 2 21 3 22 4 7 5 8 6 6 7 5 8 1 9 2 10 3 11 92 12 4 13
REMARK SMILES IDX 9 16 10 17 20 18 11 19 12 20 13 21 14 22 19 23 15 24 17 25
REMARK SMILES IDX 16 26 18 27 25 28 26 29 27 30 28 31 29 32 30 33 91 34 31 35
REMARK SMILES IDX 90 36 32 37 33 38 34 39 84 40 35 41 89 42 83 43 85 44 36 45
REMARK SMILES IDX 88 46 82 47 81 48 37 50 69 51 49 52 68 53 50 54 53 55 67 56
REMARK SMILES IDX 86 57 51 58 52 59 66 61 87 62 54 63 38 64 39 65 47 66 40 67
REMARK SMILES IDX 41 68 45 69 48 70 42 71 43 72 46 73 44 74 70 75 71 76 79 77
REMARK SMILES IDX 72 78 73 79 77 80 80 81 74 82 75 83 78 84 76 85 55 86 56 87
REMARK SMILES IDX 64 88 57 89 58 90 62 91 65 92 59 93 60 94 63 95 61 96
REMARK H PARENT 92 14 92 15 85 49 53 60
REMARK Flexibility Score: inf
ROOT
ATOM      1  C   UNL A   1      31.782  28.207  27.185  1.00  0.00     0.275 C 
ENDROOT
BRANCH   1   2
ATOM      2  O   UNL A   1      32.673  27.239  26.595  1.00  0.00    -0.458 OA
BRANCH   2   3
ATOM      3  C   UNL A   1      32.150  26.010  26.337  1.00  0.00     0.345 C 
ATOM      4  O   UNL A   1      31.096  25.573  26.774  1.00  0.00    -0.246 OA
BRANCH   3   5
ATOM      5  C   UNL A   1      33.065  25.239  25.431  1.00  0.00     0.104 C 
ATOM      6  C   UNL A   1      33.335  25.670  24.186  1.00  0.00     0.070 C 
BRANCH   5   7
ATOM      7  S   UNL A   1      33.800  23.859  26.206  1.00  0.00    -0.028 SA
BRANCH   7   8
ATOM      8  C   UNL A   1      35.027  23.183  25.049  1.00  0.00     0.393 C 
ATOM      9  C   UNL A   1      37.081  20.345  25.001  1.00  0.00     0.106 C 
ATOM     10  C   UNL A   1      36.313  21.453  25.714  1.00  0.00     0.324 C 
ATOM     11  N   UNL A   1      37.122  22.678  25.675  1.00  0.00    -0.126 NA
ATOM     12  N   UNL A   1      35.027  21.720  25.068  1.00  0.00    -0.293 N 
ATOM     13  N   UNL A   1      36.411  23.639  25.299  1.00  0.00    -0.115 NA
ATOM     14  H   UNL A   1      34.248  21.352  25.615  1.00  0.00     0.350 HD
ATOM     15  H   UNL A   1      34.916  21.287  24.152  1.00  0.00     0.350 HD
ENDBRANCH   7   8
ENDBRANCH   5   7
BRANCH   6  16
ATOM     16  C   UNL A   1      32.913  26.929  23.665  1.00  0.00     0.128 A 
ATOM     17  C   UNL A   1      33.671  27.995  23.189  1.00  0.00     0.051 A 
ATOM     18  O   UNL A   1      31.586  27.248  23.474  1.00  0.00    -0.457 OA
ATOM     19  C   UNL A   1      32.783  28.987  22.720  1.00  0.00     0.051 A 
ATOM     20  C   UNL A   1      31.516  28.487  22.909  1.00  0.00     0.134 A 
BRANCH  20  21
ATOM     21  C   UNL A   1      30.190  28.986  22.590  1.00  0.00     0.019 A 
ATOM     22  C   UNL A   1      30.053  30.102  21.750  1.00  0.00     0.012 A 
ATOM     23  C   UNL A   1      29.042  28.391  23.126  1.00  0.00     0.032 A 
ATOM     24  C   UNL A   1      28.790  30.616  21.449  1.00  0.00     0.002 A 
ATOM     25  C   UNL A   1      27.784  28.917  22.832  1.00  0.00     0.041 A 
ATOM     26  C   UNL A   1      27.653  30.025  21.995  1.00  0.00     0.020 A 
ATOM     27  Cl  UNL A   1      26.375  28.203  23.517  1.00  0.00    -0.084 Cl
ENDBRANCH  20  21
ENDBRANCH   6  16
ENDBRANCH   3   5
ENDBRANCH   2   3
ENDBRANCH   1   2
BRANCH   1  28
ATOM     28  C   UNL A   1      31.778  29.489  26.354  1.00  0.00     0.275 C 
BRANCH  28  29
ATOM     29  O   UNL A   1      33.128  29.973  26.233  1.00  0.00    -0.458 OA
BRANCH  29  30
ATOM     30  C   UNL A   1      33.421  31.050  26.993  1.00  0.00     0.338 C 
ATOM     31  O   UNL A   1      32.711  32.009  27.251  1.00  0.00    -0.246 OA
BRANCH  30  32
ATOM     32  C   UNL A   1      34.710  30.808  27.646  1.00  0.00     0.060 A 
ATOM     33  C   UNL A   1      35.007  29.492  28.001  1.00  0.00     0.016 A 
ATOM     34  C   UNL A   1      35.584  31.848  27.956  1.00  0.00     0.016 A 
ATOM     35  C   UNL A   1      36.185  29.201  28.682  1.00  0.00     0.010 A 
ATOM     36  C   UNL A   1      36.769  31.556  28.639  1.00  0.00     0.010 A 
ATOM     37  C   UNL A   1      37.068  30.234  29.021  1.00  0.00    -0.014 A 
BRANCH  37  38
ATOM     38  C   UNL A   1      38.255  29.935  29.858  1.00  0.00     0.031 A 
ATOM     39  C   UNL A   1      39.326  29.027  29.324  1.00  0.00     0.074 A 
ATOM     40  C   UNL A   1      38.396  30.506  31.068  1.00  0.00     0.049 A 
ATOM     41  N   UNL A   1      40.403  28.577  29.914  1.00  0.00    -0.248 NA
ATOM     42  C   UNL A   1      39.160  28.563  27.937  1.00  0.00     0.031 C 
ATOM     43  C   UNL A   1      37.454  31.446  31.672  1.00  0.00     0.029 A 
ATOM     44  N   UNL A   1      39.394  30.382  32.002  1.00  0.00    -0.354 N 
ATOM     45  C   UNL A   1      41.027  27.755  28.985  1.00  0.00     0.074 A 
ATOM     46  C   UNL A   1      40.204  27.761  27.794  1.00  0.00     0.031 C 
ATOM     47  C   UNL A   1      37.925  31.826  32.871  1.00  0.00     0.029 A 
ATOM     48  C   UNL A   1      39.179  31.124  33.136  1.00  0.00     0.049 A 
ATOM     49  H   UNL A   1      40.189  29.816  31.869  1.00  0.00     0.167 HD
ATOM     50  C   UNL A   1      42.183  27.061  29.115  1.00  0.00     0.037 A 
ATOM     51  C   UNL A   1      39.903  31.210  34.268  1.00  0.00     0.037 A 
ATOM     52  C   UNL A   1      43.014  27.078  30.289  1.00  0.00     0.049 A 
ATOM     53  C   UNL A   1      41.168  30.404  34.398  1.00  0.00     0.074 A 
ATOM     54  C   UNL A   1      44.202  26.405  30.518  1.00  0.00     0.029 A 
ATOM     55  N   UNL A   1      42.747  27.818  31.431  1.00  0.00    -0.354 N 
ATOM     56  N   UNL A   1      41.730  29.600  33.529  1.00  0.00    -0.248 NA
ATOM     57  C   UNL A   1      41.892  30.512  35.672  1.00  0.00     0.031 C 
ATOM     58  C   UNL A   1      44.640  26.717  31.811  1.00  0.00     0.029 A 
ATOM     59  C   UNL A   1      43.743  27.611  32.373  1.00  0.00     0.049 A 
ATOM     60  H   UNL A   1      41.966  28.404  31.555  1.00  0.00     0.167 HD
ATOM     61  C   UNL A   1      42.875  29.115  34.143  1.00  0.00     0.074 A 
ATOM     62  C   UNL A   1      42.941  29.731  35.453  1.00  0.00     0.031 C 
ATOM     63  C   UNL A   1      43.789  28.232  33.670  1.00  0.00     0.037 A 
BRANCH  50  64
ATOM     64  C   UNL A   1      42.598  26.197  27.963  1.00  0.00     0.064 A 
ATOM     65  C   UNL A   1      42.113  24.891  27.808  1.00  0.00     0.173 A 
ATOM     66  C   UNL A   1      43.478  26.692  26.990  1.00  0.00     0.173 A 
ATOM     67  F   UNL A   1      41.286  24.365  28.724  1.00  0.00    -0.203 F 
ATOM     68  C   UNL A   1      42.511  24.104  26.731  1.00  0.00     0.198 A 
ATOM     69  C   UNL A   1      43.855  25.912  25.900  1.00  0.00     0.198 A 
ATOM     70  F   UNL A   1      43.968  27.937  27.092  1.00  0.00    -0.203 F 
ATOM     71  F   UNL A   1      42.068  22.842  26.623  1.00  0.00    -0.200 F 
ATOM     72  C   UNL A   1      43.376  24.616  25.774  1.00  0.00     0.200 A 
ATOM     73  F   UNL A   1      44.684  26.411  24.974  1.00  0.00    -0.200 F 
ATOM     74  F   UNL A   1      43.755  23.859  24.736  1.00  0.00    -0.200 F 
ENDBRANCH  50  64
BRANCH  51  75
ATOM     75  C   UNL A   1      39.441  32.082  35.376  1.00  0.00     0.064 A 
ATOM     76  C   UNL A   1      38.586  31.592  36.373  1.00  0.00     0.173 A 
ATOM     77  C   UNL A   1      39.841  33.424  35.460  1.00  0.00     0.173 A 
ATOM     78  F   UNL A   1      38.153  30.325  36.318  1.00  0.00    -0.203 F 
ATOM     79  C   UNL A   1      38.140  32.416  37.405  1.00  0.00     0.198 A 
ATOM     80  C   UNL A   1      39.414  34.239  36.506  1.00  0.00     0.198 A 
ATOM     81  F   UNL A   1      40.653  33.942  34.527  1.00  0.00    -0.203 F 
ATOM     82  F   UNL A   1      37.289  31.934  38.321  1.00  0.00    -0.200 F 
ATOM     83  C   UNL A   1      38.559  33.735  37.475  1.00  0.00     0.200 A 
ATOM     84  F   UNL A   1      39.827  35.512  36.573  1.00  0.00    -0.200 F 
ATOM     85  F   UNL A   1      38.132  34.526  38.469  1.00  0.00    -0.200 F 
ENDBRANCH  51  75
BRANCH  63  86
ATOM     86  C   UNL A   1      44.940  27.894  34.569  1.00  0.00     0.064 A 
ATOM     87  C   UNL A   1      46.116  28.659  34.568  1.00  0.00     0.173 A 
ATOM     88  C   UNL A   1      44.857  26.811  35.457  1.00  0.00     0.173 A 
ATOM     89  F   UNL A   1      46.247  29.694  33.725  1.00  0.00    -0.203 F 
ATOM     90  C   UNL A   1      47.177  28.336  35.408  1.00  0.00     0.198 A 
ATOM     91  C   UNL A   1      45.913  26.507  36.311  1.00  0.00     0.198 A 
ATOM     92  F   UNL A   1      43.751  26.054  35.498  1.00  0.00    -0.203 F 
ATOM     93  F   UNL A   1      48.308  29.054  35.361  1.00  0.00    -0.200 F 
ATOM     94  C   UNL A   1      47.074  27.264  36.282  1.00  0.00     0.200 A 
ATOM     95  F   UNL A   1      45.808  25.475  37.161  1.00  0.00    -0.200 F 
ATOM     96  F   UNL A   1      48.097  26.955  37.090  1.00  0.00    -0.200 F 
ENDBRANCH  63  86
ENDBRANCH  37  38
ENDBRANCH  30  32
ENDBRANCH  29  30
ENDBRANCH  28  29
ENDBRANCH   1  28
TORSDOF 15
ENDMDL
MODEL 3
REMARK VINA RESULT:     -12.1      4.751      8.047
REMARK SMILES C[C@H]1N=N[C@H](S/C(=C/c2ccc(-c3cccc(Cl)c3)o2)C(=O)OCCOC(=O)c2ccc(-c3c4nc(c(-c5c(F)c(F)c(F)c(F)c5F)c5ccc([nH]5)c(-c5c(F)c(F)c(F)c(F)c5F)c5nc(c(-c6c(F)c(F)c(F)c(F)c6F)c6ccc3[nH]6)C=C5)C=C4)cc2)[NH2+]1
REMARK SMILES IDX 24 1 23 2 21 3 22 4 7 5 8 6 6 7 5 8 1 9 2 10 3 11 92 12 4 13
REMARK SMILES IDX 9 16 10 17 20 18 11 19 12 20 13 21 14 22 19 23 15 24 17 25
REMARK SMILES IDX 16 26 18 27 25 28 26 29 27 30 28 31 29 32 30 33 91 34 31 35
REMARK SMILES IDX 90 36 32 37 33 38 34 39 84 40 35 41 89 42 83 43 85 44 36 45
REMARK SMILES IDX 88 46 82 47 81 48 37 50 69 51 49 52 68 53 50 54 53 55 67 56
REMARK SMILES IDX 86 57 51 58 52 59 66 61 87 62 54 63 38 64 39 65 47 66 40 67
REMARK SMILES IDX 41 68 45 69 48 70 42 71 43 72 46 73 44 74 70 75 71 76 79 77
REMARK SMILES IDX 72 78 73 79 77 80 80 81 74 82 75 83 78 84 76 85 55 86 56 87
REMARK SMILES IDX 64 88 57 89 58 90 62 91 65 92 59 93 60 94 63 95 61 96
REMARK H PARENT 92 14 92 15 85 49 53 60
REMARK Flexibility Score: inf
ROOT
ATOM      1  C   UNL A   1      35.972  22.885  24.253  1.00  0.00     0.275 C 
ENDROOT
BRANCH   1   2
ATOM      2  O   UNL A   1      35.076  21.784  24.007  1.00  0.00    -0.458 OA
BRANCH   2   3
ATOM      3  C   UNL A   1      33.947  21.736  24.765  1.00  0.00     0.345 C 
ATOM      4  O   UNL A   1      33.892  21.887  25.977  1.00  0.00    -0.246 OA
BRANCH   3   5
ATOM      5  C   UNL A   1      32.754  21.456  23.901  1.00  0.00     0.104 C 
ATOM      6  C   UNL A   1      32.033  22.459  23.365  1.00  0.00     0.070 C 
BRANCH   5   7
ATOM      7  S   UNL A   1      32.514  19.757  23.585  1.00  0.00    -0.028 SA
BRANCH   7   8
ATOM      8  C   UNL A   1      33.243  18.842  24.974  1.00  0.00     0.393 C 
ATOM      9  C   UNL A   1      35.174  15.935  25.282  1.00  0.00     0.106 C 
ATOM     10  C   UNL A   1      34.127  16.802  24.591  1.00  0.00     0.324 C 
ATOM     11  N   UNL A   1      32.856  16.658  25.313  1.00  0.00    -0.126 NA
ATOM     12  N   UNL A   1      34.509  18.216  24.594  1.00  0.00    -0.293 N 
ATOM     13  N   UNL A   1      32.366  17.790  25.533  1.00  0.00    -0.115 NA
ATOM     14  H   UNL A   1      34.817  18.523  23.672  1.00  0.00     0.350 HD
ATOM     15  H   UNL A   1      35.291  18.440  25.208  1.00  0.00     0.350 HD
ENDBRANCH   7   8
ENDBRANCH   5   7
BRANCH   6  16
ATOM     16  C   UNL A   1      32.397  23.835  23.441  1.00  0.00     0.128 A 
ATOM     17  C   UNL A   1      32.804  24.705  22.434  1.00  0.00     0.051 A 
ATOM     18  O   UNL A   1      32.309  24.566  24.606  1.00  0.00    -0.457 OA
ATOM     19  C   UNL A   1      32.984  25.983  23.006  1.00  0.00     0.051 A 
ATOM     20  C   UNL A   1      32.666  25.853  24.337  1.00  0.00     0.134 A 
BRANCH  20  21
ATOM     21  C   UNL A   1      32.596  26.795  25.441  1.00  0.00     0.019 A 
ATOM     22  C   UNL A   1      31.403  26.922  26.170  1.00  0.00     0.012 A 
ATOM     23  C   UNL A   1      33.689  27.602  25.778  1.00  0.00     0.032 A 
ATOM     24  C   UNL A   1      31.302  27.838  27.219  1.00  0.00     0.002 A 
ATOM     25  C   UNL A   1      33.578  28.525  26.818  1.00  0.00     0.041 A 
ATOM     26  C   UNL A   1      32.390  28.645  27.540  1.00  0.00     0.020 A 
ATOM     27  Cl  UNL A   1      34.913  29.538  27.210  1.00  0.00    -0.084 Cl
ENDBRANCH  20  21
ENDBRANCH   6  16
ENDBRANCH   3   5
ENDBRANCH   2   3
ENDBRANCH   1   2
BRANCH   1  28
ATOM     28  C   UNL A   1      37.272  22.375  24.870  1.00  0.00     0.275 C 
BRANCH  28  29
ATOM     29  O   UNL A   1      37.883  23.439  25.623  1.00  0.00    -0.458 OA
BRANCH  29  30
ATOM     30  C   UNL A   1      38.974  23.084  26.335  1.00  0.00     0.338 C 
ATOM     31  O   UNL A   1      39.510  21.989  26.401  1.00  0.00    -0.246 OA
BRANCH  30  32
ATOM     32  C   UNL A   1      39.560  24.300  26.904  1.00  0.00     0.060 A 
ATOM     33  C   UNL A   1      39.416  24.494  28.278  1.00  0.00     0.016 A 
ATOM     34  C   UNL A   1      40.187  25.256  26.108  1.00  0.00     0.016 A 
ATOM     35  C   UNL A   1      39.892  25.657  28.873  1.00  0.00     0.010 A 
ATOM     36  C   UNL A   1      40.667  26.426  26.705  1.00  0.00     0.010 A 
ATOM     37  C   UNL A   1      40.508  26.641  28.088  1.00  0.00    -0.014 A 
BRANCH  37  38
ATOM     38  C   UNL A   1      40.895  27.931  28.706  1.00  0.00     0.031 A 
ATOM     39  C   UNL A   1      42.336  28.185  29.046  1.00  0.00     0.074 A 
ATOM     40  C   UNL A   1      39.973  28.888  28.921  1.00  0.00     0.049 A 
ATOM     41  N   UNL A   1      42.878  29.208  29.655  1.00  0.00    -0.248 NA
ATOM     42  C   UNL A   1      43.296  27.145  28.644  1.00  0.00     0.031 C 
ATOM     43  C   UNL A   1      38.555  28.782  28.584  1.00  0.00     0.029 A 
ATOM     44  N   UNL A   1      40.098  30.140  29.468  1.00  0.00    -0.354 N 
ATOM     45  C   UNL A   1      44.234  28.923  29.738  1.00  0.00     0.074 A 
ATOM     46  C   UNL A   1      44.434  27.627  29.124  1.00  0.00     0.031 C 
ATOM     47  C   UNL A   1      37.941  29.929  28.918  1.00  0.00     0.029 A 
ATOM     48  C   UNL A   1      38.914  30.831  29.531  1.00  0.00     0.049 A 
ATOM     49  H   UNL A   1      40.955  30.507  29.784  1.00  0.00     0.167 HD
ATOM     50  C   UNL A   1      45.223  29.676  30.275  1.00  0.00     0.037 A 
ATOM     51  C   UNL A   1      38.643  32.045  30.046  1.00  0.00     0.037 A 
ATOM     52  C   UNL A   1      45.029  30.976  30.860  1.00  0.00     0.049 A 
ATOM     53  C   UNL A   1      39.755  32.849  30.665  1.00  0.00     0.074 A 
ATOM     54  C   UNL A   1      45.968  31.815  31.434  1.00  0.00     0.029 A 
ATOM     55  N   UNL A   1      43.809  31.631  30.935  1.00  0.00    -0.354 N 
ATOM     56  N   UNL A   1      41.028  32.555  30.773  1.00  0.00    -0.248 NA
ATOM     57  C   UNL A   1      39.388  34.150  31.243  1.00  0.00     0.031 C 
ATOM     58  C   UNL A   1      45.310  32.968  31.881  1.00  0.00     0.029 A 
ATOM     59  C   UNL A   1      43.968  32.861  31.554  1.00  0.00     0.049 A 
ATOM     60  H   UNL A   1      42.955  31.275  30.597  1.00  0.00     0.167 HD
ATOM     61  C   UNL A   1      41.615  33.633  31.418  1.00  0.00     0.074 A 
ATOM     62  C   UNL A   1      40.564  34.600  31.660  1.00  0.00     0.031 C 
ATOM     63  C   UNL A   1      42.909  33.807  31.787  1.00  0.00     0.037 A 
BRANCH  50  64
ATOM     64  C   UNL A   1      46.604  29.093  30.284  1.00  0.00     0.064 A 
ATOM     65  C   UNL A   1      47.061  28.294  31.341  1.00  0.00     0.173 A 
ATOM     66  C   UNL A   1      47.473  29.321  29.207  1.00  0.00     0.173 A 
ATOM     67  F   UNL A   1      46.274  28.065  32.403  1.00  0.00    -0.203 F 
ATOM     68  C   UNL A   1      48.347  27.761  31.330  1.00  0.00     0.198 A 
ATOM     69  C   UNL A   1      48.750  28.766  29.187  1.00  0.00     0.198 A 
ATOM     70  F   UNL A   1      47.082  30.077  28.170  1.00  0.00    -0.203 F 
ATOM     71  F   UNL A   1      48.780  27.034  32.370  1.00  0.00    -0.200 F 
ATOM     72  C   UNL A   1      49.189  27.992  30.251  1.00  0.00     0.200 A 
ATOM     73  F   UNL A   1      49.558  28.984  28.141  1.00  0.00    -0.200 F 
ATOM     74  F   UNL A   1      50.425  27.476  30.239  1.00  0.00    -0.200 F 
ENDBRANCH  50  64
BRANCH  51  75
ATOM     75  C   UNL A   1      37.256  32.571  30.010  1.00  0.00     0.064 A 
ATOM     76  C   UNL A   1      36.344  32.272  31.031  1.00  0.00     0.173 A 
ATOM     77  C   UNL A   1      36.812  33.379  28.952  1.00  0.00     0.173 A 
ATOM     78  F   UNL A   1      36.714  31.479  32.047  1.00  0.00    -0.203 F 
ATOM     79  C   UNL A   1      35.036  32.753  30.990  1.00  0.00     0.198 A 
ATOM     80  C   UNL A   1      35.512  33.879  28.925  1.00  0.00     0.198 A 
ATOM     81  F   UNL A   1      37.644  33.688  27.948  1.00  0.00    -0.203 F 
ATOM     82  F   UNL A   1      34.172  32.418  31.957  1.00  0.00    -0.200 F 
ATOM     83  C   UNL A   1      34.623  33.561  29.942  1.00  0.00     0.200 A 
ATOM     84  F   UNL A   1      35.119  34.664  27.914  1.00  0.00    -0.200 F 
ATOM     85  F   UNL A   1      33.367  34.025  29.904  1.00  0.00    -0.200 F 
ENDBRANCH  51  75
BRANCH  63  86
ATOM     86  C   UNL A   1      43.255  35.092  32.474  1.00  0.00     0.064 A 
ATOM     87  C   UNL A   1      43.244  35.199  33.873  1.00  0.00     0.173 A 
ATOM     88  C   UNL A   1      43.626  36.222  31.729  1.00  0.00     0.173 A 
ATOM     89  F   UNL A   1      42.881  34.151  34.627  1.00  0.00    -0.203 F 
ATOM     90  C   UNL A   1      43.569  36.398  34.499  1.00  0.00     0.198 A 
ATOM     91  C   UNL A   1      43.972  37.412  32.361  1.00  0.00     0.198 A 
ATOM     92  F   UNL A   1      43.657  36.167  30.389  1.00  0.00    -0.203 F 
ATOM     93  F   UNL A   1      43.511  36.491  35.835  1.00  0.00    -0.200 F 
ATOM     94  C   UNL A   1      43.938  37.502  33.744  1.00  0.00     0.200 A 
ATOM     95  F   UNL A   1      44.336  38.475  31.630  1.00  0.00    -0.200 F 
ATOM     96  F   UNL A   1      44.250  38.656  34.350  1.00  0.00    -0.200 F 
ENDBRANCH  63  86
ENDBRANCH  37  38
ENDBRANCH  30  32
ENDBRANCH  29  30
ENDBRANCH  28  29
ENDBRANCH   1  28
TORSDOF 15
ENDMDL
