MODEL 1
REMARK VINA RESULT:     -10.4      0.000      0.000
REMARK SMILES COc1ccc(-c2cc(Cl)cc3c2O[C@H](C(F)(F)F)C(C(=O)OCCOC(=O)c2ccc(-c4c5nc(c(-c6c(F)c(F)c(F)c(F)c6F)c6ccc([nH]6)c(-c6c(F)c(F)c(F)c(F)c6F)c6nc(c(-c7c(F)c(F)c(F)c(F)c7F)c7ccc4[nH]7)C=C6)C=C5)cc2)=C3)cc1C
REMARK SMILES IDX 24 1 23 2 21 3 22 4 20 5 7 6 8 7 13 8 9 9 12 10 14 11 10 12
REMARK SMILES IDX 11 13 92 14 15 15 6 16 3 17 4 18 94 19 5 20 93 21 95 22 2 23
REMARK SMILES IDX 1 24 16 25 17 26 18 27 19 28 25 29 26 30 27 31 28 32 29 33
REMARK SMILES IDX 30 34 91 35 31 36 90 37 32 38 33 39 34 40 84 41 35 42 89 43
REMARK SMILES IDX 83 44 85 45 36 46 88 47 82 48 81 49 37 51 69 52 49 53 68 54
REMARK SMILES IDX 50 55 53 56 67 57 86 58 51 59 52 60 66 62 87 63 54 64 38 65
REMARK SMILES IDX 39 66 47 67 40 68 41 69 45 70 48 71 42 72 43 73 46 74 44 75
REMARK SMILES IDX 70 76 71 77 79 78 72 79 73 80 77 81 80 82 74 83 75 84 78 85
REMARK SMILES IDX 76 86 55 87 56 88 64 89 57 90 58 91 62 92 65 93 59 94 60 95
REMARK SMILES IDX 63 96 61 97
REMARK H PARENT 85 50 53 61
REMARK Flexibility Score: inf
ROOT
ATOM      1  C   UNL A   1      45.876  26.933  35.938  1.00  0.00     0.275 C 
ENDROOT
BRANCH   1   2
ATOM      2  O   UNL A   1      44.760  26.080  36.296  1.00  0.00    -0.459 OA
BRANCH   2   3
ATOM      3  C   UNL A   1      43.931  25.954  35.224  1.00  0.00     0.338 C 
ATOM      4  O   UNL A   1      44.292  24.992  34.485  1.00  0.00    -0.246 OA
BRANCH   3   5
ATOM      5  C   UNL A   1      42.577  27.443  34.927  1.00  0.00     0.087 C 
ATOM      6  C   UNL A   1      43.482  30.397  32.662  1.00  0.00     0.026 A 
ATOM      7  C   UNL A   1      42.594  31.419  32.168  1.00  0.00     0.033 A 
ATOM      8  C   UNL A   1      42.730  29.154  33.029  1.00  0.00     0.135 A 
ATOM      9  C   UNL A   1      41.182  31.302  32.114  1.00  0.00     0.042 A 
ATOM     10  C   UNL A   1      41.386  29.298  33.235  1.00  0.00     0.019 A 
ATOM     11  O   UNL A   1      42.851  27.877  34.208  1.00  0.00    -0.475 OA
ATOM     12  Cl  UNL A   1      40.222  32.617  31.555  1.00  0.00    -0.084 Cl
ATOM     13  C   UNL A   1      40.545  30.219  32.669  1.00  0.00     0.032 A 
ATOM     14  C   UNL A   1      41.405  28.783  34.599  1.00  0.00     0.027 C 
ATOM     15  C   UNL A   1      42.550  25.949  34.639  1.00  0.00     0.316 C 
BRANCH   6  16
ATOM     16  C   UNL A   1      44.998  30.962  32.840  1.00  0.00    -0.014 A 
ATOM     17  C   UNL A   1      47.759  31.950  32.488  1.00  0.00     0.121 A 
ATOM     18  C   UNL A   1      46.659  32.790  32.693  1.00  0.00     0.047 A 
ATOM     19  C   UNL A   1      47.571  30.586  32.673  1.00  0.00    -0.008 A 
ATOM     20  C   UNL A   1      45.321  32.311  32.855  1.00  0.00     0.013 A 
ATOM     21  C   UNL A   1      46.205  30.123  32.938  1.00  0.00     0.016 A 
ATOM     22  C   UNL A   1      48.730  29.655  32.319  1.00  0.00     0.048 C 
BRANCH  17  23
ATOM     23  O   UNL A   1      48.992  32.516  32.269  1.00  0.00    -0.496 OA
ATOM     24  C   UNL A   1      49.103  33.925  32.524  1.00  0.00     0.278 C 
ENDBRANCH  17  23
ENDBRANCH   6  16
BRANCH  15  25
ATOM     25  C   UNL A   1      41.840  24.848  35.838  1.00  0.00     0.430 C 
ATOM     26  F   UNL A   1      42.240  24.860  37.122  1.00  0.00    -0.167 F 
ATOM     27  F   UNL A   1      40.495  25.131  35.899  1.00  0.00    -0.167 F 
ATOM     28  F   UNL A   1      41.863  23.557  35.418  1.00  0.00    -0.167 F 
ENDBRANCH  15  25
ENDBRANCH   3   5
ENDBRANCH   2   3
ENDBRANCH   1   2
BRANCH   1  29
ATOM     29  C   UNL A   1      47.480  26.503  35.970  1.00  0.00     0.275 C 
BRANCH  29  30
ATOM     30  O   UNL A   1      48.460  25.744  34.990  1.00  0.00    -0.458 OA
BRANCH  30  31
ATOM     31  C   UNL A   1      48.548  24.864  33.905  1.00  0.00     0.338 C 
ATOM     32  O   UNL A   1      48.742  23.664  34.014  1.00  0.00    -0.246 OA
BRANCH  31  33
ATOM     33  C   UNL A   1      48.734  25.548  32.636  1.00  0.00     0.060 A 
ATOM     34  C   UNL A   1      50.006  26.437  31.355  1.00  0.00     0.016 A 
ATOM     35  C   UNL A   1      46.807  25.792  32.281  1.00  0.00     0.016 A 
ATOM     36  C   UNL A   1      49.341  27.014  29.537  1.00  0.00     0.010 A 
ATOM     37  C   UNL A   1      46.182  26.500  30.600  1.00  0.00     0.010 A 
ATOM     38  C   UNL A   1      47.361  27.112  29.200  1.00  0.00    -0.014 A 
BRANCH  38  39
ATOM     39  C   UNL A   1      46.005  27.635  28.312  1.00  0.00     0.031 A 
ATOM     40  C   UNL A   1      45.739  29.022  28.755  1.00  0.00     0.074 A 
ATOM     41  C   UNL A   1      45.471  27.085  27.061  1.00  0.00     0.049 A 
ATOM     42  N   UNL A   1      44.721  29.518  29.382  1.00  0.00    -0.248 NA
ATOM     43  C   UNL A   1      46.869  29.959  28.751  1.00  0.00     0.031 C 
ATOM     44  C   UNL A   1      44.677  27.530  25.817  1.00  0.00     0.029 A 
ATOM     45  N   UNL A   1      45.564  25.757  26.559  1.00  0.00    -0.354 N 
ATOM     46  C   UNL A   1      44.936  30.897  29.302  1.00  0.00     0.074 A 
ATOM     47  C   UNL A   1      46.362  31.041  29.335  1.00  0.00     0.031 C 
ATOM     48  C   UNL A   1      43.981  26.509  25.227  1.00  0.00     0.029 A 
ATOM     49  C   UNL A   1      44.379  25.317  25.904  1.00  0.00     0.049 A 
ATOM     50  H   UNL A   1      46.369  25.198  26.654  1.00  0.00     0.167 HD
ATOM     51  C   UNL A   1      44.175  31.638  28.432  1.00  0.00     0.037 A 
ATOM     52  C   UNL A   1      43.574  24.267  26.272  1.00  0.00     0.037 A 
ATOM     53  C   UNL A   1      43.389  30.749  27.583  1.00  0.00     0.049 A 
ATOM     54  C   UNL A   1      42.436  24.892  26.935  1.00  0.00     0.074 A 
ATOM     55  C   UNL A   1      43.430  30.419  26.243  1.00  0.00     0.029 A 
ATOM     56  N   UNL A   1      42.623  29.768  28.189  1.00  0.00    -0.354 N 
ATOM     57  N   UNL A   1      42.570  26.070  27.456  1.00  0.00    -0.248 NA
ATOM     58  C   UNL A   1      41.102  24.349  26.889  1.00  0.00     0.031 C 
ATOM     59  C   UNL A   1      42.526  29.328  26.051  1.00  0.00     0.029 A 
ATOM     60  C   UNL A   1      42.076  28.893  27.291  1.00  0.00     0.049 A 
ATOM     61  H   UNL A   1      42.486  29.707  29.163  1.00  0.00     0.167 HD
ATOM     62  C   UNL A   1      41.337  26.590  27.496  1.00  0.00     0.074 A 
ATOM     63  C   UNL A   1      40.446  25.479  27.175  1.00  0.00     0.031 C 
ATOM     64  C   UNL A   1      41.132  27.895  27.776  1.00  0.00     0.037 A 
BRANCH  51  65
ATOM     65  C   UNL A   1      44.327  33.124  28.147  1.00  0.00     0.064 A 
ATOM     66  C   UNL A   1      45.151  33.544  27.078  1.00  0.00     0.173 A 
ATOM     67  C   UNL A   1      43.620  34.166  28.787  1.00  0.00     0.173 A 
ATOM     68  F   UNL A   1      45.846  32.666  26.343  1.00  0.00    -0.203 F 
ATOM     69  C   UNL A   1      45.265  34.878  26.686  1.00  0.00     0.198 A 
ATOM     70  C   UNL A   1      43.756  35.511  28.408  1.00  0.00     0.198 A 
ATOM     71  F   UNL A   1      42.736  33.923  29.764  1.00  0.00    -0.203 F 
ATOM     72  F   UNL A   1      46.040  35.192  25.638  1.00  0.00    -0.200 F 
ATOM     73  C   UNL A   1      44.570  35.863  27.349  1.00  0.00     0.200 A 
ATOM     74  F   UNL A   1      43.068  36.463  29.055  1.00  0.00    -0.200 F 
ATOM     75  F   UNL A   1      44.662  37.140  26.952  1.00  0.00    -0.200 F 
ENDBRANCH  51  65
BRANCH  52  76
ATOM     76  C   UNL A   1      44.185  23.008  26.817  1.00  0.00     0.064 A 
ATOM     77  C   UNL A   1      44.011  23.098  28.195  1.00  0.00     0.173 A 
ATOM     78  C   UNL A   1      43.739  21.896  26.118  1.00  0.00     0.173 A 
ATOM     79  F   UNL A   1      44.572  24.115  28.862  1.00  0.00    -0.203 F 
ATOM     80  C   UNL A   1      42.809  22.637  28.637  1.00  0.00     0.198 A 
ATOM     81  C   UNL A   1      42.564  21.406  26.589  1.00  0.00     0.198 A 
ATOM     82  F   UNL A   1      43.909  21.818  24.787  1.00  0.00    -0.203 F 
ATOM     83  F   UNL A   1      42.107  23.305  29.574  1.00  0.00    -0.200 F 
ATOM     84  C   UNL A   1      42.130  21.733  27.872  1.00  0.00     0.200 A 
ATOM     85  F   UNL A   1      41.688  21.268  25.597  1.00  0.00    -0.200 F 
ATOM     86  F   UNL A   1      40.904  21.528  28.311  1.00  0.00    -0.200 F 
ENDBRANCH  52  76
BRANCH  64  87
ATOM     87  C   UNL A   1      39.915  28.273  28.530  1.00  0.00     0.064 A 
ATOM     88  C   UNL A   1      39.724  27.931  29.879  1.00  0.00     0.173 A 
ATOM     89  C   UNL A   1      38.927  29.087  27.959  1.00  0.00     0.173 A 
ATOM     90  F   UNL A   1      40.714  27.468  30.657  1.00  0.00    -0.203 F 
ATOM     91  C   UNL A   1      38.511  28.111  30.503  1.00  0.00     0.198 A 
ATOM     92  C   UNL A   1      37.779  29.417  28.651  1.00  0.00     0.198 A 
ATOM     93  F   UNL A   1      39.038  29.624  26.738  1.00  0.00    -0.203 F 
ATOM     94  F   UNL A   1      38.310  27.565  31.707  1.00  0.00    -0.200 F 
ATOM     95  C   UNL A   1      37.537  28.866  29.890  1.00  0.00     0.200 A 
ATOM     96  F   UNL A   1      36.910  30.273  28.100  1.00  0.00    -0.200 F 
ATOM     97  F   UNL A   1      36.380  29.097  30.514  1.00  0.00    -0.200 F 
ENDBRANCH  64  87
ENDBRANCH  38  39
ENDBRANCH  31  33
ENDBRANCH  30  31
ENDBRANCH  29  30
ENDBRANCH   1  29
TORSDOF 14
ENDMDL
MODEL 2
REMARK VINA RESULT:     -10.3      3.396      9.933
REMARK SMILES COc1ccc(-c2cc(Cl)cc3c2O[C@H](C(F)(F)F)C(C(=O)OCCOC(=O)c2ccc(-c4c5nc(c(-c6c(F)c(F)c(F)c(F)c6F)c6ccc([nH]6)c(-c6c(F)c(F)c(F)c(F)c6F)c6nc(c(-c7c(F)c(F)c(F)c(F)c7F)c7ccc4[nH]7)C=C6)C=C5)cc2)=C3)cc1C
REMARK SMILES IDX 24 1 23 2 21 3 22 4 20 5 7 6 8 7 13 8 9 9 12 10 14 11 10 12
REMARK SMILES IDX 11 13 92 14 15 15 6 16 3 17 4 18 94 19 5 20 93 21 95 22 2 23
REMARK SMILES IDX 1 24 16 25 17 26 18 27 19 28 25 29 26 30 27 31 28 32 29 33
REMARK SMILES IDX 30 34 91 35 31 36 90 37 32 38 33 39 34 40 84 41 35 42 89 43
REMARK SMILES IDX 83 44 85 45 36 46 88 47 82 48 81 49 37 51 69 52 49 53 68 54
REMARK SMILES IDX 50 55 53 56 67 57 86 58 51 59 52 60 66 62 87 63 54 64 38 65
REMARK SMILES IDX 39 66 47 67 40 68 41 69 45 70 48 71 42 72 43 73 46 74 44 75
REMARK SMILES IDX 70 76 71 77 79 78 72 79 73 80 77 81 80 82 74 83 75 84 78 85
REMARK SMILES IDX 76 86 55 87 56 88 64 89 57 90 58 91 62 92 65 93 59 94 60 95
REMARK SMILES IDX 63 96 61 97
REMARK H PARENT 85 50 53 61
REMARK Flexibility Score: inf
ROOT
ATOM      1  C   UNL A   1      46.083  34.922  28.988  1.00  0.00     0.275 C 
ENDROOT
BRANCH   1   2
ATOM      2  O   UNL A   1      45.706  34.869  27.589  1.00  0.00    -0.459 OA
BRANCH   2   3
ATOM      3  C   UNL A   1      44.656  34.016  27.441  1.00  0.00     0.338 C 
ATOM      4  O   UNL A   1      43.575  34.562  27.807  1.00  0.00    -0.246 OA
BRANCH   3   5
ATOM      5  C   UNL A   1      45.098  32.083  26.982  1.00  0.00     0.087 C 
ATOM      6  C   UNL A   1      45.300  29.474  29.781  1.00  0.00     0.026 A 
ATOM      7  C   UNL A   1      45.386  28.043  29.632  1.00  0.00     0.033 A 
ATOM      8  C   UNL A   1      44.697  30.112  28.565  1.00  0.00     0.135 A 
ATOM      9  C   UNL A   1      45.027  27.332  28.458  1.00  0.00     0.042 A 
ATOM     10  C   UNL A   1      44.710  29.366  27.420  1.00  0.00     0.019 A 
ATOM     11  O   UNL A   1      44.853  31.607  27.685  1.00  0.00    -0.475 OA
ATOM     12  Cl  UNL A   1      45.228  25.625  28.381  1.00  0.00    -0.084 Cl
ATOM     13  C   UNL A   1      44.687  28.002  27.308  1.00  0.00     0.032 A 
ATOM     14  C   UNL A   1      45.456  30.343  26.634  1.00  0.00     0.027 C 
ATOM     15  C   UNL A   1      43.960  33.009  26.574  1.00  0.00     0.316 C 
BRANCH   6  16
ATOM     16  C   UNL A   1      46.044  29.977  31.137  1.00  0.00    -0.014 A 
ATOM     17  C   UNL A   1      46.822  30.691  33.896  1.00  0.00     0.121 A 
ATOM     18  C   UNL A   1      47.217  29.506  33.265  1.00  0.00     0.047 A 
ATOM     19  C   UNL A   1      46.217  31.666  33.113  1.00  0.00    -0.008 A 
ATOM     20  C   UNL A   1      46.833  29.158  31.931  1.00  0.00     0.013 A 
ATOM     21  C   UNL A   1      45.921  31.325  31.718  1.00  0.00     0.016 A 
ATOM     22  C   UNL A   1      45.663  32.901  33.821  1.00  0.00     0.048 C 
BRANCH  17  23
ATOM     23  O   UNL A   1      47.184  30.895  35.206  1.00  0.00    -0.496 OA
ATOM     24  C   UNL A   1      46.752  29.904  36.151  1.00  0.00     0.278 C 
ENDBRANCH  17  23
ENDBRANCH   6  16
BRANCH  15  25
ATOM     25  C   UNL A   1      44.094  33.933  25.064  1.00  0.00     0.430 C 
ATOM     26  F   UNL A   1      45.259  34.490  24.685  1.00  0.00    -0.167 F 
ATOM     27  F   UNL A   1      43.779  33.074  24.036  1.00  0.00    -0.167 F 
ATOM     28  F   UNL A   1      43.137  34.891  24.968  1.00  0.00    -0.167 F 
ENDBRANCH  15  25
ENDBRANCH   3   5
ENDBRANCH   2   3
ENDBRANCH   1   2
BRANCH   1  29
ATOM     29  C   UNL A   1      46.301  36.301  29.887  1.00  0.00     0.275 C 
BRANCH  29  30
ATOM     30  O   UNL A   1      45.493  37.042  31.024  1.00  0.00    -0.458 OA
BRANCH  30  31
ATOM     31  C   UNL A   1      44.219  37.391  31.490  1.00  0.00     0.338 C 
ATOM     32  O   UNL A   1      43.701  38.479  31.302  1.00  0.00    -0.246 OA
BRANCH  31  33
ATOM     33  C   UNL A   1      43.717  36.478  32.503  1.00  0.00     0.060 A 
ATOM     34  C   UNL A   1      43.650  35.969  34.449  1.00  0.00     0.016 A 
ATOM     35  C   UNL A   1      43.017  35.153  31.218  1.00  0.00     0.016 A 
ATOM     36  C   UNL A   1      42.416  34.484  35.043  1.00  0.00     0.010 A 
ATOM     37  C   UNL A   1      41.977  33.642  31.808  1.00  0.00     0.010 A 
ATOM     38  C   UNL A   1      41.629  33.249  33.665  1.00  0.00    -0.014 A 
BRANCH  38  39
ATOM     39  C   UNL A   1      40.860  31.804  33.198  1.00  0.00     0.031 A 
ATOM     40  C   UNL A   1      41.882  30.740  33.321  1.00  0.00     0.074 A 
ATOM     41  C   UNL A   1      39.421  31.518  33.134  1.00  0.00     0.049 A 
ATOM     42  N   UNL A   1      42.427  29.996  32.413  1.00  0.00    -0.248 NA
ATOM     43  C   UNL A   1      42.618  30.658  34.588  1.00  0.00     0.031 C 
ATOM     44  C   UNL A   1      38.445  30.332  33.249  1.00  0.00     0.029 A 
ATOM     45  N   UNL A   1      38.342  32.420  32.923  1.00  0.00    -0.354 N 
ATOM     46  C   UNL A   1      43.122  29.038  33.159  1.00  0.00     0.074 A 
ATOM     47  C   UNL A   1      43.545  29.738  34.336  1.00  0.00     0.031 C 
ATOM     48  C   UNL A   1      37.273  30.529  32.568  1.00  0.00     0.029 A 
ATOM     49  C   UNL A   1      37.306  31.879  32.110  1.00  0.00     0.049 A 
ATOM     50  H   UNL A   1      38.313  33.328  33.303  1.00  0.00     0.167 HD
ATOM     51  C   UNL A   1      42.614  27.765  33.241  1.00  0.00     0.037 A 
ATOM     52  C   UNL A   1      36.887  32.350  30.889  1.00  0.00     0.037 A 
ATOM     53  C   UNL A   1      41.276  27.728  32.660  1.00  0.00     0.049 A 
ATOM     54  C   UNL A   1      37.501  31.450  29.920  1.00  0.00     0.074 A 
ATOM     55  C   UNL A   1      40.009  27.568  33.183  1.00  0.00     0.029 A 
ATOM     56  N   UNL A   1      41.098  28.244  31.388  1.00  0.00    -0.354 N 
ATOM     57  N   UNL A   1      38.570  30.796  30.245  1.00  0.00    -0.248 NA
ATOM     58  C   UNL A   1      36.881  31.103  28.665  1.00  0.00     0.031 C 
ATOM     59  C   UNL A   1      39.083  27.832  32.126  1.00  0.00     0.029 A 
ATOM     60  C   UNL A   1      39.780  28.314  31.026  1.00  0.00     0.049 A 
ATOM     61  H   UNL A   1      41.839  28.529  30.806  1.00  0.00     0.167 HD
ATOM     62  C   UNL A   1      38.593  29.722  29.446  1.00  0.00     0.074 A 
ATOM     63  C   UNL A   1      37.553  29.966  28.451  1.00  0.00     0.031 C 
ATOM     64  C   UNL A   1      39.452  28.703  29.661  1.00  0.00     0.037 A 
BRANCH  51  65
ATOM     65  C   UNL A   1      43.181  26.626  34.073  1.00  0.00     0.064 A 
ATOM     66  C   UNL A   1      42.672  26.395  35.371  1.00  0.00     0.173 A 
ATOM     67  C   UNL A   1      44.118  25.665  33.630  1.00  0.00     0.173 A 
ATOM     68  F   UNL A   1      41.740  27.191  35.910  1.00  0.00    -0.203 F 
ATOM     69  C   UNL A   1      43.064  25.312  36.159  1.00  0.00     0.198 A 
ATOM     70  C   UNL A   1      44.529  24.590  34.435  1.00  0.00     0.198 A 
ATOM     71  F   UNL A   1      44.631  25.696  32.394  1.00  0.00    -0.203 F 
ATOM     72  F   UNL A   1      42.507  25.141  37.367  1.00  0.00    -0.200 F 
ATOM     73  C   UNL A   1      43.992  24.408  35.694  1.00  0.00     0.200 A 
ATOM     74  F   UNL A   1      45.429  23.710  33.970  1.00  0.00    -0.200 F 
ATOM     75  F   UNL A   1      44.345  23.355  36.443  1.00  0.00    -0.200 F 
ENDBRANCH  51  65
BRANCH  52  76
ATOM     76  C   UNL A   1      36.824  33.828  30.634  1.00  0.00     0.064 A 
ATOM     77  C   UNL A   1      36.736  33.945  29.250  1.00  0.00     0.173 A 
ATOM     78  C   UNL A   1      35.888  34.435  31.458  1.00  0.00     0.173 A 
ATOM     79  F   UNL A   1      37.726  33.467  28.487  1.00  0.00    -0.203 F 
ATOM     80  C   UNL A   1      35.467  33.866  28.763  1.00  0.00     0.198 A 
ATOM     81  C   UNL A   1      34.629  34.400  30.951  1.00  0.00     0.198 A 
ATOM     82  F   UNL A   1      35.980  34.316  32.794  1.00  0.00    -0.203 F 
ATOM     83  F   UNL A   1      35.187  33.151  27.656  1.00  0.00    -0.200 F 
ATOM     84  C   UNL A   1      34.425  34.172  29.591  1.00  0.00     0.200 A 
ATOM     85  F   UNL A   1      33.780  33.910  31.850  1.00  0.00    -0.200 F 
ATOM     86  F   UNL A   1      33.258  33.862  29.062  1.00  0.00    -0.200 F 
ENDBRANCH  52  76
BRANCH  64  87
ATOM     87  C   UNL A   1      39.997  27.978  28.490  1.00  0.00     0.064 A 
ATOM     88  C   UNL A   1      40.880  28.574  27.575  1.00  0.00     0.173 A 
ATOM     89  C   UNL A   1      39.733  26.615  28.290  1.00  0.00     0.173 A 
ATOM     90  F   UNL A   1      41.497  29.740  27.817  1.00  0.00    -0.203 F 
ATOM     91  C   UNL A   1      41.214  27.957  26.391  1.00  0.00     0.198 A 
ATOM     92  C   UNL A   1      40.216  25.945  27.184  1.00  0.00     0.198 A 
ATOM     93  F   UNL A   1      39.038  25.870  29.158  1.00  0.00    -0.203 F 
ATOM     94  F   UNL A   1      41.870  28.653  25.456  1.00  0.00    -0.200 F 
ATOM     95  C   UNL A   1      40.889  26.634  26.198  1.00  0.00     0.200 A 
ATOM     96  F   UNL A   1      40.019  24.625  27.086  1.00  0.00    -0.200 F 
ATOM     97  F   UNL A   1      41.262  26.010  25.079  1.00  0.00    -0.200 F 
ENDBRANCH  64  87
ENDBRANCH  38  39
ENDBRANCH  31  33
ENDBRANCH  30  31
ENDBRANCH  29  30
ENDBRANCH   1  29
TORSDOF 14
ENDMDL
MODEL 3
REMARK VINA RESULT:     -10.1      4.219      9.667
REMARK SMILES COc1ccc(-c2cc(Cl)cc3c2O[C@H](C(F)(F)F)C(C(=O)OCCOC(=O)c2ccc(-c4c5nc(c(-c6c(F)c(F)c(F)c(F)c6F)c6ccc([nH]6)c(-c6c(F)c(F)c(F)c(F)c6F)c6nc(c(-c7c(F)c(F)c(F)c(F)c7F)c7ccc4[nH]7)C=C6)C=C5)cc2)=C3)cc1C
REMARK SMILES IDX 24 1 23 2 21 3 22 4 20 5 7 6 8 7 13 8 9 9 12 10 14 11 10 12
REMARK SMILES IDX 11 13 92 14 15 15 6 16 3 17 4 18 94 19 5 20 93 21 95 22 2 23
REMARK SMILES IDX 1 24 16 25 17 26 18 27 19 28 25 29 26 30 27 31 28 32 29 33
REMARK SMILES IDX 30 34 91 35 31 36 90 37 32 38 33 39 34 40 84 41 35 42 89 43
REMARK SMILES IDX 83 44 85 45 36 46 88 47 82 48 81 49 37 51 69 52 49 53 68 54
REMARK SMILES IDX 50 55 53 56 67 57 86 58 51 59 52 60 66 62 87 63 54 64 38 65
REMARK SMILES IDX 39 66 47 67 40 68 41 69 45 70 48 71 42 72 43 73 46 74 44 75
REMARK SMILES IDX 70 76 71 77 79 78 72 79 73 80 77 81 80 82 74 83 75 84 78 85
REMARK SMILES IDX 76 86 55 87 56 88 64 89 57 90 58 91 62 92 65 93 59 94 60 95
REMARK SMILES IDX 63 96 61 97
REMARK H PARENT 85 50 53 61
REMARK Flexibility Score: inf
ROOT
ATOM      1  C   UNL A   1      45.417  27.087  25.133  1.00  0.00     0.275 C 
ENDROOT
BRANCH   1   2
ATOM      2  O   UNL A   1      44.924  28.409  25.465  1.00  0.00    -0.459 OA
BRANCH   2   3
ATOM      3  C   UNL A   1      44.913  28.556  26.818  1.00  0.00     0.338 C 
ATOM      4  O   UNL A   1      45.945  28.037  27.337  1.00  0.00    -0.246 OA
BRANCH   3   5
ATOM      5  C   UNL A   1      43.199  29.263  27.654  1.00  0.00     0.087 C 
ATOM      6  C   UNL A   1      40.572  26.795  28.954  1.00  0.00     0.026 A 
ATOM      7  C   UNL A   1      39.415  27.099  29.758  1.00  0.00     0.033 A 
ATOM      8  C   UNL A   1      41.627  27.850  29.099  1.00  0.00     0.135 A 
ATOM      9  C   UNL A   1      39.252  28.283  30.522  1.00  0.00     0.042 A 
ATOM     10  C   UNL A   1      41.212  29.058  29.588  1.00  0.00     0.019 A 
ATOM     11  O   UNL A   1      42.855  28.586  28.108  1.00  0.00    -0.475 OA
ATOM     12  Cl  UNL A   1      37.797  28.558  31.398  1.00  0.00    -0.084 Cl
ATOM     13  C   UNL A   1      40.166  29.305  30.436  1.00  0.00     0.032 A 
ATOM     14  C   UNL A   1      41.667  29.830  28.436  1.00  0.00     0.027 C 
ATOM     15  C   UNL A   1      44.668  29.424  28.016  1.00  0.00     0.316 C 
BRANCH   6  16
ATOM     16  C   UNL A   1      40.312  25.502  28.002  1.00  0.00    -0.014 A 
ATOM     17  C   UNL A   1      39.541  22.905  26.825  1.00  0.00     0.121 A 
ATOM     18  C   UNL A   1      38.812  24.083  26.638  1.00  0.00     0.047 A 
ATOM     19  C   UNL A   1      40.796  23.011  27.412  1.00  0.00    -0.008 A 
ATOM     20  C   UNL A   1      39.182  25.340  27.215  1.00  0.00     0.013 A 
ATOM     21  C   UNL A   1      41.200  24.330  27.909  1.00  0.00     0.016 A 
ATOM     22  C   UNL A   1      41.537  21.716  27.742  1.00  0.00     0.048 C 
BRANCH  17  23
ATOM     23  O   UNL A   1      39.059  21.735  26.288  1.00  0.00    -0.496 OA
ATOM     24  C   UNL A   1      37.886  21.846  25.466  1.00  0.00     0.278 C 
ENDBRANCH  17  23
ENDBRANCH   6  16
BRANCH  15  25
ATOM     25  C   UNL A   1      45.559  30.837  27.414  1.00  0.00     0.430 C 
ATOM     26  F   UNL A   1      45.630  31.110  26.099  1.00  0.00    -0.167 F 
ATOM     27  F   UNL A   1      44.966  31.952  27.961  1.00  0.00    -0.167 F 
ATOM     28  F   UNL A   1      46.823  30.889  27.907  1.00  0.00    -0.167 F 
ENDBRANCH  15  25
ENDBRANCH   3   5
ENDBRANCH   2   3
ENDBRANCH   1   2
BRANCH   1  29
ATOM     29  C   UNL A   1      44.540  25.678  25.188  1.00  0.00     0.275 C 
BRANCH  29  30
ATOM     30  O   UNL A   1      44.840  24.183  25.603  1.00  0.00    -0.458 OA
BRANCH  30  31
ATOM     31  C   UNL A   1      45.488  23.352  26.526  1.00  0.00     0.338 C 
ATOM     32  O   UNL A   1      45.371  22.138  26.548  1.00  0.00    -0.246 OA
BRANCH  31  33
ATOM     33  C   UNL A   1      46.032  24.081  27.659  1.00  0.00     0.060 A 
ATOM     34  C   UNL A   1      47.616  25.018  28.475  1.00  0.00     0.016 A 
ATOM     35  C   UNL A   1      44.512  23.705  28.860  1.00  0.00     0.016 A 
ATOM     36  C   UNL A   1      47.389  26.010  30.220  1.00  0.00     0.010 A 
ATOM     37  C   UNL A   1      44.384  24.529  30.598  1.00  0.00     0.010 A 
ATOM     38  C   UNL A   1      45.748  25.679  31.333  1.00  0.00    -0.014 A 
BRANCH  38  39
ATOM     39  C   UNL A   1      44.875  25.751  32.794  1.00  0.00     0.031 A 
ATOM     40  C   UNL A   1      44.568  27.182  33.015  1.00  0.00     0.074 A 
ATOM     41  C   UNL A   1      44.155  24.670  33.477  1.00  0.00     0.049 A 
ATOM     42  N   UNL A   1      44.960  27.986  33.950  1.00  0.00    -0.248 NA
ATOM     43  C   UNL A   1      43.956  27.919  31.902  1.00  0.00     0.031 C 
ATOM     44  C   UNL A   1      42.957  24.460  34.423  1.00  0.00     0.029 A 
ATOM     45  N   UNL A   1      44.401  23.269  33.435  1.00  0.00    -0.354 N 
ATOM     46  C   UNL A   1      44.157  29.115  33.759  1.00  0.00     0.074 A 
ATOM     47  C   UNL A   1      43.952  29.174  32.341  1.00  0.00     0.031 C 
ATOM     48  C   UNL A   1      43.059  23.323  35.180  1.00  0.00     0.029 A 
ATOM     49  C   UNL A   1      44.203  22.625  34.690  1.00  0.00     0.049 A 
ATOM     50  H   UNL A   1      44.680  22.792  32.620  1.00  0.00     0.167 HD
ATOM     51  C   UNL A   1      43.122  29.349  34.630  1.00  0.00     0.037 A 
ATOM     52  C   UNL A   1      45.147  21.959  35.432  1.00  0.00     0.037 A 
ATOM     53  C   UNL A   1      42.946  28.197  35.508  1.00  0.00     0.049 A 
ATOM     54  C   UNL A   1      45.516  22.899  36.483  1.00  0.00     0.074 A 
ATOM     55  C   UNL A   1      41.972  27.227  35.632  1.00  0.00     0.029 A 
ATOM     56  N   UNL A   1      44.052  27.710  36.184  1.00  0.00    -0.354 N 
ATOM     57  N   UNL A   1      45.337  24.168  36.296  1.00  0.00    -0.248 NA
ATOM     58  C   UNL A   1      45.906  22.486  37.808  1.00  0.00     0.031 C 
ATOM     59  C   UNL A   1      42.471  26.245  36.543  1.00  0.00     0.029 A 
ATOM     60  C   UNL A   1      43.800  26.531  36.831  1.00  0.00     0.049 A 
ATOM     61  H   UNL A   1      44.926  28.164  36.197  1.00  0.00     0.167 HD
ATOM     62  C   UNL A   1      45.242  24.705  37.519  1.00  0.00     0.074 A 
ATOM     63  C   UNL A   1      45.640  23.639  38.433  1.00  0.00     0.031 C 
ATOM     64  C   UNL A   1      44.831  25.978  37.698  1.00  0.00     0.037 A 
BRANCH  51  65
ATOM     65  C   UNL A   1      42.098  30.468  34.527  1.00  0.00     0.064 A 
ATOM     66  C   UNL A   1      42.487  31.793  34.825  1.00  0.00     0.173 A 
ATOM     67  C   UNL A   1      40.778  30.339  34.038  1.00  0.00     0.173 A 
ATOM     68  F   UNL A   1      43.723  32.082  35.251  1.00  0.00    -0.203 F 
ATOM     69  C   UNL A   1      41.639  32.889  34.658  1.00  0.00     0.198 A 
ATOM     70  C   UNL A   1      39.919  31.440  33.895  1.00  0.00     0.198 A 
ATOM     71  F   UNL A   1      40.287  29.161  33.633  1.00  0.00    -0.203 F 
ATOM     72  F   UNL A   1      42.095  34.121  34.929  1.00  0.00    -0.200 F 
ATOM     73  C   UNL A   1      40.355  32.716  34.194  1.00  0.00     0.200 A 
ATOM     74  F   UNL A   1      38.671  31.262  33.434  1.00  0.00    -0.200 F 
ATOM     75  F   UNL A   1      39.554  33.774  34.010  1.00  0.00    -0.200 F 
ENDBRANCH  51  65
BRANCH  52  76
ATOM     76  C   UNL A   1      46.190  21.123  34.748  1.00  0.00     0.064 A 
ATOM     77  C   UNL A   1      47.363  21.866  34.852  1.00  0.00     0.173 A 
ATOM     78  C   UNL A   1      46.142  19.809  35.188  1.00  0.00     0.173 A 
ATOM     79  F   UNL A   1      47.420  23.082  34.295  1.00  0.00    -0.203 F 
ATOM     80  C   UNL A   1      48.048  21.667  36.011  1.00  0.00     0.198 A 
ATOM     81  C   UNL A   1      46.864  19.598  36.317  1.00  0.00     0.198 A 
ATOM     82  F   UNL A   1      45.004  19.099  35.085  1.00  0.00    -0.203 F 
ATOM     83  F   UNL A   1      48.591  22.698  36.687  1.00  0.00    -0.200 F 
ATOM     84  C   UNL A   1      47.857  20.501  36.695  1.00  0.00     0.200 A 
ATOM     85  F   UNL A   1      46.120  18.992  37.238  1.00  0.00    -0.200 F 
ATOM     86  F   UNL A   1      48.418  20.524  37.888  1.00  0.00    -0.200 F 
ENDBRANCH  52  76
BRANCH  64  87
ATOM     87  C   UNL A   1      45.414  26.758  38.814  1.00  0.00     0.064 A 
ATOM     88  C   UNL A   1      44.941  26.662  40.133  1.00  0.00     0.173 A 
ATOM     89  C   UNL A   1      46.545  27.565  38.625  1.00  0.00     0.173 A 
ATOM     90  F   UNL A   1      44.112  25.688  40.537  1.00  0.00    -0.203 F 
ATOM     91  C   UNL A   1      45.356  27.536  41.111  1.00  0.00     0.198 A 
ATOM     92  C   UNL A   1      47.073  28.314  39.657  1.00  0.00     0.198 A 
ATOM     93  F   UNL A   1      47.205  27.637  37.463  1.00  0.00    -0.203 F 
ATOM     94  F   UNL A   1      44.714  27.552  42.285  1.00  0.00    -0.200 F 
ATOM     95  C   UNL A   1      46.433  28.359  40.876  1.00  0.00     0.200 A 
ATOM     96  F   UNL A   1      48.209  28.993  39.454  1.00  0.00    -0.200 F 
ATOM     97  F   UNL A   1      46.880  29.166  41.840  1.00  0.00    -0.200 F 
ENDBRANCH  64  87
ENDBRANCH  38  39
ENDBRANCH  31  33
ENDBRANCH  30  31
ENDBRANCH  29  30
ENDBRANCH   1  29
TORSDOF 14
ENDMDL
