MODEL 1
REMARK VINA RESULT:     -11.5      0.000      0.000
REMARK SMILES [NH3+]C[C@H]1CC[C@@H](C(=O)N[C@H](C(=O)OCCOC(=O)c2ccc(-c3c4nc(c(-c5c(F)c(F)c(F)c(F)c5F)c5ccc([nH]5)c(-c5c(F)c(F)c(F)c(F)c5F)c5nc(c(-c6c(F)c(F)c(F)c(F)c6F)c6ccc3[nH]6)C=C5)C=C4)cc2)C2CCCCC2)O1
REMARK SMILES IDX 14 1 13 2 11 3 12 4 10 5 9 6 7 7 8 8 6 10 3 11 4 12 88 13
REMARK SMILES IDX 5 14 2 15 1 16 82 20 83 21 87 22 84 23 86 24 85 25 15 26
REMARK SMILES IDX 16 27 17 28 18 29 19 30 20 31 81 32 21 33 80 34 22 35 23 36
REMARK SMILES IDX 24 37 74 38 25 39 79 40 73 41 75 42 26 43 78 44 72 45 71 46
REMARK SMILES IDX 27 48 59 49 39 50 58 51 40 52 43 53 57 54 76 55 41 56 42 57
REMARK SMILES IDX 56 59 77 60 44 61 28 62 29 63 37 64 30 65 31 66 35 67 38 68
REMARK SMILES IDX 32 69 33 70 36 71 34 72 60 73 61 74 69 75 62 76 63 77 67 78
REMARK SMILES IDX 70 79 64 80 65 81 68 82 66 83 45 84 46 85 54 86 47 87 48 88
REMARK SMILES IDX 52 89 55 90 49 91 50 92 53 93 51 94
REMARK H PARENT 9 9 1 17 1 18 1 19 75 47 43 58
REMARK Flexibility Score: inf
ROOT
ATOM      1  C   UNL A   1      31.696  28.913  27.383  1.00  0.00     0.274 C 
ENDROOT
BRANCH   1   2
ATOM      2  O   UNL A   1      32.483  27.721  27.158  1.00  0.00    -0.461 OA
BRANCH   2   3
ATOM      3  C   UNL A   1      31.851  26.728  26.476  1.00  0.00     0.329 C 
ATOM      4  O   UNL A   1      30.680  26.405  26.662  1.00  0.00    -0.250 OA
BRANCH   3   5
ATOM      5  C   UNL A   1      32.750  26.070  25.391  1.00  0.00     0.195 C 
BRANCH   5   6
ATOM      6  N   UNL A   1      33.488  27.233  24.845  1.00  0.00    -0.340 N 
ATOM      7  C   UNL A   1      33.761  27.705  23.605  1.00  0.00     0.249 C 
ATOM      8  O   UNL A   1      34.330  28.802  23.552  1.00  0.00    -0.272 OA
ATOM      9  H   UNL A   1      33.874  27.797  25.554  1.00  0.00     0.164 HD
BRANCH   7  10
ATOM     10  C   UNL A   1      33.357  26.988  22.307  1.00  0.00     0.207 C 
ATOM     11  C   UNL A   1      33.024  24.861  21.372  1.00  0.00     0.174 C 
ATOM     12  C   UNL A   1      31.796  25.721  21.108  1.00  0.00     0.041 C 
ATOM     13  O   UNL A   1      33.971  25.730  22.037  1.00  0.00    -0.359 OA
ATOM     14  C   UNL A   1      31.862  26.774  22.185  1.00  0.00     0.045 C 
BRANCH  11  15
ATOM     15  C   UNL A   1      32.829  23.632  22.280  1.00  0.00     0.291 C 
BRANCH  15  16
ATOM     16  N   UNL A   1      31.468  23.305  22.687  1.00  0.00    -0.355 N 
ATOM     17  H   UNL A   1      31.200  23.891  23.478  1.00  0.00     0.344 HD
ATOM     18  H   UNL A   1      31.422  22.323  22.961  1.00  0.00     0.344 HD
ATOM     19  H   UNL A   1      30.831  23.472  21.909  1.00  0.00     0.344 HD
ENDBRANCH  15  16
ENDBRANCH  11  15
ENDBRANCH   7  10
ENDBRANCH   5   6
BRANCH   5  20
ATOM     20  C   UNL A   1      33.704  25.009  26.021  1.00  0.00     0.023 C 
ATOM     21  C   UNL A   1      33.013  23.691  26.439  1.00  0.00     0.006 C 
ATOM     22  C   UNL A   1      34.953  24.708  25.173  1.00  0.00     0.006 C 
ATOM     23  C   UNL A   1      33.987  22.700  27.084  1.00  0.00     0.000 C 
ATOM     24  C   UNL A   1      35.897  23.731  25.858  1.00  0.00     0.000 C 
ATOM     25  C   UNL A   1      35.195  22.429  26.200  1.00  0.00     0.000 C 
ENDBRANCH   5  20
ENDBRANCH   3   5
ENDBRANCH   2   3
ENDBRANCH   1   2
BRANCH   1  26
ATOM     26  C   UNL A   1      31.867  29.891  26.214  1.00  0.00     0.275 C 
BRANCH  26  27
ATOM     27  O   UNL A   1      33.237  30.332  26.163  1.00  0.00    -0.458 OA
BRANCH  27  28
ATOM     28  C   UNL A   1      33.601  31.297  27.040  1.00  0.00     0.338 C 
ATOM     29  O   UNL A   1      32.916  32.256  27.377  1.00  0.00    -0.246 OA
BRANCH  28  30
ATOM     30  C   UNL A   1      34.911  30.961  27.666  1.00  0.00     0.060 A 
ATOM     31  C   UNL A   1      35.200  29.660  28.087  1.00  0.00     0.016 A 
ATOM     32  C   UNL A   1      35.813  31.984  27.980  1.00  0.00     0.016 A 
ATOM     33  C   UNL A   1      36.284  29.416  28.930  1.00  0.00     0.010 A 
ATOM     34  C   UNL A   1      36.987  31.701  28.699  1.00  0.00     0.010 A 
ATOM     35  C   UNL A   1      37.230  30.416  29.208  1.00  0.00    -0.014 A 
BRANCH  35  36
ATOM     36  C   UNL A   1      38.493  30.081  29.937  1.00  0.00     0.031 A 
ATOM     37  C   UNL A   1      39.517  29.112  29.392  1.00  0.00     0.074 A 
ATOM     38  C   UNL A   1      38.725  30.657  31.136  1.00  0.00     0.049 A 
ATOM     39  N   UNL A   1      40.608  28.651  29.958  1.00  0.00    -0.248 NA
ATOM     40  C   UNL A   1      39.306  28.602  28.031  1.00  0.00     0.031 C 
ATOM     41  C   UNL A   1      37.860  31.643  31.789  1.00  0.00     0.029 A 
ATOM     42  N   UNL A   1      39.758  30.491  32.029  1.00  0.00    -0.354 N 
ATOM     43  C   UNL A   1      41.215  27.825  29.019  1.00  0.00     0.074 A 
ATOM     44  C   UNL A   1      40.372  27.833  27.845  1.00  0.00     0.031 C 
ATOM     45  C   UNL A   1      38.405  32.014  32.952  1.00  0.00     0.029 A 
ATOM     46  C   UNL A   1      39.588  31.200  33.192  1.00  0.00     0.049 A 
ATOM     47  H   UNL A   1      40.540  29.920  31.852  1.00  0.00     0.167 HD
ATOM     48  C   UNL A   1      42.359  27.106  29.128  1.00  0.00     0.037 A 
ATOM     49  C   UNL A   1      40.244  31.153  34.365  1.00  0.00     0.037 A 
ATOM     50  C   UNL A   1      43.165  27.026  30.317  1.00  0.00     0.049 A 
ATOM     51  C   UNL A   1      41.389  30.203  34.529  1.00  0.00     0.074 A 
ATOM     52  C   UNL A   1      44.324  26.297  30.531  1.00  0.00     0.029 A 
ATOM     53  N   UNL A   1      42.877  27.670  31.509  1.00  0.00    -0.354 N 
ATOM     54  N   UNL A   1      41.932  29.407  33.644  1.00  0.00    -0.248 NA
ATOM     55  C   UNL A   1      41.988  30.122  35.866  1.00  0.00     0.031 C 
ATOM     56  C   UNL A   1      44.698  26.448  31.871  1.00  0.00     0.029 A 
ATOM     57  C   UNL A   1      43.804  27.314  32.477  1.00  0.00     0.049 A 
ATOM     58  H   UNL A   1      42.125  28.291  31.648  1.00  0.00     0.167 HD
ATOM     59  C   UNL A   1      42.938  28.729  34.313  1.00  0.00     0.074 A 
ATOM     60  C   UNL A   1      42.943  29.223  35.676  1.00  0.00     0.031 C 
ATOM     61  C   UNL A   1      43.780  27.780  33.838  1.00  0.00     0.037 A 
BRANCH  48  62
ATOM     62  C   UNL A   1      42.790  26.290  27.944  1.00  0.00     0.064 A 
ATOM     63  C   UNL A   1      42.324  24.983  27.742  1.00  0.00     0.173 A 
ATOM     64  C   UNL A   1      43.616  26.853  26.960  1.00  0.00     0.173 A 
ATOM     65  F   UNL A   1      41.540  24.396  28.658  1.00  0.00    -0.203 F 
ATOM     66  C   UNL A   1      42.672  24.269  26.596  1.00  0.00     0.198 A 
ATOM     67  C   UNL A   1      43.947  26.144  25.808  1.00  0.00     0.198 A 
ATOM     68  F   UNL A   1      44.086  28.102  27.106  1.00  0.00    -0.203 F 
ATOM     69  F   UNL A   1      42.227  23.015  26.428  1.00  0.00    -0.200 F 
ATOM     70  C   UNL A   1      43.475  24.853  25.627  1.00  0.00     0.200 A 
ATOM     71  F   UNL A   1      44.718  26.711  24.870  1.00  0.00    -0.200 F 
ATOM     72  F   UNL A   1      43.797  24.170  24.520  1.00  0.00    -0.200 F 
ENDBRANCH  48  62
BRANCH  49  73
ATOM     73  C   UNL A   1      39.744  31.967  35.501  1.00  0.00     0.064 A 
ATOM     74  C   UNL A   1      40.216  33.264  35.727  1.00  0.00     0.173 A 
ATOM     75  C   UNL A   1      38.737  31.476  36.349  1.00  0.00     0.173 A 
ATOM     76  F   UNL A   1      41.198  33.763  34.962  1.00  0.00    -0.203 F 
ATOM     77  C   UNL A   1      39.688  34.048  36.752  1.00  0.00     0.198 A 
ATOM     78  C   UNL A   1      38.188  32.270  37.350  1.00  0.00     0.198 A 
ATOM     79  F   UNL A   1      38.256  30.235  36.173  1.00  0.00    -0.203 F 
ATOM     80  F   UNL A   1      40.170  35.279  36.965  1.00  0.00    -0.200 F 
ATOM     81  C   UNL A   1      38.666  33.555  37.552  1.00  0.00     0.200 A 
ATOM     82  F   UNL A   1      37.190  31.796  38.106  1.00  0.00    -0.200 F 
ATOM     83  F   UNL A   1      38.143  34.319  38.520  1.00  0.00    -0.200 F 
ENDBRANCH  49  73
BRANCH  61  84
ATOM     84  C   UNL A   1      44.773  27.215  34.806  1.00  0.00     0.064 A 
ATOM     85  C   UNL A   1      46.017  27.829  35.017  1.00  0.00     0.173 A 
ATOM     86  C   UNL A   1      44.485  26.044  35.521  1.00  0.00     0.173 A 
ATOM     87  F   UNL A   1      46.344  28.940  34.341  1.00  0.00    -0.203 F 
ATOM     88  C   UNL A   1      46.951  27.271  35.886  1.00  0.00     0.198 A 
ATOM     89  C   UNL A   1      45.411  25.503  36.409  1.00  0.00     0.198 A 
ATOM     90  F   UNL A   1      43.308  25.422  35.355  1.00  0.00    -0.203 F 
ATOM     91  F   UNL A   1      48.154  27.842  36.030  1.00  0.00    -0.200 F 
ATOM     92  C   UNL A   1      46.645  26.111  36.583  1.00  0.00     0.200 A 
ATOM     93  F   UNL A   1      45.112  24.386  37.086  1.00  0.00    -0.200 F 
ATOM     94  F   UNL A   1      47.548  25.570  37.413  1.00  0.00    -0.200 F 
ENDBRANCH  61  84
ENDBRANCH  35  36
ENDBRANCH  28  30
ENDBRANCH  27  28
ENDBRANCH  26  27
ENDBRANCH   1  26
TORSDOF 16
ENDMDL
MODEL 2
REMARK VINA RESULT:     -11.4      4.525      9.653
REMARK SMILES [NH3+]C[C@H]1CC[C@@H](C(=O)N[C@H](C(=O)OCCOC(=O)c2ccc(-c3c4nc(c(-c5c(F)c(F)c(F)c(F)c5F)c5ccc([nH]5)c(-c5c(F)c(F)c(F)c(F)c5F)c5nc(c(-c6c(F)c(F)c(F)c(F)c6F)c6ccc3[nH]6)C=C5)C=C4)cc2)C2CCCCC2)O1
REMARK SMILES IDX 14 1 13 2 11 3 12 4 10 5 9 6 7 7 8 8 6 10 3 11 4 12 88 13
REMARK SMILES IDX 5 14 2 15 1 16 82 20 83 21 87 22 84 23 86 24 85 25 15 26
REMARK SMILES IDX 16 27 17 28 18 29 19 30 20 31 81 32 21 33 80 34 22 35 23 36
REMARK SMILES IDX 24 37 74 38 25 39 79 40 73 41 75 42 26 43 78 44 72 45 71 46
REMARK SMILES IDX 27 48 59 49 39 50 58 51 40 52 43 53 57 54 76 55 41 56 42 57
REMARK SMILES IDX 56 59 77 60 44 61 28 62 29 63 37 64 30 65 31 66 35 67 38 68
REMARK SMILES IDX 32 69 33 70 36 71 34 72 60 73 61 74 69 75 62 76 63 77 67 78
REMARK SMILES IDX 70 79 64 80 65 81 68 82 66 83 45 84 46 85 54 86 47 87 48 88
REMARK SMILES IDX 52 89 55 90 49 91 50 92 53 93 51 94
REMARK H PARENT 9 9 1 17 1 18 1 19 75 47 43 58
REMARK Flexibility Score: inf
ROOT
ATOM      1  C   UNL A   1      36.741  22.944  23.548  1.00  0.00     0.274 C 
ENDROOT
BRANCH   1   2
ATOM      2  O   UNL A   1      35.591  23.601  24.130  1.00  0.00    -0.461 OA
BRANCH   2   3
ATOM      3  C   UNL A   1      34.467  23.591  23.364  1.00  0.00     0.329 C 
ATOM      4  O   UNL A   1      34.466  23.398  22.150  1.00  0.00    -0.250 OA
BRANCH   3   5
ATOM      5  C   UNL A   1      33.167  23.800  24.191  1.00  0.00     0.195 C 
BRANCH   5   6
ATOM      6  N   UNL A   1      33.415  22.959  25.385  1.00  0.00    -0.340 N 
ATOM      7  C   UNL A   1      33.650  21.643  25.606  1.00  0.00     0.249 C 
ATOM      8  O   UNL A   1      33.928  21.326  26.768  1.00  0.00    -0.272 OA
ATOM      9  H   UNL A   1      33.406  23.483  26.220  1.00  0.00     0.164 HD
BRANCH   7  10
ATOM     10  C   UNL A   1      33.639  20.575  24.501  1.00  0.00     0.207 C 
ATOM     11  C   UNL A   1      33.570  18.257  24.143  1.00  0.00     0.174 C 
ATOM     12  C   UNL A   1      32.487  18.924  23.307  1.00  0.00     0.041 C 
ATOM     13  O   UNL A   1      34.289  19.338  24.782  1.00  0.00    -0.359 OA
ATOM     14  C   UNL A   1      32.245  20.230  24.019  1.00  0.00     0.045 C 
BRANCH  11  15
ATOM     15  C   UNL A   1      33.099  17.309  25.262  1.00  0.00     0.291 C 
BRANCH  15  16
ATOM     16  N   UNL A   1      32.701  17.909  26.529  1.00  0.00    -0.355 N 
ATOM     17  H   UNL A   1      31.695  17.796  26.658  1.00  0.00     0.344 HD
ATOM     18  H   UNL A   1      32.933  18.902  26.523  1.00  0.00     0.344 HD
ATOM     19  H   UNL A   1      33.195  17.448  27.293  1.00  0.00     0.344 HD
ENDBRANCH  15  16
ENDBRANCH  11  15
ENDBRANCH   7  10
ENDBRANCH   5   6
BRANCH   5  20
ATOM     20  C   UNL A   1      32.971  25.303  24.558  1.00  0.00     0.023 C 
ATOM     21  C   UNL A   1      33.244  25.644  26.041  1.00  0.00     0.006 C 
ATOM     22  C   UNL A   1      33.736  26.276  23.641  1.00  0.00     0.006 C 
ATOM     23  C   UNL A   1      33.002  27.124  26.355  1.00  0.00     0.000 C 
ATOM     24  C   UNL A   1      33.455  27.732  23.980  1.00  0.00     0.000 C 
ATOM     25  C   UNL A   1      33.788  28.039  25.429  1.00  0.00     0.000 C 
ENDBRANCH   5  20
ENDBRANCH   3   5
ENDBRANCH   2   3
ENDBRANCH   1   2
BRANCH   1  26
ATOM     26  C   UNL A   1      37.012  21.615  24.263  1.00  0.00     0.275 C 
BRANCH  26  27
ATOM     27  O   UNL A   1      37.344  21.878  25.640  1.00  0.00    -0.458 OA
BRANCH  27  28
ATOM     28  C   UNL A   1      38.603  21.571  26.033  1.00  0.00     0.338 C 
ATOM     29  O   UNL A   1      39.168  20.498  25.859  1.00  0.00    -0.246 OA
BRANCH  28  30
ATOM     30  C   UNL A   1      39.279  22.777  26.590  1.00  0.00     0.060 A 
ATOM     31  C   UNL A   1      38.898  24.065  26.203  1.00  0.00     0.016 A 
ATOM     32  C   UNL A   1      40.413  22.627  27.396  1.00  0.00     0.016 A 
ATOM     33  C   UNL A   1      39.716  25.158  26.486  1.00  0.00     0.010 A 
ATOM     34  C   UNL A   1      41.146  23.753  27.808  1.00  0.00     0.010 A 
ATOM     35  C   UNL A   1      40.824  25.036  27.340  1.00  0.00    -0.014 A 
BRANCH  35  36
ATOM     36  C   UNL A   1      41.562  26.253  27.801  1.00  0.00     0.031 A 
ATOM     37  C   UNL A   1      40.910  27.337  28.629  1.00  0.00     0.074 A 
ATOM     38  C   UNL A   1      42.859  26.398  27.457  1.00  0.00     0.049 A 
ATOM     39  N   UNL A   1      41.397  28.494  29.015  1.00  0.00    -0.248 NA
ATOM     40  C   UNL A   1      39.541  27.094  29.102  1.00  0.00     0.031 C 
ATOM     41  C   UNL A   1      43.651  25.429  26.694  1.00  0.00     0.029 A 
ATOM     42  N   UNL A   1      43.743  27.424  27.694  1.00  0.00    -0.354 N 
ATOM     43  C   UNL A   1      40.408  29.094  29.787  1.00  0.00     0.074 A 
ATOM     44  C   UNL A   1      39.285  28.186  29.812  1.00  0.00     0.031 C 
ATOM     45  C   UNL A   1      44.899  25.887  26.553  1.00  0.00     0.029 A 
ATOM     46  C   UNL A   1      44.966  27.235  27.097  1.00  0.00     0.049 A 
ATOM     47  H   UNL A   1      43.522  28.215  28.237  1.00  0.00     0.167 HD
ATOM     48  C   UNL A   1      40.424  30.301  30.403  1.00  0.00     0.037 A 
ATOM     49  C   UNL A   1      46.005  28.070  26.919  1.00  0.00     0.037 A 
ATOM     50  C   UNL A   1      41.504  31.249  30.322  1.00  0.00     0.049 A 
ATOM     51  C   UNL A   1      45.921  29.470  27.438  1.00  0.00     0.074 A 
ATOM     52  C   UNL A   1      41.594  32.511  30.887  1.00  0.00     0.029 A 
ATOM     53  N   UNL A   1      42.669  31.054  29.599  1.00  0.00    -0.354 N 
ATOM     54  N   UNL A   1      44.970  30.034  28.139  1.00  0.00    -0.248 NA
ATOM     55  C   UNL A   1      47.042  30.360  27.112  1.00  0.00     0.031 C 
ATOM     56  C   UNL A   1      42.784  33.104  30.450  1.00  0.00     0.029 A 
ATOM     57  C   UNL A   1      43.460  32.191  29.659  1.00  0.00     0.049 A 
ATOM     58  H   UNL A   1      42.902  30.228  29.116  1.00  0.00     0.167 HD
ATOM     59  C   UNL A   1      45.375  31.343  28.340  1.00  0.00     0.074 A 
ATOM     60  C   UNL A   1      46.669  31.486  27.703  1.00  0.00     0.031 C 
ATOM     61  C   UNL A   1      44.727  32.338  28.994  1.00  0.00     0.037 A 
BRANCH  48  62
ATOM     62  C   UNL A   1      39.207  30.706  31.183  1.00  0.00     0.064 A 
ATOM     63  C   UNL A   1      39.098  30.457  32.559  1.00  0.00     0.173 A 
ATOM     64  C   UNL A   1      38.173  31.421  30.561  1.00  0.00     0.173 A 
ATOM     65  F   UNL A   1      40.055  29.768  33.198  1.00  0.00    -0.203 F 
ATOM     66  C   UNL A   1      37.997  30.909  33.283  1.00  0.00     0.198 A 
ATOM     67  C   UNL A   1      37.082  31.887  31.291  1.00  0.00     0.198 A 
ATOM     68  F   UNL A   1      38.231  31.686  29.247  1.00  0.00    -0.203 F 
ATOM     69  F   UNL A   1      37.904  30.650  34.595  1.00  0.00    -0.200 F 
ATOM     70  C   UNL A   1      36.995  31.632  32.650  1.00  0.00     0.200 A 
ATOM     71  F   UNL A   1      36.118  32.590  30.679  1.00  0.00    -0.200 F 
ATOM     72  F   UNL A   1      35.943  32.078  33.351  1.00  0.00    -0.200 F 
ENDBRANCH  48  62
BRANCH  49  73
ATOM     73  C   UNL A   1      47.164  27.610  26.113  1.00  0.00     0.064 A 
ATOM     74  C   UNL A   1      47.160  27.705  24.717  1.00  0.00     0.173 A 
ATOM     75  C   UNL A   1      48.324  27.120  26.737  1.00  0.00     0.173 A 
ATOM     76  F   UNL A   1      46.064  28.138  24.078  1.00  0.00    -0.203 F 
ATOM     77  C   UNL A   1      48.281  27.338  23.974  1.00  0.00     0.198 A 
ATOM     78  C   UNL A   1      49.452  26.785  25.996  1.00  0.00     0.198 A 
ATOM     79  F   UNL A   1      48.372  27.008  28.073  1.00  0.00    -0.203 F 
ATOM     80  F   UNL A   1      48.248  27.415  22.637  1.00  0.00    -0.200 F 
ATOM     81  C   UNL A   1      49.429  26.893  24.615  1.00  0.00     0.200 A 
ATOM     82  F   UNL A   1      50.563  26.375  26.621  1.00  0.00    -0.200 F 
ATOM     83  F   UNL A   1      50.514  26.565  23.900  1.00  0.00    -0.200 F 
ENDBRANCH  49  73
BRANCH  61  84
ATOM     84  C   UNL A   1      45.414  33.668  29.045  1.00  0.00     0.064 A 
ATOM     85  C   UNL A   1      46.334  33.975  30.059  1.00  0.00     0.173 A 
ATOM     86  C   UNL A   1      45.142  34.649  28.081  1.00  0.00     0.173 A 
ATOM     87  F   UNL A   1      46.610  33.076  31.014  1.00  0.00    -0.203 F 
ATOM     88  C   UNL A   1      46.933  35.231  30.123  1.00  0.00     0.198 A 
ATOM     89  C   UNL A   1      45.762  35.894  28.133  1.00  0.00     0.198 A 
ATOM     90  F   UNL A   1      44.272  34.402  27.090  1.00  0.00    -0.203 F 
ATOM     91  F   UNL A   1      47.765  35.522  31.132  1.00  0.00    -0.200 F 
ATOM     92  C   UNL A   1      46.649  36.186  29.159  1.00  0.00     0.200 A 
ATOM     93  F   UNL A   1      45.493  36.814  27.197  1.00  0.00    -0.200 F 
ATOM     94  F   UNL A   1      47.220  37.397  29.226  1.00  0.00    -0.200 F 
ENDBRANCH  61  84
ENDBRANCH  35  36
ENDBRANCH  28  30
ENDBRANCH  27  28
ENDBRANCH  26  27
ENDBRANCH   1  26
TORSDOF 16
ENDMDL
MODEL 3
REMARK VINA RESULT:     -11.4      1.299      2.089
REMARK SMILES [NH3+]C[C@H]1CC[C@@H](C(=O)N[C@H](C(=O)OCCOC(=O)c2ccc(-c3c4nc(c(-c5c(F)c(F)c(F)c(F)c5F)c5ccc([nH]5)c(-c5c(F)c(F)c(F)c(F)c5F)c5nc(c(-c6c(F)c(F)c(F)c(F)c6F)c6ccc3[nH]6)C=C5)C=C4)cc2)C2CCCCC2)O1
REMARK SMILES IDX 14 1 13 2 11 3 12 4 10 5 9 6 7 7 8 8 6 10 3 11 4 12 88 13
REMARK SMILES IDX 5 14 2 15 1 16 82 20 83 21 87 22 84 23 86 24 85 25 15 26
REMARK SMILES IDX 16 27 17 28 18 29 19 30 20 31 81 32 21 33 80 34 22 35 23 36
REMARK SMILES IDX 24 37 74 38 25 39 79 40 73 41 75 42 26 43 78 44 72 45 71 46
REMARK SMILES IDX 27 48 59 49 39 50 58 51 40 52 43 53 57 54 76 55 41 56 42 57
REMARK SMILES IDX 56 59 77 60 44 61 28 62 29 63 37 64 30 65 31 66 35 67 38 68
REMARK SMILES IDX 32 69 33 70 36 71 34 72 60 73 61 74 69 75 62 76 63 77 67 78
REMARK SMILES IDX 70 79 64 80 65 81 68 82 66 83 45 84 46 85 54 86 47 87 48 88
REMARK SMILES IDX 52 89 55 90 49 91 50 92 53 93 51 94
REMARK H PARENT 9 9 1 17 1 18 1 19 75 47 43 58
REMARK Flexibility Score: inf
ROOT
ATOM      1  C   UNL A   1      31.814  28.666  27.607  1.00  0.00     0.274 C 
ENDROOT
BRANCH   1   2
ATOM      2  O   UNL A   1      32.509  27.642  26.856  1.00  0.00    -0.461 OA
BRANCH   2   3
ATOM      3  C   UNL A   1      31.718  26.666  26.337  1.00  0.00     0.329 C 
ATOM      4  O   UNL A   1      30.602  26.385  26.768  1.00  0.00    -0.250 OA
BRANCH   3   5
ATOM      5  C   UNL A   1      32.350  25.966  25.101  1.00  0.00     0.195 C 
BRANCH   5   6
ATOM      6  N   UNL A   1      32.700  27.114  24.233  1.00  0.00    -0.340 N 
ATOM      7  C   UNL A   1      32.027  28.169  23.714  1.00  0.00     0.249 C 
ATOM      8  O   UNL A   1      32.708  29.005  23.107  1.00  0.00    -0.272 OA
ATOM      9  H   UNL A   1      33.649  27.108  23.968  1.00  0.00     0.164 HD
BRANCH   7  10
ATOM     10  C   UNL A   1      30.517  28.392  23.890  1.00  0.00     0.207 C 
ATOM     11  C   UNL A   1      28.706  29.647  23.082  1.00  0.00     0.174 C 
ATOM     12  C   UNL A   1      28.339  28.170  23.061  1.00  0.00     0.041 C 
ATOM     13  O   UNL A   1      30.022  29.712  23.680  1.00  0.00    -0.359 OA
ATOM     14  C   UNL A   1      29.675  27.473  23.028  1.00  0.00     0.045 C 
BRANCH  11  15
ATOM     15  C   UNL A   1      28.797  30.359  21.719  1.00  0.00     0.291 C 
BRANCH  15  16
ATOM     16  N   UNL A   1      29.501  31.634  21.671  1.00  0.00    -0.355 N 
ATOM     17  H   UNL A   1      29.010  32.316  22.249  1.00  0.00     0.344 HD
ATOM     18  H   UNL A   1      29.536  31.967  20.707  1.00  0.00     0.344 HD
ATOM     19  H   UNL A   1      30.451  31.511  22.023  1.00  0.00     0.344 HD
ENDBRANCH  15  16
ENDBRANCH  11  15
ENDBRANCH   7  10
ENDBRANCH   5   6
BRANCH   5  20
ATOM     20  C   UNL A   1      33.604  25.132  25.509  1.00  0.00     0.023 C 
ATOM     21  C   UNL A   1      33.298  23.896  26.385  1.00  0.00     0.006 C 
ATOM     22  C   UNL A   1      34.504  24.734  24.325  1.00  0.00     0.006 C 
ATOM     23  C   UNL A   1      34.565  23.135  26.786  1.00  0.00     0.000 C 
ATOM     24  C   UNL A   1      35.755  23.994  24.771  1.00  0.00     0.000 C 
ATOM     25  C   UNL A   1      35.410  22.756  25.580  1.00  0.00     0.000 C 
ENDBRANCH   5  20
ENDBRANCH   3   5
ENDBRANCH   2   3
ENDBRANCH   1   2
BRANCH   1  26
ATOM     26  C   UNL A   1      31.797  29.982  26.819  1.00  0.00     0.275 C 
BRANCH  26  27
ATOM     27  O   UNL A   1      33.150  30.371  26.518  1.00  0.00    -0.458 OA
BRANCH  27  28
ATOM     28  C   UNL A   1      33.659  31.408  27.225  1.00  0.00     0.338 C 
ATOM     29  O   UNL A   1      33.088  32.466  27.460  1.00  0.00    -0.246 OA
BRANCH  28  30
ATOM     30  C   UNL A   1      34.976  31.034  27.815  1.00  0.00     0.060 A 
ATOM     31  C   UNL A   1      35.205  29.753  28.324  1.00  0.00     0.016 A 
ATOM     32  C   UNL A   1      35.954  32.016  28.007  1.00  0.00     0.016 A 
ATOM     33  C   UNL A   1      36.312  29.502  29.134  1.00  0.00     0.010 A 
ATOM     34  C   UNL A   1      37.142  31.713  28.693  1.00  0.00     0.010 A 
ATOM     35  C   UNL A   1      37.330  30.456  29.290  1.00  0.00    -0.014 A 
BRANCH  35  36
ATOM     36  C   UNL A   1      38.605  30.096  29.985  1.00  0.00     0.031 A 
ATOM     37  C   UNL A   1      39.603  29.121  29.405  1.00  0.00     0.074 A 
ATOM     38  C   UNL A   1      38.873  30.654  31.185  1.00  0.00     0.049 A 
ATOM     39  N   UNL A   1      40.700  28.637  29.940  1.00  0.00    -0.248 NA
ATOM     40  C   UNL A   1      39.355  28.631  28.042  1.00  0.00     0.031 C 
ATOM     41  C   UNL A   1      38.036  31.642  31.871  1.00  0.00     0.029 A 
ATOM     42  N   UNL A   1      39.924  30.462  32.052  1.00  0.00    -0.354 N 
ATOM     43  C   UNL A   1      41.275  27.815  28.976  1.00  0.00     0.074 A 
ATOM     44  C   UNL A   1      40.405  27.850  27.822  1.00  0.00     0.031 C 
ATOM     45  C   UNL A   1      38.613  31.991  33.025  1.00  0.00     0.029 A 
ATOM     46  C   UNL A   1      39.789  31.158  33.228  1.00  0.00     0.049 A 
ATOM     47  H   UNL A   1      40.693  29.883  31.850  1.00  0.00     0.167 HD
ATOM     48  C   UNL A   1      42.411  27.080  29.050  1.00  0.00     0.037 A 
ATOM     49  C   UNL A   1      40.472  31.087  34.385  1.00  0.00     0.037 A 
ATOM     50  C   UNL A   1      43.244  26.974  30.219  1.00  0.00     0.049 A 
ATOM     51  C   UNL A   1      41.607  30.120  34.510  1.00  0.00     0.074 A 
ATOM     52  C   UNL A   1      44.397  26.227  30.396  1.00  0.00     0.029 A 
ATOM     53  N   UNL A   1      42.991  27.607  31.425  1.00  0.00    -0.354 N 
ATOM     54  N   UNL A   1      42.119  29.329  33.603  1.00  0.00    -0.248 NA
ATOM     55  C   UNL A   1      42.236  30.015  35.832  1.00  0.00     0.031 C 
ATOM     56  C   UNL A   1      44.803  26.356  31.729  1.00  0.00     0.029 A 
ATOM     57  C   UNL A   1      43.935  27.226  32.367  1.00  0.00     0.049 A 
ATOM     58  H   UNL A   1      42.251  28.236  31.589  1.00  0.00     0.167 HD
ATOM     59  C   UNL A   1      43.131  28.629  34.240  1.00  0.00     0.074 A 
ATOM     60  C   UNL A   1      43.174  29.105  35.608  1.00  0.00     0.031 C 
ATOM     61  C   UNL A   1      43.949  27.676  33.734  1.00  0.00     0.037 A 
BRANCH  48  62
ATOM     62  C   UNL A   1      42.804  26.274  27.846  1.00  0.00     0.064 A 
ATOM     63  C   UNL A   1      43.685  26.778  26.878  1.00  0.00     0.173 A 
ATOM     64  C   UNL A   1      42.355  24.953  27.702  1.00  0.00     0.173 A 
ATOM     65  F   UNL A   1      44.134  28.039  26.966  1.00  0.00    -0.203 F 
ATOM     66  C   UNL A   1      44.101  25.988  25.809  1.00  0.00     0.198 A 
ATOM     67  C   UNL A   1      42.787  24.160  26.641  1.00  0.00     0.198 A 
ATOM     68  F   UNL A   1      41.512  24.424  28.602  1.00  0.00    -0.203 F 
ATOM     69  F   UNL A   1      44.934  26.493  24.887  1.00  0.00    -0.200 F 
ATOM     70  C   UNL A   1      43.659  24.677  25.696  1.00  0.00     0.200 A 
ATOM     71  F   UNL A   1      42.364  22.893  26.537  1.00  0.00    -0.200 F 
ATOM     72  F   UNL A   1      44.072  23.914  24.675  1.00  0.00    -0.200 F 
ENDBRANCH  48  62
BRANCH  49  73
ATOM     73  C   UNL A   1      40.009  31.894  35.542  1.00  0.00     0.064 A 
ATOM     74  C   UNL A   1      40.606  33.118  35.858  1.00  0.00     0.173 A 
ATOM     75  C   UNL A   1      38.916  31.474  36.319  1.00  0.00     0.173 A 
ATOM     76  F   UNL A   1      41.671  33.543  35.164  1.00  0.00    -0.203 F 
ATOM     77  C   UNL A   1      40.118  33.902  36.902  1.00  0.00     0.198 A 
ATOM     78  C   UNL A   1      38.409  32.272  37.339  1.00  0.00     0.198 A 
ATOM     79  F   UNL A   1      38.314  30.304  36.055  1.00  0.00    -0.203 F 
ATOM     80  F   UNL A   1      40.719  35.061  37.203  1.00  0.00    -0.200 F 
ATOM     81  C   UNL A   1      39.012  33.485  37.631  1.00  0.00     0.200 A 
ATOM     82  F   UNL A   1      37.331  31.873  38.026  1.00  0.00    -0.200 F 
ATOM     83  F   UNL A   1      38.529  34.252  38.617  1.00  0.00    -0.200 F 
ENDBRANCH  49  73
BRANCH  61  84
ATOM     84  C   UNL A   1      44.956  27.085  34.671  1.00  0.00     0.064 A 
ATOM     85  C   UNL A   1      46.218  27.671  34.850  1.00  0.00     0.173 A 
ATOM     86  C   UNL A   1      44.663  25.917  35.390  1.00  0.00     0.173 A 
ATOM     87  F   UNL A   1      46.551  28.777  34.169  1.00  0.00    -0.203 F 
ATOM     88  C   UNL A   1      47.164  27.089  35.690  1.00  0.00     0.198 A 
ATOM     89  C   UNL A   1      45.601  25.352  36.249  1.00  0.00     0.198 A 
ATOM     90  F   UNL A   1      43.469  25.321  35.255  1.00  0.00    -0.203 F 
ATOM     91  F   UNL A   1      48.383  27.633  35.803  1.00  0.00    -0.200 F 
ATOM     92  C   UNL A   1      46.853  25.933  36.391  1.00  0.00     0.200 A 
ATOM     93  F   UNL A   1      45.298  24.239  36.931  1.00  0.00    -0.200 F 
ATOM     94  F   UNL A   1      47.766  25.369  37.193  1.00  0.00    -0.200 F 
ENDBRANCH  61  84
ENDBRANCH  35  36
ENDBRANCH  28  30
ENDBRANCH  27  28
ENDBRANCH  26  27
ENDBRANCH   1  26
TORSDOF 16
ENDMDL
