MODEL 1
REMARK VINA RESULT:     -12.6      0.000      0.000
REMARK SMILES O=C(OCCOC(=O)c1ccc(-c2c3nc(c(-c4c(F)c(F)c(F)c(F)c4F)c4ccc([nH]4)c(-c4c(F)c(F)c(F)c(F)c4F)c4nc(c(-c5c(F)c(F)c(F)c(F)c5F)c5ccc2[nH]5)C=C4)C=C3)cc1)C1=Cc2cc(S(F)(F)(F)(F)F)ccc2O[C@H]1C(F)(F)F
REMARK SMILES IDX 5 1 4 2 3 3 2 4 1 5 72 6 73 7 87 8 74 9 86 10 75 11 85 12
REMARK SMILES IDX 76 13 84 14 83 15 88 16 89 17 90 18 91 19 77 20 78 21 79 22
REMARK SMILES IDX 80 23 81 24 82 25 6 26 7 27 8 28 9 29 10 30 71 31 11 32
REMARK SMILES IDX 70 33 12 34 13 35 14 36 64 37 15 38 69 39 63 40 65 41 16 42
REMARK SMILES IDX 68 43 62 44 61 45 17 47 49 48 29 49 48 50 30 51 33 52 47 53
REMARK SMILES IDX 66 54 31 55 32 56 46 58 67 59 34 60 18 61 19 62 27 63 20 64
REMARK SMILES IDX 21 65 25 66 28 67 22 68 23 69 26 70 24 71 50 72 51 73 59 74
REMARK SMILES IDX 52 75 53 76 57 77 60 78 54 79 55 80 58 81 56 82 35 83 36 84
REMARK SMILES IDX 44 85 37 86 38 87 42 88 45 89 39 90 40 91 43 92 41 93
REMARK H PARENT 65 46 33 57
REMARK Flexibility Score: inf
ROOT
ATOM      1  C   UNL A   1      37.430  22.010  24.724  1.00  0.00     0.275 C 
ENDROOT
BRANCH   1   2
ATOM      2  C   UNL A   1      36.461  22.684  23.767  1.00  0.00     0.275 C 
BRANCH   2   3
ATOM      3  O   UNL A   1      35.345  23.178  24.494  1.00  0.00    -0.459 OA
BRANCH   3   4
ATOM      4  C   UNL A   1      34.030  22.979  23.997  1.00  0.00     0.338 C 
ATOM      5  O   UNL A   1      33.842  22.784  22.755  1.00  0.00    -0.246 OA
BRANCH   4   6
ATOM      6  C   UNL A   1      32.846  23.000  24.951  1.00  0.00     0.087 C 
ATOM      7  C   UNL A   1      32.405  24.182  25.461  1.00  0.00     0.027 C 
ATOM      8  C   UNL A   1      32.156  21.702  25.335  1.00  0.00     0.316 C 
ATOM      9  C   UNL A   1      33.096  25.480  25.077  1.00  0.00     0.019 A 
ATOM     10  O   UNL A   1      33.360  24.679  22.855  1.00  0.00    -0.475 OA
ATOM     11  C   UNL A   1      33.282  26.434  26.064  1.00  0.00     0.036 A 
ATOM     12  C   UNL A   1      33.413  25.727  23.812  1.00  0.00     0.128 A 
ATOM     13  C   UNL A   1      33.542  27.732  25.565  1.00  0.00     0.107 A 
ATOM     14  C   UNL A   1      33.791  26.989  23.419  1.00  0.00     0.048 A 
ATOM     15  C   UNL A   1      33.937  27.995  24.332  1.00  0.00     0.028 A 
BRANCH   8  16
ATOM     16  C   UNL A   1      32.839  20.538  24.634  1.00  0.00     0.430 C 
ATOM     17  F   UNL A   1      34.148  20.573  24.866  1.00  0.00    -0.167 F 
ATOM     18  F   UNL A   1      32.335  19.402  25.107  1.00  0.00    -0.167 F 
ATOM     19  F   UNL A   1      32.618  20.610  23.324  1.00  0.00    -0.167 F 
ENDBRANCH   8  16
BRANCH  13  20
ATOM     20  S   UNL A   1      33.319  29.130  26.693  1.00  0.00     0.310 S 
ATOM     21  F   UNL A   1      32.777  28.188  27.849  1.00  0.00    -0.094 F 
ATOM     22  F   UNL A   1      31.830  29.255  26.192  1.00  0.00    -0.094 F 
ATOM     23  F   UNL A   1      33.123  30.330  27.663  1.00  0.00    -0.094 F 
ATOM     24  F   UNL A   1      34.765  28.899  27.283  1.00  0.00    -0.094 F 
ATOM     25  F   UNL A   1      33.494  27.840  25.797  1.00  0.00    -0.094 F 
ENDBRANCH  13  20
ENDBRANCH   4   6
ENDBRANCH   3   4
ENDBRANCH   2   3
ENDBRANCH   1   2
BRANCH   1  26
ATOM     26  O   UNL A   1      37.659  22.856  25.840  1.00  0.00    -0.458 OA
BRANCH  26  27
ATOM     27  C   UNL A   1      38.982  23.077  26.306  1.00  0.00     0.338 C 
ATOM     28  O   UNL A   1      39.846  22.147  26.228  1.00  0.00    -0.246 OA
BRANCH  27  29
ATOM     29  C   UNL A   1      39.366  24.423  26.899  1.00  0.00     0.060 A 
ATOM     30  C   UNL A   1      39.053  24.617  28.234  1.00  0.00     0.016 A 
ATOM     31  C   UNL A   1      40.075  25.316  26.220  1.00  0.00     0.016 A 
ATOM     32  C   UNL A   1      39.294  25.933  28.693  1.00  0.00     0.010 A 
ATOM     33  C   UNL A   1      40.390  26.531  26.781  1.00  0.00     0.010 A 
ATOM     34  C   UNL A   1      40.061  26.813  28.077  1.00  0.00    -0.014 A 
BRANCH  34  35
ATOM     35  C   UNL A   1      40.554  28.073  28.772  1.00  0.00     0.031 A 
ATOM     36  C   UNL A   1      41.851  28.122  29.284  1.00  0.00     0.074 A 
ATOM     37  C   UNL A   1      39.597  29.049  28.991  1.00  0.00     0.049 A 
ATOM     38  N   UNL A   1      42.399  29.093  30.018  1.00  0.00    -0.248 NA
ATOM     39  C   UNL A   1      42.858  27.071  29.082  1.00  0.00     0.031 C 
ATOM     40  C   UNL A   1      38.289  29.010  28.469  1.00  0.00     0.029 A 
ATOM     41  N   UNL A   1      39.723  30.205  29.728  1.00  0.00    -0.354 N 
ATOM     42  C   UNL A   1      43.668  28.793  30.306  1.00  0.00     0.074 A 
ATOM     43  C   UNL A   1      43.980  27.485  29.713  1.00  0.00     0.031 C 
ATOM     44  C   UNL A   1      37.632  30.119  28.896  1.00  0.00     0.029 A 
ATOM     45  C   UNL A   1      38.518  30.872  29.691  1.00  0.00     0.049 A 
ATOM     46  H   UNL A   1      40.533  30.503  30.201  1.00  0.00     0.167 HD
ATOM     47  C   UNL A   1      44.577  29.559  31.035  1.00  0.00     0.037 A 
ATOM     48  C   UNL A   1      38.191  32.068  30.310  1.00  0.00     0.037 A 
ATOM     49  C   UNL A   1      44.262  30.777  31.618  1.00  0.00     0.049 A 
ATOM     50  C   UNL A   1      39.083  32.807  31.089  1.00  0.00     0.074 A 
ATOM     51  C   UNL A   1      45.169  31.566  32.351  1.00  0.00     0.029 A 
ATOM     52  N   UNL A   1      43.051  31.432  31.601  1.00  0.00    -0.354 N 
ATOM     53  N   UNL A   1      40.363  32.527  31.343  1.00  0.00    -0.248 NA
ATOM     54  C   UNL A   1      38.738  34.059  31.776  1.00  0.00     0.031 C 
ATOM     55  C   UNL A   1      44.512  32.677  32.779  1.00  0.00     0.029 A 
ATOM     56  C   UNL A   1      43.182  32.599  32.321  1.00  0.00     0.049 A 
ATOM     57  H   UNL A   1      42.231  31.119  31.153  1.00  0.00     0.167 HD
ATOM     58  C   UNL A   1      40.898  33.477  32.113  1.00  0.00     0.074 A 
ATOM     59  C   UNL A   1      39.858  34.472  32.408  1.00  0.00     0.031 C 
ATOM     60  C   UNL A   1      42.212  33.555  32.577  1.00  0.00     0.037 A 
BRANCH  47  61
ATOM     61  C   UNL A   1      45.992  29.028  31.202  1.00  0.00     0.064 A 
ATOM     62  C   UNL A   1      46.376  28.156  32.207  1.00  0.00     0.173 A 
ATOM     63  C   UNL A   1      46.834  29.384  30.239  1.00  0.00     0.173 A 
ATOM     64  F   UNL A   1      45.510  27.578  33.035  1.00  0.00    -0.203 F 
ATOM     65  C   UNL A   1      47.772  27.935  32.273  1.00  0.00     0.198 A 
ATOM     66  C   UNL A   1      48.157  29.018  30.299  1.00  0.00     0.198 A 
ATOM     67  F   UNL A   1      46.394  30.100  29.209  1.00  0.00    -0.203 F 
ATOM     68  F   UNL A   1      48.265  27.420  33.395  1.00  0.00    -0.200 F 
ATOM     69  C   UNL A   1      48.619  28.206  31.297  1.00  0.00     0.200 A 
ATOM     70  F   UNL A   1      49.002  29.461  29.372  1.00  0.00    -0.200 F 
ATOM     71  F   UNL A   1      49.856  27.716  31.287  1.00  0.00    -0.200 F 
ENDBRANCH  47  61
BRANCH  48  72
ATOM     72  C   UNL A   1      36.781  32.606  30.129  1.00  0.00     0.064 A 
ATOM     73  C   UNL A   1      36.436  33.391  29.041  1.00  0.00     0.173 A 
ATOM     74  C   UNL A   1      35.931  32.403  31.129  1.00  0.00     0.173 A 
ATOM     75  F   UNL A   1      37.141  33.420  27.914  1.00  0.00    -0.203 F 
ATOM     76  C   UNL A   1      35.265  34.162  29.239  1.00  0.00     0.198 A 
ATOM     77  C   UNL A   1      34.743  33.091  31.188  1.00  0.00     0.198 A 
ATOM     78  F   UNL A   1      36.234  31.526  32.082  1.00  0.00    -0.203 F 
ATOM     79  F   UNL A   1      35.058  35.192  28.424  1.00  0.00    -0.200 F 
ATOM     80  C   UNL A   1      34.364  33.929  30.176  1.00  0.00     0.200 A 
ATOM     81  F   UNL A   1      33.949  32.937  32.244  1.00  0.00    -0.200 F 
ATOM     82  F   UNL A   1      33.155  34.480  30.138  1.00  0.00    -0.200 F 
ENDBRANCH  48  72
BRANCH  60  83
ATOM     83  C   UNL A   1      42.603  34.763  33.412  1.00  0.00     0.064 A 
ATOM     84  C   UNL A   1      42.506  34.609  34.785  1.00  0.00     0.173 A 
ATOM     85  C   UNL A   1      43.120  35.863  32.877  1.00  0.00     0.173 A 
ATOM     86  F   UNL A   1      42.236  33.444  35.366  1.00  0.00    -0.203 F 
ATOM     87  C   UNL A   1      42.720  35.804  35.513  1.00  0.00     0.198 A 
ATOM     88  C   UNL A   1      43.434  36.944  33.665  1.00  0.00     0.198 A 
ATOM     89  F   UNL A   1      43.338  35.918  31.566  1.00  0.00    -0.203 F 
ATOM     90  F   UNL A   1      42.302  35.843  36.774  1.00  0.00    -0.200 F 
ATOM     91  C   UNL A   1      43.306  36.882  35.026  1.00  0.00     0.200 A 
ATOM     92  F   UNL A   1      43.866  38.066  33.097  1.00  0.00    -0.200 F 
ATOM     93  F   UNL A   1      43.749  37.856  35.815  1.00  0.00    -0.200 F 
ENDBRANCH  60  83
ENDBRANCH  34  35
ENDBRANCH  27  29
ENDBRANCH  26  27
ENDBRANCH   1  26
TORSDOF 13
ENDMDL
MODEL 2
REMARK VINA RESULT:     -12.6      3.459      8.775
REMARK SMILES O=C(OCCOC(=O)c1ccc(-c2c3nc(c(-c4c(F)c(F)c(F)c(F)c4F)c4ccc([nH]4)c(-c4c(F)c(F)c(F)c(F)c4F)c4nc(c(-c5c(F)c(F)c(F)c(F)c5F)c5ccc2[nH]5)C=C4)C=C3)cc1)C1=Cc2cc(S(F)(F)(F)(F)F)ccc2O[C@H]1C(F)(F)F
REMARK SMILES IDX 5 1 4 2 3 3 2 4 1 5 72 6 73 7 87 8 74 9 86 10 75 11 85 12
REMARK SMILES IDX 76 13 84 14 83 15 88 16 89 17 90 18 91 19 77 20 78 21 79 22
REMARK SMILES IDX 80 23 81 24 82 25 6 26 7 27 8 28 9 29 10 30 71 31 11 32
REMARK SMILES IDX 70 33 12 34 13 35 14 36 64 37 15 38 69 39 63 40 65 41 16 42
REMARK SMILES IDX 68 43 62 44 61 45 17 47 49 48 29 49 48 50 30 51 33 52 47 53
REMARK SMILES IDX 66 54 31 55 32 56 46 58 67 59 34 60 18 61 19 62 27 63 20 64
REMARK SMILES IDX 21 65 25 66 28 67 22 68 23 69 26 70 24 71 50 72 51 73 59 74
REMARK SMILES IDX 52 75 53 76 57 77 60 78 54 79 55 80 58 81 56 82 35 83 36 84
REMARK SMILES IDX 44 85 37 86 38 87 42 88 45 89 39 90 40 91 43 92 41 93
REMARK H PARENT 65 46 33 57
REMARK Flexibility Score: inf
ROOT
ATOM      1  C   UNL A   1      32.367  29.818  27.262  1.00  0.00     0.275 C 
ENDROOT
BRANCH   1   2
ATOM      2  C   UNL A   1      31.747  28.431  27.298  1.00  0.00     0.275 C 
BRANCH   2   3
ATOM      3  O   UNL A   1      32.344  27.620  26.297  1.00  0.00    -0.459 OA
BRANCH   3   4
ATOM      4  C   UNL A   1      31.527  26.879  25.403  1.00  0.00     0.338 C 
ATOM      5  O   UNL A   1      30.388  26.461  25.780  1.00  0.00    -0.246 OA
BRANCH   4   6
ATOM      6  C   UNL A   1      32.015  26.587  23.993  1.00  0.00     0.087 C 
ATOM      7  C   UNL A   1      32.990  25.660  23.789  1.00  0.00     0.027 C 
ATOM      8  C   UNL A   1      31.414  27.330  22.811  1.00  0.00     0.316 C 
ATOM      9  C   UNL A   1      33.591  24.917  24.971  1.00  0.00     0.019 A 
ATOM     10  O   UNL A   1      31.445  24.808  25.989  1.00  0.00    -0.475 OA
ATOM     11  C   UNL A   1      34.956  24.683  24.966  1.00  0.00     0.036 A 
ATOM     12  C   UNL A   1      32.810  24.419  25.923  1.00  0.00     0.128 A 
ATOM     13  C   UNL A   1      35.366  23.663  25.856  1.00  0.00     0.107 A 
ATOM     14  C   UNL A   1      33.310  23.531  26.844  1.00  0.00     0.048 A 
ATOM     15  C   UNL A   1      34.638  23.208  26.861  1.00  0.00     0.028 A 
BRANCH   8  16
ATOM     16  C   UNL A   1      30.356  28.302  23.308  1.00  0.00     0.430 C 
ATOM     17  F   UNL A   1      30.878  29.112  24.225  1.00  0.00    -0.167 F 
ATOM     18  F   UNL A   1      29.921  29.020  22.278  1.00  0.00    -0.167 F 
ATOM     19  F   UNL A   1      29.340  27.627  23.839  1.00  0.00    -0.167 F 
ENDBRANCH   8  16
BRANCH  13  20
ATOM     20  S   UNL A   1      37.001  22.929  25.602  1.00  0.00     0.310 S 
ATOM     21  F   UNL A   1      37.269  23.821  24.318  1.00  0.00    -0.094 F 
ATOM     22  F   UNL A   1      36.340  21.868  24.643  1.00  0.00    -0.094 F 
ATOM     23  F   UNL A   1      38.405  22.298  25.381  1.00  0.00    -0.094 F 
ATOM     24  F   UNL A   1      37.663  24.084  26.452  1.00  0.00    -0.094 F 
ATOM     25  F   UNL A   1      35.600  23.648  25.745  1.00  0.00    -0.094 F 
ENDBRANCH  13  20
ENDBRANCH   4   6
ENDBRANCH   3   4
ENDBRANCH   2   3
ENDBRANCH   1   2
BRANCH   1  26
ATOM     26  O   UNL A   1      33.769  29.706  27.073  1.00  0.00    -0.458 OA
BRANCH  26  27
ATOM     27  C   UNL A   1      34.655  30.515  27.834  1.00  0.00     0.338 C 
ATOM     28  O   UNL A   1      34.311  31.692  28.168  1.00  0.00    -0.246 OA
BRANCH  27  29
ATOM     29  C   UNL A   1      36.014  29.974  28.247  1.00  0.00     0.060 A 
ATOM     30  C   UNL A   1      37.045  30.146  27.338  1.00  0.00     0.016 A 
ATOM     31  C   UNL A   1      36.239  29.481  29.458  1.00  0.00     0.016 A 
ATOM     32  C   UNL A   1      38.246  29.495  27.704  1.00  0.00     0.010 A 
ATOM     33  C   UNL A   1      37.476  28.984  29.793  1.00  0.00     0.010 A 
ATOM     34  C   UNL A   1      38.526  29.068  28.922  1.00  0.00    -0.014 A 
BRANCH  34  35
ATOM     35  C   UNL A   1      39.940  28.691  29.334  1.00  0.00     0.031 A 
ATOM     36  C   UNL A   1      40.729  29.607  30.032  1.00  0.00     0.074 A 
ATOM     37  C   UNL A   1      40.409  27.489  28.833  1.00  0.00     0.049 A 
ATOM     38  N   UNL A   1      42.016  29.485  30.364  1.00  0.00    -0.248 NA
ATOM     39  C   UNL A   1      40.242  30.899  30.536  1.00  0.00     0.031 C 
ATOM     40  C   UNL A   1      39.617  26.556  28.135  1.00  0.00     0.029 A 
ATOM     41  N   UNL A   1      41.688  26.982  28.910  1.00  0.00    -0.354 N 
ATOM     42  C   UNL A   1      42.419  30.559  31.046  1.00  0.00     0.074 A 
ATOM     43  C   UNL A   1      41.286  31.486  31.162  1.00  0.00     0.031 C 
ATOM     44  C   UNL A   1      40.408  25.508  27.786  1.00  0.00     0.029 A 
ATOM     45  C   UNL A   1      41.709  25.767  28.261  1.00  0.00     0.049 A 
ATOM     46  H   UNL A   1      42.453  27.413  29.352  1.00  0.00     0.167 HD
ATOM     47  C   UNL A   1      43.686  30.799  31.579  1.00  0.00     0.037 A 
ATOM     48  C   UNL A   1      42.791  24.920  28.081  1.00  0.00     0.037 A 
ATOM     49  C   UNL A   1      44.758  29.931  31.436  1.00  0.00     0.049 A 
ATOM     50  C   UNL A   1      44.073  25.187  28.564  1.00  0.00     0.074 A 
ATOM     51  C   UNL A   1      46.040  30.155  31.974  1.00  0.00     0.029 A 
ATOM     52  N   UNL A   1      44.785  28.728  30.766  1.00  0.00    -0.354 N 
ATOM     53  N   UNL A   1      44.466  26.242  29.280  1.00  0.00    -0.248 NA
ATOM     54  C   UNL A   1      45.234  24.313  28.351  1.00  0.00     0.031 C 
ATOM     55  C   UNL A   1      46.832  29.107  31.625  1.00  0.00     0.029 A 
ATOM     56  C   UNL A   1      46.058  28.211  30.862  1.00  0.00     0.049 A 
ATOM     57  H   UNL A   1      44.025  28.310  30.298  1.00  0.00     0.167 HD
ATOM     58  C   UNL A   1      45.764  26.140  29.575  1.00  0.00     0.074 A 
ATOM     59  C   UNL A   1      46.278  24.901  28.975  1.00  0.00     0.031 C 
ATOM     60  C   UNL A   1      46.539  27.028  30.323  1.00  0.00     0.037 A 
BRANCH  47  61
ATOM     61  C   UNL A   1      43.904  32.085  32.360  1.00  0.00     0.064 A 
ATOM     62  C   UNL A   1      44.246  33.294  31.776  1.00  0.00     0.173 A 
ATOM     63  C   UNL A   1      43.640  31.998  33.658  1.00  0.00     0.173 A 
ATOM     64  F   UNL A   1      44.269  33.482  30.459  1.00  0.00    -0.203 F 
ATOM     65  C   UNL A   1      44.568  34.310  32.707  1.00  0.00     0.198 A 
ATOM     66  C   UNL A   1      43.850  33.072  34.488  1.00  0.00     0.198 A 
ATOM     67  F   UNL A   1      43.169  30.859  34.160  1.00  0.00    -0.203 F 
ATOM     68  F   UNL A   1      45.243  35.366  32.262  1.00  0.00    -0.200 F 
ATOM     69  C   UNL A   1      44.245  34.282  33.987  1.00  0.00     0.200 A 
ATOM     70  F   UNL A   1      43.665  32.935  35.798  1.00  0.00    -0.200 F 
ATOM     71  F   UNL A   1      44.303  35.371  34.748  1.00  0.00    -0.200 F 
ENDBRANCH  47  61
BRANCH  48  72
ATOM     72  C   UNL A   1      42.568  23.627  27.314  1.00  0.00     0.064 A 
ATOM     73  C   UNL A   1      42.105  22.481  27.940  1.00  0.00     0.173 A 
ATOM     74  C   UNL A   1      42.966  23.607  26.047  1.00  0.00     0.173 A 
ATOM     75  F   UNL A   1      41.467  22.499  29.107  1.00  0.00    -0.203 F 
ATOM     76  C   UNL A   1      42.374  21.289  27.226  1.00  0.00     0.198 A 
ATOM     77  C   UNL A   1      43.076  22.417  25.367  1.00  0.00     0.198 A 
ATOM     78  F   UNL A   1      43.261  24.748  25.432  1.00  0.00    -0.203 F 
ATOM     79  F   UNL A   1      42.300  20.140  27.890  1.00  0.00    -0.200 F 
ATOM     80  C   UNL A   1      42.691  21.239  25.945  1.00  0.00     0.200 A 
ATOM     81  F   UNL A   1      43.561  22.414  24.130  1.00  0.00    -0.200 F 
ATOM     82  F   UNL A   1      42.642  20.103  25.254  1.00  0.00    -0.200 F 
ENDBRANCH  48  72
BRANCH  60  83
ATOM     83  C   UNL A   1      47.998  26.676  30.561  1.00  0.00     0.064 A 
ATOM     84  C   UNL A   1      48.907  27.218  29.669  1.00  0.00     0.173 A 
ATOM     85  C   UNL A   1      48.401  25.991  31.625  1.00  0.00     0.173 A 
ATOM     86  F   UNL A   1      48.570  28.112  28.744  1.00  0.00    -0.203 F 
ATOM     87  C   UNL A   1      50.227  26.733  29.829  1.00  0.00     0.198 A 
ATOM     88  C   UNL A   1      49.727  25.669  31.788  1.00  0.00     0.198 A 
ATOM     89  F   UNL A   1      47.514  25.614  32.542  1.00  0.00    -0.203 F 
ATOM     90  F   UNL A   1      51.076  26.906  28.821  1.00  0.00    -0.200 F 
ATOM     91  C   UNL A   1      50.674  26.121  30.911  1.00  0.00     0.200 A 
ATOM     92  F   UNL A   1      50.095  24.906  32.814  1.00  0.00    -0.200 F 
ATOM     93  F   UNL A   1      51.973  25.953  31.135  1.00  0.00    -0.200 F 
ENDBRANCH  60  83
ENDBRANCH  34  35
ENDBRANCH  27  29
ENDBRANCH  26  27
ENDBRANCH   1  26
TORSDOF 13
ENDMDL
MODEL 3
REMARK VINA RESULT:     -12.6      2.626      7.478
REMARK SMILES O=C(OCCOC(=O)c1ccc(-c2c3nc(c(-c4c(F)c(F)c(F)c(F)c4F)c4ccc([nH]4)c(-c4c(F)c(F)c(F)c(F)c4F)c4nc(c(-c5c(F)c(F)c(F)c(F)c5F)c5ccc2[nH]5)C=C4)C=C3)cc1)C1=Cc2cc(S(F)(F)(F)(F)F)ccc2O[C@H]1C(F)(F)F
REMARK SMILES IDX 5 1 4 2 3 3 2 4 1 5 72 6 73 7 87 8 74 9 86 10 75 11 85 12
REMARK SMILES IDX 76 13 84 14 83 15 88 16 89 17 90 18 91 19 77 20 78 21 79 22
REMARK SMILES IDX 80 23 81 24 82 25 6 26 7 27 8 28 9 29 10 30 71 31 11 32
REMARK SMILES IDX 70 33 12 34 13 35 14 36 64 37 15 38 69 39 63 40 65 41 16 42
REMARK SMILES IDX 68 43 62 44 61 45 17 47 49 48 29 49 48 50 30 51 33 52 47 53
REMARK SMILES IDX 66 54 31 55 32 56 46 58 67 59 34 60 18 61 19 62 27 63 20 64
REMARK SMILES IDX 21 65 25 66 28 67 22 68 23 69 26 70 24 71 50 72 51 73 59 74
REMARK SMILES IDX 52 75 53 76 57 77 60 78 54 79 55 80 58 81 56 82 35 83 36 84
REMARK SMILES IDX 44 85 37 86 38 87 42 88 45 89 39 90 40 91 43 92 41 93
REMARK H PARENT 65 46 33 57
REMARK Flexibility Score: inf
ROOT
ATOM      1  C   UNL A   1      37.172  21.458  24.361  1.00  0.00     0.275 C 
ENDROOT
BRANCH   1   2
ATOM      2  C   UNL A   1      36.449  22.741  23.985  1.00  0.00     0.275 C 
BRANCH   2   3
ATOM      3  O   UNL A   1      35.270  22.865  24.766  1.00  0.00    -0.459 OA
BRANCH   3   4
ATOM      4  C   UNL A   1      33.996  22.690  24.164  1.00  0.00     0.338 C 
ATOM      5  O   UNL A   1      33.904  22.543  22.905  1.00  0.00    -0.246 OA
BRANCH   4   6
ATOM      6  C   UNL A   1      32.743  22.678  25.024  1.00  0.00     0.087 C 
ATOM      7  C   UNL A   1      32.220  23.848  25.479  1.00  0.00     0.027 C 
ATOM      8  C   UNL A   1      32.075  21.359  25.376  1.00  0.00     0.316 C 
ATOM      9  C   UNL A   1      32.888  25.168  25.127  1.00  0.00     0.019 A 
ATOM     10  O   UNL A   1      33.353  24.346  22.945  1.00  0.00    -0.475 OA
ATOM     11  C   UNL A   1      32.962  26.141  26.109  1.00  0.00     0.036 A 
ATOM     12  C   UNL A   1      33.292  25.409  23.885  1.00  0.00     0.128 A 
ATOM     13  C   UNL A   1      33.211  27.442  25.609  1.00  0.00     0.107 A 
ATOM     14  C   UNL A   1      33.651  26.679  23.501  1.00  0.00     0.048 A 
ATOM     15  C   UNL A   1      33.689  27.703  24.406  1.00  0.00     0.028 A 
BRANCH   8  16
ATOM     16  C   UNL A   1      32.853  20.213  24.749  1.00  0.00     0.430 C 
ATOM     17  F   UNL A   1      34.141  20.312  25.066  1.00  0.00    -0.167 F 
ATOM     18  F   UNL A   1      32.368  19.066  25.214  1.00  0.00    -0.167 F 
ATOM     19  F   UNL A   1      32.717  20.249  23.426  1.00  0.00    -0.167 F 
ENDBRANCH   8  16
BRANCH  13  20
ATOM     20  S   UNL A   1      32.849  28.845  26.694  1.00  0.00     0.310 S 
ATOM     21  F   UNL A   1      32.187  27.907  27.788  1.00  0.00    -0.094 F 
ATOM     22  F   UNL A   1      31.426  28.953  26.025  1.00  0.00    -0.094 F 
ATOM     23  F   UNL A   1      32.534  30.050  27.625  1.00  0.00    -0.094 F 
ATOM     24  F   UNL A   1      34.221  28.632  27.446  1.00  0.00    -0.094 F 
ATOM     25  F   UNL A   1      33.136  27.550  25.834  1.00  0.00    -0.094 F 
ENDBRANCH  13  20
ENDBRANCH   4   6
ENDBRANCH   3   4
ENDBRANCH   2   3
ENDBRANCH   1   2
BRANCH   1  26
ATOM     26  O   UNL A   1      37.516  21.494  25.737  1.00  0.00    -0.458 OA
BRANCH  26  27
ATOM     27  C   UNL A   1      38.876  21.605  26.128  1.00  0.00     0.338 C 
ATOM     28  O   UNL A   1      39.653  20.605  26.014  1.00  0.00    -0.246 OA
BRANCH  27  29
ATOM     29  C   UNL A   1      39.404  22.919  26.682  1.00  0.00     0.060 A 
ATOM     30  C   UNL A   1      40.533  22.838  27.481  1.00  0.00     0.016 A 
ATOM     31  C   UNL A   1      38.898  24.091  26.321  1.00  0.00     0.016 A 
ATOM     32  C   UNL A   1      40.892  24.063  28.090  1.00  0.00     0.010 A 
ATOM     33  C   UNL A   1      39.389  25.259  26.855  1.00  0.00     0.010 A 
ATOM     34  C   UNL A   1      40.464  25.249  27.697  1.00  0.00    -0.014 A 
BRANCH  34  35
ATOM     35  C   UNL A   1      41.134  26.535  28.157  1.00  0.00     0.031 A 
ATOM     36  C   UNL A   1      40.377  27.528  28.781  1.00  0.00     0.074 A 
ATOM     37  C   UNL A   1      42.453  26.695  27.768  1.00  0.00     0.049 A 
ATOM     38  N   UNL A   1      40.776  28.751  29.137  1.00  0.00    -0.248 NA
ATOM     39  C   UNL A   1      38.967  27.371  29.164  1.00  0.00     0.031 C 
ATOM     40  C   UNL A   1      43.225  25.694  27.146  1.00  0.00     0.029 A 
ATOM     41  N   UNL A   1      43.244  27.814  27.905  1.00  0.00    -0.354 N 
ATOM     42  C   UNL A   1      39.776  29.408  29.727  1.00  0.00     0.074 A 
ATOM     43  C   UNL A   1      38.596  28.533  29.748  1.00  0.00     0.031 C 
ATOM     44  C   UNL A   1      44.459  26.206  26.899  1.00  0.00     0.029 A 
ATOM     45  C   UNL A   1      44.480  27.535  27.365  1.00  0.00     0.049 A 
ATOM     46  H   UNL A   1      42.973  28.665  28.316  1.00  0.00     0.167 HD
ATOM     47  C   UNL A   1      39.802  30.700  30.252  1.00  0.00     0.037 A 
ATOM     48  C   UNL A   1      45.575  28.379  27.272  1.00  0.00     0.037 A 
ATOM     49  C   UNL A   1      40.912  31.530  30.198  1.00  0.00     0.049 A 
ATOM     50  C   UNL A   1      45.584  29.693  27.744  1.00  0.00     0.074 A 
ATOM     51  C   UNL A   1      40.958  32.833  30.729  1.00  0.00     0.029 A 
ATOM     52  N   UNL A   1      42.140  31.259  29.637  1.00  0.00    -0.354 N 
ATOM     53  N   UNL A   1      44.597  30.335  28.371  1.00  0.00    -0.248 NA
ATOM     54  C   UNL A   1      46.728  30.606  27.622  1.00  0.00     0.031 C 
ATOM     55  C   UNL A   1      42.193  33.345  30.482  1.00  0.00     0.029 A 
ATOM     56  C   UNL A   1      42.938  32.370  29.792  1.00  0.00     0.049 A 
ATOM     57  H   UNL A   1      42.402  30.417  29.198  1.00  0.00     0.167 HD
ATOM     58  C   UNL A   1      44.982  31.573  28.688  1.00  0.00     0.074 A 
ATOM     59  C   UNL A   1      46.357  31.767  28.205  1.00  0.00     0.031 C 
ATOM     60  C   UNL A   1      44.245  32.546  29.364  1.00  0.00     0.037 A 
BRANCH  47  61
ATOM     61  C   UNL A   1      38.543  31.230  30.919  1.00  0.00     0.064 A 
ATOM     62  C   UNL A   1      37.491  31.811  30.231  1.00  0.00     0.173 A 
ATOM     63  C   UNL A   1      38.470  31.002  32.226  1.00  0.00     0.173 A 
ATOM     64  F   UNL A   1      37.413  31.826  28.904  1.00  0.00    -0.203 F 
ATOM     65  C   UNL A   1      36.506  32.387  31.069  1.00  0.00     0.198 A 
ATOM     66  C   UNL A   1      37.411  31.478  32.960  1.00  0.00     0.198 A 
ATOM     67  F   UNL A   1      39.431  30.308  32.829  1.00  0.00    -0.203 F 
ATOM     68  F   UNL A   1      35.667  33.264  30.525  1.00  0.00    -0.200 F 
ATOM     69  C   UNL A   1      36.364  32.115  32.353  1.00  0.00     0.200 A 
ATOM     70  F   UNL A   1      37.403  31.317  34.280  1.00  0.00    -0.200 F 
ATOM     71  F   UNL A   1      35.261  32.444  33.020  1.00  0.00    -0.200 F 
ENDBRANCH  47  61
BRANCH  48  72
ATOM     72  C   UNL A   1      46.839  27.843  26.619  1.00  0.00     0.064 A 
ATOM     73  C   UNL A   1      47.050  27.941  25.253  1.00  0.00     0.173 A 
ATOM     74  C   UNL A   1      47.669  27.156  27.396  1.00  0.00     0.173 A 
ATOM     75  F   UNL A   1      46.405  28.810  24.480  1.00  0.00    -0.203 F 
ATOM     76  C   UNL A   1      48.012  27.031  24.755  1.00  0.00     0.198 A 
ATOM     77  C   UNL A   1      48.673  26.395  26.848  1.00  0.00     0.198 A 
ATOM     78  F   UNL A   1      47.526  27.206  28.717  1.00  0.00    -0.203 F 
ATOM     79  F   UNL A   1      48.023  26.797  23.446  1.00  0.00    -0.200 F 
ATOM     80  C   UNL A   1      48.901  26.399  25.499  1.00  0.00     0.200 A 
ATOM     81  F   UNL A   1      49.434  25.647  27.640  1.00  0.00    -0.200 F 
ATOM     82  F   UNL A   1      49.960  25.796  24.966  1.00  0.00    -0.200 F 
ENDBRANCH  48  72
BRANCH  60  83
ATOM     83  C   UNL A   1      44.916  33.880  29.650  1.00  0.00     0.064 A 
ATOM     84  C   UNL A   1      44.736  34.867  28.695  1.00  0.00     0.173 A 
ATOM     85  C   UNL A   1      45.539  34.134  30.795  1.00  0.00     0.173 A 
ATOM     86  F   UNL A   1      43.912  34.733  27.661  1.00  0.00    -0.203 F 
ATOM     87  C   UNL A   1      45.510  36.030  28.920  1.00  0.00     0.198 A 
ATOM     88  C   UNL A   1      46.158  35.343  31.001  1.00  0.00     0.198 A 
ATOM     89  F   UNL A   1      45.564  33.209  31.751  1.00  0.00    -0.203 F 
ATOM     90  F   UNL A   1      45.684  36.865  27.900  1.00  0.00    -0.200 F 
ATOM     91  C   UNL A   1      46.071  36.345  30.074  1.00  0.00     0.200 A 
ATOM     92  F   UNL A   1      46.851  35.542  32.118  1.00  0.00    -0.200 F 
ATOM     93  F   UNL A   1      46.528  37.569  30.321  1.00  0.00    -0.200 F 
ENDBRANCH  60  83
ENDBRANCH  34  35
ENDBRANCH  27  29
ENDBRANCH  26  27
ENDBRANCH   1  26
TORSDOF 13
ENDMDL
