MODEL 1
REMARK VINA RESULT:     -12.1      0.000      0.000
REMARK SMILES O=C(CCC(=O)OCCOC(=O)c1ccc(-c2c3nc(c(-c4c(F)c(F)c(F)c(F)c4F)c4ccc([nH]4)c(-c4c(F)c(F)c(F)c(F)c4F)c4nc(c(-c5c(F)c(F)c(F)c(F)c5F)c5ccc2[nH]5)C=C4)C=C3)cc1)Nc1ccc2nc(-c3ccccc3)oc2c1
REMARK SMILES IDX 8 1 7 2 5 3 6 4 4 5 3 6 2 7 1 8 76 9 77 11 78 12 91 13 79 14
REMARK SMILES IDX 90 15 80 16 89 17 81 18 82 19 83 20 84 21 88 22 85 23 87 24
REMARK SMILES IDX 86 25 9 26 10 27 11 28 12 29 13 30 14 31 75 32 15 33 74 34
REMARK SMILES IDX 16 35 17 36 18 37 68 38 19 39 73 40 67 41 69 42 20 43 72 44
REMARK SMILES IDX 66 45 65 46 21 48 53 49 33 50 52 51 34 52 37 53 51 54 70 55
REMARK SMILES IDX 35 56 36 57 50 59 71 60 38 61 22 62 23 63 31 64 24 65 25 66
REMARK SMILES IDX 29 67 32 68 26 69 27 70 30 71 28 72 54 73 55 74 63 75 56 76
REMARK SMILES IDX 57 77 61 78 64 79 58 80 59 81 62 82 60 83 39 84 40 85 48 86
REMARK SMILES IDX 41 87 42 88 46 89 49 90 43 91 44 92 47 93 45 94
REMARK H PARENT 76 10 69 47 37 58
REMARK Flexibility Score: inf
ROOT
ATOM      1  C   UNL A   1      45.233  21.312  24.831  1.00  0.00     0.274 C 
ENDROOT
BRANCH   1   2
ATOM      2  O   UNL A   1      44.491  20.211  24.248  1.00  0.00    -0.462 OA
BRANCH   2   3
ATOM      3  C   UNL A   1      44.149  19.172  25.056  1.00  0.00     0.306 C 
ATOM      4  O   UNL A   1      44.870  18.208  25.280  1.00  0.00    -0.252 OA
BRANCH   3   5
ATOM      5  C   UNL A   1      42.731  19.291  25.593  1.00  0.00     0.132 C 
BRANCH   5   6
ATOM      6  C   UNL A   1      42.567  19.896  26.991  1.00  0.00     0.112 C 
BRANCH   6   7
ATOM      7  C   UNL A   1      41.217  20.578  27.190  1.00  0.00     0.224 C 
ATOM      8  O   UNL A   1      40.778  20.837  28.305  1.00  0.00    -0.275 OA
ATOM      9  N   UNL A   1      40.571  20.780  25.996  1.00  0.00    -0.326 N 
ATOM     10  H   UNL A   1      41.113  20.631  25.188  1.00  0.00     0.169 HD
BRANCH   9  11
ATOM     11  C   UNL A   1      39.242  21.169  25.770  1.00  0.00     0.045 A 
ATOM     12  C   UNL A   1      38.429  20.148  25.246  1.00  0.00     0.028 A 
ATOM     13  C   UNL A   1      38.724  22.443  26.045  1.00  0.00     0.075 A 
ATOM     14  C   UNL A   1      37.074  20.332  25.001  1.00  0.00     0.034 A 
ATOM     15  C   UNL A   1      37.368  22.604  25.747  1.00  0.00     0.157 A 
ATOM     16  C   UNL A   1      36.552  21.594  25.258  1.00  0.00     0.110 A 
ATOM     17  O   UNL A   1      36.579  23.725  25.887  1.00  0.00    -0.436 OA
ATOM     18  N   UNL A   1      35.275  22.027  25.122  1.00  0.00    -0.209 NA
ATOM     19  C   UNL A   1      35.333  23.284  25.511  1.00  0.00     0.227 A 
BRANCH  19  20
ATOM     20  C   UNL A   1      34.192  24.162  25.686  1.00  0.00     0.037 A 
ATOM     21  C   UNL A   1      33.000  23.747  26.287  1.00  0.00     0.014 A 
ATOM     22  C   UNL A   1      34.360  25.517  25.356  1.00  0.00     0.014 A 
ATOM     23  C   UNL A   1      32.006  24.688  26.574  1.00  0.00     0.001 A 
ATOM     24  C   UNL A   1      33.363  26.450  25.629  1.00  0.00     0.001 A 
ATOM     25  C   UNL A   1      32.189  26.035  26.249  1.00  0.00     0.000 A 
ENDBRANCH  19  20
ENDBRANCH   9  11
ENDBRANCH   6   7
ENDBRANCH   5   6
ENDBRANCH   3   5
ENDBRANCH   2   3
ENDBRANCH   1   2
BRANCH   1  26
ATOM     26  C   UNL A   1      45.068  22.588  23.999  1.00  0.00     0.275 C 
BRANCH  26  27
ATOM     27  O   UNL A   1      44.544  23.645  24.818  1.00  0.00    -0.458 OA
BRANCH  27  28
ATOM     28  C   UNL A   1      43.234  23.524  25.128  1.00  0.00     0.338 C 
ATOM     29  O   UNL A   1      42.452  22.695  24.701  1.00  0.00    -0.246 OA
BRANCH  28  30
ATOM     30  C   UNL A   1      42.927  24.451  26.225  1.00  0.00     0.060 A 
ATOM     31  C   UNL A   1      42.005  24.050  27.198  1.00  0.00     0.016 A 
ATOM     32  C   UNL A   1      43.529  25.708  26.283  1.00  0.00     0.016 A 
ATOM     33  C   UNL A   1      41.679  24.911  28.240  1.00  0.00     0.010 A 
ATOM     34  C   UNL A   1      43.200  26.570  27.328  1.00  0.00     0.010 A 
ATOM     35  C   UNL A   1      42.267  26.180  28.306  1.00  0.00    -0.014 A 
BRANCH  35  36
ATOM     36  C   UNL A   1      41.863  27.133  29.364  1.00  0.00     0.031 A 
ATOM     37  C   UNL A   1      42.627  27.163  30.654  1.00  0.00     0.074 A 
ATOM     38  C   UNL A   1      40.817  27.954  29.165  1.00  0.00     0.049 A 
ATOM     39  N   UNL A   1      42.378  27.835  31.749  1.00  0.00    -0.248 NA
ATOM     40  C   UNL A   1      43.829  26.317  30.725  1.00  0.00     0.031 C 
ATOM     41  C   UNL A   1      40.026  28.034  27.936  1.00  0.00     0.029 A 
ATOM     42  N   UNL A   1      40.231  28.870  30.002  1.00  0.00    -0.354 N 
ATOM     43  C   UNL A   1      43.383  27.485  32.641  1.00  0.00     0.074 A 
ATOM     44  C   UNL A   1      44.229  26.521  31.972  1.00  0.00     0.031 C 
ATOM     45  C   UNL A   1      39.052  28.942  28.103  1.00  0.00     0.029 A 
ATOM     46  C   UNL A   1      39.122  29.473  29.462  1.00  0.00     0.049 A 
ATOM     47  H   UNL A   1      40.573  29.076  30.902  1.00  0.00     0.167 HD
ATOM     48  C   UNL A   1      43.582  27.938  33.901  1.00  0.00     0.037 A 
ATOM     49  C   UNL A   1      38.246  30.332  30.018  1.00  0.00     0.037 A 
ATOM     50  C   UNL A   1      42.737  28.903  34.555  1.00  0.00     0.049 A 
ATOM     51  C   UNL A   1      38.456  30.769  31.444  1.00  0.00     0.074 A 
ATOM     52  C   UNL A   1      42.854  29.431  35.828  1.00  0.00     0.029 A 
ATOM     53  N   UNL A   1      41.616  29.486  33.981  1.00  0.00    -0.354 N 
ATOM     54  N   UNL A   1      39.412  30.441  32.280  1.00  0.00    -0.248 NA
ATOM     55  C   UNL A   1      37.464  31.696  32.006  1.00  0.00     0.031 C 
ATOM     56  C   UNL A   1      41.778  30.298  36.041  1.00  0.00     0.029 A 
ATOM     57  C   UNL A   1      41.023  30.355  34.881  1.00  0.00     0.049 A 
ATOM     58  H   UNL A   1      41.291  29.308  33.069  1.00  0.00     0.167 HD
ATOM     59  C   UNL A   1      39.157  31.144  33.449  1.00  0.00     0.074 A 
ATOM     60  C   UNL A   1      37.963  31.929  33.210  1.00  0.00     0.031 C 
ATOM     61  C   UNL A   1      39.845  31.141  34.617  1.00  0.00     0.037 A 
BRANCH  48  62
ATOM     62  C   UNL A   1      44.749  27.385  34.665  1.00  0.00     0.064 A 
ATOM     63  C   UNL A   1      44.627  26.241  35.467  1.00  0.00     0.173 A 
ATOM     64  C   UNL A   1      46.016  27.976  34.551  1.00  0.00     0.173 A 
ATOM     65  F   UNL A   1      43.434  25.647  35.622  1.00  0.00    -0.203 F 
ATOM     66  C   UNL A   1      45.728  25.718  36.142  1.00  0.00     0.198 A 
ATOM     67  C   UNL A   1      47.121  27.435  35.204  1.00  0.00     0.198 A 
ATOM     68  F   UNL A   1      46.187  29.070  33.795  1.00  0.00    -0.203 F 
ATOM     69  F   UNL A   1      45.582  24.647  36.933  1.00  0.00    -0.200 F 
ATOM     70  C   UNL A   1      46.975  26.311  36.002  1.00  0.00     0.200 A 
ATOM     71  F   UNL A   1      48.327  28.001  35.058  1.00  0.00    -0.200 F 
ATOM     72  F   UNL A   1      48.037  25.799  36.641  1.00  0.00    -0.200 F 
ENDBRANCH  48  62
BRANCH  49  73
ATOM     73  C   UNL A   1      37.077  30.819  29.238  1.00  0.00     0.064 A 
ATOM     74  C   UNL A   1      36.009  29.966  28.926  1.00  0.00     0.173 A 
ATOM     75  C   UNL A   1      37.019  32.136  28.759  1.00  0.00     0.173 A 
ATOM     76  F   UNL A   1      36.028  28.690  29.340  1.00  0.00    -0.203 F 
ATOM     77  C   UNL A   1      34.944  30.401  28.140  1.00  0.00     0.198 A 
ATOM     78  C   UNL A   1      35.938  32.580  28.001  1.00  0.00     0.198 A 
ATOM     79  F   UNL A   1      38.014  32.994  29.028  1.00  0.00    -0.203 F 
ATOM     80  F   UNL A   1      33.968  29.546  27.806  1.00  0.00    -0.200 F 
ATOM     81  C   UNL A   1      34.907  31.709  27.682  1.00  0.00     0.200 A 
ATOM     82  F   UNL A   1      35.900  33.848  27.571  1.00  0.00    -0.200 F 
ATOM     83  F   UNL A   1      33.886  32.127  26.922  1.00  0.00    -0.200 F 
ENDBRANCH  49  73
BRANCH  61  84
ATOM     84  C   UNL A   1      39.356  32.051  35.706  1.00  0.00     0.064 A 
ATOM     85  C   UNL A   1      39.768  33.389  35.790  1.00  0.00     0.173 A 
ATOM     86  C   UNL A   1      38.431  31.587  36.654  1.00  0.00     0.173 A 
ATOM     87  F   UNL A   1      40.662  33.878  34.916  1.00  0.00    -0.203 F 
ATOM     88  C   UNL A   1      39.293  34.221  36.801  1.00  0.00     0.198 A 
ATOM     89  C   UNL A   1      37.935  32.429  37.644  1.00  0.00     0.198 A 
ATOM     90  F   UNL A   1      38.000  30.318  36.612  1.00  0.00    -0.203 F 
ATOM     91  F   UNL A   1      39.739  35.481  36.894  1.00  0.00    -0.200 F 
ATOM     92  C   UNL A   1      38.373  33.742  37.722  1.00  0.00     0.200 A 
ATOM     93  F   UNL A   1      37.034  31.971  38.522  1.00  0.00    -0.200 F 
ATOM     94  F   UNL A   1      37.911  34.547  38.689  1.00  0.00    -0.200 F 
ENDBRANCH  61  84
ENDBRANCH  35  36
ENDBRANCH  28  30
ENDBRANCH  27  28
ENDBRANCH  26  27
ENDBRANCH   1  26
TORSDOF 15
ENDMDL
MODEL 2
REMARK VINA RESULT:     -11.9      1.346      2.727
REMARK SMILES O=C(CCC(=O)OCCOC(=O)c1ccc(-c2c3nc(c(-c4c(F)c(F)c(F)c(F)c4F)c4ccc([nH]4)c(-c4c(F)c(F)c(F)c(F)c4F)c4nc(c(-c5c(F)c(F)c(F)c(F)c5F)c5ccc2[nH]5)C=C4)C=C3)cc1)Nc1ccc2nc(-c3ccccc3)oc2c1
REMARK SMILES IDX 8 1 7 2 5 3 6 4 4 5 3 6 2 7 1 8 76 9 77 11 78 12 91 13 79 14
REMARK SMILES IDX 90 15 80 16 89 17 81 18 82 19 83 20 84 21 88 22 85 23 87 24
REMARK SMILES IDX 86 25 9 26 10 27 11 28 12 29 13 30 14 31 75 32 15 33 74 34
REMARK SMILES IDX 16 35 17 36 18 37 68 38 19 39 73 40 67 41 69 42 20 43 72 44
REMARK SMILES IDX 66 45 65 46 21 48 53 49 33 50 52 51 34 52 37 53 51 54 70 55
REMARK SMILES IDX 35 56 36 57 50 59 71 60 38 61 22 62 23 63 31 64 24 65 25 66
REMARK SMILES IDX 29 67 32 68 26 69 27 70 30 71 28 72 54 73 55 74 63 75 56 76
REMARK SMILES IDX 57 77 61 78 64 79 58 80 59 81 62 82 60 83 39 84 40 85 48 86
REMARK SMILES IDX 41 87 42 88 46 89 49 90 43 91 44 92 47 93 45 94
REMARK H PARENT 76 10 69 47 37 58
REMARK Flexibility Score: inf
ROOT
ATOM      1  C   UNL A   1      42.831  20.537  26.204  1.00  0.00     0.274 C 
ENDROOT
BRANCH   1   2
ATOM      2  O   UNL A   1      41.836  19.876  25.380  1.00  0.00    -0.462 OA
BRANCH   2   3
ATOM      3  C   UNL A   1      40.575  19.757  25.874  1.00  0.00     0.306 C 
ATOM      4  O   UNL A   1      39.826  18.820  25.631  1.00  0.00    -0.252 OA
BRANCH   3   5
ATOM      5  C   UNL A   1      40.154  20.964  26.700  1.00  0.00     0.132 C 
BRANCH   5   6
ATOM      6  C   UNL A   1      39.593  22.167  25.935  1.00  0.00     0.112 C 
BRANCH   6   7
ATOM      7  C   UNL A   1      38.094  22.061  25.676  1.00  0.00     0.224 C 
ATOM      8  O   UNL A   1      37.621  21.202  24.941  1.00  0.00    -0.275 OA
ATOM      9  N   UNL A   1      37.400  23.067  26.301  1.00  0.00    -0.326 N 
ATOM     10  H   UNL A   1      37.913  23.597  26.953  1.00  0.00     0.169 HD
BRANCH   9  11
ATOM     11  C   UNL A   1      36.059  23.444  26.136  1.00  0.00     0.045 A 
ATOM     12  C   UNL A   1      35.158  22.713  26.932  1.00  0.00     0.028 A 
ATOM     13  C   UNL A   1      35.614  24.463  25.282  1.00  0.00     0.075 A 
ATOM     14  C   UNL A   1      33.794  22.975  26.938  1.00  0.00     0.034 A 
ATOM     15  C   UNL A   1      34.232  24.671  25.283  1.00  0.00     0.157 A 
ATOM     16  C   UNL A   1      33.339  23.975  26.086  1.00  0.00     0.110 A 
ATOM     17  O   UNL A   1      33.492  25.575  24.552  1.00  0.00    -0.436 OA
ATOM     18  N   UNL A   1      32.075  24.433  25.915  1.00  0.00    -0.209 NA
ATOM     19  C   UNL A   1      32.211  25.380  25.010  1.00  0.00     0.227 A 
BRANCH  19  20
ATOM     20  C   UNL A   1      31.162  26.283  24.577  1.00  0.00     0.037 A 
ATOM     21  C   UNL A   1      31.391  27.631  24.289  1.00  0.00     0.014 A 
ATOM     22  C   UNL A   1      29.899  25.728  24.308  1.00  0.00     0.014 A 
ATOM     23  C   UNL A   1      30.372  28.400  23.716  1.00  0.00     0.001 A 
ATOM     24  C   UNL A   1      28.882  26.498  23.753  1.00  0.00     0.001 A 
ATOM     25  C   UNL A   1      29.124  27.834  23.446  1.00  0.00     0.000 A 
ENDBRANCH  19  20
ENDBRANCH   9  11
ENDBRANCH   6   7
ENDBRANCH   5   6
ENDBRANCH   3   5
ENDBRANCH   2   3
ENDBRANCH   1   2
BRANCH   1  26
ATOM     26  C   UNL A   1      43.695  21.485  25.367  1.00  0.00     0.275 C 
BRANCH  26  27
ATOM     27  O   UNL A   1      42.974  22.697  25.095  1.00  0.00    -0.458 OA
BRANCH  27  28
ATOM     28  C   UNL A   1      43.732  23.816  25.087  1.00  0.00     0.338 C 
ATOM     29  O   UNL A   1      44.593  24.114  24.281  1.00  0.00    -0.246 OA
BRANCH  28  30
ATOM     30  C   UNL A   1      43.226  24.730  26.119  1.00  0.00     0.060 A 
ATOM     31  C   UNL A   1      43.725  26.036  26.156  1.00  0.00     0.016 A 
ATOM     32  C   UNL A   1      42.280  24.298  27.049  1.00  0.00     0.016 A 
ATOM     33  C   UNL A   1      43.280  26.922  27.131  1.00  0.00     0.010 A 
ATOM     34  C   UNL A   1      41.834  25.187  28.027  1.00  0.00     0.010 A 
ATOM     35  C   UNL A   1      42.339  26.499  28.078  1.00  0.00    -0.014 A 
BRANCH  35  36
ATOM     36  C   UNL A   1      41.921  27.409  29.169  1.00  0.00     0.031 A 
ATOM     37  C   UNL A   1      42.679  27.398  30.463  1.00  0.00     0.074 A 
ATOM     38  C   UNL A   1      40.869  28.228  28.995  1.00  0.00     0.049 A 
ATOM     39  N   UNL A   1      42.420  28.027  31.581  1.00  0.00    -0.248 NA
ATOM     40  C   UNL A   1      43.889  26.561  30.509  1.00  0.00     0.031 C 
ATOM     41  C   UNL A   1      40.083  28.346  27.767  1.00  0.00     0.029 A 
ATOM     42  N   UNL A   1      40.271  29.107  29.863  1.00  0.00    -0.354 N 
ATOM     43  C   UNL A   1      43.423  27.653  32.464  1.00  0.00     0.074 A 
ATOM     44  C   UNL A   1      44.281  26.722  31.764  1.00  0.00     0.031 C 
ATOM     45  C   UNL A   1      39.100  29.239  27.962  1.00  0.00     0.029 A 
ATOM     46  C   UNL A   1      39.159  29.720  29.340  1.00  0.00     0.049 A 
ATOM     47  H   UNL A   1      40.607  29.282  30.772  1.00  0.00     0.167 HD
ATOM     48  C   UNL A   1      43.612  28.061  33.741  1.00  0.00     0.037 A 
ATOM     49  C   UNL A   1      38.273  30.549  29.923  1.00  0.00     0.037 A 
ATOM     50  C   UNL A   1      42.756  28.993  34.426  1.00  0.00     0.049 A 
ATOM     51  C   UNL A   1      38.472  30.935  31.366  1.00  0.00     0.074 A 
ATOM     52  C   UNL A   1      42.862  29.475  35.719  1.00  0.00     0.029 A 
ATOM     53  N   UNL A   1      41.632  29.588  33.869  1.00  0.00    -0.354 N 
ATOM     54  N   UNL A   1      39.427  30.585  32.193  1.00  0.00    -0.248 NA
ATOM     55  C   UNL A   1      37.470  31.832  31.956  1.00  0.00     0.031 C 
ATOM     56  C   UNL A   1      41.778  30.324  35.959  1.00  0.00     0.029 A 
ATOM     57  C   UNL A   1      41.027  30.417  34.798  1.00  0.00     0.049 A 
ATOM     58  H   UNL A   1      41.313  29.440  32.949  1.00  0.00     0.167 HD
ATOM     59  C   UNL A   1      39.161  31.242  33.386  1.00  0.00     0.074 A 
ATOM     60  C   UNL A   1      37.961  32.024  33.171  1.00  0.00     0.031 C 
ATOM     61  C   UNL A   1      39.844  31.202  34.556  1.00  0.00     0.037 A 
BRANCH  48  62
ATOM     62  C   UNL A   1      44.781  27.490  34.490  1.00  0.00     0.064 A 
ATOM     63  C   UNL A   1      44.677  26.295  35.216  1.00  0.00     0.173 A 
ATOM     64  C   UNL A   1      46.034  28.120  34.437  1.00  0.00     0.173 A 
ATOM     65  F   UNL A   1      43.497  25.662  35.311  1.00  0.00    -0.203 F 
ATOM     66  C   UNL A   1      45.780  25.759  35.876  1.00  0.00     0.198 A 
ATOM     67  C   UNL A   1      47.141  27.566  35.074  1.00  0.00     0.198 A 
ATOM     68  F   UNL A   1      46.188  29.264  33.754  1.00  0.00    -0.203 F 
ATOM     69  F   UNL A   1      45.649  24.636  36.595  1.00  0.00    -0.200 F 
ATOM     70  C   UNL A   1      47.012  26.390  35.796  1.00  0.00     0.200 A 
ATOM     71  F   UNL A   1      48.334  28.172  34.986  1.00  0.00    -0.200 F 
ATOM     72  F   UNL A   1      48.077  25.867  36.421  1.00  0.00    -0.200 F 
ENDBRANCH  48  62
BRANCH  49  73
ATOM     73  C   UNL A   1      37.103  31.055  29.157  1.00  0.00     0.064 A 
ATOM     74  C   UNL A   1      37.046  32.385  28.717  1.00  0.00     0.173 A 
ATOM     75  C   UNL A   1      36.002  30.230  28.879  1.00  0.00     0.173 A 
ATOM     76  F   UNL A   1      38.062  33.220  28.979  1.00  0.00    -0.203 F 
ATOM     77  C   UNL A   1      35.922  32.878  28.057  1.00  0.00     0.198 A 
ATOM     78  C   UNL A   1      34.894  30.715  28.189  1.00  0.00     0.198 A 
ATOM     79  F   UNL A   1      36.005  28.949  29.277  1.00  0.00    -0.203 F 
ATOM     80  F   UNL A   1      35.870  34.169  27.703  1.00  0.00    -0.200 F 
ATOM     81  C   UNL A   1      34.849  32.042  27.789  1.00  0.00     0.200 A 
ATOM     82  F   UNL A   1      33.865  29.900  27.922  1.00  0.00    -0.200 F 
ATOM     83  F   UNL A   1      33.767  32.517  27.159  1.00  0.00    -0.200 F 
ENDBRANCH  49  73
BRANCH  61  84
ATOM     84  C   UNL A   1      39.341  32.067  35.676  1.00  0.00     0.064 A 
ATOM     85  C   UNL A   1      38.434  31.585  36.630  1.00  0.00     0.173 A 
ATOM     86  C   UNL A   1      39.808  33.383  35.817  1.00  0.00     0.173 A 
ATOM     87  F   UNL A   1      37.947  30.338  36.532  1.00  0.00    -0.203 F 
ATOM     88  C   UNL A   1      37.989  32.399  37.669  1.00  0.00     0.198 A 
ATOM     89  C   UNL A   1      39.385  34.183  36.874  1.00  0.00     0.198 A 
ATOM     90  F   UNL A   1      40.683  33.888  34.936  1.00  0.00    -0.203 F 
ATOM     91  F   UNL A   1      37.083  31.935  38.540  1.00  0.00    -0.200 F 
ATOM     92  C   UNL A   1      38.470  33.694  37.794  1.00  0.00     0.200 A 
ATOM     93  F   UNL A   1      39.863  35.428  37.003  1.00  0.00    -0.200 F 
ATOM     94  F   UNL A   1      38.047  34.473  38.799  1.00  0.00    -0.200 F 
ENDBRANCH  61  84
ENDBRANCH  35  36
ENDBRANCH  28  30
ENDBRANCH  27  28
ENDBRANCH  26  27
ENDBRANCH   1  26
TORSDOF 15
ENDMDL
MODEL 3
REMARK VINA RESULT:     -11.9      3.784      9.242
REMARK SMILES O=C(CCC(=O)OCCOC(=O)c1ccc(-c2c3nc(c(-c4c(F)c(F)c(F)c(F)c4F)c4ccc([nH]4)c(-c4c(F)c(F)c(F)c(F)c4F)c4nc(c(-c5c(F)c(F)c(F)c(F)c5F)c5ccc2[nH]5)C=C4)C=C3)cc1)Nc1ccc2nc(-c3ccccc3)oc2c1
REMARK SMILES IDX 8 1 7 2 5 3 6 4 4 5 3 6 2 7 1 8 76 9 77 11 78 12 91 13 79 14
REMARK SMILES IDX 90 15 80 16 89 17 81 18 82 19 83 20 84 21 88 22 85 23 87 24
REMARK SMILES IDX 86 25 9 26 10 27 11 28 12 29 13 30 14 31 75 32 15 33 74 34
REMARK SMILES IDX 16 35 17 36 18 37 68 38 19 39 73 40 67 41 69 42 20 43 72 44
REMARK SMILES IDX 66 45 65 46 21 48 53 49 33 50 52 51 34 52 37 53 51 54 70 55
REMARK SMILES IDX 35 56 36 57 50 59 71 60 38 61 22 62 23 63 31 64 24 65 25 66
REMARK SMILES IDX 29 67 32 68 26 69 27 70 30 71 28 72 54 73 55 74 63 75 56 76
REMARK SMILES IDX 57 77 61 78 64 79 58 80 59 81 62 82 60 83 39 84 40 85 48 86
REMARK SMILES IDX 41 87 42 88 46 89 49 90 43 91 44 92 47 93 45 94
REMARK H PARENT 76 10 69 47 37 58
REMARK Flexibility Score: inf
ROOT
ATOM      1  C   UNL A   1      31.331  29.368  24.887  1.00  0.00     0.274 C 
ENDROOT
BRANCH   1   2
ATOM      2  O   UNL A   1      30.355  29.698  23.866  1.00  0.00    -0.462 OA
BRANCH   2   3
ATOM      3  C   UNL A   1      30.590  29.271  22.597  1.00  0.00     0.306 C 
ATOM      4  O   UNL A   1      29.938  29.619  21.621  1.00  0.00    -0.252 OA
BRANCH   3   5
ATOM      5  C   UNL A   1      31.706  28.239  22.524  1.00  0.00     0.132 C 
BRANCH   5   6
ATOM      6  C   UNL A   1      31.392  26.928  21.795  1.00  0.00     0.112 C 
BRANCH   6   7
ATOM      7  C   UNL A   1      32.447  25.851  22.028  1.00  0.00     0.224 C 
ATOM      8  O   UNL A   1      33.379  25.677  21.251  1.00  0.00    -0.275 OA
ATOM      9  N   UNL A   1      32.165  25.099  23.141  1.00  0.00    -0.326 N 
ATOM     10  H   UNL A   1      31.452  25.449  23.722  1.00  0.00     0.169 HD
BRANCH   9  11
ATOM     11  C   UNL A   1      32.755  23.898  23.563  1.00  0.00     0.045 A 
ATOM     12  C   UNL A   1      33.998  24.065  24.201  1.00  0.00     0.028 A 
ATOM     13  C   UNL A   1      32.185  22.627  23.401  1.00  0.00     0.075 A 
ATOM     14  C   UNL A   1      34.711  22.995  24.726  1.00  0.00     0.034 A 
ATOM     15  C   UNL A   1      32.949  21.571  23.906  1.00  0.00     0.157 A 
ATOM     16  C   UNL A   1      34.162  21.729  24.562  1.00  0.00     0.110 A 
ATOM     17  O   UNL A   1      32.676  20.220  23.888  1.00  0.00    -0.436 OA
ATOM     18  N   UNL A   1      34.640  20.535  24.990  1.00  0.00    -0.209 NA
ATOM     19  C   UNL A   1      33.731  19.675  24.580  1.00  0.00     0.227 A 
BRANCH  19  20
ATOM     20  C   UNL A   1      33.704  18.263  24.910  1.00  0.00     0.037 A 
ATOM     21  C   UNL A   1      32.634  17.659  25.575  1.00  0.00     0.014 A 
ATOM     22  C   UNL A   1      34.743  17.461  24.409  1.00  0.00     0.014 A 
ATOM     23  C   UNL A   1      32.599  16.267  25.710  1.00  0.00     0.001 A 
ATOM     24  C   UNL A   1      34.715  16.077  24.558  1.00  0.00     0.001 A 
ATOM     25  C   UNL A   1      33.635  15.480  25.200  1.00  0.00     0.000 A 
ENDBRANCH  19  20
ENDBRANCH   9  11
ENDBRANCH   6   7
ENDBRANCH   5   6
ENDBRANCH   3   5
ENDBRANCH   2   3
ENDBRANCH   1   2
BRANCH   1  26
ATOM     26  C   UNL A   1      31.591  30.566  25.806  1.00  0.00     0.275 C 
BRANCH  26  27
ATOM     27  O   UNL A   1      32.905  30.471  26.377  1.00  0.00    -0.458 OA
BRANCH  27  28
ATOM     28  C   UNL A   1      33.307  31.570  27.055  1.00  0.00     0.338 C 
ATOM     29  O   UNL A   1      32.683  32.602  27.216  1.00  0.00    -0.246 OA
BRANCH  28  30
ATOM     30  C   UNL A   1      34.567  31.259  27.743  1.00  0.00     0.060 A 
ATOM     31  C   UNL A   1      34.797  29.940  28.148  1.00  0.00     0.016 A 
ATOM     32  C   UNL A   1      35.504  32.261  27.997  1.00  0.00     0.016 A 
ATOM     33  C   UNL A   1      35.972  29.616  28.816  1.00  0.00     0.010 A 
ATOM     34  C   UNL A   1      36.681  31.934  28.668  1.00  0.00     0.010 A 
ATOM     35  C   UNL A   1      36.917  30.613  29.089  1.00  0.00    -0.014 A 
BRANCH  35  36
ATOM     36  C   UNL A   1      38.132  30.292  29.873  1.00  0.00     0.031 A 
ATOM     37  C   UNL A   1      39.158  29.367  29.289  1.00  0.00     0.074 A 
ATOM     38  C   UNL A   1      38.301  30.824  31.096  1.00  0.00     0.049 A 
ATOM     39  N   UNL A   1      40.234  28.868  29.842  1.00  0.00    -0.248 NA
ATOM     40  C   UNL A   1      38.941  28.941  27.897  1.00  0.00     0.031 C 
ATOM     41  C   UNL A   1      37.385  31.761  31.745  1.00  0.00     0.029 A 
ATOM     42  N   UNL A   1      39.301  30.637  32.018  1.00  0.00    -0.354 N 
ATOM     43  C   UNL A   1      40.814  28.061  28.873  1.00  0.00     0.074 A 
ATOM     44  C   UNL A   1      39.959  28.114  27.707  1.00  0.00     0.031 C 
ATOM     45  C   UNL A   1      37.860  32.061  32.965  1.00  0.00     0.029 A 
ATOM     46  C   UNL A   1      39.086  31.303  33.199  1.00  0.00     0.049 A 
ATOM     47  H   UNL A   1      40.095  30.080  31.848  1.00  0.00     0.167 HD
ATOM     48  C   UNL A   1      41.962  27.349  28.951  1.00  0.00     0.037 A 
ATOM     49  C   UNL A   1      39.786  31.274  34.349  1.00  0.00     0.037 A 
ATOM     50  C   UNL A   1      42.809  27.309  30.114  1.00  0.00     0.049 A 
ATOM     51  C   UNL A   1      41.026  30.421  34.429  1.00  0.00     0.074 A 
ATOM     52  C   UNL A   1      43.997  26.622  30.295  1.00  0.00     0.029 A 
ATOM     53  N   UNL A   1      42.556  27.989  31.298  1.00  0.00    -0.354 N 
ATOM     54  N   UNL A   1      41.574  29.667  33.507  1.00  0.00    -0.248 NA
ATOM     55  C   UNL A   1      41.745  30.416  35.710  1.00  0.00     0.031 C 
ATOM     56  C   UNL A   1      44.438  26.849  31.602  1.00  0.00     0.029 A 
ATOM     57  C   UNL A   1      43.556  27.723  32.218  1.00  0.00     0.049 A 
ATOM     58  H   UNL A   1      41.780  28.573  31.458  1.00  0.00     0.167 HD
ATOM     59  C   UNL A   1      42.715  29.127  34.084  1.00  0.00     0.074 A 
ATOM     60  C   UNL A   1      42.789  29.651  35.432  1.00  0.00     0.031 C 
ATOM     61  C   UNL A   1      43.620  28.271  33.549  1.00  0.00     0.037 A 
BRANCH  48  62
ATOM     62  C   UNL A   1      42.366  26.541  27.753  1.00  0.00     0.064 A 
ATOM     63  C   UNL A   1      43.329  27.003  26.844  1.00  0.00     0.173 A 
ATOM     64  C   UNL A   1      41.821  25.265  27.541  1.00  0.00     0.173 A 
ATOM     65  F   UNL A   1      43.869  28.222  26.993  1.00  0.00    -0.203 F 
ATOM     66  C   UNL A   1      43.719  26.226  25.757  1.00  0.00     0.198 A 
ATOM     67  C   UNL A   1      42.234  24.479  26.468  1.00  0.00     0.198 A 
ATOM     68  F   UNL A   1      40.898  24.775  28.382  1.00  0.00    -0.203 F 
ATOM     69  F   UNL A   1      44.613  26.702  24.880  1.00  0.00    -0.200 F 
ATOM     70  C   UNL A   1      43.178  24.961  25.576  1.00  0.00     0.200 A 
ATOM     71  F   UNL A   1      41.719  23.253  26.302  1.00  0.00    -0.200 F 
ATOM     72  F   UNL A   1      43.565  24.208  24.536  1.00  0.00    -0.200 F 
ENDBRANCH  48  62
BRANCH  49  73
ATOM     73  C   UNL A   1      39.324  32.055  35.527  1.00  0.00     0.064 A 
ATOM     74  C   UNL A   1      39.800  33.352  35.768  1.00  0.00     0.173 A 
ATOM     75  C   UNL A   1      38.426  31.509  36.457  1.00  0.00     0.173 A 
ATOM     76  F   UNL A   1      40.680  33.909  34.922  1.00  0.00    -0.203 F 
ATOM     77  C   UNL A   1      39.420  34.060  36.907  1.00  0.00     0.198 A 
ATOM     78  C   UNL A   1      38.021  32.231  37.577  1.00  0.00     0.198 A 
ATOM     79  F   UNL A   1      37.940  30.273  36.275  1.00  0.00    -0.203 F 
ATOM     80  F   UNL A   1      39.939  35.272  37.142  1.00  0.00    -0.200 F 
ATOM     81  C   UNL A   1      38.527  33.501  37.808  1.00  0.00     0.200 A 
ATOM     82  F   UNL A   1      37.148  31.691  38.438  1.00  0.00    -0.200 F 
ATOM     83  F   UNL A   1      38.165  34.179  38.904  1.00  0.00    -0.200 F 
ENDBRANCH  49  73
BRANCH  61  84
ATOM     84  C   UNL A   1      44.796  27.891  34.402  1.00  0.00     0.064 A 
ATOM     85  C   UNL A   1      45.969  28.659  34.427  1.00  0.00     0.173 A 
ATOM     86  C   UNL A   1      44.729  26.764  35.237  1.00  0.00     0.173 A 
ATOM     87  F   UNL A   1      46.087  29.738  33.637  1.00  0.00    -0.203 F 
ATOM     88  C   UNL A   1      47.043  28.297  35.235  1.00  0.00     0.198 A 
ATOM     89  C   UNL A   1      45.793  26.423  36.066  1.00  0.00     0.198 A 
ATOM     90  F   UNL A   1      43.627  26.002  35.256  1.00  0.00    -0.203 F 
ATOM     91  F   UNL A   1      48.174  29.016  35.205  1.00  0.00    -0.200 F 
ATOM     92  C   UNL A   1      46.952  27.184  36.058  1.00  0.00     0.200 A 
ATOM     93  F   UNL A   1      45.697  25.358  36.872  1.00  0.00    -0.200 F 
ATOM     94  F   UNL A   1      47.985  26.842  36.841  1.00  0.00    -0.200 F 
ENDBRANCH  61  84
ENDBRANCH  35  36
ENDBRANCH  28  30
ENDBRANCH  27  28
ENDBRANCH  26  27
ENDBRANCH   1  26
TORSDOF 15
ENDMDL
