MODEL 1
REMARK VINA RESULT:     -13.7      0.000      0.000
REMARK SMILES Cc1ccc(C(F)(F)F)cc1-c1ccc(/C=C/C(=O)OCCOC(=O)c2ccc(-c3c4nc(c(-c5c(F)c(F)c(F)c(F)c5F)c5ccc([nH]5)c(-c5c(F)c(F)c(F)c(F)c5F)c5nc(c(-c6c(F)c(F)c(F)c(F)c6F)c6ccc3[nH]6)C=C5)C=C4)cc2)s1
REMARK SMILES IDX 21 1 20 2 18 3 19 4 17 5 16 6 15 7 12 8 13 9 89 10 14 11
REMARK SMILES IDX 11 12 1 13 2 14 3 15 4 16 10 17 5 18 6 19 7 20 8 21 9 22
REMARK SMILES IDX 22 23 23 24 24 25 25 26 26 27 27 28 88 29 28 30 87 31 29 32
REMARK SMILES IDX 30 33 31 34 81 35 32 36 86 37 80 38 82 39 33 40 85 41 79 42
REMARK SMILES IDX 78 43 34 45 66 46 46 47 65 48 47 49 50 50 64 51 83 52 48 53
REMARK SMILES IDX 49 54 63 56 84 57 51 58 35 59 36 60 44 61 37 62 38 63 42 64
REMARK SMILES IDX 45 65 39 66 40 67 43 68 41 69 67 70 68 71 76 72 69 73 70 74
REMARK SMILES IDX 74 75 77 76 71 77 72 78 75 79 73 80 52 81 53 82 61 83 54 84
REMARK SMILES IDX 55 85 59 86 62 87 56 88 57 89 60 90 58 91
REMARK H PARENT 82 44 50 55
REMARK Flexibility Score: inf
ROOT
ATOM      1  C   UNL A   1      32.916  36.509  30.445  1.00  0.00     0.275 C 
ENDROOT
BRANCH   1   2
ATOM      2  O   UNL A   1      32.637  35.211  29.903  1.00  0.00    -0.459 OA
BRANCH   2   3
ATOM      3  C   UNL A   1      33.460  34.786  28.776  1.00  0.00     0.330 C 
ATOM      4  O   UNL A   1      34.022  35.835  28.370  1.00  0.00    -0.247 OA
BRANCH   3   5
ATOM      5  C   UNL A   1      33.585  32.761  28.084  1.00  0.00     0.095 C 
ATOM      6  C   UNL A   1      34.333  31.578  28.020  1.00  0.00     0.026 C 
BRANCH   6   7
ATOM      7  C   UNL A   1      33.950  30.333  27.368  1.00  0.00     0.028 A 
ATOM      8  C   UNL A   1      32.839  28.375  26.219  1.00  0.00     0.035 A 
ATOM      9  C   UNL A   1      34.214  28.263  26.260  1.00  0.00     0.021 A 
ATOM     10  S   UNL A   1      32.336  29.842  26.951  1.00  0.00    -0.136 S 
ATOM     11  C   UNL A   1      34.835  29.352  26.938  1.00  0.00     0.020 A 
BRANCH   8  12
ATOM     12  C   UNL A   1      31.877  27.397  25.666  1.00  0.00    -0.005 A 
ATOM     13  C   UNL A   1      30.976  29.094  23.952  1.00  0.00     0.045 C 
ATOM     14  C   UNL A   1      30.974  27.752  24.636  1.00  0.00    -0.042 A 
ATOM     15  C   UNL A   1      29.984  26.838  24.228  1.00  0.00     0.005 A 
ATOM     16  C   UNL A   1      29.892  25.576  24.804  1.00  0.00     0.013 A 
ATOM     17  C   UNL A   1      31.777  26.106  26.229  1.00  0.00     0.023 A 
ATOM     18  C   UNL A   1      30.790  25.191  25.805  1.00  0.00     0.056 A 
BRANCH  18  19
ATOM     19  C   UNL A   1      30.654  23.816  26.413  1.00  0.00     0.416 C 
ATOM     20  F   UNL A   1      29.513  23.687  27.150  1.00  0.00    -0.166 F 
ATOM     21  F   UNL A   1      30.594  22.833  25.471  1.00  0.00    -0.166 F 
ATOM     22  F   UNL A   1      31.675  23.475  27.246  1.00  0.00    -0.166 F 
ENDBRANCH  18  19
ENDBRANCH   8  12
ENDBRANCH   6   7
ENDBRANCH   3   5
ENDBRANCH   2   3
ENDBRANCH   1   2
BRANCH   1  23
ATOM     23  C   UNL A   1      33.363  36.349  31.904  1.00  0.00     0.275 C 
BRANCH  23  24
ATOM     24  O   UNL A   1      33.786  35.006  32.277  1.00  0.00    -0.458 OA
BRANCH  24  25
ATOM     25  C   UNL A   1      35.106  34.671  32.411  1.00  0.00     0.338 C 
ATOM     26  O   UNL A   1      35.964  35.398  32.879  1.00  0.00    -0.246 OA
BRANCH  25  27
ATOM     27  C   UNL A   1      35.461  33.483  31.607  1.00  0.00     0.060 A 
ATOM     28  C   UNL A   1      35.491  31.921  32.544  1.00  0.00     0.016 A 
ATOM     29  C   UNL A   1      36.654  33.797  30.279  1.00  0.00     0.016 A 
ATOM     30  C   UNL A   1      36.840  30.707  32.244  1.00  0.00     0.010 A 
ATOM     31  C   UNL A   1      37.983  32.578  29.960  1.00  0.00     0.010 A 
ATOM     32  C   UNL A   1      38.087  31.082  30.995  1.00  0.00    -0.014 A 
BRANCH  32  33
ATOM     33  C   UNL A   1      39.441  30.585  31.068  1.00  0.00     0.031 A 
ATOM     34  C   UNL A   1      39.636  29.313  30.382  1.00  0.00     0.074 A 
ATOM     35  C   UNL A   1      40.411  31.413  31.530  1.00  0.00     0.049 A 
ATOM     36  N   UNL A   1      40.672  28.586  30.521  1.00  0.00    -0.248 NA
ATOM     37  C   UNL A   1      38.622  28.688  29.532  1.00  0.00     0.031 C 
ATOM     38  C   UNL A   1      41.862  31.351  31.373  1.00  0.00     0.029 A 
ATOM     39  N   UNL A   1      40.240  32.470  32.427  1.00  0.00    -0.354 N 
ATOM     40  C   UNL A   1      40.622  27.604  29.561  1.00  0.00     0.074 A 
ATOM     41  C   UNL A   1      39.274  27.621  29.073  1.00  0.00     0.031 C 
ATOM     42  C   UNL A   1      42.448  32.098  32.331  1.00  0.00     0.029 A 
ATOM     43  C   UNL A   1      41.400  32.608  33.200  1.00  0.00     0.049 A 
ATOM     44  H   UNL A   1      39.433  33.028  32.504  1.00  0.00     0.167 HD
ATOM     45  C   UNL A   1      41.806  27.027  29.228  1.00  0.00     0.037 A 
ATOM     46  C   UNL A   1      41.308  32.378  34.544  1.00  0.00     0.037 A 
ATOM     47  C   UNL A   1      42.818  27.454  30.205  1.00  0.00     0.049 A 
ATOM     48  C   UNL A   1      41.892  31.017  34.870  1.00  0.00     0.074 A 
ATOM     49  C   UNL A   1      43.769  28.462  30.190  1.00  0.00     0.029 A 
ATOM     50  N   UNL A   1      42.595  27.153  31.548  1.00  0.00    -0.354 N 
ATOM     51  N   UNL A   1      42.038  30.059  33.987  1.00  0.00    -0.248 NA
ATOM     52  C   UNL A   1      42.467  30.671  36.166  1.00  0.00     0.031 C 
ATOM     53  C   UNL A   1      44.027  28.831  31.547  1.00  0.00     0.029 A 
ATOM     54  C   UNL A   1      43.255  28.037  32.383  1.00  0.00     0.049 A 
ATOM     55  H   UNL A   1      42.036  26.405  31.864  1.00  0.00     0.167 HD
ATOM     56  C   UNL A   1      42.756  29.032  34.532  1.00  0.00     0.074 A 
ATOM     57  C   UNL A   1      42.995  29.462  35.901  1.00  0.00     0.031 C 
ATOM     58  C   UNL A   1      43.131  27.915  33.836  1.00  0.00     0.037 A 
BRANCH  45  59
ATOM     59  C   UNL A   1      42.113  26.297  27.939  1.00  0.00     0.064 A 
ATOM     60  C   UNL A   1      41.554  25.018  27.725  1.00  0.00     0.173 A 
ATOM     61  C   UNL A   1      42.994  26.723  26.921  1.00  0.00     0.173 A 
ATOM     62  F   UNL A   1      40.696  24.480  28.602  1.00  0.00    -0.203 F 
ATOM     63  C   UNL A   1      41.865  24.235  26.609  1.00  0.00     0.198 A 
ATOM     64  C   UNL A   1      43.294  25.944  25.799  1.00  0.00     0.198 A 
ATOM     65  F   UNL A   1      43.622  27.899  26.952  1.00  0.00    -0.203 F 
ATOM     66  F   UNL A   1      41.321  23.018  26.482  1.00  0.00    -0.200 F 
ATOM     67  C   UNL A   1      42.735  24.698  25.645  1.00  0.00     0.200 A 
ATOM     68  F   UNL A   1      44.147  26.417  24.875  1.00  0.00    -0.200 F 
ATOM     69  F   UNL A   1      43.034  23.949  24.576  1.00  0.00    -0.200 F 
ENDBRANCH  45  59
BRANCH  46  70
ATOM     70  C   UNL A   1      40.111  33.069  35.129  1.00  0.00     0.064 A 
ATOM     71  C   UNL A   1      39.070  32.221  35.585  1.00  0.00     0.173 A 
ATOM     72  C   UNL A   1      40.133  34.365  35.648  1.00  0.00     0.173 A 
ATOM     73  F   UNL A   1      38.949  30.986  35.073  1.00  0.00    -0.203 F 
ATOM     74  C   UNL A   1      38.253  32.568  36.660  1.00  0.00     0.198 A 
ATOM     75  C   UNL A   1      39.264  34.733  36.691  1.00  0.00     0.198 A 
ATOM     76  F   UNL A   1      41.081  35.234  35.270  1.00  0.00    -0.203 F 
ATOM     77  F   UNL A   1      37.418  31.660  37.186  1.00  0.00    -0.200 F 
ATOM     78  C   UNL A   1      38.375  33.816  37.236  1.00  0.00     0.200 A 
ATOM     79  F   UNL A   1      39.394  35.937  37.272  1.00  0.00    -0.200 F 
ATOM     80  F   UNL A   1      37.683  34.117  38.347  1.00  0.00    -0.200 F 
ENDBRANCH  46  70
BRANCH  58  81
ATOM     81  C   UNL A   1      43.513  26.606  34.492  1.00  0.00     0.064 A 
ATOM     82  C   UNL A   1      42.574  25.686  34.990  1.00  0.00     0.173 A 
ATOM     83  C   UNL A   1      44.857  26.155  34.505  1.00  0.00     0.173 A 
ATOM     84  F   UNL A   1      41.256  25.887  34.864  1.00  0.00    -0.203 F 
ATOM     85  C   UNL A   1      42.957  24.484  35.583  1.00  0.00     0.198 A 
ATOM     86  C   UNL A   1      45.223  24.905  34.995  1.00  0.00     0.198 A 
ATOM     87  F   UNL A   1      45.862  26.893  34.014  1.00  0.00    -0.203 F 
ATOM     88  F   UNL A   1      42.025  23.697  36.136  1.00  0.00    -0.200 F 
ATOM     89  C   UNL A   1      44.279  24.088  35.575  1.00  0.00     0.200 A 
ATOM     90  F   UNL A   1      46.494  24.496  34.884  1.00  0.00    -0.200 F 
ATOM     91  F   UNL A   1      44.638  22.912  36.103  1.00  0.00    -0.200 F 
ENDBRANCH  58  81
ENDBRANCH  32  33
ENDBRANCH  25  27
ENDBRANCH  24  25
ENDBRANCH  23  24
ENDBRANCH   1  23
TORSDOF 14
ENDMDL
MODEL 2
REMARK VINA RESULT:     -13.3      5.084     10.502
REMARK SMILES Cc1ccc(C(F)(F)F)cc1-c1ccc(/C=C/C(=O)OCCOC(=O)c2ccc(-c3c4nc(c(-c5c(F)c(F)c(F)c(F)c5F)c5ccc([nH]5)c(-c5c(F)c(F)c(F)c(F)c5F)c5nc(c(-c6c(F)c(F)c(F)c(F)c6F)c6ccc3[nH]6)C=C5)C=C4)cc2)s1
REMARK SMILES IDX 21 1 20 2 18 3 19 4 17 5 16 6 15 7 12 8 13 9 89 10 14 11
REMARK SMILES IDX 11 12 1 13 2 14 3 15 4 16 10 17 5 18 6 19 7 20 8 21 9 22
REMARK SMILES IDX 22 23 23 24 24 25 25 26 26 27 27 28 88 29 28 30 87 31 29 32
REMARK SMILES IDX 30 33 31 34 81 35 32 36 86 37 80 38 82 39 33 40 85 41 79 42
REMARK SMILES IDX 78 43 34 45 66 46 46 47 65 48 47 49 50 50 64 51 83 52 48 53
REMARK SMILES IDX 49 54 63 56 84 57 51 58 35 59 36 60 44 61 37 62 38 63 42 64
REMARK SMILES IDX 45 65 39 66 40 67 43 68 41 69 67 70 68 71 76 72 69 73 70 74
REMARK SMILES IDX 74 75 77 76 71 77 72 78 75 79 73 80 52 81 53 82 61 83 54 84
REMARK SMILES IDX 55 85 59 86 62 87 56 88 57 89 60 90 58 91
REMARK H PARENT 82 44 50 55
REMARK Flexibility Score: inf
ROOT
ATOM      1  C   UNL A   1      42.278  20.726  27.604  1.00  0.00     0.275 C 
ENDROOT
BRANCH   1   2
ATOM      2  O   UNL A   1      40.851  20.589  27.643  1.00  0.00    -0.459 OA
BRANCH   2   3
ATOM      3  C   UNL A   1      40.183  20.373  26.364  1.00  0.00     0.330 C 
ATOM      4  O   UNL A   1      40.880  19.509  25.775  1.00  0.00    -0.247 OA
BRANCH   3   5
ATOM      5  C   UNL A   1      38.391  21.387  25.766  1.00  0.00     0.095 C 
ATOM      6  C   UNL A   1      37.169  21.323  25.084  1.00  0.00     0.026 C 
BRANCH   6   7
ATOM      7  C   UNL A   1      36.186  22.389  24.946  1.00  0.00     0.028 A 
ATOM      8  C   UNL A   1      34.465  24.223  25.198  1.00  0.00     0.035 A 
ATOM      9  C   UNL A   1      34.941  24.107  23.907  1.00  0.00     0.021 A 
ATOM     10  S   UNL A   1      35.232  23.081  26.222  1.00  0.00    -0.136 S 
ATOM     11  C   UNL A   1      35.886  23.050  23.761  1.00  0.00     0.020 A 
BRANCH   8  12
ATOM     12  C   UNL A   1      33.427  25.154  25.688  1.00  0.00    -0.005 A 
ATOM     13  C   UNL A   1      31.563  23.407  25.373  1.00  0.00     0.045 C 
ATOM     14  C   UNL A   1      32.061  24.784  25.723  1.00  0.00    -0.042 A 
ATOM     15  C   UNL A   1      31.086  25.738  26.068  1.00  0.00     0.005 A 
ATOM     16  C   UNL A   1      31.443  27.040  26.400  1.00  0.00     0.013 A 
ATOM     17  C   UNL A   1      33.770  26.477  26.042  1.00  0.00     0.023 A 
ATOM     18  C   UNL A   1      32.788  27.425  26.399  1.00  0.00     0.056 A 
BRANCH  18  19
ATOM     19  C   UNL A   1      33.136  28.850  26.756  1.00  0.00     0.416 C 
ATOM     20  F   UNL A   1      32.054  29.550  27.203  1.00  0.00    -0.166 F 
ATOM     21  F   UNL A   1      34.059  28.926  27.755  1.00  0.00    -0.166 F 
ATOM     22  F   UNL A   1      33.644  29.572  25.720  1.00  0.00    -0.166 F 
ENDBRANCH  18  19
ENDBRANCH   8  12
ENDBRANCH   6   7
ENDBRANCH   3   5
ENDBRANCH   2   3
ENDBRANCH   1   2
BRANCH   1  23
ATOM     23  C   UNL A   1      42.651  22.134  28.090  1.00  0.00     0.275 C 
BRANCH  23  24
ATOM     24  O   UNL A   1      41.662  23.166  27.811  1.00  0.00    -0.458 OA
BRANCH  24  25
ATOM     25  C   UNL A   1      41.471  23.667  26.553  1.00  0.00     0.338 C 
ATOM     26  O   UNL A   1      42.162  23.402  25.586  1.00  0.00    -0.246 OA
BRANCH  25  27
ATOM     27  C   UNL A   1      40.568  24.837  26.553  1.00  0.00     0.060 A 
ATOM     28  C   UNL A   1      41.226  26.295  25.679  1.00  0.00     0.016 A 
ATOM     29  C   UNL A   1      39.567  25.021  28.052  1.00  0.00     0.016 A 
ATOM     30  C   UNL A   1      40.999  27.968  26.407  1.00  0.00     0.010 A 
ATOM     31  C   UNL A   1      39.318  26.689  28.765  1.00  0.00     0.010 A 
ATOM     32  C   UNL A   1      40.095  28.127  27.960  1.00  0.00    -0.014 A 
BRANCH  32  33
ATOM     33  C   UNL A   1      40.348  29.188  28.907  1.00  0.00     0.031 A 
ATOM     34  C   UNL A   1      39.280  30.179  28.975  1.00  0.00     0.074 A 
ATOM     35  C   UNL A   1      41.379  29.049  29.777  1.00  0.00     0.049 A 
ATOM     36  N   UNL A   1      39.398  31.308  29.554  1.00  0.00    -0.248 NA
ATOM     37  C   UNL A   1      37.989  30.025  28.305  1.00  0.00     0.031 C 
ATOM     38  C   UNL A   1      41.647  29.724  31.045  1.00  0.00     0.029 A 
ATOM     39  N   UNL A   1      42.544  28.306  29.567  1.00  0.00    -0.354 N 
ATOM     40  C   UNL A   1      38.146  31.869  29.630  1.00  0.00     0.074 A 
ATOM     41  C   UNL A   1      37.337  31.110  28.721  1.00  0.00     0.031 C 
ATOM     42  C   UNL A   1      42.957  29.607  31.345  1.00  0.00     0.029 A 
ATOM     43  C   UNL A   1      43.607  28.921  30.241  1.00  0.00     0.049 A 
ATOM     44  H   UNL A   1      42.607  27.483  29.033  1.00  0.00     0.167 HD
ATOM     45  C   UNL A   1      37.966  32.814  30.589  1.00  0.00     0.037 A 
ATOM     46  C   UNL A   1      44.635  29.425  29.495  1.00  0.00     0.037 A 
ATOM     47  C   UNL A   1      39.283  33.168  31.139  1.00  0.00     0.049 A 
ATOM     48  C   UNL A   1      44.512  30.935  29.412  1.00  0.00     0.074 A 
ATOM     49  C   UNL A   1      39.977  32.743  32.260  1.00  0.00     0.029 A 
ATOM     50  N   UNL A   1      40.242  33.673  30.260  1.00  0.00    -0.354 N 
ATOM     51  N   UNL A   1      43.394  31.585  29.624  1.00  0.00    -0.248 NA
ATOM     52  C   UNL A   1      45.647  31.830  29.210  1.00  0.00     0.031 C 
ATOM     53  C   UNL A   1      41.372  32.901  31.991  1.00  0.00     0.029 A 
ATOM     54  C   UNL A   1      41.525  33.442  30.721  1.00  0.00     0.049 A 
ATOM     55  H   UNL A   1      40.031  34.136  29.416  1.00  0.00     0.167 HD
ATOM     56  C   UNL A   1      43.640  32.929  29.662  1.00  0.00     0.074 A 
ATOM     57  C   UNL A   1      45.065  33.030  29.389  1.00  0.00     0.031 C 
ATOM     58  C   UNL A   1      42.682  33.868  29.934  1.00  0.00     0.037 A 
BRANCH  45  59
ATOM     59  C   UNL A   1      36.644  33.238  31.189  1.00  0.00     0.064 A 
ATOM     60  C   UNL A   1      35.732  33.965  30.394  1.00  0.00     0.173 A 
ATOM     61  C   UNL A   1      36.232  33.058  32.528  1.00  0.00     0.173 A 
ATOM     62  F   UNL A   1      35.982  34.213  29.102  1.00  0.00    -0.203 F 
ATOM     63  C   UNL A   1      34.534  34.480  30.899  1.00  0.00     0.198 A 
ATOM     64  C   UNL A   1      35.028  33.563  33.028  1.00  0.00     0.198 A 
ATOM     65  F   UNL A   1      36.965  32.403  33.429  1.00  0.00    -0.203 F 
ATOM     66  F   UNL A   1      33.727  35.188  30.097  1.00  0.00    -0.200 F 
ATOM     67  C   UNL A   1      34.181  34.279  32.216  1.00  0.00     0.200 A 
ATOM     68  F   UNL A   1      34.709  33.355  34.316  1.00  0.00    -0.200 F 
ATOM     69  F   UNL A   1      33.035  34.772  32.701  1.00  0.00    -0.200 F 
ENDBRANCH  45  59
BRANCH  46  70
ATOM     70  C   UNL A   1      45.074  28.444  28.448  1.00  0.00     0.064 A 
ATOM     71  C   UNL A   1      45.483  27.173  28.925  1.00  0.00     0.173 A 
ATOM     72  C   UNL A   1      44.701  28.515  27.104  1.00  0.00     0.173 A 
ATOM     73  F   UNL A   1      45.922  27.048  30.188  1.00  0.00    -0.203 F 
ATOM     74  C   UNL A   1      45.305  26.011  28.175  1.00  0.00     0.198 A 
ATOM     75  C   UNL A   1      44.582  27.347  26.331  1.00  0.00     0.198 A 
ATOM     76  F   UNL A   1      44.303  29.679  26.569  1.00  0.00    -0.203 F 
ATOM     77  F   UNL A   1      45.517  24.812  28.739  1.00  0.00    -0.200 F 
ATOM     78  C   UNL A   1      44.819  26.096  26.887  1.00  0.00     0.200 A 
ATOM     79  F   UNL A   1      44.087  27.421  25.084  1.00  0.00    -0.200 F 
ATOM     80  F   UNL A   1      44.526  24.980  26.200  1.00  0.00    -0.200 F 
ENDBRANCH  46  70
BRANCH  58  81
ATOM     81  C   UNL A   1      42.805  35.327  29.550  1.00  0.00     0.064 A 
ATOM     82  C   UNL A   1      43.350  36.307  30.396  1.00  0.00     0.173 A 
ATOM     83  C   UNL A   1      42.511  35.767  28.235  1.00  0.00     0.173 A 
ATOM     84  F   UNL A   1      43.857  36.000  31.597  1.00  0.00    -0.203 F 
ATOM     85  C   UNL A   1      43.456  37.643  30.010  1.00  0.00     0.198 A 
ATOM     86  C   UNL A   1      42.724  37.078  27.819  1.00  0.00     0.198 A 
ATOM     87  F   UNL A   1      42.037  34.939  27.294  1.00  0.00    -0.203 F 
ATOM     88  F   UNL A   1      43.883  38.552  30.897  1.00  0.00    -0.200 F 
ATOM     89  C   UNL A   1      43.154  38.026  28.720  1.00  0.00     0.200 A 
ATOM     90  F   UNL A   1      42.524  37.407  26.536  1.00  0.00    -0.200 F 
ATOM     91  F   UNL A   1      43.301  39.301  28.339  1.00  0.00    -0.200 F 
ENDBRANCH  58  81
ENDBRANCH  32  33
ENDBRANCH  25  27
ENDBRANCH  24  25
ENDBRANCH  23  24
ENDBRANCH   1  23
TORSDOF 14
ENDMDL
MODEL 3
REMARK VINA RESULT:     -13.2      3.337      5.064
REMARK SMILES Cc1ccc(C(F)(F)F)cc1-c1ccc(/C=C/C(=O)OCCOC(=O)c2ccc(-c3c4nc(c(-c5c(F)c(F)c(F)c(F)c5F)c5ccc([nH]5)c(-c5c(F)c(F)c(F)c(F)c5F)c5nc(c(-c6c(F)c(F)c(F)c(F)c6F)c6ccc3[nH]6)C=C5)C=C4)cc2)s1
REMARK SMILES IDX 21 1 20 2 18 3 19 4 17 5 16 6 15 7 12 8 13 9 89 10 14 11
REMARK SMILES IDX 11 12 1 13 2 14 3 15 4 16 10 17 5 18 6 19 7 20 8 21 9 22
REMARK SMILES IDX 22 23 23 24 24 25 25 26 26 27 27 28 88 29 28 30 87 31 29 32
REMARK SMILES IDX 30 33 31 34 81 35 32 36 86 37 80 38 82 39 33 40 85 41 79 42
REMARK SMILES IDX 78 43 34 45 66 46 46 47 65 48 47 49 50 50 64 51 83 52 48 53
REMARK SMILES IDX 49 54 63 56 84 57 51 58 35 59 36 60 44 61 37 62 38 63 42 64
REMARK SMILES IDX 45 65 39 66 40 67 43 68 41 69 67 70 68 71 76 72 69 73 70 74
REMARK SMILES IDX 74 75 77 76 71 77 72 78 75 79 73 80 52 81 53 82 61 83 54 84
REMARK SMILES IDX 55 85 59 86 62 87 56 88 57 89 60 90 58 91
REMARK H PARENT 82 44 50 55
REMARK Flexibility Score: inf
ROOT
ATOM      1  C   UNL A   1      32.955  31.017  27.317  1.00  0.00     0.275 C 
ENDROOT
BRANCH   1   2
ATOM      2  O   UNL A   1      33.018  29.584  27.337  1.00  0.00    -0.459 OA
BRANCH   2   3
ATOM      3  C   UNL A   1      32.631  28.898  26.110  1.00  0.00     0.330 C 
ATOM      4  O   UNL A   1      32.358  29.817  25.296  1.00  0.00    -0.247 OA
BRANCH   3   5
ATOM      5  C   UNL A   1      32.595  26.765  25.892  1.00  0.00     0.095 C 
ATOM      6  C   UNL A   1      33.234  25.542  26.134  1.00  0.00     0.026 C 
BRANCH   6   7
ATOM      7  C   UNL A   1      32.761  24.217  25.754  1.00  0.00     0.028 A 
ATOM      8  C   UNL A   1      32.391  21.866  24.905  1.00  0.00     0.035 A 
ATOM      9  C   UNL A   1      31.370  22.309  25.722  1.00  0.00     0.021 A 
ATOM     10  S   UNL A   1      33.602  23.071  24.757  1.00  0.00    -0.136 S 
ATOM     11  C   UNL A   1      31.565  23.647  26.171  1.00  0.00     0.020 A 
BRANCH   8  12
ATOM     12  C   UNL A   1      32.476  20.567  24.204  1.00  0.00    -0.005 A 
ATOM     13  C   UNL A   1      32.036  21.654  21.913  1.00  0.00     0.045 C 
ATOM     14  C   UNL A   1      32.262  20.465  22.809  1.00  0.00    -0.042 A 
ATOM     15  C   UNL A   1      32.219  19.198  22.199  1.00  0.00     0.005 A 
ATOM     16  C   UNL A   1      32.407  18.037  22.941  1.00  0.00     0.013 A 
ATOM     17  C   UNL A   1      32.680  19.378  24.939  1.00  0.00     0.023 A 
ATOM     18  C   UNL A   1      32.647  18.112  24.317  1.00  0.00     0.056 A 
BRANCH  18  19
ATOM     19  C   UNL A   1      32.838  16.829  25.091  1.00  0.00     0.416 C 
ATOM     20  F   UNL A   1      33.330  15.823  24.312  1.00  0.00    -0.166 F 
ATOM     21  F   UNL A   1      33.726  16.967  26.115  1.00  0.00    -0.166 F 
ATOM     22  F   UNL A   1      31.695  16.343  25.648  1.00  0.00    -0.166 F 
ENDBRANCH  18  19
ENDBRANCH   8  12
ENDBRANCH   6   7
ENDBRANCH   3   5
ENDBRANCH   2   3
ENDBRANCH   1   2
BRANCH   1  23
ATOM     23  C   UNL A   1      34.366  31.576  27.546  1.00  0.00     0.275 C 
BRANCH  23  24
ATOM     24  O   UNL A   1      34.754  31.719  28.943  1.00  0.00    -0.458 OA
BRANCH  24  25
ATOM     25  C   UNL A   1      36.038  31.510  29.365  1.00  0.00     0.338 C 
ATOM     26  O   UNL A   1      36.842  32.391  29.609  1.00  0.00    -0.246 OA
BRANCH  25  27
ATOM     27  C   UNL A   1      36.471  30.113  29.151  1.00  0.00     0.060 A 
ATOM     28  C   UNL A   1      36.846  29.199  30.682  1.00  0.00     0.016 A 
ATOM     29  C   UNL A   1      37.438  29.843  27.643  1.00  0.00     0.016 A 
ATOM     30  C   UNL A   1      38.317  28.097  30.744  1.00  0.00     0.010 A 
ATOM     31  C   UNL A   1      38.889  28.727  27.694  1.00  0.00     0.010 A 
ATOM     32  C   UNL A   1      39.338  27.922  29.267  1.00  0.00    -0.014 A 
BRANCH  32  33
ATOM     33  C   UNL A   1      40.750  27.626  29.323  1.00  0.00     0.031 A 
ATOM     34  C   UNL A   1      41.092  26.302  28.815  1.00  0.00     0.074 A 
ATOM     35  C   UNL A   1      41.613  28.636  29.596  1.00  0.00     0.049 A 
ATOM     36  N   UNL A   1      42.225  25.749  28.991  1.00  0.00    -0.248 NA
ATOM     37  C   UNL A   1      40.139  25.427  28.132  1.00  0.00     0.031 C 
ATOM     38  C   UNL A   1      43.051  28.744  29.356  1.00  0.00     0.029 A 
ATOM     39  N   UNL A   1      41.335  29.784  30.342  1.00  0.00    -0.354 N 
ATOM     40  C   UNL A   1      42.272  24.635  28.187  1.00  0.00     0.074 A 
ATOM     41  C   UNL A   1      40.915  24.399  27.790  1.00  0.00     0.031 C 
ATOM     42  C   UNL A   1      43.567  29.699  30.157  1.00  0.00     0.029 A 
ATOM     43  C   UNL A   1      42.497  30.191  31.009  1.00  0.00     0.049 A 
ATOM     44  H   UNL A   1      40.462  30.236  30.389  1.00  0.00     0.167 HD
ATOM     45  C   UNL A   1      43.510  24.176  27.864  1.00  0.00     0.037 A 
ATOM     46  C   UNL A   1      42.499  30.157  32.375  1.00  0.00     0.037 A 
ATOM     47  C   UNL A   1      44.494  24.878  28.701  1.00  0.00     0.049 A 
ATOM     48  C   UNL A   1      43.283  28.951  32.856  1.00  0.00     0.074 A 
ATOM     49  C   UNL A   1      45.291  25.989  28.480  1.00  0.00     0.029 A 
ATOM     50  N   UNL A   1      44.375  24.756  30.086  1.00  0.00    -0.354 N 
ATOM     51  N   UNL A   1      43.522  27.898  32.112  1.00  0.00    -0.248 NA
ATOM     52  C   UNL A   1      43.958  28.885  34.147  1.00  0.00     0.031 C 
ATOM     53  C   UNL A   1      45.555  26.590  29.750  1.00  0.00     0.029 A 
ATOM     54  C   UNL A   1      44.940  25.837  30.740  1.00  0.00     0.049 A 
ATOM     55  H   UNL A   1      43.942  23.997  30.541  1.00  0.00     0.167 HD
ATOM     56  C   UNL A   1      44.402  27.071  32.751  1.00  0.00     0.074 A 
ATOM     57  C   UNL A   1      44.639  27.731  34.026  1.00  0.00     0.031 C 
ATOM     58  C   UNL A   1      44.900  25.921  32.200  1.00  0.00     0.037 A 
BRANCH  45  59
ATOM     59  C   UNL A   1      43.858  23.307  26.676  1.00  0.00     0.064 A 
ATOM     60  C   UNL A   1      43.442  21.958  26.668  1.00  0.00     0.173 A 
ATOM     61  C   UNL A   1      44.654  23.676  25.569  1.00  0.00     0.173 A 
ATOM     62  F   UNL A   1      42.678  21.461  27.650  1.00  0.00    -0.203 F 
ATOM     63  C   UNL A   1      43.807  21.061  25.659  1.00  0.00     0.198 A 
ATOM     64  C   UNL A   1      45.007  22.781  24.554  1.00  0.00     0.198 A 
ATOM     65  F   UNL A   1      45.145  24.905  25.408  1.00  0.00    -0.203 F 
ATOM     66  F   UNL A   1      43.402  19.786  25.728  1.00  0.00    -0.200 F 
ATOM     67  C   UNL A   1      44.589  21.472  24.601  1.00  0.00     0.200 A 
ATOM     68  F   UNL A   1      45.772  23.207  23.536  1.00  0.00    -0.200 F 
ATOM     69  F   UNL A   1      44.939  20.615  23.634  1.00  0.00    -0.200 F 
ENDBRANCH  45  59
BRANCH  46  70
ATOM     70  C   UNL A   1      41.243  30.763  32.931  1.00  0.00     0.064 A 
ATOM     71  C   UNL A   1      40.950  32.082  32.501  1.00  0.00     0.173 A 
ATOM     72  C   UNL A   1      40.175  30.020  33.437  1.00  0.00     0.173 A 
ATOM     73  F   UNL A   1      41.944  32.876  32.071  1.00  0.00    -0.203 F 
ATOM     74  C   UNL A   1      39.640  32.541  32.366  1.00  0.00     0.198 A 
ATOM     75  C   UNL A   1      38.859  30.511  33.356  1.00  0.00     0.198 A 
ATOM     76  F   UNL A   1      40.362  28.764  33.868  1.00  0.00    -0.203 F 
ATOM     77  F   UNL A   1      39.402  33.718  31.769  1.00  0.00    -0.200 F 
ATOM     78  C   UNL A   1      38.591  31.738  32.763  1.00  0.00     0.200 A 
ATOM     79  F   UNL A   1      37.832  29.725  33.719  1.00  0.00    -0.200 F 
ATOM     80  F   UNL A   1      37.324  32.115  32.524  1.00  0.00    -0.200 F 
ENDBRANCH  46  70
BRANCH  58  81
ATOM     81  C   UNL A   1      45.491  24.788  33.012  1.00  0.00     0.064 A 
ATOM     82  C   UNL A   1      46.769  24.837  33.594  1.00  0.00     0.173 A 
ATOM     83  C   UNL A   1      44.715  23.656  33.365  1.00  0.00     0.173 A 
ATOM     84  F   UNL A   1      47.539  25.930  33.513  1.00  0.00    -0.203 F 
ATOM     85  C   UNL A   1      47.282  23.779  34.343  1.00  0.00     0.198 A 
ATOM     86  C   UNL A   1      45.191  22.655  34.207  1.00  0.00     0.198 A 
ATOM     87  F   UNL A   1      43.456  23.491  32.937  1.00  0.00    -0.203 F 
ATOM     88  F   UNL A   1      48.546  23.837  34.782  1.00  0.00    -0.200 F 
ATOM     89  C   UNL A   1      46.491  22.694  34.659  1.00  0.00     0.200 A 
ATOM     90  F   UNL A   1      44.374  21.663  34.586  1.00  0.00    -0.200 F 
ATOM     91  F   UNL A   1      46.971  21.702  35.418  1.00  0.00    -0.200 F 
ENDBRANCH  58  81
ENDBRANCH  32  33
ENDBRANCH  25  27
ENDBRANCH  24  25
ENDBRANCH  23  24
ENDBRANCH   1  23
TORSDOF 14
ENDMDL
