MODEL 1
REMARK VINA RESULT:     -11.3      0.000      0.000
REMARK SMILES C=CCN(CC(=O)OCCOC(=O)c1ccc(-c2c3nc(c(-c4c(F)c(F)c(F)c(F)c4F)c4ccc([nH]4)c(-c4c(F)c(F)c(F)c(F)c4F)c4nc(c(-c5c(F)c(F)c(F)c(F)c5F)c5ccc2[nH]5)C=C4)C=C3)cc1)c1ccc([N+](=O)[O-])cc1Br
REMARK SMILES IDX 9 1 8 2 6 3 7 4 5 5 4 6 3 7 2 8 1 9 77 10 78 11 85 12 79 13
REMARK SMILES IDX 84 14 86 15 80 16 81 17 82 18 83 19 10 20 11 21 12 22 13 23
REMARK SMILES IDX 14 24 15 25 76 26 16 27 75 28 17 29 18 30 19 31 69 32 20 33
REMARK SMILES IDX 74 34 68 35 70 36 21 37 73 38 67 39 66 40 22 42 54 43 34 44
REMARK SMILES IDX 53 45 35 46 38 47 52 48 71 49 36 50 37 51 51 53 72 54 39 55
REMARK SMILES IDX 23 56 24 57 32 58 25 59 26 60 30 61 33 62 27 63 28 64 31 65
REMARK SMILES IDX 29 66 55 67 56 68 64 69 57 70 58 71 62 72 65 73 59 74 60 75
REMARK SMILES IDX 63 76 61 77 40 78 41 79 49 80 42 81 43 82 47 83 50 84 44 85
REMARK SMILES IDX 45 86 48 87 46 88
REMARK H PARENT 70 41 38 52
REMARK Flexibility Score: inf
ROOT
ATOM      1  C   UNL A   1      31.948  28.176  27.222  1.00  0.00     0.274 C 
ENDROOT
BRANCH   1   2
ATOM      2  O   UNL A   1      31.055  27.116  26.831  1.00  0.00    -0.461 OA
BRANCH   2   3
ATOM      3  C   UNL A   1      31.636  26.059  26.199  1.00  0.00     0.325 C 
ATOM      4  O   UNL A   1      32.850  25.879  26.125  1.00  0.00    -0.250 OA
BRANCH   3   5
ATOM      5  C   UNL A   1      30.648  25.071  25.585  1.00  0.00     0.239 C 
BRANCH   5   6
ATOM      6  N   UNL A   1      30.351  25.268  24.160  1.00  0.00    -0.356 N 
BRANCH   6   7
ATOM      7  C   UNL A   1      30.681  24.220  23.207  1.00  0.00     0.144 C 
BRANCH   7   8
ATOM      8  C   UNL A   1      31.845  23.447  23.754  1.00  0.00    -0.014 C 
ATOM      9  C   UNL A   1      33.097  23.505  23.281  1.00  0.00     0.006 C 
ENDBRANCH   7   8
ENDBRANCH   6   7
BRANCH   6  10
ATOM     10  C   UNL A   1      29.809  26.470  23.731  1.00  0.00     0.052 A 
ATOM     11  C   UNL A   1      28.436  26.703  23.923  1.00  0.00     0.034 A 
ATOM     12  C   UNL A   1      30.556  27.471  23.073  1.00  0.00     0.048 A 
ATOM     13  C   UNL A   1      27.811  27.854  23.433  1.00  0.00     0.088 A 
ATOM     14  C   UNL A   1      29.946  28.634  22.586  1.00  0.00     0.103 A 
ATOM     15  Br  UNL A   1      32.441  27.339  22.835  1.00  0.00    -0.048 Br
ATOM     16  C   UNL A   1      28.571  28.805  22.751  1.00  0.00     0.270 A 
BRANCH  16  17
ATOM     17  N   UNL A   1      27.917  29.985  22.180  1.00  0.00     0.062 N 
ATOM     18  O   UNL A   1      27.279  30.720  22.945  1.00  0.00    -0.258 OA
ATOM     19  O   UNL A   1      28.028  30.164  20.958  1.00  0.00    -0.258 OA
ENDBRANCH  16  17
ENDBRANCH   6  10
ENDBRANCH   5   6
ENDBRANCH   3   5
ENDBRANCH   2   3
ENDBRANCH   1   2
BRANCH   1  20
ATOM     20  C   UNL A   1      31.721  29.421  26.371  1.00  0.00     0.275 C 
BRANCH  20  21
ATOM     21  O   UNL A   1      32.975  30.070  26.094  1.00  0.00    -0.458 OA
BRANCH  21  22
ATOM     22  C   UNL A   1      33.327  31.035  26.971  1.00  0.00     0.338 C 
ATOM     23  O   UNL A   1      32.707  32.048  27.252  1.00  0.00    -0.246 OA
BRANCH  22  24
ATOM     24  C   UNL A   1      34.654  30.752  27.536  1.00  0.00     0.060 A 
ATOM     25  C   UNL A   1      35.086  29.445  27.781  1.00  0.00     0.016 A 
ATOM     26  C   UNL A   1      35.431  31.843  27.928  1.00  0.00     0.016 A 
ATOM     27  C   UNL A   1      36.282  29.229  28.470  1.00  0.00     0.010 A 
ATOM     28  C   UNL A   1      36.646  31.626  28.574  1.00  0.00     0.010 A 
ATOM     29  C   UNL A   1      37.067  30.320  28.873  1.00  0.00    -0.014 A 
BRANCH  29  30
ATOM     30  C   UNL A   1      38.332  30.145  29.624  1.00  0.00     0.031 A 
ATOM     31  C   UNL A   1      39.395  29.231  29.088  1.00  0.00     0.074 A 
ATOM     32  C   UNL A   1      38.476  30.723  30.829  1.00  0.00     0.049 A 
ATOM     33  N   UNL A   1      40.446  28.737  29.691  1.00  0.00    -0.248 NA
ATOM     34  C   UNL A   1      39.246  28.805  27.688  1.00  0.00     0.031 C 
ATOM     35  C   UNL A   1      37.524  31.650  31.439  1.00  0.00     0.029 A 
ATOM     36  N   UNL A   1      39.463  30.582  31.772  1.00  0.00    -0.354 N 
ATOM     37  C   UNL A   1      41.067  27.921  28.756  1.00  0.00     0.074 A 
ATOM     38  C   UNL A   1      40.277  27.983  27.545  1.00  0.00     0.031 C 
ATOM     39  C   UNL A   1      37.957  31.974  32.667  1.00  0.00     0.029 A 
ATOM     40  C   UNL A   1      39.184  31.234  32.948  1.00  0.00     0.049 A 
ATOM     41  H   UNL A   1      40.287  30.065  31.621  1.00  0.00     0.167 HD
ATOM     42  C   UNL A   1      42.192  27.181  28.906  1.00  0.00     0.037 A 
ATOM     43  C   UNL A   1      39.818  31.198  34.135  1.00  0.00     0.037 A 
ATOM     44  C   UNL A   1      42.975  27.132  30.112  1.00  0.00     0.049 A 
ATOM     45  C   UNL A   1      41.041  30.339  34.290  1.00  0.00     0.074 A 
ATOM     46  C   UNL A   1      44.136  26.421  30.364  1.00  0.00     0.029 A 
ATOM     47  N   UNL A   1      42.672  27.827  31.274  1.00  0.00    -0.354 N 
ATOM     48  N   UNL A   1      41.613  29.552  33.412  1.00  0.00    -0.248 NA
ATOM     49  C   UNL A   1      41.700  30.354  35.603  1.00  0.00     0.031 C 
ATOM     50  C   UNL A   1      44.521  26.666  31.687  1.00  0.00     0.029 A 
ATOM     51  C   UNL A   1      43.619  27.555  32.249  1.00  0.00     0.049 A 
ATOM     52  H   UNL A   1      41.899  28.426  31.389  1.00  0.00     0.167 HD
ATOM     53  C   UNL A   1      42.706  28.994  34.056  1.00  0.00     0.074 A 
ATOM     54  C   UNL A   1      42.722  29.535  35.400  1.00  0.00     0.031 C 
ATOM     55  C   UNL A   1      43.618  28.113  33.576  1.00  0.00     0.037 A 
BRANCH  42  56
ATOM     56  C   UNL A   1      42.633  26.344  27.743  1.00  0.00     0.064 A 
ATOM     57  C   UNL A   1      43.612  26.792  26.846  1.00  0.00     0.173 A 
ATOM     58  C   UNL A   1      42.104  25.059  27.555  1.00  0.00     0.173 A 
ATOM     59  F   UNL A   1      44.140  28.018  26.979  1.00  0.00    -0.203 F 
ATOM     60  C   UNL A   1      44.039  25.986  25.793  1.00  0.00     0.198 A 
ATOM     61  C   UNL A   1      42.547  24.248  26.512  1.00  0.00     0.198 A 
ATOM     62  F   UNL A   1      41.168  24.584  28.389  1.00  0.00    -0.203 F 
ATOM     63  F   UNL A   1      44.961  26.441  24.933  1.00  0.00    -0.200 F 
ATOM     64  C   UNL A   1      43.511  24.713  25.631  1.00  0.00     0.200 A 
ATOM     65  F   UNL A   1      42.043  23.015  26.364  1.00  0.00    -0.200 F 
ATOM     66  F   UNL A   1      43.931  23.935  24.625  1.00  0.00    -0.200 F 
ENDBRANCH  42  56
BRANCH  43  67
ATOM     67  C   UNL A   1      39.277  31.982  35.270  1.00  0.00     0.064 A 
ATOM     68  C   UNL A   1      38.485  31.372  36.252  1.00  0.00     0.173 A 
ATOM     69  C   UNL A   1      39.580  33.343  35.423  1.00  0.00     0.173 A 
ATOM     70  F   UNL A   1      38.153  30.079  36.134  1.00  0.00    -0.203 F 
ATOM     71  C   UNL A   1      38.018  32.095  37.347  1.00  0.00     0.198 A 
ATOM     72  C   UNL A   1      39.130  34.059  36.529  1.00  0.00     0.198 A 
ATOM     73  F   UNL A   1      40.336  33.969  34.508  1.00  0.00    -0.203 F 
ATOM     74  F   UNL A   1      37.246  31.496  38.263  1.00  0.00    -0.200 F 
ATOM     75  C   UNL A   1      38.348  33.435  37.489  1.00  0.00     0.200 A 
ATOM     76  F   UNL A   1      39.463  35.349  36.670  1.00  0.00    -0.200 F 
ATOM     77  F   UNL A   1      37.913  34.125  38.552  1.00  0.00    -0.200 F 
ENDBRANCH  43  67
BRANCH  55  78
ATOM     78  C   UNL A   1      44.726  27.710  34.498  1.00  0.00     0.064 A 
ATOM     79  C   UNL A   1      44.621  26.578  35.316  1.00  0.00     0.173 A 
ATOM     80  C   UNL A   1      45.920  28.445  34.531  1.00  0.00     0.173 A 
ATOM     81  F   UNL A   1      43.491  25.855  35.327  1.00  0.00    -0.203 F 
ATOM     82  C   UNL A   1      45.672  26.202  36.149  1.00  0.00     0.198 A 
ATOM     83  C   UNL A   1      46.975  28.057  35.352  1.00  0.00     0.198 A 
ATOM     84  F   UNL A   1      46.064  29.536  33.763  1.00  0.00    -0.203 F 
ATOM     85  F   UNL A   1      45.543  25.133  36.947  1.00  0.00    -0.200 F 
ATOM     86  C   UNL A   1      46.849  26.938  36.162  1.00  0.00     0.200 A 
ATOM     87  F   UNL A   1      48.111  28.766  35.361  1.00  0.00    -0.200 F 
ATOM     88  F   UNL A   1      47.860  26.573  36.962  1.00  0.00    -0.200 F 
ENDBRANCH  55  78
ENDBRANCH  29  30
ENDBRANCH  22  24
ENDBRANCH  21  22
ENDBRANCH  20  21
ENDBRANCH   1  20
TORSDOF 16
ENDMDL
MODEL 2
REMARK VINA RESULT:     -11.2      0.278      1.642
REMARK SMILES C=CCN(CC(=O)OCCOC(=O)c1ccc(-c2c3nc(c(-c4c(F)c(F)c(F)c(F)c4F)c4ccc([nH]4)c(-c4c(F)c(F)c(F)c(F)c4F)c4nc(c(-c5c(F)c(F)c(F)c(F)c5F)c5ccc2[nH]5)C=C4)C=C3)cc1)c1ccc([N+](=O)[O-])cc1Br
REMARK SMILES IDX 9 1 8 2 6 3 7 4 5 5 4 6 3 7 2 8 1 9 77 10 78 11 85 12 79 13
REMARK SMILES IDX 84 14 86 15 80 16 81 17 82 18 83 19 10 20 11 21 12 22 13 23
REMARK SMILES IDX 14 24 15 25 76 26 16 27 75 28 17 29 18 30 19 31 69 32 20 33
REMARK SMILES IDX 74 34 68 35 70 36 21 37 73 38 67 39 66 40 22 42 54 43 34 44
REMARK SMILES IDX 53 45 35 46 38 47 52 48 71 49 36 50 37 51 51 53 72 54 39 55
REMARK SMILES IDX 23 56 24 57 32 58 25 59 26 60 30 61 33 62 27 63 28 64 31 65
REMARK SMILES IDX 29 66 55 67 56 68 64 69 57 70 58 71 62 72 65 73 59 74 60 75
REMARK SMILES IDX 63 76 61 77 40 78 41 79 49 80 42 81 43 82 47 83 50 84 44 85
REMARK SMILES IDX 45 86 48 87 46 88
REMARK H PARENT 70 41 38 52
REMARK Flexibility Score: inf
ROOT
ATOM      1  C   UNL A   1      31.945  28.353  27.408  1.00  0.00     0.274 C 
ENDROOT
BRANCH   1   2
ATOM      2  O   UNL A   1      31.151  27.286  26.856  1.00  0.00    -0.461 OA
BRANCH   2   3
ATOM      3  C   UNL A   1      31.848  26.287  26.248  1.00  0.00     0.325 C 
ATOM      4  O   UNL A   1      33.074  26.227  26.203  1.00  0.00    -0.250 OA
BRANCH   3   5
ATOM      5  C   UNL A   1      30.976  25.202  25.621  1.00  0.00     0.239 C 
BRANCH   5   6
ATOM      6  N   UNL A   1      30.660  25.380  24.198  1.00  0.00    -0.356 N 
BRANCH   6   7
ATOM      7  C   UNL A   1      31.044  24.352  23.244  1.00  0.00     0.144 C 
BRANCH   7   8
ATOM      8  C   UNL A   1      32.397  23.836  23.638  1.00  0.00    -0.014 C 
ATOM      9  C   UNL A   1      33.420  23.640  22.796  1.00  0.00     0.006 C 
ENDBRANCH   7   8
ENDBRANCH   6   7
BRANCH   6  10
ATOM     10  C   UNL A   1      30.049  26.549  23.771  1.00  0.00     0.052 A 
ATOM     11  C   UNL A   1      28.663  26.696  23.954  1.00  0.00     0.034 A 
ATOM     12  C   UNL A   1      30.737  27.597  23.123  1.00  0.00     0.048 A 
ATOM     13  C   UNL A   1      27.972  27.810  23.465  1.00  0.00     0.088 A 
ATOM     14  C   UNL A   1      30.061  28.724  22.638  1.00  0.00     0.103 A 
ATOM     15  Br  UNL A   1      32.629  27.582  22.898  1.00  0.00    -0.048 Br
ATOM     16  C   UNL A   1      28.676  28.809  22.794  1.00  0.00     0.270 A 
BRANCH  16  17
ATOM     17  N   UNL A   1      27.956  29.949  22.224  1.00  0.00     0.062 N 
ATOM     18  O   UNL A   1      27.288  30.655  22.993  1.00  0.00    -0.258 OA
ATOM     19  O   UNL A   1      28.044  30.128  21.000  1.00  0.00    -0.258 OA
ENDBRANCH  16  17
ENDBRANCH   6  10
ENDBRANCH   5   6
ENDBRANCH   3   5
ENDBRANCH   2   3
ENDBRANCH   1   2
BRANCH   1  20
ATOM     20  C   UNL A   1      31.796  29.627  26.581  1.00  0.00     0.275 C 
BRANCH  20  21
ATOM     21  O   UNL A   1      33.090  30.177  26.277  1.00  0.00    -0.458 OA
BRANCH  21  22
ATOM     22  C   UNL A   1      33.502  31.162  27.105  1.00  0.00     0.338 C 
ATOM     23  O   UNL A   1      32.930  32.210  27.357  1.00  0.00    -0.246 OA
BRANCH  22  24
ATOM     24  C   UNL A   1      34.831  30.849  27.649  1.00  0.00     0.060 A 
ATOM     25  C   UNL A   1      35.230  29.533  27.901  1.00  0.00     0.016 A 
ATOM     26  C   UNL A   1      35.644  31.922  28.014  1.00  0.00     0.016 A 
ATOM     27  C   UNL A   1      36.432  29.292  28.571  1.00  0.00     0.010 A 
ATOM     28  C   UNL A   1      36.864  31.678  28.640  1.00  0.00     0.010 A 
ATOM     29  C   UNL A   1      37.254  30.365  28.948  1.00  0.00    -0.014 A 
BRANCH  29  30
ATOM     30  C   UNL A   1      38.527  30.163  29.677  1.00  0.00     0.031 A 
ATOM     31  C   UNL A   1      39.552  29.209  29.137  1.00  0.00     0.074 A 
ATOM     32  C   UNL A   1      38.712  30.756  30.870  1.00  0.00     0.049 A 
ATOM     33  N   UNL A   1      40.600  28.694  29.728  1.00  0.00    -0.248 NA
ATOM     34  C   UNL A   1      39.364  28.766  27.747  1.00  0.00     0.031 C 
ATOM     35  C   UNL A   1      37.800  31.720  31.482  1.00  0.00     0.029 A 
ATOM     36  N   UNL A   1      39.712  30.599  31.797  1.00  0.00    -0.354 N 
ATOM     37  C   UNL A   1      41.178  27.844  28.796  1.00  0.00     0.074 A 
ATOM     38  C   UNL A   1      40.368  27.911  27.598  1.00  0.00     0.031 C 
ATOM     39  C   UNL A   1      38.266  32.050  32.697  1.00  0.00     0.029 A 
ATOM     40  C   UNL A   1      39.475  31.278  32.967  1.00  0.00     0.049 A 
ATOM     41  H   UNL A   1      40.517  30.055  31.639  1.00  0.00     0.167 HD
ATOM     42  C   UNL A   1      42.283  27.073  28.936  1.00  0.00     0.037 A 
ATOM     43  C   UNL A   1      40.130  31.241  34.142  1.00  0.00     0.037 A 
ATOM     44  C   UNL A   1      43.087  27.019  30.129  1.00  0.00     0.049 A 
ATOM     45  C   UNL A   1      41.329  30.348  34.289  1.00  0.00     0.074 A 
ATOM     46  C   UNL A   1      44.230  26.277  30.371  1.00  0.00     0.029 A 
ATOM     47  N   UNL A   1      42.827  27.741  31.284  1.00  0.00    -0.354 N 
ATOM     48  N   UNL A   1      41.860  29.530  33.414  1.00  0.00    -0.248 NA
ATOM     49  C   UNL A   1      42.013  30.364  35.590  1.00  0.00     0.031 C 
ATOM     50  C   UNL A   1      44.648  26.531  31.682  1.00  0.00     0.029 A 
ATOM     51  C   UNL A   1      43.783  27.456  32.246  1.00  0.00     0.049 A 
ATOM     52  H   UNL A   1      42.074  28.365  31.405  1.00  0.00     0.167 HD
ATOM     53  C   UNL A   1      42.949  28.949  34.046  1.00  0.00     0.074 A 
ATOM     54  C   UNL A   1      43.006  29.511  35.381  1.00  0.00     0.031 C 
ATOM     55  C   UNL A   1      43.824  28.034  33.564  1.00  0.00     0.037 A 
BRANCH  42  56
ATOM     56  C   UNL A   1      42.676  26.205  27.780  1.00  0.00     0.064 A 
ATOM     57  C   UNL A   1      42.083  24.953  27.566  1.00  0.00     0.173 A 
ATOM     58  C   UNL A   1      43.622  26.655  26.846  1.00  0.00     0.173 A 
ATOM     59  F   UNL A   1      41.181  24.476  28.437  1.00  0.00    -0.203 F 
ATOM     60  C   UNL A   1      42.432  24.176  26.464  1.00  0.00     0.198 A 
ATOM     61  C   UNL A   1      43.953  25.883  25.734  1.00  0.00     0.198 A 
ATOM     62  F   UNL A   1      44.213  27.848  27.004  1.00  0.00    -0.203 F 
ATOM     63  F   UNL A   1      41.869  22.972  26.289  1.00  0.00    -0.200 F 
ATOM     64  C   UNL A   1      43.360  24.644  25.546  1.00  0.00     0.200 A 
ATOM     65  F   UNL A   1      44.843  26.343  24.844  1.00  0.00    -0.200 F 
ATOM     66  F   UNL A   1      43.686  23.901  24.480  1.00  0.00    -0.200 F 
ENDBRANCH  42  56
BRANCH  43  67
ATOM     67  C   UNL A   1      39.634  32.059  35.275  1.00  0.00     0.064 A 
ATOM     68  C   UNL A   1      40.021  33.398  35.417  1.00  0.00     0.173 A 
ATOM     69  C   UNL A   1      38.728  31.534  36.208  1.00  0.00     0.173 A 
ATOM     70  F   UNL A   1      40.901  33.934  34.560  1.00  0.00    -0.203 F 
ATOM     71  C   UNL A   1      39.516  34.183  36.451  1.00  0.00     0.198 A 
ATOM     72  C   UNL A   1      38.208  32.327  37.229  1.00  0.00     0.198 A 
ATOM     73  F   UNL A   1      38.329  30.257  36.111  1.00  0.00    -0.203 F 
ATOM     74  F   UNL A   1      39.915  35.456  36.579  1.00  0.00    -0.200 F 
ATOM     75  C   UNL A   1      38.604  33.650  37.350  1.00  0.00     0.200 A 
ATOM     76  F   UNL A   1      37.318  31.811  38.087  1.00  0.00    -0.200 F 
ATOM     77  F   UNL A   1      38.106  34.411  38.334  1.00  0.00    -0.200 F 
ENDBRANCH  43  67
BRANCH  55  78
ATOM     78  C   UNL A   1      44.937  27.612  34.471  1.00  0.00     0.064 A 
ATOM     79  C   UNL A   1      44.804  26.513  35.329  1.00  0.00     0.173 A 
ATOM     80  C   UNL A   1      46.162  28.294  34.452  1.00  0.00     0.173 A 
ATOM     81  F   UNL A   1      43.644  25.842  35.391  1.00  0.00    -0.203 F 
ATOM     82  C   UNL A   1      45.858  26.117  36.149  1.00  0.00     0.198 A 
ATOM     83  C   UNL A   1      47.220  27.885  35.258  1.00  0.00     0.198 A 
ATOM     84  F   UNL A   1      46.334  29.352  33.644  1.00  0.00    -0.203 F 
ATOM     85  F   UNL A   1      45.703  25.082  36.984  1.00  0.00    -0.200 F 
ATOM     86  C   UNL A   1      47.066  26.800  36.108  1.00  0.00     0.200 A 
ATOM     87  F   UNL A   1      48.386  28.543  35.216  1.00  0.00    -0.200 F 
ATOM     88  F   UNL A   1      48.080  26.416  36.896  1.00  0.00    -0.200 F 
ENDBRANCH  55  78
ENDBRANCH  29  30
ENDBRANCH  22  24
ENDBRANCH  21  22
ENDBRANCH  20  21
ENDBRANCH   1  20
TORSDOF 16
ENDMDL
MODEL 3
REMARK VINA RESULT:     -11.0      1.476      3.315
REMARK SMILES C=CCN(CC(=O)OCCOC(=O)c1ccc(-c2c3nc(c(-c4c(F)c(F)c(F)c(F)c4F)c4ccc([nH]4)c(-c4c(F)c(F)c(F)c(F)c4F)c4nc(c(-c5c(F)c(F)c(F)c(F)c5F)c5ccc2[nH]5)C=C4)C=C3)cc1)c1ccc([N+](=O)[O-])cc1Br
REMARK SMILES IDX 9 1 8 2 6 3 7 4 5 5 4 6 3 7 2 8 1 9 77 10 78 11 85 12 79 13
REMARK SMILES IDX 84 14 86 15 80 16 81 17 82 18 83 19 10 20 11 21 12 22 13 23
REMARK SMILES IDX 14 24 15 25 76 26 16 27 75 28 17 29 18 30 19 31 69 32 20 33
REMARK SMILES IDX 74 34 68 35 70 36 21 37 73 38 67 39 66 40 22 42 54 43 34 44
REMARK SMILES IDX 53 45 35 46 38 47 52 48 71 49 36 50 37 51 51 53 72 54 39 55
REMARK SMILES IDX 23 56 24 57 32 58 25 59 26 60 30 61 33 62 27 63 28 64 31 65
REMARK SMILES IDX 29 66 55 67 56 68 64 69 57 70 58 71 62 72 65 73 59 74 60 75
REMARK SMILES IDX 63 76 61 77 40 78 41 79 49 80 42 81 43 82 47 83 50 84 44 85
REMARK SMILES IDX 45 86 48 87 46 88
REMARK H PARENT 70 41 38 52
REMARK Flexibility Score: inf
ROOT
ATOM      1  C   UNL A   1      31.222  29.477  24.453  1.00  0.00     0.274 C 
ENDROOT
BRANCH   1   2
ATOM      2  O   UNL A   1      30.770  28.150  24.782  1.00  0.00    -0.461 OA
BRANCH   2   3
ATOM      3  C   UNL A   1      30.226  27.441  23.755  1.00  0.00     0.325 C 
ATOM      4  O   UNL A   1      29.514  27.928  22.879  1.00  0.00    -0.250 OA
BRANCH   3   5
ATOM      5  C   UNL A   1      30.585  25.957  23.753  1.00  0.00     0.239 C 
BRANCH   5   6
ATOM      6  N   UNL A   1      31.875  25.615  23.140  1.00  0.00    -0.356 N 
BRANCH   6   7
ATOM      7  C   UNL A   1      32.304  26.309  21.936  1.00  0.00     0.144 C 
BRANCH   7   8
ATOM      8  C   UNL A   1      33.652  26.910  22.204  1.00  0.00    -0.014 C 
ATOM      9  C   UNL A   1      33.964  28.202  22.038  1.00  0.00     0.006 C 
ENDBRANCH   7   8
ENDBRANCH   6   7
BRANCH   6  10
ATOM     10  C   UNL A   1      32.644  24.598  23.683  1.00  0.00     0.052 A 
ATOM     11  C   UNL A   1      32.644  23.338  23.061  1.00  0.00     0.034 A 
ATOM     12  C   UNL A   1      33.410  24.744  24.861  1.00  0.00     0.048 A 
ATOM     13  C   UNL A   1      33.326  22.247  23.609  1.00  0.00     0.088 A 
ATOM     14  C   UNL A   1      34.108  23.664  25.416  1.00  0.00     0.103 A 
ATOM     15  Br  UNL A   1      33.588  26.418  25.754  1.00  0.00    -0.048 Br
ATOM     16  C   UNL A   1      34.041  22.416  24.796  1.00  0.00     0.270 A 
BRANCH  16  17
ATOM     17  N   UNL A   1      34.708  21.268  25.412  1.00  0.00     0.062 N 
ATOM     18  O   UNL A   1      34.647  20.179  24.825  1.00  0.00    -0.258 OA
ATOM     19  O   UNL A   1      35.278  21.453  26.498  1.00  0.00    -0.258 OA
ENDBRANCH  16  17
ENDBRANCH   6  10
ENDBRANCH   5   6
ENDBRANCH   3   5
ENDBRANCH   2   3
ENDBRANCH   1   2
BRANCH   1  20
ATOM     20  C   UNL A   1      31.450  30.303  25.715  1.00  0.00     0.275 C 
BRANCH  20  21
ATOM     21  O   UNL A   1      32.841  30.272  26.085  1.00  0.00    -0.458 OA
BRANCH  21  22
ATOM     22  C   UNL A   1      33.218  31.218  26.973  1.00  0.00     0.338 C 
ATOM     23  O   UNL A   1      32.632  32.251  27.253  1.00  0.00    -0.246 OA
BRANCH  22  24
ATOM     24  C   UNL A   1      34.528  30.883  27.550  1.00  0.00     0.060 A 
ATOM     25  C   UNL A   1      34.857  29.575  27.917  1.00  0.00     0.016 A 
ATOM     26  C   UNL A   1      35.396  31.940  27.826  1.00  0.00     0.016 A 
ATOM     27  C   UNL A   1      36.043  29.330  28.612  1.00  0.00     0.010 A 
ATOM     28  C   UNL A   1      36.600  31.687  28.478  1.00  0.00     0.010 A 
ATOM     29  C   UNL A   1      36.920  30.386  28.900  1.00  0.00    -0.014 A 
BRANCH  29  30
ATOM     30  C   UNL A   1      38.180  30.182  29.651  1.00  0.00     0.031 A 
ATOM     31  C   UNL A   1      39.226  29.251  29.111  1.00  0.00     0.074 A 
ATOM     32  C   UNL A   1      38.333  30.749  30.861  1.00  0.00     0.049 A 
ATOM     33  N   UNL A   1      40.267  28.733  29.714  1.00  0.00    -0.248 NA
ATOM     34  C   UNL A   1      39.072  28.837  27.708  1.00  0.00     0.031 C 
ATOM     35  C   UNL A   1      37.398  31.690  31.475  1.00  0.00     0.029 A 
ATOM     36  N   UNL A   1      39.315  30.582  31.805  1.00  0.00    -0.354 N 
ATOM     37  C   UNL A   1      40.874  27.911  28.775  1.00  0.00     0.074 A 
ATOM     38  C   UNL A   1      40.088  27.996  27.562  1.00  0.00     0.031 C 
ATOM     39  C   UNL A   1      37.835  31.998  32.706  1.00  0.00     0.029 A 
ATOM     40  C   UNL A   1      39.046  31.232  32.984  1.00  0.00     0.049 A 
ATOM     41  H   UNL A   1      40.129  30.051  31.652  1.00  0.00     0.167 HD
ATOM     42  C   UNL A   1      41.984  27.148  28.922  1.00  0.00     0.037 A 
ATOM     43  C   UNL A   1      39.677  31.175  34.172  1.00  0.00     0.037 A 
ATOM     44  C   UNL A   1      42.763  27.076  30.129  1.00  0.00     0.049 A 
ATOM     45  C   UNL A   1      40.882  30.292  34.325  1.00  0.00     0.074 A 
ATOM     46  C   UNL A   1      43.909  26.341  30.379  1.00  0.00     0.029 A 
ATOM     47  N   UNL A   1      42.471  27.769  31.295  1.00  0.00    -0.354 N 
ATOM     48  N   UNL A   1      41.440  29.500  33.442  1.00  0.00    -0.248 NA
ATOM     49  C   UNL A   1      41.539  30.286  35.639  1.00  0.00     0.031 C 
ATOM     50  C   UNL A   1      44.296  26.570  31.704  1.00  0.00     0.029 A 
ATOM     51  C   UNL A   1      43.410  27.472  32.270  1.00  0.00     0.049 A 
ATOM     52  H   UNL A   1      41.709  28.383  31.413  1.00  0.00     0.167 HD
ATOM     53  C   UNL A   1      42.522  28.916  34.085  1.00  0.00     0.074 A 
ATOM     54  C   UNL A   1      42.545  29.448  35.432  1.00  0.00     0.031 C 
ATOM     55  C   UNL A   1      43.417  28.021  33.601  1.00  0.00     0.037 A 
BRANCH  42  56
ATOM     56  C   UNL A   1      42.410  26.311  27.754  1.00  0.00     0.064 A 
ATOM     57  C   UNL A   1      43.406  26.742  26.866  1.00  0.00     0.173 A 
ATOM     58  C   UNL A   1      41.851  25.040  27.551  1.00  0.00     0.173 A 
ATOM     59  F   UNL A   1      43.963  27.953  27.014  1.00  0.00    -0.203 F 
ATOM     60  C   UNL A   1      43.819  25.935  25.809  1.00  0.00     0.198 A 
ATOM     61  C   UNL A   1      42.280  24.228  26.504  1.00  0.00     0.198 A 
ATOM     62  F   UNL A   1      40.899  24.582  28.376  1.00  0.00    -0.203 F 
ATOM     63  F   UNL A   1      44.757  26.374  24.958  1.00  0.00    -0.200 F 
ATOM     64  C   UNL A   1      43.261  24.676  25.633  1.00  0.00     0.200 A 
ATOM     65  F   UNL A   1      41.747  23.009  26.343  1.00  0.00    -0.200 F 
ATOM     66  F   UNL A   1      43.668  23.897  24.622  1.00  0.00    -0.200 F 
ENDBRANCH  42  56
BRANCH  43  67
ATOM     67  C   UNL A   1      39.148  31.963  35.312  1.00  0.00     0.064 A 
ATOM     68  C   UNL A   1      38.339  31.363  36.286  1.00  0.00     0.173 A 
ATOM     69  C   UNL A   1      39.481  33.315  35.476  1.00  0.00     0.173 A 
ATOM     70  F   UNL A   1      37.980  30.078  36.157  1.00  0.00    -0.203 F 
ATOM     71  C   UNL A   1      37.884  32.087  37.385  1.00  0.00     0.198 A 
ATOM     72  C   UNL A   1      39.042  34.033  36.587  1.00  0.00     0.198 A 
ATOM     73  F   UNL A   1      40.254  33.931  34.570  1.00  0.00    -0.203 F 
ATOM     74  F   UNL A   1      37.095  31.498  38.293  1.00  0.00    -0.200 F 
ATOM     75  C   UNL A   1      38.243  33.419  37.539  1.00  0.00     0.200 A 
ATOM     76  F   UNL A   1      39.403  35.314  36.739  1.00  0.00    -0.200 F 
ATOM     77  F   UNL A   1      37.819  34.110  38.605  1.00  0.00    -0.200 F 
ENDBRANCH  43  67
BRANCH  55  78
ATOM     78  C   UNL A   1      44.515  27.590  34.522  1.00  0.00     0.064 A 
ATOM     79  C   UNL A   1      45.713  28.310  34.618  1.00  0.00     0.173 A 
ATOM     80  C   UNL A   1      44.347  26.468  35.346  1.00  0.00     0.173 A 
ATOM     81  F   UNL A   1      45.922  29.380  33.837  1.00  0.00    -0.203 F 
ATOM     82  C   UNL A   1      46.715  27.911  35.499  1.00  0.00     0.198 A 
ATOM     83  C   UNL A   1      45.342  26.083  36.239  1.00  0.00     0.198 A 
ATOM     84  F   UNL A   1      43.215  25.751  35.289  1.00  0.00    -0.203 F 
ATOM     85  F   UNL A   1      47.866  28.593  35.555  1.00  0.00    -0.200 F 
ATOM     86  C   UNL A   1      46.526  26.802  36.313  1.00  0.00     0.200 A 
ATOM     87  F   UNL A   1      45.158  25.014  37.026  1.00  0.00    -0.200 F 
ATOM     88  F   UNL A   1      47.490  26.421  37.162  1.00  0.00    -0.200 F 
ENDBRANCH  55  78
ENDBRANCH  29  30
ENDBRANCH  22  24
ENDBRANCH  21  22
ENDBRANCH  20  21
ENDBRANCH   1  20
TORSDOF 16
ENDMDL
