MODEL 1
REMARK VINA RESULT:     -10.7      0.000      0.000
REMARK SMILES Cc1cc(SC[C@H]([NH3+])C(=O)OCCOC(=O)c2ccc(-c3c4nc(c(-c5c(F)c(F)c(F)c(F)c5F)c5ccc([nH]5)c(-c5c(F)c(F)c(F)c(F)c5F)c5nc(c(-c6c(F)c(F)c(F)c(F)c6F)c6ccc3[nH]6)C=C5)C=C4)cc2)ccc1N
REMARK SMILES IDX 12 1 11 2 9 3 10 4 7 5 6 6 5 7 4 8 1 9 2 10 3 11 82 12 81 13
REMARK SMILES IDX 80 14 83 15 8 18 13 22 14 23 15 24 16 25 17 26 18 27 79 28
REMARK SMILES IDX 19 29 78 30 20 31 21 32 22 33 72 34 23 35 77 36 71 37 73 38
REMARK SMILES IDX 24 39 76 40 70 41 69 42 25 44 57 45 37 46 56 47 38 48 41 49
REMARK SMILES IDX 55 50 74 51 39 52 40 53 54 55 75 56 42 57 26 58 27 59 35 60
REMARK SMILES IDX 28 61 29 62 33 63 36 64 30 65 31 66 34 67 32 68 58 69 59 70
REMARK SMILES IDX 67 71 60 72 61 73 65 74 68 75 62 76 63 77 66 78 64 79 43 80
REMARK SMILES IDX 44 81 52 82 45 83 46 84 50 85 53 86 47 87 48 88 51 89 49 90
REMARK H PARENT 83 16 83 17 8 19 8 20 8 21 73 43 41 54
REMARK Flexibility Score: inf
ROOT
ATOM      1  C   UNL A   1      33.169  35.385  28.719  1.00  0.00     0.274 C 
ENDROOT
BRANCH   1   2
ATOM      2  O   UNL A   1      32.649  35.137  30.034  1.00  0.00    -0.458 OA
BRANCH   2   3
ATOM      3  C   UNL A   1      32.831  36.141  30.941  1.00  0.00     0.365 C 
ATOM      4  O   UNL A   1      32.888  37.330  30.652  1.00  0.00    -0.245 OA
BRANCH   3   5
ATOM      5  C   UNL A   1      32.996  35.628  32.375  1.00  0.00     0.302 C 
BRANCH   5   6
ATOM      6  C   UNL A   1      34.127  34.585  32.434  1.00  0.00     0.152 C 
BRANCH   6   7
ATOM      7  S   UNL A   1      35.196  34.628  33.937  1.00  0.00    -0.119 SA
BRANCH   7   8
ATOM      8  C   UNL A   1      36.869  34.563  33.307  1.00  0.00     0.008 A 
ATOM      9  C   UNL A   1      38.843  34.627  30.046  1.00  0.00     0.046 C 
ATOM     10  C   UNL A   1      38.544  34.580  31.521  1.00  0.00    -0.027 A 
ATOM     11  C   UNL A   1      37.198  34.536  31.950  1.00  0.00     0.020 A 
ATOM     12  C   UNL A   1      39.576  34.624  32.472  1.00  0.00     0.034 A 
ATOM     13  C   UNL A   1      39.242  34.536  33.826  1.00  0.00     0.027 A 
ATOM     14  C   UNL A   1      37.908  34.521  34.241  1.00  0.00     0.017 A 
BRANCH  12  15
ATOM     15  N   UNL A   1      40.916  34.620  32.103  1.00  0.00    -0.399 N 
ATOM     16  H   UNL A   1      41.611  34.425  32.773  1.00  0.00     0.156 HD
ATOM     17  H   UNL A   1      41.171  34.813  31.172  1.00  0.00     0.156 HD
ENDBRANCH  12  15
ENDBRANCH   7   8
ENDBRANCH   6   7
ENDBRANCH   5   6
BRANCH   5  18
ATOM     18  N   UNL A   1      31.730  35.024  32.879  1.00  0.00    -0.345 N 
ATOM     19  H   UNL A   1      31.687  35.125  33.893  1.00  0.00     0.345 HD
ATOM     20  H   UNL A   1      31.705  34.035  32.634  1.00  0.00     0.345 HD
ATOM     21  H   UNL A   1      30.934  35.500  32.455  1.00  0.00     0.345 HD
ENDBRANCH   5  18
ENDBRANCH   3   5
ENDBRANCH   2   3
ENDBRANCH   1   2
BRANCH   1  22
ATOM     22  C   UNL A   1      33.819  34.205  27.987  1.00  0.00     0.275 C 
BRANCH  22  23
ATOM     23  O   UNL A   1      33.917  33.016  28.780  1.00  0.00    -0.458 OA
BRANCH  23  24
ATOM     24  C   UNL A   1      34.068  31.893  28.043  1.00  0.00     0.338 C 
ATOM     25  O   UNL A   1      33.261  31.414  27.262  1.00  0.00    -0.246 OA
BRANCH  24  26
ATOM     26  C   UNL A   1      35.427  31.345  28.182  1.00  0.00     0.060 A 
ATOM     27  C   UNL A   1      35.533  29.955  28.312  1.00  0.00     0.016 A 
ATOM     28  C   UNL A   1      36.550  32.165  28.318  1.00  0.00     0.016 A 
ATOM     29  C   UNL A   1      36.747  29.380  28.660  1.00  0.00     0.010 A 
ATOM     30  C   UNL A   1      37.770  31.588  28.679  1.00  0.00     0.010 A 
ATOM     31  C   UNL A   1      37.853  30.201  28.904  1.00  0.00    -0.014 A 
BRANCH  31  32
ATOM     32  C   UNL A   1      39.016  29.618  29.606  1.00  0.00     0.031 A 
ATOM     33  C   UNL A   1      39.277  30.040  31.025  1.00  0.00     0.074 A 
ATOM     34  C   UNL A   1      39.770  28.676  29.015  1.00  0.00     0.049 A 
ATOM     35  N   UNL A   1      40.228  29.668  31.843  1.00  0.00    -0.248 NA
ATOM     36  C   UNL A   1      38.333  31.011  31.602  1.00  0.00     0.031 C 
ATOM     37  C   UNL A   1      39.562  28.154  27.666  1.00  0.00     0.029 A 
ATOM     38  N   UNL A   1      40.857  27.986  29.484  1.00  0.00    -0.354 N 
ATOM     39  C   UNL A   1      40.001  30.367  33.023  1.00  0.00     0.074 A 
ATOM     40  C   UNL A   1      38.840  31.201  32.810  1.00  0.00     0.031 C 
ATOM     41  C   UNL A   1      40.499  27.225  27.413  1.00  0.00     0.029 A 
ATOM     42  C   UNL A   1      41.383  27.109  28.570  1.00  0.00     0.049 A 
ATOM     43  H   UNL A   1      41.223  28.107  30.390  1.00  0.00     0.167 HD
ATOM     44  C   UNL A   1      40.699  30.310  34.180  1.00  0.00     0.037 A 
ATOM     45  C   UNL A   1      42.468  26.317  28.661  1.00  0.00     0.037 A 
ATOM     46  C   UNL A   1      41.852  29.473  34.382  1.00  0.00     0.049 A 
ATOM     47  C   UNL A   1      43.257  26.308  29.945  1.00  0.00     0.074 A 
ATOM     48  C   UNL A   1      42.644  29.344  35.508  1.00  0.00     0.029 A 
ATOM     49  N   UNL A   1      42.374  28.617  33.423  1.00  0.00    -0.354 N 
ATOM     50  N   UNL A   1      43.044  26.975  31.053  1.00  0.00    -0.248 NA
ATOM     51  C   UNL A   1      44.434  25.431  29.991  1.00  0.00     0.031 C 
ATOM     52  C   UNL A   1      43.669  28.437  35.217  1.00  0.00     0.029 A 
ATOM     53  C   UNL A   1      43.488  27.966  33.926  1.00  0.00     0.049 A 
ATOM     54  H   UNL A   1      42.008  28.491  32.518  1.00  0.00     0.167 HD
ATOM     55  C   UNL A   1      44.042  26.585  31.935  1.00  0.00     0.074 A 
ATOM     56  C   UNL A   1      44.854  25.609  31.236  1.00  0.00     0.031 C 
ATOM     57  C   UNL A   1      44.271  26.994  33.207  1.00  0.00     0.037 A 
BRANCH  44  58
ATOM     58  C   UNL A   1      40.253  31.203  35.299  1.00  0.00     0.064 A 
ATOM     59  C   UNL A   1      39.067  30.961  36.010  1.00  0.00     0.173 A 
ATOM     60  C   UNL A   1      41.025  32.314  35.672  1.00  0.00     0.173 A 
ATOM     61  F   UNL A   1      38.282  29.924  35.680  1.00  0.00    -0.203 F 
ATOM     62  C   UNL A   1      38.659  31.813  37.034  1.00  0.00     0.198 A 
ATOM     63  C   UNL A   1      40.628  33.148  36.713  1.00  0.00     0.198 A 
ATOM     64  F   UNL A   1      42.166  32.591  35.023  1.00  0.00    -0.203 F 
ATOM     65  F   UNL A   1      37.499  31.589  37.667  1.00  0.00    -0.200 F 
ATOM     66  C   UNL A   1      39.442  32.901  37.389  1.00  0.00     0.200 A 
ATOM     67  F   UNL A   1      41.389  34.195  37.058  1.00  0.00    -0.200 F 
ATOM     68  F   UNL A   1      39.049  33.719  38.375  1.00  0.00    -0.200 F 
ENDBRANCH  44  58
BRANCH  45  69
ATOM     69  C   UNL A   1      42.869  25.476  27.505  1.00  0.00     0.064 A 
ATOM     70  C   UNL A   1      42.274  24.229  27.274  1.00  0.00     0.173 A 
ATOM     71  C   UNL A   1      43.857  25.905  26.606  1.00  0.00     0.173 A 
ATOM     72  F   UNL A   1      41.343  23.765  28.119  1.00  0.00    -0.203 F 
ATOM     73  C   UNL A   1      42.661  23.436  26.195  1.00  0.00     0.198 A 
ATOM     74  C   UNL A   1      44.225  25.123  25.513  1.00  0.00     0.198 A 
ATOM     75  F   UNL A   1      44.459  27.091  26.784  1.00  0.00    -0.203 F 
ATOM     76  F   UNL A   1      42.106  22.230  26.020  1.00  0.00    -0.200 F 
ATOM     77  C   UNL A   1      43.631  23.887  25.311  1.00  0.00     0.200 A 
ATOM     78  F   UNL A   1      45.154  25.568  24.656  1.00  0.00    -0.200 F 
ATOM     79  F   UNL A   1      43.999  23.126  24.271  1.00  0.00    -0.200 F 
ENDBRANCH  45  69
BRANCH  57  80
ATOM     80  C   UNL A   1      45.424  26.364  33.930  1.00  0.00     0.064 A 
ATOM     81  C   UNL A   1      46.692  26.961  33.951  1.00  0.00     0.173 A 
ATOM     82  C   UNL A   1      45.245  25.167  34.640  1.00  0.00     0.173 A 
ATOM     83  F   UNL A   1      46.914  28.099  33.275  1.00  0.00    -0.203 F 
ATOM     84  C   UNL A   1      47.749  26.367  34.635  1.00  0.00     0.198 A 
ATOM     85  C   UNL A   1      46.297  24.590  35.344  1.00  0.00     0.198 A 
ATOM     86  F   UNL A   1      44.048  24.563  34.656  1.00  0.00    -0.203 F 
ATOM     87  F   UNL A   1      48.965  26.930  34.604  1.00  0.00    -0.200 F 
ATOM     88  C   UNL A   1      47.550  25.186  35.336  1.00  0.00     0.200 A 
ATOM     89  F   UNL A   1      46.100  23.457  36.032  1.00  0.00    -0.200 F 
ATOM     90  F   UNL A   1      48.567  24.619  35.997  1.00  0.00    -0.200 F 
ENDBRANCH  57  80
ENDBRANCH  31  32
ENDBRANCH  24  26
ENDBRANCH  23  24
ENDBRANCH  22  23
ENDBRANCH   1  22
TORSDOF 16
ENDMDL
MODEL 2
REMARK VINA RESULT:     -10.6      4.962     11.054
REMARK SMILES Cc1cc(SC[C@H]([NH3+])C(=O)OCCOC(=O)c2ccc(-c3c4nc(c(-c5c(F)c(F)c(F)c(F)c5F)c5ccc([nH]5)c(-c5c(F)c(F)c(F)c(F)c5F)c5nc(c(-c6c(F)c(F)c(F)c(F)c6F)c6ccc3[nH]6)C=C5)C=C4)cc2)ccc1N
REMARK SMILES IDX 12 1 11 2 9 3 10 4 7 5 6 6 5 7 4 8 1 9 2 10 3 11 82 12 81 13
REMARK SMILES IDX 80 14 83 15 8 18 13 22 14 23 15 24 16 25 17 26 18 27 79 28
REMARK SMILES IDX 19 29 78 30 20 31 21 32 22 33 72 34 23 35 77 36 71 37 73 38
REMARK SMILES IDX 24 39 76 40 70 41 69 42 25 44 57 45 37 46 56 47 38 48 41 49
REMARK SMILES IDX 55 50 74 51 39 52 40 53 54 55 75 56 42 57 26 58 27 59 35 60
REMARK SMILES IDX 28 61 29 62 33 63 36 64 30 65 31 66 34 67 32 68 58 69 59 70
REMARK SMILES IDX 67 71 60 72 61 73 65 74 68 75 62 76 63 77 66 78 64 79 43 80
REMARK SMILES IDX 44 81 52 82 45 83 46 84 50 85 53 86 47 87 48 88 51 89 49 90
REMARK H PARENT 83 16 83 17 8 19 8 20 8 21 73 43 41 54
REMARK Flexibility Score: inf
ROOT
ATOM      1  C   UNL A   1      45.017  20.903  24.648  1.00  0.00     0.274 C 
ENDROOT
BRANCH   1   2
ATOM      2  O   UNL A   1      43.900  20.037  24.400  1.00  0.00    -0.458 OA
BRANCH   2   3
ATOM      3  C   UNL A   1      43.676  19.076  25.343  1.00  0.00     0.365 C 
ATOM      4  O   UNL A   1      44.415  18.121  25.546  1.00  0.00    -0.245 OA
BRANCH   3   5
ATOM      5  C   UNL A   1      42.370  19.290  26.115  1.00  0.00     0.302 C 
BRANCH   5   6
ATOM      6  C   UNL A   1      41.914  20.755  25.983  1.00  0.00     0.152 C 
BRANCH   6   7
ATOM      7  S   UNL A   1      40.941  21.435  27.395  1.00  0.00    -0.119 SA
BRANCH   7   8
ATOM      8  C   UNL A   1      39.492  22.162  26.640  1.00  0.00     0.008 A 
ATOM      9  C   UNL A   1      36.466  21.269  24.498  1.00  0.00     0.046 C 
ATOM     10  C   UNL A   1      37.428  22.081  25.324  1.00  0.00    -0.027 A 
ATOM     11  C   UNL A   1      38.606  21.470  25.811  1.00  0.00     0.020 A 
ATOM     12  C   UNL A   1      37.151  23.418  25.652  1.00  0.00     0.034 A 
ATOM     13  C   UNL A   1      38.098  24.136  26.387  1.00  0.00     0.027 A 
ATOM     14  C   UNL A   1      39.246  23.515  26.888  1.00  0.00     0.017 A 
BRANCH  12  15
ATOM     15  N   UNL A   1      36.032  24.080  25.160  1.00  0.00    -0.399 N 
ATOM     16  H   UNL A   1      35.313  24.355  25.774  1.00  0.00     0.156 HD
ATOM     17  H   UNL A   1      35.959  24.274  24.198  1.00  0.00     0.156 HD
ENDBRANCH  12  15
ENDBRANCH   7   8
ENDBRANCH   6   7
ENDBRANCH   5   6
BRANCH   5  18
ATOM     18  N   UNL A   1      42.533  18.943  27.555  1.00  0.00    -0.345 N 
ATOM     19  H   UNL A   1      41.859  18.221  27.808  1.00  0.00     0.345 HD
ATOM     20  H   UNL A   1      42.372  19.773  28.124  1.00  0.00     0.345 HD
ATOM     21  H   UNL A   1      43.478  18.597  27.715  1.00  0.00     0.345 HD
ENDBRANCH   5  18
ENDBRANCH   3   5
ENDBRANCH   2   3
ENDBRANCH   1   2
BRANCH   1  22
ATOM     22  C   UNL A   1      44.839  22.391  24.320  1.00  0.00     0.275 C 
BRANCH  22  23
ATOM     23  O   UNL A   1      44.358  23.171  25.421  1.00  0.00    -0.458 OA
BRANCH  23  24
ATOM     24  C   UNL A   1      44.629  24.490  25.299  1.00  0.00     0.338 C 
ATOM     25  O   UNL A   1      45.462  25.003  24.568  1.00  0.00    -0.246 OA
BRANCH  24  26
ATOM     26  C   UNL A   1      43.679  25.302  26.077  1.00  0.00     0.060 A 
ATOM     27  C   UNL A   1      43.957  26.670  26.176  1.00  0.00     0.016 A 
ATOM     28  C   UNL A   1      42.629  24.730  26.799  1.00  0.00     0.016 A 
ATOM     29  C   UNL A   1      43.240  27.463  27.061  1.00  0.00     0.010 A 
ATOM     30  C   UNL A   1      41.914  25.525  27.698  1.00  0.00     0.010 A 
ATOM     31  C   UNL A   1      42.257  26.879  27.868  1.00  0.00    -0.014 A 
BRANCH  31  32
ATOM     32  C   UNL A   1      41.762  27.644  29.031  1.00  0.00     0.031 A 
ATOM     33  C   UNL A   1      42.544  27.577  30.313  1.00  0.00     0.074 A 
ATOM     34  C   UNL A   1      40.687  28.442  28.918  1.00  0.00     0.049 A 
ATOM     35  N   UNL A   1      42.312  28.159  31.463  1.00  0.00    -0.248 NA
ATOM     36  C   UNL A   1      43.757  26.743  30.296  1.00  0.00     0.031 C 
ATOM     37  C   UNL A   1      39.897  28.624  27.703  1.00  0.00     0.029 A 
ATOM     38  N   UNL A   1      40.083  29.254  29.842  1.00  0.00    -0.354 N 
ATOM     39  C   UNL A   1      43.340  27.752  32.303  1.00  0.00     0.074 A 
ATOM     40  C   UNL A   1      44.186  26.858  31.543  1.00  0.00     0.031 C 
ATOM     41  C   UNL A   1      38.906  29.494  27.957  1.00  0.00     0.029 A 
ATOM     42  C   UNL A   1      38.978  29.905  29.357  1.00  0.00     0.049 A 
ATOM     43  H   UNL A   1      40.412  29.361  30.764  1.00  0.00     0.167 HD
ATOM     44  C   UNL A   1      43.560  28.101  33.592  1.00  0.00     0.037 A 
ATOM     45  C   UNL A   1      38.117  30.727  29.986  1.00  0.00     0.037 A 
ATOM     46  C   UNL A   1      42.714  28.995  34.336  1.00  0.00     0.049 A 
ATOM     47  C   UNL A   1      38.356  31.061  31.436  1.00  0.00     0.074 A 
ATOM     48  C   UNL A   1      42.833  29.408  35.650  1.00  0.00     0.029 A 
ATOM     49  N   UNL A   1      41.585  29.615  33.820  1.00  0.00    -0.354 N 
ATOM     50  N   UNL A   1      39.325  30.670  32.227  1.00  0.00    -0.248 NA
ATOM     51  C   UNL A   1      37.385  31.958  32.076  1.00  0.00     0.031 C 
ATOM     52  C   UNL A   1      41.754  30.250  35.940  1.00  0.00     0.029 A 
ATOM     53  C   UNL A   1      40.988  30.398  34.794  1.00  0.00     0.049 A 
ATOM     54  H   UNL A   1      41.256  29.513  32.898  1.00  0.00     0.167 HD
ATOM     55  C   UNL A   1      39.095  31.285  33.450  1.00  0.00     0.074 A 
ATOM     56  C   UNL A   1      37.902  32.091  33.290  1.00  0.00     0.031 C 
ATOM     57  C   UNL A   1      39.804  31.194  34.601  1.00  0.00     0.037 A 
BRANCH  44  58
ATOM     58  C   UNL A   1      44.741  27.485  34.281  1.00  0.00     0.064 A 
ATOM     59  C   UNL A   1      44.653  26.241  34.927  1.00  0.00     0.173 A 
ATOM     60  C   UNL A   1      45.980  28.142  34.291  1.00  0.00     0.173 A 
ATOM     61  F   UNL A   1      43.486  25.580  34.964  1.00  0.00    -0.203 F 
ATOM     62  C   UNL A   1      45.756  25.693  35.579  1.00  0.00     0.198 A 
ATOM     63  C   UNL A   1      47.087  27.580  34.921  1.00  0.00     0.198 A 
ATOM     64  F   UNL A   1      46.117  29.333  33.690  1.00  0.00    -0.203 F 
ATOM     65  F   UNL A   1      45.637  24.528  36.230  1.00  0.00    -0.200 F 
ATOM     66  C   UNL A   1      46.973  26.359  35.570  1.00  0.00     0.200 A 
ATOM     67  F   UNL A   1      48.263  28.221  34.905  1.00  0.00    -0.200 F 
ATOM     68  F   UNL A   1      48.033  25.830  36.196  1.00  0.00    -0.200 F 
ENDBRANCH  44  58
BRANCH  45  69
ATOM     69  C   UNL A   1      36.952  31.282  29.250  1.00  0.00     0.064 A 
ATOM     70  C   UNL A   1      35.852  30.480  28.922  1.00  0.00     0.173 A 
ATOM     71  C   UNL A   1      36.918  32.630  28.861  1.00  0.00     0.173 A 
ATOM     72  F   UNL A   1      35.850  29.180  29.251  1.00  0.00    -0.203 F 
ATOM     73  C   UNL A   1      34.766  31.001  28.220  1.00  0.00     0.198 A 
ATOM     74  C   UNL A   1      35.820  33.156  28.183  1.00  0.00     0.198 A 
ATOM     75  F   UNL A   1      37.948  33.440  29.149  1.00  0.00    -0.203 F 
ATOM     76  F   UNL A   1      33.744  30.202  27.883  1.00  0.00    -0.200 F 
ATOM     77  C   UNL A   1      34.748  32.339  27.858  1.00  0.00     0.200 A 
ATOM     78  F   UNL A   1      35.802  34.452  27.844  1.00  0.00    -0.200 F 
ATOM     79  F   UNL A   1      33.701  32.841  27.188  1.00  0.00    -0.200 F 
ENDBRANCH  45  69
BRANCH  57  80
ATOM     80  C   UNL A   1      39.324  32.011  35.765  1.00  0.00     0.064 A 
ATOM     81  C   UNL A   1      38.400  31.501  36.687  1.00  0.00     0.173 A 
ATOM     82  C   UNL A   1      39.823  33.304  35.976  1.00  0.00     0.173 A 
ATOM     83  F   UNL A   1      37.885  30.273  36.519  1.00  0.00    -0.203 F 
ATOM     84  C   UNL A   1      37.971  32.268  37.767  1.00  0.00     0.198 A 
ATOM     85  C   UNL A   1      39.413  34.058  37.071  1.00  0.00     0.198 A 
ATOM     86  F   UNL A   1      40.715  33.832  35.125  1.00  0.00    -0.203 F 
ATOM     87  F   UNL A   1      37.053  31.779  38.611  1.00  0.00    -0.200 F 
ATOM     88  C   UNL A   1      38.483  33.543  37.962  1.00  0.00     0.200 A 
ATOM     89  F   UNL A   1      39.918  35.285  37.265  1.00  0.00    -0.200 F 
ATOM     90  F   UNL A   1      38.073  34.279  39.003  1.00  0.00    -0.200 F 
ENDBRANCH  57  80
ENDBRANCH  31  32
ENDBRANCH  24  26
ENDBRANCH  23  24
ENDBRANCH  22  23
ENDBRANCH   1  22
TORSDOF 16
ENDMDL
MODEL 3
REMARK VINA RESULT:     -10.6      4.909     11.001
REMARK SMILES Cc1cc(SC[C@H]([NH3+])C(=O)OCCOC(=O)c2ccc(-c3c4nc(c(-c5c(F)c(F)c(F)c(F)c5F)c5ccc([nH]5)c(-c5c(F)c(F)c(F)c(F)c5F)c5nc(c(-c6c(F)c(F)c(F)c(F)c6F)c6ccc3[nH]6)C=C5)C=C4)cc2)ccc1N
REMARK SMILES IDX 12 1 11 2 9 3 10 4 7 5 6 6 5 7 4 8 1 9 2 10 3 11 82 12 81 13
REMARK SMILES IDX 80 14 83 15 8 18 13 22 14 23 15 24 16 25 17 26 18 27 79 28
REMARK SMILES IDX 19 29 78 30 20 31 21 32 22 33 72 34 23 35 77 36 71 37 73 38
REMARK SMILES IDX 24 39 76 40 70 41 69 42 25 44 57 45 37 46 56 47 38 48 41 49
REMARK SMILES IDX 55 50 74 51 39 52 40 53 54 55 75 56 42 57 26 58 27 59 35 60
REMARK SMILES IDX 28 61 29 62 33 63 36 64 30 65 31 66 34 67 32 68 58 69 59 70
REMARK SMILES IDX 67 71 60 72 61 73 65 74 68 75 62 76 63 77 66 78 64 79 43 80
REMARK SMILES IDX 44 81 52 82 45 83 46 84 50 85 53 86 47 87 48 88 51 89 49 90
REMARK H PARENT 83 16 83 17 8 19 8 20 8 21 73 43 41 54
REMARK Flexibility Score: inf
ROOT
ATOM      1  C   UNL A   1      44.336  21.456  25.280  1.00  0.00     0.274 C 
ENDROOT
BRANCH   1   2
ATOM      2  O   UNL A   1      43.104  21.334  26.006  1.00  0.00    -0.458 OA
BRANCH   2   3
ATOM      3  C   UNL A   1      42.446  20.146  25.860  1.00  0.00     0.365 C 
ATOM      4  O   UNL A   1      42.748  19.286  25.041  1.00  0.00    -0.245 OA
BRANCH   3   5
ATOM      5  C   UNL A   1      41.253  20.003  26.809  1.00  0.00     0.302 C 
BRANCH   5   6
ATOM      6  C   UNL A   1      39.959  20.441  26.097  1.00  0.00     0.152 C 
BRANCH   6   7
ATOM      7  S   UNL A   1      39.488  22.215  26.281  1.00  0.00    -0.119 SA
BRANCH   7   8
ATOM      8  C   UNL A   1      37.784  22.292  25.744  1.00  0.00     0.008 A 
ATOM      9  C   UNL A   1      34.872  24.723  25.365  1.00  0.00     0.046 C 
ATOM     10  C   UNL A   1      35.670  23.447  25.307  1.00  0.00    -0.027 A 
ATOM     11  C   UNL A   1      36.980  23.429  25.838  1.00  0.00     0.020 A 
ATOM     12  C   UNL A   1      35.151  22.294  24.698  1.00  0.00     0.034 A 
ATOM     13  C   UNL A   1      35.920  21.128  24.709  1.00  0.00     0.027 A 
ATOM     14  C   UNL A   1      37.225  21.127  25.210  1.00  0.00     0.017 A 
BRANCH  12  15
ATOM     15  N   UNL A   1      33.853  22.245  24.203  1.00  0.00    -0.399 N 
ATOM     16  H   UNL A   1      33.522  22.961  23.614  1.00  0.00     0.156 HD
ATOM     17  H   UNL A   1      33.264  21.492  24.440  1.00  0.00     0.156 HD
ENDBRANCH  12  15
ENDBRANCH   7   8
ENDBRANCH   6   7
ENDBRANCH   5   6
BRANCH   5  18
ATOM     18  N   UNL A   1      41.447  20.817  28.042  1.00  0.00    -0.345 N 
ATOM     19  H   UNL A   1      40.830  20.470  28.777  1.00  0.00     0.345 HD
ATOM     20  H   UNL A   1      41.224  21.792  27.844  1.00  0.00     0.345 HD
ATOM     21  H   UNL A   1      42.416  20.743  28.348  1.00  0.00     0.345 HD
ENDBRANCH   5  18
ENDBRANCH   3   5
ENDBRANCH   2   3
ENDBRANCH   1   2
BRANCH   1  22
ATOM     22  C   UNL A   1      44.408  22.537  24.194  1.00  0.00     0.275 C 
BRANCH  22  23
ATOM     23  O   UNL A   1      43.526  23.642  24.421  1.00  0.00    -0.458 OA
BRANCH  23  24
ATOM     24  C   UNL A   1      44.140  24.711  24.975  1.00  0.00     0.338 C 
ATOM     25  O   UNL A   1      45.279  25.095  24.759  1.00  0.00    -0.246 OA
BRANCH  24  26
ATOM     26  C   UNL A   1      43.209  25.486  25.811  1.00  0.00     0.060 A 
ATOM     27  C   UNL A   1      43.437  26.865  25.891  1.00  0.00     0.016 A 
ATOM     28  C   UNL A   1      42.229  24.875  26.597  1.00  0.00     0.016 A 
ATOM     29  C   UNL A   1      42.744  27.631  26.818  1.00  0.00     0.010 A 
ATOM     30  C   UNL A   1      41.540  25.643  27.538  1.00  0.00     0.010 A 
ATOM     31  C   UNL A   1      41.838  27.010  27.685  1.00  0.00    -0.014 A 
BRANCH  31  32
ATOM     32  C   UNL A   1      41.385  27.759  28.876  1.00  0.00     0.031 A 
ATOM     33  C   UNL A   1      42.185  27.633  30.143  1.00  0.00     0.074 A 
ATOM     34  C   UNL A   1      40.335  28.592  28.803  1.00  0.00     0.049 A 
ATOM     35  N   UNL A   1      41.989  28.190  31.311  1.00  0.00    -0.248 NA
ATOM     36  C   UNL A   1      43.370  26.762  30.084  1.00  0.00     0.031 C 
ATOM     37  C   UNL A   1      39.532  28.832  27.605  1.00  0.00     0.029 A 
ATOM     38  N   UNL A   1      39.771  29.397  29.758  1.00  0.00    -0.354 N 
ATOM     39  C   UNL A   1      43.017  27.728  32.124  1.00  0.00     0.074 A 
ATOM     40  C   UNL A   1      43.822  26.830  31.326  1.00  0.00     0.031 C 
ATOM     41  C   UNL A   1      38.572  29.724  27.899  1.00  0.00     0.029 A 
ATOM     42  C   UNL A   1      38.679  30.095  29.308  1.00  0.00     0.049 A 
ATOM     43  H   UNL A   1      40.118  29.469  30.677  1.00  0.00     0.167 HD
ATOM     44  C   UNL A   1      43.268  28.035  33.417  1.00  0.00     0.037 A 
ATOM     45  C   UNL A   1      37.854  30.926  29.973  1.00  0.00     0.037 A 
ATOM     46  C   UNL A   1      42.462  28.934  34.199  1.00  0.00     0.049 A 
ATOM     47  C   UNL A   1      38.127  31.213  31.427  1.00  0.00     0.074 A 
ATOM     48  C   UNL A   1      42.615  29.308  35.522  1.00  0.00     0.029 A 
ATOM     49  N   UNL A   1      41.345  29.603  33.719  1.00  0.00    -0.354 N 
ATOM     50  N   UNL A   1      39.095  30.770  32.191  1.00  0.00    -0.248 NA
ATOM     51  C   UNL A   1      37.194  32.122  32.107  1.00  0.00     0.031 C 
ATOM     52  C   UNL A   1      41.567  30.175  35.852  1.00  0.00     0.029 A 
ATOM     53  C   UNL A   1      40.789  30.377  34.723  1.00  0.00     0.049 A 
ATOM     54  H   UNL A   1      40.999  29.536  32.800  1.00  0.00     0.167 HD
ATOM     55  C   UNL A   1      38.904  31.359  33.434  1.00  0.00     0.074 A 
ATOM     56  C   UNL A   1      37.734  32.206  33.315  1.00  0.00     0.031 C 
ATOM     57  C   UNL A   1      39.628  31.215  34.571  1.00  0.00     0.037 A 
BRANCH  44  58
ATOM     58  C   UNL A   1      44.440  27.364  34.070  1.00  0.00     0.064 A 
ATOM     59  C   UNL A   1      45.706  27.968  34.116  1.00  0.00     0.173 A 
ATOM     60  C   UNL A   1      44.293  26.102  34.665  1.00  0.00     0.173 A 
ATOM     61  F   UNL A   1      45.904  29.166  33.544  1.00  0.00    -0.203 F 
ATOM     62  C   UNL A   1      46.787  27.321  34.711  1.00  0.00     0.198 A 
ATOM     63  C   UNL A   1      45.370  25.470  35.282  1.00  0.00     0.198 A 
ATOM     64  F   UNL A   1      43.105  25.481  34.647  1.00  0.00    -0.203 F 
ATOM     65  F   UNL A   1      47.998  27.896  34.700  1.00  0.00    -0.200 F 
ATOM     66  C   UNL A   1      46.617  26.076  35.298  1.00  0.00     0.200 A 
ATOM     67  F   UNL A   1      45.202  24.270  35.854  1.00  0.00    -0.200 F 
ATOM     68  F   UNL A   1      47.658  25.456  35.870  1.00  0.00    -0.200 F 
ENDBRANCH  44  58
BRANCH  45  69
ATOM     69  C   UNL A   1      36.696  31.537  29.271  1.00  0.00     0.064 A 
ATOM     70  C   UNL A   1      36.673  32.904  28.965  1.00  0.00     0.173 A 
ATOM     71  C   UNL A   1      35.589  30.763  28.893  1.00  0.00     0.173 A 
ATOM     72  F   UNL A   1      37.698  33.688  29.328  1.00  0.00    -0.203 F 
ATOM     73  C   UNL A   1      35.580  33.477  28.317  1.00  0.00     0.198 A 
ATOM     74  C   UNL A   1      34.508  31.333  28.222  1.00  0.00     0.198 A 
ATOM     75  F   UNL A   1      35.561  29.450  29.165  1.00  0.00    -0.203 F 
ATOM     76  F   UNL A   1      35.565  34.794  28.072  1.00  0.00    -0.200 F 
ATOM     77  C   UNL A   1      34.502  32.690  27.940  1.00  0.00     0.200 A 
ATOM     78  F   UNL A   1      33.474  30.566  27.851  1.00  0.00    -0.200 F 
ATOM     79  F   UNL A   1      33.454  33.241  27.313  1.00  0.00    -0.200 F 
ENDBRANCH  45  69
BRANCH  57  80
ATOM     80  C   UNL A   1      39.191  32.014  35.763  1.00  0.00     0.064 A 
ATOM     81  C   UNL A   1      39.605  33.340  35.950  1.00  0.00     0.173 A 
ATOM     82  C   UNL A   1      38.320  31.455  36.710  1.00  0.00     0.173 A 
ATOM     83  F   UNL A   1      40.449  33.913  35.078  1.00  0.00    -0.203 F 
ATOM     84  C   UNL A   1      39.184  34.071  37.057  1.00  0.00     0.198 A 
ATOM     85  C   UNL A   1      37.880  32.196  37.802  1.00  0.00     0.198 A 
ATOM     86  F   UNL A   1      37.891  30.192  36.570  1.00  0.00    -0.203 F 
ATOM     87  F   UNL A   1      39.628  35.322  37.241  1.00  0.00    -0.200 F 
ATOM     88  C   UNL A   1      38.317  33.501  37.978  1.00  0.00     0.200 A 
ATOM     89  F   UNL A   1      37.032  31.648  38.684  1.00  0.00    -0.200 F 
ATOM     90  F   UNL A   1      37.909  34.206  39.042  1.00  0.00    -0.200 F 
ENDBRANCH  57  80
ENDBRANCH  31  32
ENDBRANCH  24  26
ENDBRANCH  23  24
ENDBRANCH  22  23
ENDBRANCH   1  22
TORSDOF 16
ENDMDL
