MODEL 1
REMARK VINA RESULT:     -14.6      0.000      0.000
REMARK SMILES O=C(OCCOC(=O)[C@@H]1CCCN1S(=O)(=O)c1ccc2c3c(cccc13)C(=O)N2)c1ccc(-c2c3nc(c(-c4c(F)c(F)c(F)c(F)c4F)c4ccc([nH]4)c(-c4c(F)c(F)c(F)c(F)c4F)c4nc(c(-c5c(F)c(F)c(F)c(F)c5F)c5ccc2[nH]5)C=C4)C=C3)cc1
REMARK SMILES IDX 4 1 3 2 2 3 1 4 30 5 31 6 92 7 32 8 91 9 33 10 34 11 35 12
REMARK SMILES IDX 85 13 36 14 90 15 84 16 86 17 37 18 89 19 83 20 82 21 38 23
REMARK SMILES IDX 70 24 50 25 69 26 51 27 54 28 68 29 87 30 52 31 53 32 67 34
REMARK SMILES IDX 88 35 55 36 39 37 40 38 48 39 41 40 42 41 46 42 49 43 43 44
REMARK SMILES IDX 44 45 47 46 45 47 71 48 72 49 80 50 73 51 74 52 78 53 81 54
REMARK SMILES IDX 75 55 76 56 79 57 77 58 56 59 57 60 65 61 58 62 59 63 63 64
REMARK SMILES IDX 66 65 60 66 61 67 64 68 62 69 5 70 6 71 7 72 8 73 9 74 10 75
REMARK SMILES IDX 13 76 11 77 12 78 14 79 15 80 16 81 17 82 18 83 26 84 19 85
REMARK SMILES IDX 21 86 25 87 20 88 22 89 24 90 29 91 23 92 27 93 28 95
REMARK H PARENT 86 22 54 33 29 94
REMARK Flexibility Score: inf
ROOT
ATOM      1  C   UNL A   1      46.939  39.107  26.500  1.00  0.00     0.275 C 
ENDROOT
BRANCH   1   2
ATOM      2  O   UNL A   1      46.499  39.293  27.868  1.00  0.00    -0.458 OA
BRANCH   2   3
ATOM      3  C   UNL A   1      45.708  38.549  28.672  1.00  0.00     0.338 C 
ATOM      4  O   UNL A   1      45.117  39.078  29.610  1.00  0.00    -0.246 OA
BRANCH   3   5
ATOM      5  C   UNL A   1      45.566  37.056  28.563  1.00  0.00     0.060 A 
ATOM      6  C   UNL A   1      46.317  35.817  29.658  1.00  0.00     0.016 A 
ATOM      7  C   UNL A   1      44.344  36.507  27.357  1.00  0.00     0.016 A 
ATOM      8  C   UNL A   1      45.784  34.090  29.600  1.00  0.00     0.010 A 
ATOM      9  C   UNL A   1      43.872  34.777  27.253  1.00  0.00     0.010 A 
ATOM     10  C   UNL A   1      44.576  33.551  28.397  1.00  0.00    -0.014 A 
BRANCH  10  11
ATOM     11  C   UNL A   1      44.173  32.094  28.407  1.00  0.00     0.031 A 
ATOM     12  C   UNL A   1      43.010  31.557  29.199  1.00  0.00     0.074 A 
ATOM     13  C   UNL A   1      44.836  31.205  27.634  1.00  0.00     0.049 A 
ATOM     14  N   UNL A   1      42.327  30.457  28.970  1.00  0.00    -0.248 NA
ATOM     15  C   UNL A   1      42.495  32.329  30.330  1.00  0.00     0.031 C 
ATOM     16  C   UNL A   1      45.962  31.518  26.769  1.00  0.00     0.029 A 
ATOM     17  N   UNL A   1      44.688  29.846  27.465  1.00  0.00    -0.354 N 
ATOM     18  C   UNL A   1      41.204  30.536  29.778  1.00  0.00     0.074 A 
ATOM     19  C   UNL A   1      41.353  31.713  30.598  1.00  0.00     0.031 C 
ATOM     20  C   UNL A   1      46.471  30.402  26.238  1.00  0.00     0.029 A 
ATOM     21  C   UNL A   1      45.667  29.277  26.684  1.00  0.00     0.049 A 
ATOM     22  H   UNL A   1      43.953  29.331  27.868  1.00  0.00     0.167 HD
ATOM     23  C   UNL A   1      40.131  29.713  29.813  1.00  0.00     0.037 A 
ATOM     24  C   UNL A   1      45.900  27.998  26.337  1.00  0.00     0.037 A 
ATOM     25  C   UNL A   1      40.108  28.403  29.225  1.00  0.00     0.049 A 
ATOM     26  C   UNL A   1      44.869  26.969  26.675  1.00  0.00     0.074 A 
ATOM     27  C   UNL A   1      39.114  27.444  29.282  1.00  0.00     0.029 A 
ATOM     28  N   UNL A   1      41.183  27.830  28.563  1.00  0.00    -0.354 N 
ATOM     29  N   UNL A   1      43.708  27.143  27.254  1.00  0.00    -0.248 NA
ATOM     30  C   UNL A   1      45.146  25.585  26.272  1.00  0.00     0.031 C 
ATOM     31  C   UNL A   1      39.630  26.256  28.747  1.00  0.00     0.029 A 
ATOM     32  C   UNL A   1      40.920  26.497  28.300  1.00  0.00     0.049 A 
ATOM     33  H   UNL A   1      42.012  28.302  28.316  1.00  0.00     0.167 HD
ATOM     34  C   UNL A   1      43.090  25.905  27.246  1.00  0.00     0.074 A 
ATOM     35  C   UNL A   1      44.014  24.982  26.616  1.00  0.00     0.031 C 
ATOM     36  C   UNL A   1      41.854  25.579  27.697  1.00  0.00     0.037 A 
BRANCH  23  37
ATOM     37  C   UNL A   1      38.924  30.212  30.545  1.00  0.00     0.064 A 
ATOM     38  C   UNL A   1      37.908  30.895  29.855  1.00  0.00     0.173 A 
ATOM     39  C   UNL A   1      38.764  30.008  31.921  1.00  0.00     0.173 A 
ATOM     40  F   UNL A   1      38.017  31.117  28.537  1.00  0.00    -0.203 F 
ATOM     41  C   UNL A   1      36.782  31.369  30.523  1.00  0.00     0.198 A 
ATOM     42  C   UNL A   1      37.631  30.475  32.583  1.00  0.00     0.198 A 
ATOM     43  F   UNL A   1      39.709  29.366  32.622  1.00  0.00    -0.203 F 
ATOM     44  F   UNL A   1      35.835  32.038  29.851  1.00  0.00    -0.200 F 
ATOM     45  C   UNL A   1      36.643  31.158  31.887  1.00  0.00     0.200 A 
ATOM     46  F   UNL A   1      37.498  30.272  33.901  1.00  0.00    -0.200 F 
ATOM     47  F   UNL A   1      35.564  31.618  32.532  1.00  0.00    -0.200 F 
ENDBRANCH  23  37
BRANCH  24  48
ATOM     48  C   UNL A   1      47.149  27.663  25.604  1.00  0.00     0.064 A 
ATOM     49  C   UNL A   1      48.303  27.236  26.270  1.00  0.00     0.173 A 
ATOM     50  C   UNL A   1      47.177  27.692  24.200  1.00  0.00     0.173 A 
ATOM     51  F   UNL A   1      48.327  27.194  27.610  1.00  0.00    -0.203 F 
ATOM     52  C   UNL A   1      49.440  26.848  25.560  1.00  0.00     0.198 A 
ATOM     53  C   UNL A   1      48.305  27.288  23.491  1.00  0.00     0.198 A 
ATOM     54  F   UNL A   1      46.092  28.082  23.514  1.00  0.00    -0.203 F 
ATOM     55  F   UNL A   1      50.534  26.447  26.220  1.00  0.00    -0.200 F 
ATOM     56  C   UNL A   1      49.437  26.866  24.173  1.00  0.00     0.200 A 
ATOM     57  F   UNL A   1      48.291  27.291  22.151  1.00  0.00    -0.200 F 
ATOM     58  F   UNL A   1      50.522  26.472  23.492  1.00  0.00    -0.200 F 
ENDBRANCH  24  48
BRANCH  36  59
ATOM     59  C   UNL A   1      41.422  24.156  27.535  1.00  0.00     0.064 A 
ATOM     60  C   UNL A   1      40.398  23.801  26.647  1.00  0.00     0.173 A 
ATOM     61  C   UNL A   1      42.081  23.132  28.229  1.00  0.00     0.173 A 
ATOM     62  F   UNL A   1      39.727  24.750  25.976  1.00  0.00    -0.203 F 
ATOM     63  C   UNL A   1      40.043  22.469  26.465  1.00  0.00     0.198 A 
ATOM     64  C   UNL A   1      41.741  21.798  28.026  1.00  0.00     0.198 A 
ATOM     65  F   UNL A   1      43.068  23.424  29.091  1.00  0.00    -0.203 F 
ATOM     66  F   UNL A   1      39.039  22.152  25.636  1.00  0.00    -0.200 F 
ATOM     67  C   UNL A   1      40.721  21.468  27.148  1.00  0.00     0.200 A 
ATOM     68  F   UNL A   1      42.403  20.833  28.677  1.00  0.00    -0.200 F 
ATOM     69  F   UNL A   1      40.387  20.184  26.960  1.00  0.00    -0.200 F 
ENDBRANCH  36  59
ENDBRANCH  10  11
ENDBRANCH   3   5
ENDBRANCH   2   3
ENDBRANCH   1   2
BRANCH   1  70
ATOM     70  C   UNL A   1      46.852  40.379  25.649  1.00  0.00     0.274 C 
BRANCH  70  71
ATOM     71  O   UNL A   1      45.542  40.501  25.073  1.00  0.00    -0.461 OA
BRANCH  71  72
ATOM     72  C   UNL A   1      44.825  41.519  25.597  1.00  0.00     0.324 C 
ATOM     73  O   UNL A   1      44.227  41.414  26.666  1.00  0.00    -0.250 OA
BRANCH  72  74
ATOM     74  C   UNL A   1      44.790  42.798  24.793  1.00  0.00     0.183 C 
ATOM     75  C   UNL A   1      44.769  43.909  25.835  1.00  0.00     0.034 C 
ATOM     76  N   UNL A   1      43.987  43.566  23.397  1.00  0.00    -0.184 NA
ATOM     77  C   UNL A   1      45.322  45.115  25.124  1.00  0.00     0.019 C 
ATOM     78  C   UNL A   1      45.004  45.007  23.621  1.00  0.00     0.103 C 
BRANCH  76  79
ATOM     79  S   UNL A   1      42.499  42.810  21.589  1.00  0.00     0.244 S 
ATOM     80  O   UNL A   1      42.883  41.514  20.986  1.00  0.00    -0.207 OA
ATOM     81  O   UNL A   1      41.069  42.816  21.914  1.00  0.00    -0.207 OA
BRANCH  79  82
ATOM     82  C   UNL A   1      42.407  43.763  19.840  1.00  0.00     0.090 A 
ATOM     83  C   UNL A   1      41.097  43.933  19.307  1.00  0.00     0.024 A 
ATOM     84  C   UNL A   1      43.404  44.746  19.453  1.00  0.00     0.005 A 
ATOM     85  C   UNL A   1      40.798  44.683  18.164  1.00  0.00     0.028 A 
ATOM     86  C   UNL A   1      43.033  45.539  18.388  1.00  0.00     0.019 A 
ATOM     87  C   UNL A   1      44.645  45.172  20.021  1.00  0.00     0.010 A 
ATOM     88  C   UNL A   1      41.823  45.482  17.729  1.00  0.00     0.050 A 
ATOM     89  C   UNL A   1      43.702  46.653  17.887  1.00  0.00     0.050 A 
ATOM     90  C   UNL A   1      45.334  46.326  19.567  1.00  0.00     0.002 A 
ATOM     91  N   UNL A   1      41.798  46.469  16.766  1.00  0.00    -0.321 N 
ATOM     92  C   UNL A   1      44.873  47.089  18.490  1.00  0.00     0.014 A 
ATOM     93  C   UNL A   1      42.942  47.264  16.812  1.00  0.00     0.256 C 
ATOM     94  H   UNL A   1      41.063  46.596  16.124  1.00  0.00     0.170 HD
ATOM     95  O   UNL A   1      43.137  48.241  16.103  1.00  0.00    -0.269 OA
ENDBRANCH  79  82
ENDBRANCH  76  79
ENDBRANCH  72  74
ENDBRANCH  71  72
ENDBRANCH  70  71
ENDBRANCH   1  70
TORSDOF 13
ENDMDL
MODEL 2
REMARK VINA RESULT:     -14.6     10.925     20.646
REMARK SMILES O=C(OCCOC(=O)[C@@H]1CCCN1S(=O)(=O)c1ccc2c3c(cccc13)C(=O)N2)c1ccc(-c2c3nc(c(-c4c(F)c(F)c(F)c(F)c4F)c4ccc([nH]4)c(-c4c(F)c(F)c(F)c(F)c4F)c4nc(c(-c5c(F)c(F)c(F)c(F)c5F)c5ccc2[nH]5)C=C4)C=C3)cc1
REMARK SMILES IDX 4 1 3 2 2 3 1 4 30 5 31 6 92 7 32 8 91 9 33 10 34 11 35 12
REMARK SMILES IDX 85 13 36 14 90 15 84 16 86 17 37 18 89 19 83 20 82 21 38 23
REMARK SMILES IDX 70 24 50 25 69 26 51 27 54 28 68 29 87 30 52 31 53 32 67 34
REMARK SMILES IDX 88 35 55 36 39 37 40 38 48 39 41 40 42 41 46 42 49 43 43 44
REMARK SMILES IDX 44 45 47 46 45 47 71 48 72 49 80 50 73 51 74 52 78 53 81 54
REMARK SMILES IDX 75 55 76 56 79 57 77 58 56 59 57 60 65 61 58 62 59 63 63 64
REMARK SMILES IDX 66 65 60 66 61 67 64 68 62 69 5 70 6 71 7 72 8 73 9 74 10 75
REMARK SMILES IDX 13 76 11 77 12 78 14 79 15 80 16 81 17 82 18 83 26 84 19 85
REMARK SMILES IDX 21 86 25 87 20 88 22 89 24 90 29 91 23 92 27 93 28 95
REMARK H PARENT 86 22 54 33 29 94
REMARK Flexibility Score: inf
ROOT
ATOM      1  C   UNL A   1      47.218  23.150  38.680  1.00  0.00     0.275 C 
ENDROOT
BRANCH   1   2
ATOM      2  O   UNL A   1      47.612  24.385  38.032  1.00  0.00    -0.458 OA
BRANCH   2   3
ATOM      3  C   UNL A   1      47.553  24.788  36.743  1.00  0.00     0.338 C 
ATOM      4  O   UNL A   1      48.451  24.479  35.964  1.00  0.00    -0.246 OA
BRANCH   3   5
ATOM      5  C   UNL A   1      46.488  25.696  36.194  1.00  0.00     0.060 A 
ATOM      6  C   UNL A   1      46.684  27.447  35.755  1.00  0.00     0.016 A 
ATOM      7  C   UNL A   1      44.958  24.861  35.735  1.00  0.00     0.016 A 
ATOM      8  C   UNL A   1      45.411  28.306  34.798  1.00  0.00     0.010 A 
ATOM      9  C   UNL A   1      43.665  25.740  34.850  1.00  0.00     0.010 A 
ATOM     10  C   UNL A   1      43.893  27.475  34.351  1.00  0.00    -0.014 A 
BRANCH  10  11
ATOM     11  C   UNL A   1      42.874  28.250  33.548  1.00  0.00     0.031 A 
ATOM     12  C   UNL A   1      42.808  28.230  32.044  1.00  0.00     0.074 A 
ATOM     13  C   UNL A   1      41.922  28.971  34.183  1.00  0.00     0.049 A 
ATOM     14  N   UNL A   1      41.767  28.496  31.287  1.00  0.00    -0.248 NA
ATOM     15  C   UNL A   1      43.986  27.818  31.280  1.00  0.00     0.031 C 
ATOM     16  C   UNL A   1      41.784  29.098  35.624  1.00  0.00     0.029 A 
ATOM     17  N   UNL A   1      40.902  29.764  33.706  1.00  0.00    -0.354 N 
ATOM     18  C   UNL A   1      42.112  28.076  30.011  1.00  0.00     0.074 A 
ATOM     19  C   UNL A   1      43.493  27.662  30.060  1.00  0.00     0.031 C 
ATOM     20  C   UNL A   1      40.824  29.977  35.929  1.00  0.00     0.029 A 
ATOM     21  C   UNL A   1      40.228  30.448  34.691  1.00  0.00     0.049 A 
ATOM     22  H   UNL A   1      40.677  29.835  32.751  1.00  0.00     0.167 HD
ATOM     23  C   UNL A   1      41.337  28.016  28.905  1.00  0.00     0.037 A 
ATOM     24  C   UNL A   1      39.228  31.347  34.629  1.00  0.00     0.037 A 
ATOM     25  C   UNL A   1      40.074  28.687  28.775  1.00  0.00     0.049 A 
ATOM     26  C   UNL A   1      38.555  31.573  33.313  1.00  0.00     0.074 A 
ATOM     27  C   UNL A   1      39.249  28.778  27.670  1.00  0.00     0.029 A 
ATOM     28  N   UNL A   1      39.511  29.479  29.764  1.00  0.00    -0.354 N 
ATOM     29  N   UNL A   1      38.783  30.975  32.172  1.00  0.00    -0.248 NA
ATOM     30  C   UNL A   1      37.459  32.548  33.280  1.00  0.00     0.031 C 
ATOM     31  C   UNL A   1      38.244  29.711  27.957  1.00  0.00     0.029 A 
ATOM     32  C   UNL A   1      38.408  30.149  29.263  1.00  0.00     0.049 A 
ATOM     33  H   UNL A   1      39.846  29.554  30.687  1.00  0.00     0.167 HD
ATOM     34  C   UNL A   1      37.833  31.462  31.291  1.00  0.00     0.074 A 
ATOM     35  C   UNL A   1      37.032  32.420  32.029  1.00  0.00     0.031 C 
ATOM     36  C   UNL A   1      37.632  31.118  29.995  1.00  0.00     0.037 A 
BRANCH  23  37
ATOM     37  C   UNL A   1      41.870  27.223  27.752  1.00  0.00     0.064 A 
ATOM     38  C   UNL A   1      41.581  25.853  27.640  1.00  0.00     0.173 A 
ATOM     39  C   UNL A   1      42.655  27.815  26.756  1.00  0.00     0.173 A 
ATOM     40  F   UNL A   1      40.835  25.240  28.571  1.00  0.00    -0.203 F 
ATOM     41  C   UNL A   1      42.073  25.101  26.575  1.00  0.00     0.198 A 
ATOM     42  C   UNL A   1      43.136  27.062  25.688  1.00  0.00     0.198 A 
ATOM     43  F   UNL A   1      42.961  29.118  26.822  1.00  0.00    -0.203 F 
ATOM     44  F   UNL A   1      41.805  23.790  26.499  1.00  0.00    -0.200 F 
ATOM     45  C   UNL A   1      42.850  25.706  25.599  1.00  0.00     0.200 A 
ATOM     46  F   UNL A   1      43.888  27.646  24.745  1.00  0.00    -0.200 F 
ATOM     47  F   UNL A   1      43.330  24.984  24.578  1.00  0.00    -0.200 F 
ENDBRANCH  23  37
BRANCH  24  48
ATOM     48  C   UNL A   1      38.810  32.050  35.869  1.00  0.00     0.064 A 
ATOM     49  C   UNL A   1      38.046  31.415  36.855  1.00  0.00     0.173 A 
ATOM     50  C   UNL A   1      39.243  33.362  36.123  1.00  0.00     0.173 A 
ATOM     51  F   UNL A   1      37.604  30.163  36.658  1.00  0.00    -0.203 F 
ATOM     52  C   UNL A   1      37.731  32.064  38.049  1.00  0.00     0.198 A 
ATOM     53  C   UNL A   1      38.945  34.002  37.323  1.00  0.00     0.198 A 
ATOM     54  F   UNL A   1      39.990  34.009  35.216  1.00  0.00    -0.203 F 
ATOM     55  F   UNL A   1      36.993  31.437  38.975  1.00  0.00    -0.200 F 
ATOM     56  C   UNL A   1      38.187  33.352  38.286  1.00  0.00     0.200 A 
ATOM     57  F   UNL A   1      39.403  35.240  37.553  1.00  0.00    -0.200 F 
ATOM     58  F   UNL A   1      37.903  33.966  39.442  1.00  0.00    -0.200 F 
ENDBRANCH  24  48
BRANCH  36  59
ATOM     59  C   UNL A   1      36.502  31.787  29.279  1.00  0.00     0.064 A 
ATOM     60  C   UNL A   1      35.359  31.074  28.895  1.00  0.00     0.173 A 
ATOM     61  C   UNL A   1      36.537  33.166  29.031  1.00  0.00     0.173 A 
ATOM     62  F   UNL A   1      35.289  29.748  29.096  1.00  0.00    -0.203 F 
ATOM     63  C   UNL A   1      34.291  31.718  28.278  1.00  0.00     0.198 A 
ATOM     64  C   UNL A   1      35.457  33.812  28.438  1.00  0.00     0.198 A 
ATOM     65  F   UNL A   1      37.612  33.890  29.381  1.00  0.00    -0.203 F 
ATOM     66  F   UNL A   1      33.220  31.013  27.889  1.00  0.00    -0.200 F 
ATOM     67  C   UNL A   1      34.338  33.088  28.059  1.00  0.00     0.200 A 
ATOM     68  F   UNL A   1      35.499  35.136  28.236  1.00  0.00    -0.200 F 
ATOM     69  F   UNL A   1      33.302  33.709  27.478  1.00  0.00    -0.200 F 
ENDBRANCH  36  59
ENDBRANCH  10  11
ENDBRANCH   3   5
ENDBRANCH   2   3
ENDBRANCH   1   2
BRANCH   1  70
ATOM     70  C   UNL A   1      48.379  22.172  38.895  1.00  0.00     0.274 C 
BRANCH  70  71
ATOM     71  O   UNL A   1      47.876  20.884  39.279  1.00  0.00    -0.461 OA
BRANCH  71  72
ATOM     72  C   UNL A   1      48.060  19.938  38.332  1.00  0.00     0.324 C 
ATOM     73  O   UNL A   1      49.158  19.729  37.822  1.00  0.00    -0.250 OA
BRANCH  72  74
ATOM     74  C   UNL A   1      46.835  19.152  37.924  1.00  0.00     0.183 C 
ATOM     75  C   UNL A   1      46.210  19.968  36.798  1.00  0.00     0.034 C 
ATOM     76  N   UNL A   1      45.428  18.282  38.592  1.00  0.00    -0.184 NA
ATOM     77  C   UNL A   1      45.399  18.976  36.008  1.00  0.00     0.019 C 
ATOM     78  C   UNL A   1      44.929  17.846  36.942  1.00  0.00     0.103 C 
BRANCH  76  79
ATOM     79  S   UNL A   1      44.728  17.526  40.826  1.00  0.00     0.244 S 
ATOM     80  O   UNL A   1      45.738  16.714  41.540  1.00  0.00    -0.207 OA
ATOM     81  O   UNL A   1      44.207  18.578  41.706  1.00  0.00    -0.207 OA
BRANCH  79  82
ATOM     82  C   UNL A   1      43.268  16.190  41.071  1.00  0.00     0.090 A 
ATOM     83  C   UNL A   1      42.886  15.482  39.895  1.00  0.00     0.024 A 
ATOM     84  C   UNL A   1      43.056  15.514  42.340  1.00  0.00     0.005 A 
ATOM     85  C   UNL A   1      41.979  14.417  39.872  1.00  0.00     0.028 A 
ATOM     86  C   UNL A   1      42.241  14.406  42.261  1.00  0.00     0.019 A 
ATOM     87  C   UNL A   1      43.619  15.664  43.645  1.00  0.00     0.010 A 
ATOM     88  C   UNL A   1      41.675  13.906  41.107  1.00  0.00     0.050 A 
ATOM     89  C   UNL A   1      41.973  13.477  43.264  1.00  0.00     0.050 A 
ATOM     90  C   UNL A   1      43.405  14.717  44.680  1.00  0.00     0.002 A 
ATOM     91  N   UNL A   1      40.980  12.756  41.417  1.00  0.00    -0.321 N 
ATOM     92  C   UNL A   1      42.577  13.604  44.506  1.00  0.00     0.014 A 
ATOM     93  C   UNL A   1      41.132  12.408  42.758  1.00  0.00     0.256 C 
ATOM     94  H   UNL A   1      40.442  12.245  40.771  1.00  0.00     0.170 HD
ATOM     95  O   UNL A   1      40.664  11.401  43.271  1.00  0.00    -0.269 OA
ENDBRANCH  79  82
ENDBRANCH  76  79
ENDBRANCH  72  74
ENDBRANCH  71  72
ENDBRANCH  70  71
ENDBRANCH   1  70
TORSDOF 13
ENDMDL
MODEL 3
REMARK VINA RESULT:     -14.4      9.555     14.126
REMARK SMILES O=C(OCCOC(=O)[C@@H]1CCCN1S(=O)(=O)c1ccc2c3c(cccc13)C(=O)N2)c1ccc(-c2c3nc(c(-c4c(F)c(F)c(F)c(F)c4F)c4ccc([nH]4)c(-c4c(F)c(F)c(F)c(F)c4F)c4nc(c(-c5c(F)c(F)c(F)c(F)c5F)c5ccc2[nH]5)C=C4)C=C3)cc1
REMARK SMILES IDX 4 1 3 2 2 3 1 4 30 5 31 6 92 7 32 8 91 9 33 10 34 11 35 12
REMARK SMILES IDX 85 13 36 14 90 15 84 16 86 17 37 18 89 19 83 20 82 21 38 23
REMARK SMILES IDX 70 24 50 25 69 26 51 27 54 28 68 29 87 30 52 31 53 32 67 34
REMARK SMILES IDX 88 35 55 36 39 37 40 38 48 39 41 40 42 41 46 42 49 43 43 44
REMARK SMILES IDX 44 45 47 46 45 47 71 48 72 49 80 50 73 51 74 52 78 53 81 54
REMARK SMILES IDX 75 55 76 56 79 57 77 58 56 59 57 60 65 61 58 62 59 63 63 64
REMARK SMILES IDX 66 65 60 66 61 67 64 68 62 69 5 70 6 71 7 72 8 73 9 74 10 75
REMARK SMILES IDX 13 76 11 77 12 78 14 79 15 80 16 81 17 82 18 83 26 84 19 85
REMARK SMILES IDX 21 86 25 87 20 88 22 89 24 90 29 91 23 92 27 93 28 95
REMARK H PARENT 86 22 54 33 29 94
REMARK Flexibility Score: inf
ROOT
ATOM      1  C   UNL A   1      31.398  31.968  26.724  1.00  0.00     0.275 C 
ENDROOT
BRANCH   1   2
ATOM      2  O   UNL A   1      32.136  33.211  26.824  1.00  0.00    -0.458 OA
BRANCH   2   3
ATOM      3  C   UNL A   1      32.927  33.716  27.797  1.00  0.00     0.338 C 
ATOM      4  O   UNL A   1      32.610  34.758  28.364  1.00  0.00    -0.246 OA
BRANCH   3   5
ATOM      5  C   UNL A   1      34.258  33.134  28.186  1.00  0.00     0.060 A 
ATOM      6  C   UNL A   1      35.825  34.037  28.351  1.00  0.00     0.016 A 
ATOM      7  C   UNL A   1      34.190  31.422  28.748  1.00  0.00     0.016 A 
ATOM      8  C   UNL A   1      37.255  33.265  29.146  1.00  0.00     0.010 A 
ATOM      9  C   UNL A   1      35.635  30.637  29.469  1.00  0.00     0.010 A 
ATOM     10  C   UNL A   1      37.183  31.566  29.696  1.00  0.00    -0.014 A 
BRANCH  10  11
ATOM     11  C   UNL A   1      38.412  30.985  30.356  1.00  0.00     0.031 A 
ATOM     12  C   UNL A   1      38.927  31.432  31.699  1.00  0.00     0.074 A 
ATOM     13  C   UNL A   1      39.082  29.973  29.762  1.00  0.00     0.049 A 
ATOM     14  N   UNL A   1      39.685  30.752  32.531  1.00  0.00    -0.248 NA
ATOM     15  C   UNL A   1      38.526  32.738  32.222  1.00  0.00     0.031 C 
ATOM     16  C   UNL A   1      38.736  29.371  28.484  1.00  0.00     0.029 A 
ATOM     17  N   UNL A   1      40.216  29.283  30.128  1.00  0.00    -0.354 N 
ATOM     18  C   UNL A   1      39.657  31.454  33.725  1.00  0.00     0.074 A 
ATOM     19  C   UNL A   1      38.925  32.673  33.484  1.00  0.00     0.031 C 
ATOM     20  C   UNL A   1      39.665  28.482  28.116  1.00  0.00     0.029 A 
ATOM     21  C   UNL A   1      40.664  28.406  29.168  1.00  0.00     0.049 A 
ATOM     22  H   UNL A   1      40.664  29.406  30.995  1.00  0.00     0.167 HD
ATOM     23  C   UNL A   1      40.173  31.099  34.924  1.00  0.00     0.037 A 
ATOM     24  C   UNL A   1      41.746  27.607  29.124  1.00  0.00     0.037 A 
ATOM     25  C   UNL A   1      41.138  30.050  35.101  1.00  0.00     0.049 A 
ATOM     26  C   UNL A   1      42.569  27.453  30.364  1.00  0.00     0.074 A 
ATOM     27  C   UNL A   1      41.803  29.667  36.251  1.00  0.00     0.029 A 
ATOM     28  N   UNL A   1      41.655  29.288  34.064  1.00  0.00    -0.354 N 
ATOM     29  N   UNL A   1      42.363  27.979  31.544  1.00  0.00    -0.248 NA
ATOM     30  C   UNL A   1      43.734  26.565  30.289  1.00  0.00     0.031 C 
ATOM     31  C   UNL A   1      42.797  28.749  35.888  1.00  0.00     0.029 A 
ATOM     32  C   UNL A   1      42.705  28.513  34.525  1.00  0.00     0.049 A 
ATOM     33  H   UNL A   1      41.323  29.296  33.136  1.00  0.00     0.167 HD
ATOM     34  C   UNL A   1      43.341  27.453  32.371  1.00  0.00     0.074 A 
ATOM     35  C   UNL A   1      44.152  26.576  31.549  1.00  0.00     0.031 C 
ATOM     36  C   UNL A   1      43.523  27.663  33.697  1.00  0.00     0.037 A 
BRANCH  23  37
ATOM     37  C   UNL A   1      39.720  31.889  36.112  1.00  0.00     0.064 A 
ATOM     38  C   UNL A   1      40.478  32.980  36.570  1.00  0.00     0.173 A 
ATOM     39  C   UNL A   1      38.537  31.577  36.792  1.00  0.00     0.173 A 
ATOM     40  F   UNL A   1      41.621  33.316  35.954  1.00  0.00    -0.203 F 
ATOM     41  C   UNL A   1      40.071  33.721  37.677  1.00  0.00     0.198 A 
ATOM     42  C   UNL A   1      38.128  32.327  37.892  1.00  0.00     0.198 A 
ATOM     43  F   UNL A   1      37.783  30.542  36.395  1.00  0.00    -0.203 F 
ATOM     44  F   UNL A   1      40.820  34.744  38.112  1.00  0.00    -0.200 F 
ATOM     45  C   UNL A   1      38.896  33.395  38.337  1.00  0.00     0.200 A 
ATOM     46  F   UNL A   1      36.994  32.011  38.531  1.00  0.00    -0.200 F 
ATOM     47  F   UNL A   1      38.506  34.103  39.406  1.00  0.00    -0.200 F 
ENDBRANCH  23  37
BRANCH  24  48
ATOM     48  C   UNL A   1      42.060  26.883  27.865  1.00  0.00     0.064 A 
ATOM     49  C   UNL A   1      42.940  27.408  26.913  1.00  0.00     0.173 A 
ATOM     50  C   UNL A   1      41.536  25.600  27.634  1.00  0.00     0.173 A 
ATOM     51  F   UNL A   1      43.464  28.630  27.086  1.00  0.00    -0.203 F 
ATOM     52  C   UNL A   1      43.287  26.678  25.775  1.00  0.00     0.198 A 
ATOM     53  C   UNL A   1      41.897  24.864  26.508  1.00  0.00     0.198 A 
ATOM     54  F   UNL A   1      40.699  25.047  28.524  1.00  0.00    -0.203 F 
ATOM     55  F   UNL A   1      44.127  27.204  24.875  1.00  0.00    -0.200 F 
ATOM     56  C   UNL A   1      42.772  25.405  25.578  1.00  0.00     0.200 A 
ATOM     57  F   UNL A   1      41.410  23.628  26.332  1.00  0.00    -0.200 F 
ATOM     58  F   UNL A   1      43.123  24.696  24.497  1.00  0.00    -0.200 F 
ENDBRANCH  24  48
BRANCH  36  59
ATOM     59  C   UNL A   1      44.654  26.935  34.354  1.00  0.00     0.064 A 
ATOM     60  C   UNL A   1      45.910  27.535  34.516  1.00  0.00     0.173 A 
ATOM     61  C   UNL A   1      44.460  25.651  34.880  1.00  0.00     0.173 A 
ATOM     62  F   UNL A   1      46.146  28.756  34.012  1.00  0.00    -0.203 F 
ATOM     63  C   UNL A   1      46.937  26.869  35.176  1.00  0.00     0.198 A 
ATOM     64  C   UNL A   1      45.481  24.998  35.563  1.00  0.00     0.198 A 
ATOM     65  F   UNL A   1      43.274  25.037  34.748  1.00  0.00    -0.203 F 
ATOM     66  F   UNL A   1      48.141  27.446  35.293  1.00  0.00    -0.200 F 
ATOM     67  C   UNL A   1      46.719  25.605  35.707  1.00  0.00     0.200 A 
ATOM     68  F   UNL A   1      45.266  23.782  36.084  1.00  0.00    -0.200 F 
ATOM     69  F   UNL A   1      47.705  24.972  36.356  1.00  0.00    -0.200 F 
ENDBRANCH  36  59
ENDBRANCH  10  11
ENDBRANCH   3   5
ENDBRANCH   2   3
ENDBRANCH   1   2
BRANCH   1  70
ATOM     70  C   UNL A   1      32.221  30.809  26.148  1.00  0.00     0.274 C 
BRANCH  70  71
ATOM     71  O   UNL A   1      31.409  29.631  26.040  1.00  0.00    -0.461 OA
BRANCH  71  72
ATOM     72  C   UNL A   1      31.206  29.241  24.763  1.00  0.00     0.324 C 
ATOM     73  O   UNL A   1      30.265  29.661  24.093  1.00  0.00    -0.250 OA
BRANCH  72  74
ATOM     74  C   UNL A   1      32.198  28.250  24.200  1.00  0.00     0.183 C 
ATOM     75  C   UNL A   1      32.354  28.649  22.737  1.00  0.00     0.034 C 
ATOM     76  N   UNL A   1      32.592  26.510  24.166  1.00  0.00    -0.184 NA
ATOM     77  C   UNL A   1      33.702  28.113  22.333  1.00  0.00     0.019 C 
ATOM     78  C   UNL A   1      34.025  26.866  23.176  1.00  0.00     0.103 C 
BRANCH  76  79
ATOM     79  S   UNL A   1      31.830  24.512  25.383  1.00  0.00     0.244 S 
ATOM     80  O   UNL A   1      31.667  24.710  26.840  1.00  0.00    -0.207 OA
ATOM     81  O   UNL A   1      30.644  23.855  24.823  1.00  0.00    -0.207 OA
BRANCH  79  82
ATOM     82  C   UNL A   1      32.989  22.902  25.584  1.00  0.00     0.090 A 
ATOM     83  C   UNL A   1      32.438  21.687  25.084  1.00  0.00     0.024 A 
ATOM     84  C   UNL A   1      34.439  23.002  25.606  1.00  0.00     0.005 A 
ATOM     85  C   UNL A   1      33.132  20.474  25.008  1.00  0.00     0.028 A 
ATOM     86  C   UNL A   1      35.092  21.803  25.423  1.00  0.00     0.019 A 
ATOM     87  C   UNL A   1      35.352  24.101  25.641  1.00  0.00     0.010 A 
ATOM     88  C   UNL A   1      34.484  20.585  25.196  1.00  0.00     0.050 A 
ATOM     89  C   UNL A   1      36.459  21.599  25.249  1.00  0.00     0.050 A 
ATOM     90  C   UNL A   1      36.746  23.940  25.425  1.00  0.00     0.002 A 
ATOM     91  N   UNL A   1      35.463  19.633  24.999  1.00  0.00    -0.321 N 
ATOM     92  C   UNL A   1      37.324  22.683  25.223  1.00  0.00     0.014 A 
ATOM     93  C   UNL A   1      36.738  20.197  25.001  1.00  0.00     0.256 C 
ATOM     94  H   UNL A   1      35.284  18.674  24.874  1.00  0.00     0.170 HD
ATOM     95  O   UNL A   1      37.771  19.577  24.792  1.00  0.00    -0.269 OA
ENDBRANCH  79  82
ENDBRANCH  76  79
ENDBRANCH  72  74
ENDBRANCH  71  72
ENDBRANCH  70  71
ENDBRANCH   1  70
TORSDOF 13
ENDMDL
