MODEL 1
REMARK VINA RESULT:     -12.3      0.000      0.000
REMARK SMILES Cc1cc(F)c([C@@H](C)[N@@H+]2C[C@H](C)[C@H](C(=O)OCCOC(=O)c3ccc(-c4c5nc(c(-c6c(F)c(F)c(F)c(F)c6F)c6ccc([nH]6)c(-c6c(F)c(F)c(F)c(F)c6F)c6nc(c(-c7c(F)c(F)c(F)c(F)c7F)c7ccc4[nH]7)C=C6)C=C5)cc3)C2)cc1F
REMARK SMILES IDX 17 1 16 2 14 3 15 4 13 5 9 6 10 7 85 8 11 10 12 11 7 12 8 13
REMARK SMILES IDX 6 14 1 15 2 16 3 17 87 18 4 19 86 20 88 21 5 22 18 23 19 24
REMARK SMILES IDX 20 25 21 26 22 27 23 28 84 29 24 30 83 31 25 32 26 33 27 34
REMARK SMILES IDX 77 35 28 36 82 37 76 38 78 39 29 40 81 41 75 42 74 43 30 45
REMARK SMILES IDX 62 46 42 47 61 48 43 49 46 50 60 51 79 52 44 53 45 54 59 56
REMARK SMILES IDX 80 57 47 58 31 59 32 60 40 61 33 62 34 63 38 64 41 65 35 66
REMARK SMILES IDX 36 67 39 68 37 69 63 70 64 71 72 72 65 73 66 74 70 75 73 76
REMARK SMILES IDX 67 77 68 78 71 79 69 80 48 81 49 82 57 83 50 84 51 85 55 86
REMARK SMILES IDX 58 87 52 88 53 89 56 90 54 91
REMARK H PARENT 9 9 78 44 46 55
REMARK Flexibility Score: inf
ROOT
ATOM      1  C   UNL A   1      31.206  29.648  24.523  1.00  0.00     0.274 C 
ENDROOT
BRANCH   1   2
ATOM      2  O   UNL A   1      30.730  28.346  24.138  1.00  0.00    -0.462 OA
BRANCH   2   3
ATOM      3  C   UNL A   1      30.698  28.089  22.814  1.00  0.00     0.315 C 
ATOM      4  O   UNL A   1      30.087  28.773  21.996  1.00  0.00    -0.252 OA
BRANCH   3   5
ATOM      5  C   UNL A   1      31.526  26.901  22.375  1.00  0.00     0.162 C 
ATOM      6  N   UNL A   1      32.632  25.107  23.486  1.00  0.00    -0.328 N 
ATOM      7  C   UNL A   1      33.524  25.584  22.436  1.00  0.00     0.267 C 
ATOM      8  C   UNL A   1      31.354  25.785  23.387  1.00  0.00     0.278 C 
ATOM      9  H   UNL A   1      32.459  24.119  23.299  1.00  0.00     0.348 HD
ATOM     10  C   UNL A   1      33.000  26.947  21.972  1.00  0.00     0.061 C 
ATOM     11  C   UNL A   1      33.865  28.108  22.432  1.00  0.00     0.015 C 
BRANCH   6  12
ATOM     12  C   UNL A   1      33.194  24.898  24.822  1.00  0.00     0.215 C 
ATOM     13  C   UNL A   1      33.442  26.218  25.573  1.00  0.00     0.081 C 
BRANCH  12  14
ATOM     14  C   UNL A   1      34.395  23.972  24.904  1.00  0.00     0.048 A 
ATOM     15  C   UNL A   1      37.924  21.466  25.183  1.00  0.00     0.047 C 
ATOM     16  C   UNL A   1      36.707  22.333  25.101  1.00  0.00    -0.012 A 
ATOM     17  C   UNL A   1      35.519  21.827  24.567  1.00  0.00     0.046 A 
ATOM     18  C   UNL A   1      36.728  23.659  25.531  1.00  0.00     0.126 A 
ATOM     19  C   UNL A   1      34.390  22.642  24.460  1.00  0.00     0.132 A 
ATOM     20  C   UNL A   1      35.596  24.467  25.444  1.00  0.00     0.052 A 
ATOM     21  F   UNL A   1      37.852  24.185  26.035  1.00  0.00    -0.207 F 
ATOM     22  F   UNL A   1      33.290  22.095  23.931  1.00  0.00    -0.206 F 
ENDBRANCH  12  14
ENDBRANCH   6  12
ENDBRANCH   3   5
ENDBRANCH   2   3
ENDBRANCH   1   2
BRANCH   1  23
ATOM     23  C   UNL A   1      31.817  29.598  25.927  1.00  0.00     0.275 C 
BRANCH  23  24
ATOM     24  O   UNL A   1      33.131  30.189  25.962  1.00  0.00    -0.458 OA
BRANCH  24  25
ATOM     25  C   UNL A   1      33.313  31.169  26.874  1.00  0.00     0.338 C 
ATOM     26  O   UNL A   1      32.553  32.086  27.151  1.00  0.00    -0.246 OA
BRANCH  25  27
ATOM     27  C   UNL A   1      34.557  30.915  27.610  1.00  0.00     0.060 A 
ATOM     28  C   UNL A   1      35.476  31.936  27.823  1.00  0.00     0.016 A 
ATOM     29  C   UNL A   1      34.781  29.643  28.138  1.00  0.00     0.016 A 
ATOM     30  C   UNL A   1      36.643  31.656  28.537  1.00  0.00     0.010 A 
ATOM     31  C   UNL A   1      35.905  29.377  28.900  1.00  0.00     0.010 A 
ATOM     32  C   UNL A   1      36.864  30.373  29.074  1.00  0.00    -0.014 A 
BRANCH  32  33
ATOM     33  C   UNL A   1      38.107  30.051  29.806  1.00  0.00     0.031 A 
ATOM     34  C   UNL A   1      38.331  30.596  31.187  1.00  0.00     0.074 A 
ATOM     35  C   UNL A   1      39.036  29.292  29.199  1.00  0.00     0.049 A 
ATOM     36  N   UNL A   1      39.335  30.387  32.000  1.00  0.00    -0.248 NA
ATOM     37  C   UNL A   1      37.309  31.510  31.722  1.00  0.00     0.031 C 
ATOM     38  C   UNL A   1      38.942  28.779  27.833  1.00  0.00     0.029 A 
ATOM     39  N   UNL A   1      40.236  28.816  29.655  1.00  0.00    -0.354 N 
ATOM     40  C   UNL A   1      39.057  31.130  33.140  1.00  0.00     0.074 A 
ATOM     41  C   UNL A   1      37.832  31.854  32.890  1.00  0.00     0.031 C 
ATOM     42  C   UNL A   1      40.012  28.012  27.579  1.00  0.00     0.029 A 
ATOM     43  C   UNL A   1      40.883  28.011  28.751  1.00  0.00     0.049 A 
ATOM     44  H   UNL A   1      40.600  29.028  30.545  1.00  0.00     0.167 HD
ATOM     45  C   UNL A   1      39.747  31.171  34.304  1.00  0.00     0.037 A 
ATOM     46  C   UNL A   1      42.043  27.340  28.865  1.00  0.00     0.037 A 
ATOM     47  C   UNL A   1      40.962  30.437  34.539  1.00  0.00     0.049 A 
ATOM     48  C   UNL A   1      42.798  27.416  30.163  1.00  0.00     0.074 A 
ATOM     49  C   UNL A   1      41.719  30.371  35.694  1.00  0.00     0.029 A 
ATOM     50  N   UNL A   1      41.599  29.644  33.594  1.00  0.00    -0.354 N 
ATOM     51  N   UNL A   1      42.487  28.056  31.265  1.00  0.00    -0.248 NA
ATOM     52  C   UNL A   1      44.063  26.674  30.235  1.00  0.00     0.031 C 
ATOM     53  C   UNL A   1      42.842  29.579  35.432  1.00  0.00     0.029 A 
ATOM     54  C   UNL A   1      42.756  29.104  34.133  1.00  0.00     0.049 A 
ATOM     55  H   UNL A   1      41.277  29.489  32.677  1.00  0.00     0.167 HD
ATOM     56  C   UNL A   1      43.504  27.782  32.167  1.00  0.00     0.074 A 
ATOM     57  C   UNL A   1      44.429  26.894  31.490  1.00  0.00     0.031 C 
ATOM     58  C   UNL A   1      43.663  28.226  33.438  1.00  0.00     0.037 A 
BRANCH  45  59
ATOM     59  C   UNL A   1      39.195  32.012  35.418  1.00  0.00     0.064 A 
ATOM     60  C   UNL A   1      38.379  31.459  36.417  1.00  0.00     0.173 A 
ATOM     61  C   UNL A   1      39.543  33.368  35.534  1.00  0.00     0.173 A 
ATOM     62  F   UNL A   1      38.009  30.171  36.351  1.00  0.00    -0.203 F 
ATOM     63  C   UNL A   1      37.917  32.233  37.479  1.00  0.00     0.198 A 
ATOM     64  C   UNL A   1      39.105  34.130  36.614  1.00  0.00     0.198 A 
ATOM     65  F   UNL A   1      40.324  33.947  34.611  1.00  0.00    -0.203 F 
ATOM     66  F   UNL A   1      37.111  31.690  38.401  1.00  0.00    -0.200 F 
ATOM     67  C   UNL A   1      38.289  33.564  37.583  1.00  0.00     0.200 A 
ATOM     68  F   UNL A   1      39.479  35.414  36.722  1.00  0.00    -0.200 F 
ATOM     69  F   UNL A   1      37.863  34.303  38.617  1.00  0.00    -0.200 F 
ENDBRANCH  45  59
BRANCH  46  70
ATOM     70  C   UNL A   1      42.518  26.501  27.736  1.00  0.00     0.064 A 
ATOM     71  C   UNL A   1      42.063  25.185  27.578  1.00  0.00     0.173 A 
ATOM     72  C   UNL A   1      43.403  27.006  26.771  1.00  0.00     0.173 A 
ATOM     73  F   UNL A   1      41.227  24.652  28.482  1.00  0.00    -0.203 F 
ATOM     74  C   UNL A   1      42.482  24.402  26.505  1.00  0.00     0.198 A 
ATOM     75  C   UNL A   1      43.798  26.231  25.682  1.00  0.00     0.198 A 
ATOM     76  F   UNL A   1      43.860  28.262  26.871  1.00  0.00    -0.203 F 
ATOM     77  F   UNL A   1      42.058  23.136  26.396  1.00  0.00    -0.200 F 
ATOM     78  C   UNL A   1      43.342  24.929  25.553  1.00  0.00     0.200 A 
ATOM     79  F   UNL A   1      44.612  26.752  24.754  1.00  0.00    -0.200 F 
ATOM     80  F   UNL A   1      43.732  24.180  24.512  1.00  0.00    -0.200 F 
ENDBRANCH  46  70
BRANCH  58  81
ATOM     81  C   UNL A   1      44.877  27.757  34.184  1.00  0.00     0.064 A 
ATOM     82  C   UNL A   1      44.870  26.561  34.917  1.00  0.00     0.173 A 
ATOM     83  C   UNL A   1      46.079  28.479  34.116  1.00  0.00     0.173 A 
ATOM     84  F   UNL A   1      43.743  25.841  35.022  1.00  0.00    -0.203 F 
ATOM     85  C   UNL A   1      46.014  26.117  35.573  1.00  0.00     0.198 A 
ATOM     86  C   UNL A   1      47.231  28.014  34.745  1.00  0.00     0.198 A 
ATOM     87  F   UNL A   1      46.143  29.624  33.420  1.00  0.00    -0.203 F 
ATOM     88  F   UNL A   1      45.971  24.996  36.305  1.00  0.00    -0.200 F 
ATOM     89  C   UNL A   1      47.195  26.838  35.478  1.00  0.00     0.200 A 
ATOM     90  F   UNL A   1      48.376  28.701  34.635  1.00  0.00    -0.200 F 
ATOM     91  F   UNL A   1      48.300  26.400  36.097  1.00  0.00    -0.200 F 
ENDBRANCH  58  81
ENDBRANCH  32  33
ENDBRANCH  25  27
ENDBRANCH  24  25
ENDBRANCH  23  24
ENDBRANCH   1  23
TORSDOF 13
ENDMDL
MODEL 2
REMARK VINA RESULT:     -12.2      0.153      1.608
REMARK SMILES Cc1cc(F)c([C@@H](C)[N@@H+]2C[C@H](C)[C@H](C(=O)OCCOC(=O)c3ccc(-c4c5nc(c(-c6c(F)c(F)c(F)c(F)c6F)c6ccc([nH]6)c(-c6c(F)c(F)c(F)c(F)c6F)c6nc(c(-c7c(F)c(F)c(F)c(F)c7F)c7ccc4[nH]7)C=C6)C=C5)cc3)C2)cc1F
REMARK SMILES IDX 17 1 16 2 14 3 15 4 13 5 9 6 10 7 85 8 11 10 12 11 7 12 8 13
REMARK SMILES IDX 6 14 1 15 2 16 3 17 87 18 4 19 86 20 88 21 5 22 18 23 19 24
REMARK SMILES IDX 20 25 21 26 22 27 23 28 84 29 24 30 83 31 25 32 26 33 27 34
REMARK SMILES IDX 77 35 28 36 82 37 76 38 78 39 29 40 81 41 75 42 74 43 30 45
REMARK SMILES IDX 62 46 42 47 61 48 43 49 46 50 60 51 79 52 44 53 45 54 59 56
REMARK SMILES IDX 80 57 47 58 31 59 32 60 40 61 33 62 34 63 38 64 41 65 35 66
REMARK SMILES IDX 36 67 39 68 37 69 63 70 64 71 72 72 65 73 66 74 70 75 73 76
REMARK SMILES IDX 67 77 68 78 71 79 69 80 48 81 49 82 57 83 50 84 51 85 55 86
REMARK SMILES IDX 58 87 52 88 53 89 56 90 54 91
REMARK H PARENT 9 9 78 44 46 55
REMARK Flexibility Score: inf
ROOT
ATOM      1  C   UNL A   1      31.103  29.604  24.606  1.00  0.00     0.274 C 
ENDROOT
BRANCH   1   2
ATOM      2  O   UNL A   1      30.702  28.294  24.168  1.00  0.00    -0.462 OA
BRANCH   2   3
ATOM      3  C   UNL A   1      30.695  28.086  22.835  1.00  0.00     0.315 C 
ATOM      4  O   UNL A   1      30.084  28.788  22.033  1.00  0.00    -0.252 OA
BRANCH   3   5
ATOM      5  C   UNL A   1      31.555  26.931  22.367  1.00  0.00     0.162 C 
ATOM      6  N   UNL A   1      32.627  25.083  23.421  1.00  0.00    -0.328 N 
ATOM      7  C   UNL A   1      33.561  25.627  22.443  1.00  0.00     0.267 C 
ATOM      8  C   UNL A   1      31.348  25.757  23.303  1.00  0.00     0.278 C 
ATOM      9  H   UNL A   1      32.472  24.107  23.169  1.00  0.00     0.348 HD
ATOM     10  C   UNL A   1      33.045  27.011  22.034  1.00  0.00     0.061 C 
ATOM     11  C   UNL A   1      33.876  28.150  22.600  1.00  0.00     0.015 C 
BRANCH   6  12
ATOM     12  C   UNL A   1      33.130  24.802  24.767  1.00  0.00     0.215 C 
ATOM     13  C   UNL A   1      33.301  26.075  25.614  1.00  0.00     0.081 C 
BRANCH  12  14
ATOM     14  C   UNL A   1      34.354  23.905  24.848  1.00  0.00     0.048 A 
ATOM     15  C   UNL A   1      37.943  21.486  25.124  1.00  0.00     0.047 C 
ATOM     16  C   UNL A   1      36.705  22.322  25.043  1.00  0.00    -0.012 A 
ATOM     17  C   UNL A   1      35.525  21.785  24.521  1.00  0.00     0.046 A 
ATOM     18  C   UNL A   1      36.696  23.652  25.463  1.00  0.00     0.126 A 
ATOM     19  C   UNL A   1      34.377  22.572  24.415  1.00  0.00     0.132 A 
ATOM     20  C   UNL A   1      35.545  24.432  25.377  1.00  0.00     0.052 A 
ATOM     21  F   UNL A   1      37.811  24.209  25.956  1.00  0.00    -0.207 F 
ATOM     22  F   UNL A   1      33.287  21.994  23.897  1.00  0.00    -0.206 F 
ENDBRANCH  12  14
ENDBRANCH   6  12
ENDBRANCH   3   5
ENDBRANCH   2   3
ENDBRANCH   1   2
BRANCH   1  23
ATOM     23  C   UNL A   1      31.828  29.516  25.953  1.00  0.00     0.275 C 
BRANCH  23  24
ATOM     24  O   UNL A   1      33.110  30.175  25.916  1.00  0.00    -0.458 OA
BRANCH  24  25
ATOM     25  C   UNL A   1      33.293  31.159  26.825  1.00  0.00     0.338 C 
ATOM     26  O   UNL A   1      32.530  32.071  27.106  1.00  0.00    -0.246 OA
BRANCH  25  27
ATOM     27  C   UNL A   1      34.545  30.914  27.550  1.00  0.00     0.060 A 
ATOM     28  C   UNL A   1      35.419  31.960  27.830  1.00  0.00     0.016 A 
ATOM     29  C   UNL A   1      34.823  29.624  28.002  1.00  0.00     0.016 A 
ATOM     30  C   UNL A   1      36.595  31.688  28.531  1.00  0.00     0.010 A 
ATOM     31  C   UNL A   1      35.956  29.361  28.752  1.00  0.00     0.010 A 
ATOM     32  C   UNL A   1      36.870  30.386  28.991  1.00  0.00    -0.014 A 
BRANCH  32  33
ATOM     33  C   UNL A   1      38.123  30.074  29.708  1.00  0.00     0.031 A 
ATOM     34  C   UNL A   1      38.353  30.608  31.093  1.00  0.00     0.074 A 
ATOM     35  C   UNL A   1      39.058  29.335  29.086  1.00  0.00     0.049 A 
ATOM     36  N   UNL A   1      39.367  30.405  31.895  1.00  0.00    -0.248 NA
ATOM     37  C   UNL A   1      37.323  31.502  31.646  1.00  0.00     0.031 C 
ATOM     38  C   UNL A   1      38.959  28.833  27.715  1.00  0.00     0.029 A 
ATOM     39  N   UNL A   1      40.269  28.871  29.526  1.00  0.00    -0.354 N 
ATOM     40  C   UNL A   1      39.088  31.133  33.045  1.00  0.00     0.074 A 
ATOM     41  C   UNL A   1      37.851  31.842  32.813  1.00  0.00     0.031 C 
ATOM     42  C   UNL A   1      40.037  28.085  27.444  1.00  0.00     0.029 A 
ATOM     43  C   UNL A   1      40.919  28.084  28.609  1.00  0.00     0.049 A 
ATOM     44  H   UNL A   1      40.637  29.079  30.415  1.00  0.00     0.167 HD
ATOM     45  C   UNL A   1      39.789  31.172  34.203  1.00  0.00     0.037 A 
ATOM     46  C   UNL A   1      42.089  27.429  28.705  1.00  0.00     0.037 A 
ATOM     47  C   UNL A   1      41.016  30.453  34.420  1.00  0.00     0.049 A 
ATOM     48  C   UNL A   1      42.855  27.503  29.997  1.00  0.00     0.074 A 
ATOM     49  C   UNL A   1      41.784  30.386  35.567  1.00  0.00     0.029 A 
ATOM     50  N   UNL A   1      41.655  29.679  33.461  1.00  0.00    -0.354 N 
ATOM     51  N   UNL A   1      42.544  28.127  31.108  1.00  0.00    -0.248 NA
ATOM     52  C   UNL A   1      44.130  26.778  30.051  1.00  0.00     0.031 C 
ATOM     53  C   UNL A   1      42.916  29.613  35.288  1.00  0.00     0.029 A 
ATOM     54  C   UNL A   1      42.824  29.150  33.984  1.00  0.00     0.049 A 
ATOM     55  H   UNL A   1      41.327  29.528  32.546  1.00  0.00     0.167 HD
ATOM     56  C   UNL A   1      43.573  27.858  31.998  1.00  0.00     0.074 A 
ATOM     57  C   UNL A   1      44.505  26.990  31.304  1.00  0.00     0.031 C 
ATOM     58  C   UNL A   1      43.738  28.292  33.272  1.00  0.00     0.037 A 
BRANCH  45  59
ATOM     59  C   UNL A   1      39.235  31.994  35.331  1.00  0.00     0.064 A 
ATOM     60  C   UNL A   1      38.429  31.421  36.327  1.00  0.00     0.173 A 
ATOM     61  C   UNL A   1      39.570  33.351  35.461  1.00  0.00     0.173 A 
ATOM     62  F   UNL A   1      38.071  30.130  36.247  1.00  0.00    -0.203 F 
ATOM     63  C   UNL A   1      37.966  32.178  37.401  1.00  0.00     0.198 A 
ATOM     64  C   UNL A   1      39.131  34.097  36.553  1.00  0.00     0.198 A 
ATOM     65  F   UNL A   1      40.341  33.949  34.541  1.00  0.00    -0.203 F 
ATOM     66  F   UNL A   1      37.171  31.615  38.321  1.00  0.00    -0.200 F 
ATOM     67  C   UNL A   1      38.327  33.511  37.520  1.00  0.00     0.200 A 
ATOM     68  F   UNL A   1      39.493  35.382  36.675  1.00  0.00    -0.200 F 
ATOM     69  F   UNL A   1      37.899  34.232  38.565  1.00  0.00    -0.200 F 
ENDBRANCH  45  59
BRANCH  46  70
ATOM     70  C   UNL A   1      42.566  26.608  27.564  1.00  0.00     0.064 A 
ATOM     71  C   UNL A   1      43.520  27.108  26.668  1.00  0.00     0.173 A 
ATOM     72  C   UNL A   1      42.110  25.295  27.366  1.00  0.00     0.173 A 
ATOM     73  F   UNL A   1      43.976  28.362  26.806  1.00  0.00    -0.203 F 
ATOM     74  C   UNL A   1      43.993  26.332  25.612  1.00  0.00     0.198 A 
ATOM     75  C   UNL A   1      42.606  24.510  26.327  1.00  0.00     0.198 A 
ATOM     76  F   UNL A   1      41.205  24.766  28.201  1.00  0.00    -0.203 F 
ATOM     77  F   UNL A   1      44.881  26.848  24.750  1.00  0.00    -0.200 F 
ATOM     78  C   UNL A   1      43.543  25.031  25.448  1.00  0.00     0.200 A 
ATOM     79  F   UNL A   1      42.184  23.247  26.185  1.00  0.00    -0.200 F 
ATOM     80  F   UNL A   1      44.011  24.280  24.441  1.00  0.00    -0.200 F 
ENDBRANCH  46  70
BRANCH  58  81
ATOM     81  C   UNL A   1      44.965  27.833  34.003  1.00  0.00     0.064 A 
ATOM     82  C   UNL A   1      46.141  28.598  34.012  1.00  0.00     0.173 A 
ATOM     83  C   UNL A   1      44.947  26.648  34.755  1.00  0.00     0.173 A 
ATOM     84  F   UNL A   1      46.213  29.733  33.300  1.00  0.00    -0.203 F 
ATOM     85  C   UNL A   1      47.260  28.182  34.726  1.00  0.00     0.198 A 
ATOM     86  C   UNL A   1      46.056  26.252  35.496  1.00  0.00     0.198 A 
ATOM     87  F   UNL A   1      43.844  25.885  34.789  1.00  0.00    -0.203 F 
ATOM     88  F   UNL A   1      48.387  28.904  34.682  1.00  0.00    -0.200 F 
ATOM     89  C   UNL A   1      47.213  27.015  35.475  1.00  0.00     0.200 A 
ATOM     90  F   UNL A   1      46.003  25.136  36.235  1.00  0.00    -0.200 F 
ATOM     91  F   UNL A   1      48.287  26.624  36.175  1.00  0.00    -0.200 F 
ENDBRANCH  58  81
ENDBRANCH  32  33
ENDBRANCH  25  27
ENDBRANCH  24  25
ENDBRANCH  23  24
ENDBRANCH   1  23
TORSDOF 13
ENDMDL
MODEL 3
REMARK VINA RESULT:     -11.9      0.456      7.294
REMARK SMILES Cc1cc(F)c([C@@H](C)[N@@H+]2C[C@H](C)[C@H](C(=O)OCCOC(=O)c3ccc(-c4c5nc(c(-c6c(F)c(F)c(F)c(F)c6F)c6ccc([nH]6)c(-c6c(F)c(F)c(F)c(F)c6F)c6nc(c(-c7c(F)c(F)c(F)c(F)c7F)c7ccc4[nH]7)C=C6)C=C5)cc3)C2)cc1F
REMARK SMILES IDX 17 1 16 2 14 3 15 4 13 5 9 6 10 7 85 8 11 10 12 11 7 12 8 13
REMARK SMILES IDX 6 14 1 15 2 16 3 17 87 18 4 19 86 20 88 21 5 22 18 23 19 24
REMARK SMILES IDX 20 25 21 26 22 27 23 28 84 29 24 30 83 31 25 32 26 33 27 34
REMARK SMILES IDX 77 35 28 36 82 37 76 38 78 39 29 40 81 41 75 42 74 43 30 45
REMARK SMILES IDX 62 46 42 47 61 48 43 49 46 50 60 51 79 52 44 53 45 54 59 56
REMARK SMILES IDX 80 57 47 58 31 59 32 60 40 61 33 62 34 63 38 64 41 65 35 66
REMARK SMILES IDX 36 67 39 68 37 69 63 70 64 71 72 72 65 73 66 74 70 75 73 76
REMARK SMILES IDX 67 77 68 78 71 79 69 80 48 81 49 82 57 83 50 84 51 85 55 86
REMARK SMILES IDX 58 87 52 88 53 89 56 90 54 91
REMARK H PARENT 9 9 78 44 46 55
REMARK Flexibility Score: inf
ROOT
ATOM      1  C   UNL A   1      31.176  29.352  24.473  1.00  0.00     0.274 C 
ENDROOT
BRANCH   1   2
ATOM      2  O   UNL A   1      30.720  28.028  24.142  1.00  0.00    -0.462 OA
BRANCH   2   3
ATOM      3  C   UNL A   1      30.651  27.731  22.827  1.00  0.00     0.315 C 
ATOM      4  O   UNL A   1      29.995  28.375  22.012  1.00  0.00    -0.252 OA
BRANCH   3   5
ATOM      5  C   UNL A   1      31.497  26.553  22.395  1.00  0.00     0.162 C 
ATOM      6  N   UNL A   1      32.620  24.775  23.514  1.00  0.00    -0.328 N 
ATOM      7  C   UNL A   1      33.511  25.262  22.468  1.00  0.00     0.267 C 
ATOM      8  C   UNL A   1      31.333  25.436  23.408  1.00  0.00     0.278 C 
ATOM      9  H   UNL A   1      32.460  23.784  23.327  1.00  0.00     0.348 HD
ATOM     10  C   UNL A   1      32.972  26.617  21.999  1.00  0.00     0.061 C 
ATOM     11  C   UNL A   1      33.820  27.790  22.462  1.00  0.00     0.015 C 
BRANCH   6  12
ATOM     12  C   UNL A   1      33.178  24.575  24.853  1.00  0.00     0.215 C 
ATOM     13  C   UNL A   1      33.316  25.891  25.639  1.00  0.00     0.081 C 
BRANCH  12  14
ATOM     14  C   UNL A   1      34.444  23.740  24.931  1.00  0.00     0.048 A 
ATOM     15  C   UNL A   1      38.148  21.500  25.193  1.00  0.00     0.047 C 
ATOM     16  C   UNL A   1      36.871  22.275  25.118  1.00  0.00    -0.012 A 
ATOM     17  C   UNL A   1      35.711  21.672  24.624  1.00  0.00     0.046 A 
ATOM     18  C   UNL A   1      36.805  23.610  25.513  1.00  0.00     0.126 A 
ATOM     19  C   UNL A   1      34.524  22.401  24.522  1.00  0.00     0.132 A 
ATOM     20  C   UNL A   1      35.617  24.333  25.431  1.00  0.00     0.052 A 
ATOM     21  F   UNL A   1      37.900  24.229  25.977  1.00  0.00    -0.207 F 
ATOM     22  F   UNL A   1      33.456  21.763  24.032  1.00  0.00    -0.206 F 
ENDBRANCH  12  14
ENDBRANCH   6  12
ENDBRANCH   3   5
ENDBRANCH   2   3
ENDBRANCH   1   2
BRANCH   1  23
ATOM     23  C   UNL A   1      31.885  29.346  25.831  1.00  0.00     0.275 C 
BRANCH  23  24
ATOM     24  O   UNL A   1      33.119  30.090  25.796  1.00  0.00    -0.458 OA
BRANCH  24  25
ATOM     25  C   UNL A   1      33.255  31.053  26.735  1.00  0.00     0.338 C 
ATOM     26  O   UNL A   1      32.489  31.973  26.982  1.00  0.00    -0.246 OA
BRANCH  25  27
ATOM     27  C   UNL A   1      34.449  30.772  27.540  1.00  0.00     0.060 A 
ATOM     28  C   UNL A   1      35.333  31.791  27.877  1.00  0.00     0.016 A 
ATOM     29  C   UNL A   1      34.658  29.474  28.008  1.00  0.00     0.016 A 
ATOM     30  C   UNL A   1      36.452  31.484  28.654  1.00  0.00     0.010 A 
ATOM     31  C   UNL A   1      35.731  29.178  28.831  1.00  0.00     0.010 A 
ATOM     32  C   UNL A   1      36.658  30.175  29.130  1.00  0.00    -0.014 A 
BRANCH  32  33
ATOM     33  C   UNL A   1      37.852  29.827  29.927  1.00  0.00     0.031 A 
ATOM     34  C   UNL A   1      38.881  28.885  29.371  1.00  0.00     0.074 A 
ATOM     35  C   UNL A   1      37.977  30.341  31.163  1.00  0.00     0.049 A 
ATOM     36  N   UNL A   1      40.012  28.497  29.902  1.00  0.00    -0.248 NA
ATOM     37  C   UNL A   1      38.600  28.282  28.058  1.00  0.00     0.031 C 
ATOM     38  C   UNL A   1      36.995  31.205  31.817  1.00  0.00     0.029 A 
ATOM     39  N   UNL A   1      38.985  30.221  32.082  1.00  0.00    -0.354 N 
ATOM     40  C   UNL A   1      40.578  27.620  28.985  1.00  0.00     0.074 A 
ATOM     41  C   UNL A   1      39.637  27.473  27.899  1.00  0.00     0.031 C 
ATOM     42  C   UNL A   1      37.472  31.582  33.012  1.00  0.00     0.029 A 
ATOM     43  C   UNL A   1      38.776  30.958  33.220  1.00  0.00     0.049 A 
ATOM     44  H   UNL A   1      39.782  29.661  31.941  1.00  0.00     0.167 HD
ATOM     45  C   UNL A   1      41.792  27.024  29.033  1.00  0.00     0.037 A 
ATOM     46  C   UNL A   1      39.557  31.118  34.303  1.00  0.00     0.037 A 
ATOM     47  C   UNL A   1      42.721  27.188  30.119  1.00  0.00     0.049 A 
ATOM     48  C   UNL A   1      40.894  30.431  34.338  1.00  0.00     0.074 A 
ATOM     49  C   UNL A   1      43.995  26.667  30.251  1.00  0.00     0.029 A 
ATOM     50  N   UNL A   1      42.469  27.930  31.266  1.00  0.00    -0.354 N 
ATOM     51  N   UNL A   1      41.457  29.670  33.430  1.00  0.00    -0.248 NA
ATOM     52  C   UNL A   1      41.707  30.629  35.544  1.00  0.00     0.031 C 
ATOM     53  C   UNL A   1      44.494  27.050  31.499  1.00  0.00     0.029 A 
ATOM     54  C   UNL A   1      43.556  27.858  32.122  1.00  0.00     0.049 A 
ATOM     55  H   UNL A   1      41.641  28.431  31.444  1.00  0.00     0.167 HD
ATOM     56  C   UNL A   1      42.694  29.311  33.945  1.00  0.00     0.074 A 
ATOM     57  C   UNL A   1      42.810  29.963  35.235  1.00  0.00     0.031 C 
ATOM     58  C   UNL A   1      43.647  28.512  33.404  1.00  0.00     0.037 A 
BRANCH  45  59
ATOM     59  C   UNL A   1      42.198  26.164  27.871  1.00  0.00     0.064 A 
ATOM     60  C   UNL A   1      41.708  24.857  27.722  1.00  0.00     0.173 A 
ATOM     61  C   UNL A   1      43.028  26.671  26.859  1.00  0.00     0.173 A 
ATOM     62  F   UNL A   1      40.918  24.320  28.664  1.00  0.00    -0.203 F 
ATOM     63  C   UNL A   1      42.044  24.085  26.612  1.00  0.00     0.198 A 
ATOM     64  C   UNL A   1      43.336  25.907  25.735  1.00  0.00     0.198 A 
ATOM     65  F   UNL A   1      43.522  27.914  26.948  1.00  0.00    -0.203 F 
ATOM     66  F   UNL A   1      41.589  22.829  26.509  1.00  0.00    -0.200 F 
ATOM     67  C   UNL A   1      42.848  24.614  25.615  1.00  0.00     0.200 A 
ATOM     68  F   UNL A   1      44.102  26.426  24.764  1.00  0.00    -0.200 F 
ATOM     69  F   UNL A   1      43.153  23.879  24.536  1.00  0.00    -0.200 F 
ENDBRANCH  45  59
BRANCH  46  70
ATOM     70  C   UNL A   1      39.110  32.007  35.405  1.00  0.00     0.064 A 
ATOM     71  C   UNL A   1      38.356  31.504  36.474  1.00  0.00     0.173 A 
ATOM     72  C   UNL A   1      39.459  33.367  35.435  1.00  0.00     0.173 A 
ATOM     73  F   UNL A   1      37.986  30.215  36.483  1.00  0.00    -0.203 F 
ATOM     74  C   UNL A   1      37.959  32.327  37.524  1.00  0.00     0.198 A 
ATOM     75  C   UNL A   1      39.086  34.182  36.501  1.00  0.00     0.198 A 
ATOM     76  F   UNL A   1      40.188  33.895  34.441  1.00  0.00    -0.203 F 
ATOM     77  F   UNL A   1      37.210  31.828  38.517  1.00  0.00    -0.200 F 
ATOM     78  C   UNL A   1      38.332  33.663  37.543  1.00  0.00     0.200 A 
ATOM     79  F   UNL A   1      39.467  35.466  36.525  1.00  0.00    -0.200 F 
ATOM     80  F   UNL A   1      37.963  34.450  38.562  1.00  0.00    -0.200 F 
ENDBRANCH  46  70
BRANCH  58  81
ATOM     81  C   UNL A   1      44.901  28.301  34.199  1.00  0.00     0.064 A 
ATOM     82  C   UNL A   1      45.031  27.223  35.089  1.00  0.00     0.173 A 
ATOM     83  C   UNL A   1      46.008  29.146  34.025  1.00  0.00     0.173 A 
ATOM     84  F   UNL A   1      43.998  26.393  35.299  1.00  0.00    -0.203 F 
ATOM     85  C   UNL A   1      46.214  27.014  35.791  1.00  0.00     0.198 A 
ATOM     86  C   UNL A   1      47.201  28.914  34.703  1.00  0.00     0.198 A 
ATOM     87  F   UNL A   1      45.939  30.185  33.179  1.00  0.00    -0.203 F 
ATOM     88  F   UNL A   1      46.299  26.007  36.670  1.00  0.00    -0.200 F 
ATOM     89  C   UNL A   1      47.300  27.853  35.590  1.00  0.00     0.200 A 
ATOM     90  F   UNL A   1      48.256  29.713  34.493  1.00  0.00    -0.200 F 
ATOM     91  F   UNL A   1      48.443  27.641  36.256  1.00  0.00    -0.200 F 
ENDBRANCH  58  81
ENDBRANCH  32  33
ENDBRANCH  25  27
ENDBRANCH  24  25
ENDBRANCH  23  24
ENDBRANCH   1  23
TORSDOF 13
ENDMDL
