MODEL 1
REMARK VINA RESULT:     -13.0      0.000      0.000
REMARK SMILES Cc1nccn1CCC[NH+]1CCC2(CC1)[C@@H](C(=O)OCCOC(=O)c1ccc(-c3c4nc(c(-c5c(F)c(F)c(F)c(F)c5F)c5ccc([nH]5)c(-c5c(F)c(F)c(F)c(F)c5F)c5nc(c(-c6c(F)c(F)c(F)c(F)c6F)c6ccc3[nH]6)C=C5)C=C4)cc1)CC(=O)N2C
REMARK SMILES IDX 20 1 19 2 17 3 18 4 16 5 10 6 11 7 15 8 12 10 14 11 13 12
REMARK SMILES IDX 91 13 88 14 89 15 92 16 90 17 9 18 8 19 7 20 6 21 1 22 2 23
REMARK SMILES IDX 3 24 4 25 5 26 21 27 22 28 23 29 24 30 25 31 26 32 87 33
REMARK SMILES IDX 27 34 86 35 28 36 29 37 30 38 80 39 31 40 85 41 79 42 81 43
REMARK SMILES IDX 32 44 84 45 78 46 77 47 33 49 65 50 45 51 64 52 46 53 49 54
REMARK SMILES IDX 63 55 82 56 47 57 48 58 62 60 83 61 50 62 34 63 35 64 43 65
REMARK SMILES IDX 36 66 37 67 41 68 44 69 38 70 39 71 42 72 40 73 66 74 67 75
REMARK SMILES IDX 75 76 68 77 69 78 73 79 76 80 70 81 71 82 74 83 72 84 51 85
REMARK SMILES IDX 52 86 60 87 53 88 54 89 58 90 61 91 55 92 56 93 59 94 57 95
REMARK H PARENT 10 9 81 48 49 59
REMARK Flexibility Score: inf
ROOT
ATOM      1  C   UNL A   1      33.928  28.621  27.365  1.00  0.00     0.274 C 
ENDROOT
BRANCH   1   2
ATOM      2  O   UNL A   1      34.122  27.677  26.287  1.00  0.00    -0.462 OA
BRANCH   2   3
ATOM      3  C   UNL A   1      33.522  28.023  25.102  1.00  0.00     0.311 C 
ATOM      4  O   UNL A   1      33.902  28.932  24.380  1.00  0.00    -0.252 OA
BRANCH   3   5
ATOM      5  C   UNL A   1      32.296  27.143  24.845  1.00  0.00     0.134 C 
ATOM      6  N   UNL A   1      33.336  23.131  24.009  1.00  0.00    -0.335 N 
ATOM      7  C   UNL A   1      31.926  23.391  23.814  1.00  0.00     0.264 C 
ATOM      8  C   UNL A   1      34.213  24.068  23.345  1.00  0.00     0.264 C 
ATOM      9  H   UNL A   1      33.479  22.283  23.460  1.00  0.00     0.348 HD
ATOM     10  C   UNL A   1      31.464  24.796  24.203  1.00  0.00     0.091 C 
ATOM     11  C   UNL A   1      33.938  25.520  23.714  1.00  0.00     0.091 C 
ATOM     12  C   UNL A   1      32.447  25.960  23.824  1.00  0.00     0.067 C 
ATOM     13  N   UNL A   1      31.929  26.577  22.598  1.00  0.00    -0.339 N 
ATOM     14  C   UNL A   1      31.159  28.002  24.319  1.00  0.00     0.118 C 
ATOM     15  C   UNL A   1      31.080  27.650  22.860  1.00  0.00     0.223 C 
ATOM     16  C   UNL A   1      31.826  25.877  21.335  1.00  0.00     0.147 C 
ATOM     17  O   UNL A   1      30.316  28.177  22.068  1.00  0.00    -0.275 OA
BRANCH   6  18
ATOM     18  C   UNL A   1      33.784  22.446  25.211  1.00  0.00     0.264 C 
BRANCH  18  19
ATOM     19  C   UNL A   1      34.459  21.069  25.109  1.00  0.00     0.083 C 
BRANCH  19  20
ATOM     20  C   UNL A   1      33.548  19.850  25.217  1.00  0.00     0.129 C 
BRANCH  20  21
ATOM     21  N   UNL A   1      33.246  19.032  24.067  1.00  0.00    -0.335 N 
ATOM     22  C   UNL A   1      34.818  17.068  24.585  1.00  0.00     0.087 C 
ATOM     23  C   UNL A   1      33.758  17.767  23.808  1.00  0.00     0.105 A 
ATOM     24  N   UNL A   1      33.166  17.238  22.757  1.00  0.00    -0.242 NA
ATOM     25  C   UNL A   1      32.270  18.165  22.318  1.00  0.00     0.131 A 
ATOM     26  C   UNL A   1      32.317  19.292  23.099  1.00  0.00     0.107 A 
ENDBRANCH  20  21
ENDBRANCH  19  20
ENDBRANCH  18  19
ENDBRANCH   6  18
ENDBRANCH   3   5
ENDBRANCH   2   3
ENDBRANCH   1   2
BRANCH   1  27
ATOM     27  C   UNL A   1      34.935  29.771  27.263  1.00  0.00     0.275 C 
BRANCH  27  28
ATOM     28  O   UNL A   1      36.351  29.486  27.244  1.00  0.00    -0.458 OA
BRANCH  28  29
ATOM     29  C   UNL A   1      37.027  29.113  28.354  1.00  0.00     0.338 C 
ATOM     30  O   UNL A   1      36.744  29.345  29.506  1.00  0.00    -0.246 OA
BRANCH  29  31
ATOM     31  C   UNL A   1      38.356  28.618  27.899  1.00  0.00     0.060 A 
ATOM     32  C   UNL A   1      38.697  27.308  28.221  1.00  0.00     0.016 A 
ATOM     33  C   UNL A   1      39.326  29.454  27.357  1.00  0.00     0.016 A 
ATOM     34  C   UNL A   1      40.017  26.925  28.326  1.00  0.00     0.010 A 
ATOM     35  C   UNL A   1      40.634  28.994  27.253  1.00  0.00     0.010 A 
ATOM     36  C   UNL A   1      41.004  27.768  27.832  1.00  0.00    -0.014 A 
BRANCH  36  37
ATOM     37  C   UNL A   1      42.369  27.222  27.765  1.00  0.00     0.031 A 
ATOM     38  C   UNL A   1      43.224  27.448  28.994  1.00  0.00     0.074 A 
ATOM     39  C   UNL A   1      42.724  26.397  26.760  1.00  0.00     0.049 A 
ATOM     40  N   UNL A   1      44.496  27.700  29.089  1.00  0.00    -0.248 NA
ATOM     41  C   UNL A   1      42.525  27.499  30.301  1.00  0.00     0.031 C 
ATOM     42  C   UNL A   1      41.900  25.946  25.633  1.00  0.00     0.029 A 
ATOM     43  N   UNL A   1      43.821  25.602  26.650  1.00  0.00    -0.354 N 
ATOM     44  C   UNL A   1      44.770  27.802  30.457  1.00  0.00     0.074 A 
ATOM     45  C   UNL A   1      43.506  27.827  31.136  1.00  0.00     0.031 C 
ATOM     46  C   UNL A   1      42.361  24.754  25.203  1.00  0.00     0.029 A 
ATOM     47  C   UNL A   1      43.565  24.436  25.947  1.00  0.00     0.049 A 
ATOM     48  H   UNL A   1      44.701  25.831  27.029  1.00  0.00     0.167 HD
ATOM     49  C   UNL A   1      46.015  27.659  30.990  1.00  0.00     0.037 A 
ATOM     50  C   UNL A   1      44.187  23.246  26.132  1.00  0.00     0.037 A 
ATOM     51  C   UNL A   1      47.051  27.938  30.041  1.00  0.00     0.049 A 
ATOM     52  C   UNL A   1      45.465  23.515  26.846  1.00  0.00     0.074 A 
ATOM     53  C   UNL A   1      47.403  29.052  29.303  1.00  0.00     0.029 A 
ATOM     54  N   UNL A   1      47.742  26.894  29.478  1.00  0.00    -0.354 N 
ATOM     55  N   UNL A   1      46.466  24.169  26.320  1.00  0.00    -0.248 NA
ATOM     56  C   UNL A   1      45.453  23.458  28.303  1.00  0.00     0.031 C 
ATOM     57  C   UNL A   1      47.837  28.536  28.048  1.00  0.00     0.029 A 
ATOM     58  C   UNL A   1      47.759  27.146  28.129  1.00  0.00     0.049 A 
ATOM     59  H   UNL A   1      48.143  26.126  29.944  1.00  0.00     0.167 HD
ATOM     60  C   UNL A   1      46.976  24.935  27.359  1.00  0.00     0.074 A 
ATOM     61  C   UNL A   1      46.362  24.399  28.570  1.00  0.00     0.031 C 
ATOM     62  C   UNL A   1      47.621  26.117  27.132  1.00  0.00     0.037 A 
BRANCH  49  63
ATOM     63  C   UNL A   1      46.271  26.962  32.305  1.00  0.00     0.064 A 
ATOM     64  C   UNL A   1      45.865  25.627  32.490  1.00  0.00     0.173 A 
ATOM     65  C   UNL A   1      46.647  27.651  33.481  1.00  0.00     0.173 A 
ATOM     66  F   UNL A   1      45.453  24.888  31.449  1.00  0.00    -0.203 F 
ATOM     67  C   UNL A   1      45.794  25.047  33.762  1.00  0.00     0.198 A 
ATOM     68  C   UNL A   1      46.631  27.053  34.739  1.00  0.00     0.198 A 
ATOM     69  F   UNL A   1      46.940  28.957  33.477  1.00  0.00    -0.203 F 
ATOM     70  F   UNL A   1      45.294  23.811  33.903  1.00  0.00    -0.200 F 
ATOM     71  C   UNL A   1      46.175  25.760  34.884  1.00  0.00     0.200 A 
ATOM     72  F   UNL A   1      46.986  27.770  35.813  1.00  0.00    -0.200 F 
ATOM     73  F   UNL A   1      46.056  25.227  36.106  1.00  0.00    -0.200 F 
ENDBRANCH  49  63
BRANCH  50  74
ATOM     74  C   UNL A   1      43.525  21.917  26.095  1.00  0.00     0.064 A 
ATOM     75  C   UNL A   1      44.007  20.886  25.276  1.00  0.00     0.173 A 
ATOM     76  C   UNL A   1      42.511  21.558  27.012  1.00  0.00     0.173 A 
ATOM     77  F   UNL A   1      45.020  21.118  24.430  1.00  0.00    -0.203 F 
ATOM     78  C   UNL A   1      43.489  19.587  25.352  1.00  0.00     0.198 A 
ATOM     79  C   UNL A   1      41.978  20.271  27.070  1.00  0.00     0.198 A 
ATOM     80  F   UNL A   1      42.067  22.426  27.932  1.00  0.00    -0.203 F 
ATOM     81  F   UNL A   1      44.003  18.617  24.584  1.00  0.00    -0.200 F 
ATOM     82  C   UNL A   1      42.471  19.282  26.244  1.00  0.00     0.200 A 
ATOM     83  F   UNL A   1      41.021  19.987  27.964  1.00  0.00    -0.200 F 
ATOM     84  F   UNL A   1      41.995  18.033  26.333  1.00  0.00    -0.200 F 
ENDBRANCH  50  74
BRANCH  62  85
ATOM     85  C   UNL A   1      47.937  26.508  25.717  1.00  0.00     0.064 A 
ATOM     86  C   UNL A   1      47.061  27.257  24.913  1.00  0.00     0.173 A 
ATOM     87  C   UNL A   1      49.232  26.297  25.229  1.00  0.00     0.173 A 
ATOM     88  F   UNL A   1      45.850  27.609  25.358  1.00  0.00    -0.203 F 
ATOM     89  C   UNL A   1      47.446  27.729  23.661  1.00  0.00     0.198 A 
ATOM     90  C   UNL A   1      49.629  26.803  23.994  1.00  0.00     0.198 A 
ATOM     91  F   UNL A   1      50.137  25.650  25.980  1.00  0.00    -0.203 F 
ATOM     92  F   UNL A   1      46.583  28.434  22.914  1.00  0.00    -0.200 F 
ATOM     93  C   UNL A   1      48.733  27.509  23.205  1.00  0.00     0.200 A 
ATOM     94  F   UNL A   1      50.893  26.637  23.581  1.00  0.00    -0.200 F 
ATOM     95  F   UNL A   1      49.122  28.004  22.022  1.00  0.00    -0.200 F 
ENDBRANCH  62  85
ENDBRANCH  36  37
ENDBRANCH  29  31
ENDBRANCH  28  29
ENDBRANCH  27  28
ENDBRANCH   1  27
TORSDOF 15
ENDMDL
MODEL 2
REMARK VINA RESULT:     -13.0      1.198      1.576
REMARK SMILES Cc1nccn1CCC[NH+]1CCC2(CC1)[C@@H](C(=O)OCCOC(=O)c1ccc(-c3c4nc(c(-c5c(F)c(F)c(F)c(F)c5F)c5ccc([nH]5)c(-c5c(F)c(F)c(F)c(F)c5F)c5nc(c(-c6c(F)c(F)c(F)c(F)c6F)c6ccc3[nH]6)C=C5)C=C4)cc1)CC(=O)N2C
REMARK SMILES IDX 20 1 19 2 17 3 18 4 16 5 10 6 11 7 15 8 12 10 14 11 13 12
REMARK SMILES IDX 91 13 88 14 89 15 92 16 90 17 9 18 8 19 7 20 6 21 1 22 2 23
REMARK SMILES IDX 3 24 4 25 5 26 21 27 22 28 23 29 24 30 25 31 26 32 87 33
REMARK SMILES IDX 27 34 86 35 28 36 29 37 30 38 80 39 31 40 85 41 79 42 81 43
REMARK SMILES IDX 32 44 84 45 78 46 77 47 33 49 65 50 45 51 64 52 46 53 49 54
REMARK SMILES IDX 63 55 82 56 47 57 48 58 62 60 83 61 50 62 34 63 35 64 43 65
REMARK SMILES IDX 36 66 37 67 41 68 44 69 38 70 39 71 42 72 40 73 66 74 67 75
REMARK SMILES IDX 75 76 68 77 69 78 73 79 76 80 70 81 71 82 74 83 72 84 51 85
REMARK SMILES IDX 52 86 60 87 53 88 54 89 58 90 61 91 55 92 56 93 59 94 57 95
REMARK H PARENT 10 9 81 48 49 59
REMARK Flexibility Score: inf
ROOT
ATOM      1  C   UNL A   1      33.873  29.998  27.321  1.00  0.00     0.274 C 
ENDROOT
BRANCH   1   2
ATOM      2  O   UNL A   1      33.709  28.767  26.578  1.00  0.00    -0.462 OA
BRANCH   2   3
ATOM      3  C   UNL A   1      33.195  28.919  25.316  1.00  0.00     0.311 C 
ATOM      4  O   UNL A   1      33.722  29.581  24.434  1.00  0.00    -0.252 OA
BRANCH   3   5
ATOM      5  C   UNL A   1      31.857  28.186  25.190  1.00  0.00     0.134 C 
ATOM      6  N   UNL A   1      32.285  23.989  25.474  1.00  0.00    -0.335 N 
ATOM      7  C   UNL A   1      30.943  24.386  25.107  1.00  0.00     0.264 C 
ATOM      8  C   UNL A   1      33.325  24.587  24.669  1.00  0.00     0.264 C 
ATOM      9  H   UNL A   1      32.314  23.016  25.169  1.00  0.00     0.348 HD
ATOM     10  C   UNL A   1      30.692  25.895  25.093  1.00  0.00     0.091 C 
ATOM     11  C   UNL A   1      33.267  26.109  24.638  1.00  0.00     0.091 C 
ATOM     12  C   UNL A   1      31.861  26.769  24.514  1.00  0.00     0.067 C 
ATOM     13  N   UNL A   1      31.497  27.113  23.135  1.00  0.00    -0.339 N 
ATOM     14  C   UNL A   1      30.892  29.031  24.376  1.00  0.00     0.118 C 
ATOM     15  C   UNL A   1      30.819  28.325  23.050  1.00  0.00     0.223 C 
ATOM     16  C   UNL A   1      31.337  26.130  22.084  1.00  0.00     0.147 C 
ATOM     17  O   UNL A   1      30.180  28.731  22.092  1.00  0.00    -0.275 OA
BRANCH   6  18
ATOM     18  C   UNL A   1      32.569  23.584  26.842  1.00  0.00     0.264 C 
BRANCH  18  19
ATOM     19  C   UNL A   1      33.135  22.185  27.131  1.00  0.00     0.083 C 
BRANCH  19  20
ATOM     20  C   UNL A   1      34.647  22.077  27.297  1.00  0.00     0.129 C 
BRANCH  20  21
ATOM     21  N   UNL A   1      35.540  22.233  26.174  1.00  0.00    -0.335 N 
ATOM     22  C   UNL A   1      34.757  20.214  24.793  1.00  0.00     0.087 C 
ATOM     23  C   UNL A   1      35.555  21.447  25.029  1.00  0.00     0.105 A 
ATOM     24  N   UNL A   1      36.387  21.948  24.139  1.00  0.00    -0.242 NA
ATOM     25  C   UNL A   1      36.930  23.061  24.708  1.00  0.00     0.131 A 
ATOM     26  C   UNL A   1      36.437  23.244  25.976  1.00  0.00     0.107 A 
ENDBRANCH  20  21
ENDBRANCH  19  20
ENDBRANCH  18  19
ENDBRANCH   6  18
ENDBRANCH   3   5
ENDBRANCH   2   3
ENDBRANCH   1   2
BRANCH   1  27
ATOM     27  C   UNL A   1      35.359  30.338  27.479  1.00  0.00     0.275 C 
BRANCH  27  28
ATOM     28  O   UNL A   1      36.329  29.275  27.613  1.00  0.00    -0.458 OA
BRANCH  28  29
ATOM     29  C   UNL A   1      37.168  29.193  28.669  1.00  0.00     0.338 C 
ATOM     30  O   UNL A   1      37.029  29.684  29.764  1.00  0.00    -0.246 OA
BRANCH  29  31
ATOM     31  C   UNL A   1      38.451  28.639  28.153  1.00  0.00     0.060 A 
ATOM     32  C   UNL A   1      38.847  27.391  28.626  1.00  0.00     0.016 A 
ATOM     33  C   UNL A   1      39.345  29.387  27.394  1.00  0.00     0.016 A 
ATOM     34  C   UNL A   1      40.177  27.031  28.646  1.00  0.00     0.010 A 
ATOM     35  C   UNL A   1      40.642  28.919  27.222  1.00  0.00     0.010 A 
ATOM     36  C   UNL A   1      41.091  27.793  27.931  1.00  0.00    -0.014 A 
BRANCH  36  37
ATOM     37  C   UNL A   1      42.452  27.245  27.801  1.00  0.00     0.031 A 
ATOM     38  C   UNL A   1      43.358  27.458  28.995  1.00  0.00     0.074 A 
ATOM     39  C   UNL A   1      42.763  26.430  26.773  1.00  0.00     0.049 A 
ATOM     40  N   UNL A   1      44.633  27.707  29.039  1.00  0.00    -0.248 NA
ATOM     41  C   UNL A   1      42.716  27.496  30.331  1.00  0.00     0.031 C 
ATOM     42  C   UNL A   1      41.890  25.993  25.677  1.00  0.00     0.029 A 
ATOM     43  N   UNL A   1      43.852  25.636  26.609  1.00  0.00    -0.354 N 
ATOM     44  C   UNL A   1      44.966  27.794  30.395  1.00  0.00     0.074 A 
ATOM     45  C   UNL A   1      43.731  27.814  31.127  1.00  0.00     0.031 C 
ATOM     46  C   UNL A   1      42.331  24.805  25.216  1.00  0.00     0.029 A 
ATOM     47  C   UNL A   1      43.564  24.477  25.905  1.00  0.00     0.049 A 
ATOM     48  H   UNL A   1      44.748  25.858  26.952  1.00  0.00     0.167 HD
ATOM     49  C   UNL A   1      46.232  27.642  30.873  1.00  0.00     0.037 A 
ATOM     50  C   UNL A   1      44.191  23.285  26.051  1.00  0.00     0.037 A 
ATOM     51  C   UNL A   1      47.227  27.930  29.884  1.00  0.00     0.049 A 
ATOM     52  C   UNL A   1      45.499  23.544  26.713  1.00  0.00     0.074 A 
ATOM     53  C   UNL A   1      47.550  29.051  29.144  1.00  0.00     0.029 A 
ATOM     54  N   UNL A   1      47.892  26.891  29.281  1.00  0.00    -0.354 N 
ATOM     55  N   UNL A   1      46.478  24.201  26.152  1.00  0.00    -0.248 NA
ATOM     56  C   UNL A   1      45.548  23.472  28.168  1.00  0.00     0.031 C 
ATOM     57  C   UNL A   1      47.929  28.548  27.866  1.00  0.00     0.029 A 
ATOM     58  C   UNL A   1      47.852  27.158  27.936  1.00  0.00     0.049 A 
ATOM     59  H   UNL A   1      48.311  26.117  29.722  1.00  0.00     0.167 HD
ATOM     60  C   UNL A   1      47.033  24.956  27.177  1.00  0.00     0.074 A 
ATOM     61  C   UNL A   1      46.469  24.408  28.407  1.00  0.00     0.031 C 
ATOM     62  C   UNL A   1      47.670  26.139  26.935  1.00  0.00     0.037 A 
BRANCH  49  63
ATOM     63  C   UNL A   1      46.542  26.932  32.169  1.00  0.00     0.064 A 
ATOM     64  C   UNL A   1      46.087  25.616  32.381  1.00  0.00     0.173 A 
ATOM     65  C   UNL A   1      47.028  27.599  33.317  1.00  0.00     0.173 A 
ATOM     66  F   UNL A   1      45.572  24.900  31.371  1.00  0.00    -0.203 F 
ATOM     67  C   UNL A   1      46.073  25.038  33.656  1.00  0.00     0.198 A 
ATOM     68  C   UNL A   1      47.067  27.000  34.573  1.00  0.00     0.198 A 
ATOM     69  F   UNL A   1      47.380  28.891  33.292  1.00  0.00    -0.203 F 
ATOM     70  F   UNL A   1      45.526  23.827  33.831  1.00  0.00    -0.200 F 
ATOM     71  C   UNL A   1      46.561  25.730  34.749  1.00  0.00     0.200 A 
ATOM     72  F   UNL A   1      47.526  27.697  35.621  1.00  0.00    -0.200 F 
ATOM     73  F   UNL A   1      46.500  25.200  35.977  1.00  0.00    -0.200 F 
ENDBRANCH  49  63
BRANCH  50  74
ATOM     74  C   UNL A   1      43.525  21.956  26.028  1.00  0.00     0.064 A 
ATOM     75  C   UNL A   1      44.028  20.903  25.252  1.00  0.00     0.173 A 
ATOM     76  C   UNL A   1      42.482  21.625  26.922  1.00  0.00     0.173 A 
ATOM     77  F   UNL A   1      45.068  21.110  24.432  1.00  0.00    -0.203 F 
ATOM     78  C   UNL A   1      43.503  19.608  25.346  1.00  0.00     0.198 A 
ATOM     79  C   UNL A   1      41.943  20.341  26.997  1.00  0.00     0.198 A 
ATOM     80  F   UNL A   1      42.013  22.518  27.805  1.00  0.00    -0.203 F 
ATOM     81  F   UNL A   1      44.037  18.616  24.619  1.00  0.00    -0.200 F 
ATOM     82  C   UNL A   1      42.457  19.330  26.213  1.00  0.00     0.200 A 
ATOM     83  F   UNL A   1      40.957  20.084  27.868  1.00  0.00    -0.200 F 
ATOM     84  F   UNL A   1      41.973  18.085  26.320  1.00  0.00    -0.200 F 
ENDBRANCH  50  74
BRANCH  62  85
ATOM     85  C   UNL A   1      47.926  26.545  25.512  1.00  0.00     0.064 A 
ATOM     86  C   UNL A   1      47.022  27.310  24.756  1.00  0.00     0.173 A 
ATOM     87  C   UNL A   1      49.197  26.329  24.964  1.00  0.00     0.173 A 
ATOM     88  F   UNL A   1      45.835  27.667  25.258  1.00  0.00    -0.203 F 
ATOM     89  C   UNL A   1      47.356  27.794  23.493  1.00  0.00     0.198 A 
ATOM     90  C   UNL A   1      49.543  26.846  23.719  1.00  0.00     0.198 A 
ATOM     91  F   UNL A   1      50.128  25.665  25.667  1.00  0.00    -0.203 F 
ATOM     92  F   UNL A   1      46.467  28.515  22.794  1.00  0.00    -0.200 F 
ATOM     93  C   UNL A   1      48.620  27.569  22.979  1.00  0.00     0.200 A 
ATOM     94  F   UNL A   1      50.786  26.675  23.248  1.00  0.00    -0.200 F 
ATOM     95  F   UNL A   1      48.960  28.075  21.786  1.00  0.00    -0.200 F 
ENDBRANCH  62  85
ENDBRANCH  36  37
ENDBRANCH  29  31
ENDBRANCH  28  29
ENDBRANCH  27  28
ENDBRANCH   1  27
TORSDOF 15
ENDMDL
MODEL 3
REMARK VINA RESULT:     -12.9      6.834     11.630
REMARK SMILES Cc1nccn1CCC[NH+]1CCC2(CC1)[C@@H](C(=O)OCCOC(=O)c1ccc(-c3c4nc(c(-c5c(F)c(F)c(F)c(F)c5F)c5ccc([nH]5)c(-c5c(F)c(F)c(F)c(F)c5F)c5nc(c(-c6c(F)c(F)c(F)c(F)c6F)c6ccc3[nH]6)C=C5)C=C4)cc1)CC(=O)N2C
REMARK SMILES IDX 20 1 19 2 17 3 18 4 16 5 10 6 11 7 15 8 12 10 14 11 13 12
REMARK SMILES IDX 91 13 88 14 89 15 92 16 90 17 9 18 8 19 7 20 6 21 1 22 2 23
REMARK SMILES IDX 3 24 4 25 5 26 21 27 22 28 23 29 24 30 25 31 26 32 87 33
REMARK SMILES IDX 27 34 86 35 28 36 29 37 30 38 80 39 31 40 85 41 79 42 81 43
REMARK SMILES IDX 32 44 84 45 78 46 77 47 33 49 65 50 45 51 64 52 46 53 49 54
REMARK SMILES IDX 63 55 82 56 47 57 48 58 62 60 83 61 50 62 34 63 35 64 43 65
REMARK SMILES IDX 36 66 37 67 41 68 44 69 38 70 39 71 42 72 40 73 66 74 67 75
REMARK SMILES IDX 75 76 68 77 69 78 73 79 76 80 70 81 71 82 74 83 72 84 51 85
REMARK SMILES IDX 52 86 60 87 53 88 54 89 58 90 61 91 55 92 56 93 59 94 57 95
REMARK H PARENT 10 9 81 48 49 59
REMARK Flexibility Score: inf
ROOT
ATOM      1  C   UNL A   1      37.137  24.009  25.782  1.00  0.00     0.274 C 
ENDROOT
BRANCH   1   2
ATOM      2  O   UNL A   1      36.743  22.805  25.084  1.00  0.00    -0.462 OA
BRANCH   2   3
ATOM      3  C   UNL A   1      35.606  22.206  25.564  1.00  0.00     0.311 C 
ATOM      4  O   UNL A   1      35.521  21.673  26.660  1.00  0.00    -0.252 OA
BRANCH   3   5
ATOM      5  C   UNL A   1      34.488  22.261  24.519  1.00  0.00     0.134 C 
ATOM      6  N   UNL A   1      32.663  26.069  24.311  1.00  0.00    -0.335 N 
ATOM      7  C   UNL A   1      31.975  25.079  23.510  1.00  0.00     0.264 C 
ATOM      8  C   UNL A   1      32.915  25.663  25.674  1.00  0.00     0.264 C 
ATOM      9  H   UNL A   1      31.946  26.785  24.433  1.00  0.00     0.348 HD
ATOM     10  C   UNL A   1      32.647  23.706  23.455  1.00  0.00     0.091 C 
ATOM     11  C   UNL A   1      33.674  24.346  25.783  1.00  0.00     0.091 C 
ATOM     12  C   UNL A   1      33.266  23.202  24.807  1.00  0.00     0.067 C 
ATOM     13  N   UNL A   1      32.310  22.253  25.389  1.00  0.00    -0.339 N 
ATOM     14  C   UNL A   1      33.907  20.871  24.328  1.00  0.00     0.118 C 
ATOM     15  C   UNL A   1      32.570  20.938  25.012  1.00  0.00     0.223 C 
ATOM     16  C   UNL A   1      30.976  22.623  25.814  1.00  0.00     0.147 C 
ATOM     17  O   UNL A   1      31.810  19.990  25.126  1.00  0.00    -0.275 OA
BRANCH   6  18
ATOM     18  C   UNL A   1      33.540  27.035  23.668  1.00  0.00     0.264 C 
BRANCH  18  19
ATOM     19  C   UNL A   1      33.218  28.536  23.736  1.00  0.00     0.083 C 
BRANCH  19  20
ATOM     20  C   UNL A   1      32.541  29.035  25.009  1.00  0.00     0.129 C 
BRANCH  20  21
ATOM     21  N   UNL A   1      33.298  29.657  26.069  1.00  0.00    -0.335 N 
ATOM     22  C   UNL A   1      31.659  31.553  26.633  1.00  0.00     0.087 C 
ATOM     23  C   UNL A   1      32.888  30.738  26.838  1.00  0.00     0.105 A 
ATOM     24  N   UNL A   1      33.745  30.961  27.813  1.00  0.00    -0.242 NA
ATOM     25  C   UNL A   1      34.729  30.028  27.674  1.00  0.00     0.131 A 
ATOM     26  C   UNL A   1      34.485  29.225  26.589  1.00  0.00     0.107 A 
ENDBRANCH  20  21
ENDBRANCH  19  20
ENDBRANCH  18  19
ENDBRANCH   6  18
ENDBRANCH   3   5
ENDBRANCH   2   3
ENDBRANCH   1   2
BRANCH   1  27
ATOM     27  C   UNL A   1      38.471  23.801  26.505  1.00  0.00     0.275 C 
BRANCH  27  28
ATOM     28  O   UNL A   1      38.879  24.724  27.541  1.00  0.00    -0.458 OA
BRANCH  28  29
ATOM     29  C   UNL A   1      39.585  25.844  27.271  1.00  0.00     0.338 C 
ATOM     30  O   UNL A   1      40.497  25.974  26.489  1.00  0.00    -0.246 OA
BRANCH  29  31
ATOM     31  C   UNL A   1      39.242  26.831  28.333  1.00  0.00     0.060 A 
ATOM     32  C   UNL A   1      39.066  28.156  27.944  1.00  0.00     0.016 A 
ATOM     33  C   UNL A   1      39.290  26.527  29.689  1.00  0.00     0.016 A 
ATOM     34  C   UNL A   1      39.267  29.188  28.835  1.00  0.00     0.010 A 
ATOM     35  C   UNL A   1      39.271  27.564  30.615  1.00  0.00     0.010 A 
ATOM     36  C   UNL A   1      39.363  28.899  30.189  1.00  0.00    -0.014 A 
BRANCH  36  37
ATOM     37  C   UNL A   1      39.353  30.045  31.114  1.00  0.00     0.031 A 
ATOM     38  C   UNL A   1      40.672  30.773  31.264  1.00  0.00     0.074 A 
ATOM     39  C   UNL A   1      38.188  30.517  31.601  1.00  0.00     0.049 A 
ATOM     40  N   UNL A   1      41.206  31.319  32.317  1.00  0.00    -0.248 NA
ATOM     41  C   UNL A   1      41.565  30.802  30.082  1.00  0.00     0.031 C 
ATOM     42  C   UNL A   1      36.835  30.010  31.344  1.00  0.00     0.029 A 
ATOM     43  N   UNL A   1      37.940  31.687  32.245  1.00  0.00    -0.354 N 
ATOM     44  C   UNL A   1      42.421  31.869  31.894  1.00  0.00     0.074 A 
ATOM     45  C   UNL A   1      42.657  31.387  30.564  1.00  0.00     0.031 C 
ATOM     46  C   UNL A   1      35.954  31.018  31.501  1.00  0.00     0.029 A 
ATOM     47  C   UNL A   1      36.674  32.183  31.977  1.00  0.00     0.049 A 
ATOM     48  H   UNL A   1      38.588  32.133  32.837  1.00  0.00     0.167 HD
ATOM     49  C   UNL A   1      43.079  32.852  32.569  1.00  0.00     0.037 A 
ATOM     50  C   UNL A   1      36.324  33.492  31.959  1.00  0.00     0.037 A 
ATOM     51  C   UNL A   1      42.737  32.884  33.959  1.00  0.00     0.049 A 
ATOM     52  C   UNL A   1      37.362  34.244  32.716  1.00  0.00     0.074 A 
ATOM     53  C   UNL A   1      42.850  31.980  34.997  1.00  0.00     0.029 A 
ATOM     54  N   UNL A   1      41.888  33.861  34.418  1.00  0.00    -0.354 N 
ATOM     55  N   UNL A   1      37.554  34.121  34.002  1.00  0.00    -0.248 NA
ATOM     56  C   UNL A   1      38.488  34.787  31.966  1.00  0.00     0.031 C 
ATOM     57  C   UNL A   1      41.675  32.174  35.780  1.00  0.00     0.029 A 
ATOM     58  C   UNL A   1      40.956  33.211  35.187  1.00  0.00     0.049 A 
ATOM     59  H   UNL A   1      41.938  34.827  34.234  1.00  0.00     0.167 HD
ATOM     60  C   UNL A   1      38.931  34.184  34.164  1.00  0.00     0.074 A 
ATOM     61  C   UNL A   1      39.447  34.671  32.888  1.00  0.00     0.031 C 
ATOM     62  C   UNL A   1      39.562  33.567  35.207  1.00  0.00     0.037 A 
BRANCH  49  63
ATOM     63  C   UNL A   1      43.808  33.978  31.876  1.00  0.00     0.064 A 
ATOM     64  C   UNL A   1      45.117  34.321  32.267  1.00  0.00     0.173 A 
ATOM     65  C   UNL A   1      43.162  34.912  31.033  1.00  0.00     0.173 A 
ATOM     66  F   UNL A   1      45.812  33.527  33.094  1.00  0.00    -0.203 F 
ATOM     67  C   UNL A   1      45.707  35.531  31.885  1.00  0.00     0.198 A 
ATOM     68  C   UNL A   1      43.775  36.088  30.608  1.00  0.00     0.198 A 
ATOM     69  F   UNL A   1      41.878  34.780  30.679  1.00  0.00    -0.203 F 
ATOM     70  F   UNL A   1      46.909  35.868  32.374  1.00  0.00    -0.200 F 
ATOM     71  C   UNL A   1      45.036  36.413  31.058  1.00  0.00     0.200 A 
ATOM     72  F   UNL A   1      43.097  36.936  29.822  1.00  0.00    -0.200 F 
ATOM     73  F   UNL A   1      45.577  37.594  30.735  1.00  0.00    -0.200 F 
ENDBRANCH  49  63
BRANCH  50  74
ATOM     74  C   UNL A   1      35.397  34.120  30.981  1.00  0.00     0.064 A 
ATOM     75  C   UNL A   1      35.546  33.915  29.603  1.00  0.00     0.173 A 
ATOM     76  C   UNL A   1      34.218  34.784  31.386  1.00  0.00     0.173 A 
ATOM     77  F   UNL A   1      36.597  33.228  29.135  1.00  0.00    -0.203 F 
ATOM     78  C   UNL A   1      34.589  34.371  28.687  1.00  0.00     0.198 A 
ATOM     79  C   UNL A   1      33.277  35.259  30.473  1.00  0.00     0.198 A 
ATOM     80  F   UNL A   1      33.905  34.918  32.683  1.00  0.00    -0.203 F 
ATOM     81  F   UNL A   1      34.743  34.120  27.379  1.00  0.00    -0.200 F 
ATOM     82  C   UNL A   1      33.459  35.047  29.122  1.00  0.00     0.200 A 
ATOM     83  F   UNL A   1      32.174  35.878  30.916  1.00  0.00    -0.200 F 
ATOM     84  F   UNL A   1      32.532  35.459  28.247  1.00  0.00    -0.200 F 
ENDBRANCH  50  74
BRANCH  62  85
ATOM     85  C   UNL A   1      38.729  32.954  36.295  1.00  0.00     0.064 A 
ATOM     86  C   UNL A   1      38.339  31.604  36.297  1.00  0.00     0.173 A 
ATOM     87  C   UNL A   1      38.487  33.692  37.460  1.00  0.00     0.173 A 
ATOM     88  F   UNL A   1      38.644  30.798  35.273  1.00  0.00    -0.203 F 
ATOM     89  C   UNL A   1      37.696  31.033  37.392  1.00  0.00     0.198 A 
ATOM     90  C   UNL A   1      37.879  33.110  38.570  1.00  0.00     0.198 A 
ATOM     91  F   UNL A   1      38.899  34.967  37.547  1.00  0.00    -0.203 F 
ATOM     92  F   UNL A   1      37.330  29.743  37.359  1.00  0.00    -0.200 F 
ATOM     93  C   UNL A   1      37.474  31.784  38.532  1.00  0.00     0.200 A 
ATOM     94  F   UNL A   1      37.717  33.824  39.692  1.00  0.00    -0.200 F 
ATOM     95  F   UNL A   1      36.899  31.224  39.605  1.00  0.00    -0.200 F 
ENDBRANCH  62  85
ENDBRANCH  36  37
ENDBRANCH  29  31
ENDBRANCH  28  29
ENDBRANCH  27  28
ENDBRANCH   1  27
TORSDOF 15
ENDMDL
