MODEL 1
REMARK VINA RESULT:     -13.8      0.000      0.000
REMARK SMILES O=C(CN1C(=O)/C(=C2\SC(N3CCN(c4ccccc4F)CC3)=[NH+]C2=O)c2ccccc21)OCCOC(=O)c1ccc(-c2c3nc(c(-c4c(F)c(F)c(F)c(F)c4F)c4ccc([nH]4)c(-c4c(F)c(F)c(F)c(F)c4F)c4nc(c(-c5c(F)c(F)c(F)c(F)c5F)c5ccc2[nH]5)C=C4)C=C3)cc1
REMARK SMILES IDX 34 1 33 2 2 3 1 4 3 5 4 6 5 7 32 8 6 9 7 10 27 11 31 12 8 13
REMARK SMILES IDX 28 14 30 15 9 16 25 17 29 18 10 19 24 20 26 21 11 22 12 24
REMARK SMILES IDX 23 25 13 26 22 27 14 28 15 29 16 30 20 31 17 32 19 33 21 34
REMARK SMILES IDX 18 35 35 36 36 37 37 38 38 39 39 40 40 41 101 42 41 43
REMARK SMILES IDX 100 44 42 45 43 46 44 47 94 48 45 49 99 50 93 51 95 52 46 53
REMARK SMILES IDX 98 54 92 55 91 56 47 58 79 59 59 60 78 61 60 62 63 63 77 64
REMARK SMILES IDX 96 65 61 66 62 67 76 69 97 70 64 71 48 72 49 73 57 74 50 75
REMARK SMILES IDX 51 76 55 77 58 78 52 79 53 80 56 81 54 82 80 83 81 84 89 85
REMARK SMILES IDX 82 86 83 87 87 88 90 89 84 90 85 91 88 92 86 93 65 94 66 95
REMARK SMILES IDX 74 96 67 97 68 98 72 99 75 100 69 101 70 102 73 103 71 104
REMARK H PARENT 24 23 95 57 63 68
REMARK Flexibility Score: inf
ROOT
ATOM      1  C   UNL A   1      34.406  33.684  30.274  1.00  0.00     0.274 C 
ENDROOT
BRANCH   1   2
ATOM      2  O   UNL A   1      34.089  32.532  29.469  1.00  0.00    -0.461 OA
BRANCH   2   3
ATOM      3  C   UNL A   1      34.787  32.153  28.376  1.00  0.00     0.326 C 
ATOM      4  O   UNL A   1      35.233  33.009  27.610  1.00  0.00    -0.250 OA
BRANCH   3   5
ATOM      5  C   UNL A   1      34.907  30.675  28.012  1.00  0.00     0.248 C 
BRANCH   5   6
ATOM      6  N   UNL A   1      33.895  30.050  27.208  1.00  0.00    -0.296 N 
ATOM      7  C   UNL A   1      34.233  28.959  26.433  1.00  0.00     0.260 C 
ATOM      8  C   UNL A   1      32.735  30.673  26.721  1.00  0.00     0.053 A 
ATOM      9  O   UNL A   1      35.280  28.346  26.516  1.00  0.00    -0.269 OA
ATOM     10  C   UNL A   1      33.107  28.797  25.441  1.00  0.00     0.071 C 
ATOM     11  C   UNL A   1      32.226  29.966  25.618  1.00  0.00     0.012 A 
ATOM     12  C   UNL A   1      32.143  31.837  27.190  1.00  0.00     0.027 A 
ATOM     13  C   UNL A   1      33.050  27.704  24.665  1.00  0.00     0.122 C 
ATOM     14  C   UNL A   1      31.105  30.455  24.965  1.00  0.00     0.011 A 
ATOM     15  C   UNL A   1      31.021  32.324  26.525  1.00  0.00     0.002 A 
ATOM     16  S   UNL A   1      34.068  26.323  24.875  1.00  0.00     0.007 SA
ATOM     17  C   UNL A   1      32.080  27.368  23.577  1.00  0.00     0.347 C 
ATOM     18  C   UNL A   1      30.510  31.641  25.418  1.00  0.00     0.001 A 
ATOM     19  C   UNL A   1      32.999  25.372  23.900  1.00  0.00     0.319 C 
ATOM     20  N   UNL A   1      32.088  26.025  23.265  1.00  0.00    -0.200 N 
ATOM     21  O   UNL A   1      31.381  28.190  23.005  1.00  0.00    -0.240 OA
ATOM     22  N   UNL A   1      33.203  24.032  23.879  1.00  0.00    -0.252 N 
ATOM     23  H   UNL A   1      31.465  25.610  22.627  1.00  0.00     0.316 HD
ATOM     24  C   UNL A   1      33.423  23.245  25.106  1.00  0.00     0.258 C 
ATOM     25  C   UNL A   1      33.414  23.317  22.617  1.00  0.00     0.258 C 
ATOM     26  C   UNL A   1      32.585  21.950  25.072  1.00  0.00     0.162 C 
ATOM     27  C   UNL A   1      32.629  21.997  22.588  1.00  0.00     0.162 C 
ATOM     28  N   UNL A   1      32.878  21.243  23.823  1.00  0.00    -0.361 N 
BRANCH  28  29
ATOM     29  C   UNL A   1      33.028  19.875  23.794  1.00  0.00     0.073 A 
ATOM     30  C   UNL A   1      32.207  19.117  22.947  1.00  0.00     0.029 A 
ATOM     31  C   UNL A   1      33.997  19.186  24.538  1.00  0.00     0.146 A 
ATOM     32  C   UNL A   1      32.349  17.732  22.843  1.00  0.00     0.002 A 
ATOM     33  C   UNL A   1      34.134  17.801  24.460  1.00  0.00     0.041 A 
ATOM     34  F   UNL A   1      34.811  19.858  25.370  1.00  0.00    -0.205 F 
ATOM     35  C   UNL A   1      33.309  17.073  23.606  1.00  0.00     0.003 A 
ENDBRANCH  28  29
ENDBRANCH   5   6
ENDBRANCH   3   5
ENDBRANCH   2   3
ENDBRANCH   1   2
BRANCH   1  36
ATOM     36  C   UNL A   1      34.524  33.335  31.761  1.00  0.00     0.275 C 
BRANCH  36  37
ATOM     37  O   UNL A   1      35.322  32.146  31.920  1.00  0.00    -0.458 OA
BRANCH  37  38
ATOM     38  C   UNL A   1      36.324  32.176  32.838  1.00  0.00     0.338 C 
ATOM     39  O   UNL A   1      36.225  32.312  34.040  1.00  0.00    -0.246 OA
BRANCH  38  40
ATOM     40  C   UNL A   1      37.557  31.771  32.122  1.00  0.00     0.060 A 
ATOM     41  C   UNL A   1      37.657  31.948  30.739  1.00  0.00     0.016 A 
ATOM     42  C   UNL A   1      38.531  31.039  32.815  1.00  0.00     0.016 A 
ATOM     43  C   UNL A   1      38.708  31.349  30.042  1.00  0.00     0.010 A 
ATOM     44  C   UNL A   1      39.577  30.434  32.112  1.00  0.00     0.010 A 
ATOM     45  C   UNL A   1      39.668  30.576  30.720  1.00  0.00    -0.014 A 
BRANCH  45  46
ATOM     46  C   UNL A   1      40.845  30.065  29.976  1.00  0.00     0.031 A 
ATOM     47  C   UNL A   1      40.916  28.672  29.426  1.00  0.00     0.074 A 
ATOM     48  C   UNL A   1      41.863  30.918  29.769  1.00  0.00     0.049 A 
ATOM     49  N   UNL A   1      41.842  28.135  28.670  1.00  0.00    -0.248 NA
ATOM     50  C   UNL A   1      39.810  27.767  29.759  1.00  0.00     0.031 C 
ATOM     51  C   UNL A   1      41.901  32.299  30.251  1.00  0.00     0.029 A 
ATOM     52  N   UNL A   1      43.043  30.762  29.090  1.00  0.00    -0.354 N 
ATOM     53  C   UNL A   1      41.422  26.837  28.412  1.00  0.00     0.074 A 
ATOM     54  C   UNL A   1      40.175  26.655  29.131  1.00  0.00     0.031 C 
ATOM     55  C   UNL A   1      43.031  32.876  29.823  1.00  0.00     0.029 A 
ATOM     56  C   UNL A   1      43.809  31.899  29.066  1.00  0.00     0.049 A 
ATOM     57  H   UNL A   1      43.313  29.918  28.661  1.00  0.00     0.167 HD
ATOM     58  C   UNL A   1      42.017  25.897  27.635  1.00  0.00     0.037 A 
ATOM     59  C   UNL A   1      45.004  32.135  28.496  1.00  0.00     0.037 A 
ATOM     60  C   UNL A   1      43.280  26.070  26.955  1.00  0.00     0.049 A 
ATOM     61  C   UNL A   1      45.682  31.048  27.718  1.00  0.00     0.074 A 
ATOM     62  C   UNL A   1      43.952  25.174  26.139  1.00  0.00     0.029 A 
ATOM     63  N   UNL A   1      44.074  27.206  27.026  1.00  0.00    -0.354 N 
ATOM     64  N   UNL A   1      45.256  29.840  27.441  1.00  0.00    -0.248 NA
ATOM     65  C   UNL A   1      47.008  31.361  27.169  1.00  0.00     0.031 C 
ATOM     66  C   UNL A   1      45.173  25.745  25.763  1.00  0.00     0.029 A 
ATOM     67  C   UNL A   1      45.240  27.022  26.294  1.00  0.00     0.049 A 
ATOM     68  H   UNL A   1      43.844  28.024  27.522  1.00  0.00     0.167 HD
ATOM     69  C   UNL A   1      46.250  29.253  26.672  1.00  0.00     0.074 A 
ATOM     70  C   UNL A   1      47.293  30.246  26.511  1.00  0.00     0.031 C 
ATOM     71  C   UNL A   1      46.290  28.002  26.150  1.00  0.00     0.037 A 
BRANCH  58  72
ATOM     72  C   UNL A   1      41.307  24.582  27.469  1.00  0.00     0.064 A 
ATOM     73  C   UNL A   1      40.158  24.470  26.671  1.00  0.00     0.173 A 
ATOM     74  C   UNL A   1      41.814  23.410  28.052  1.00  0.00     0.173 A 
ATOM     75  F   UNL A   1      39.630  25.557  26.090  1.00  0.00    -0.203 F 
ATOM     76  C   UNL A   1      39.533  23.239  26.480  1.00  0.00     0.198 A 
ATOM     77  C   UNL A   1      41.203  22.177  27.837  1.00  0.00     0.198 A 
ATOM     78  F   UNL A   1      42.918  23.456  28.813  1.00  0.00    -0.203 F 
ATOM     79  F   UNL A   1      38.420  23.164  25.738  1.00  0.00    -0.200 F 
ATOM     80  C   UNL A   1      40.059  22.093  27.056  1.00  0.00     0.200 A 
ATOM     81  F   UNL A   1      41.725  21.068  28.379  1.00  0.00    -0.200 F 
ATOM     82  F   UNL A   1      39.467  20.908  26.860  1.00  0.00    -0.200 F 
ENDBRANCH  58  72
BRANCH  59  83
ATOM     83  C   UNL A   1      45.595  33.490  28.610  1.00  0.00     0.064 A 
ATOM     84  C   UNL A   1      46.512  33.782  29.626  1.00  0.00     0.173 A 
ATOM     85  C   UNL A   1      45.314  34.490  27.667  1.00  0.00     0.173 A 
ATOM     86  F   UNL A   1      46.798  32.858  30.555  1.00  0.00    -0.203 F 
ATOM     87  C   UNL A   1      47.132  35.025  29.695  1.00  0.00     0.198 A 
ATOM     88  C   UNL A   1      45.953  35.724  27.722  1.00  0.00     0.198 A 
ATOM     89  F   UNL A   1      44.448  34.249  26.671  1.00  0.00    -0.203 F 
ATOM     90  F   UNL A   1      47.996  35.287  30.684  1.00  0.00    -0.200 F 
ATOM     91  C   UNL A   1      46.862  35.991  28.735  1.00  0.00     0.200 A 
ATOM     92  F   UNL A   1      45.706  36.647  26.783  1.00  0.00    -0.200 F 
ATOM     93  F   UNL A   1      47.479  37.180  28.787  1.00  0.00    -0.200 F 
ENDBRANCH  59  83
BRANCH  71  94
ATOM     94  C   UNL A   1      47.503  27.632  25.344  1.00  0.00     0.064 A 
ATOM     95  C   UNL A   1      48.668  27.140  25.954  1.00  0.00     0.173 A 
ATOM     96  C   UNL A   1      47.498  27.749  23.945  1.00  0.00     0.173 A 
ATOM     97  F   UNL A   1      48.735  27.026  27.289  1.00  0.00    -0.203 F 
ATOM     98  C   UNL A   1      49.788  26.804  25.196  1.00  0.00     0.198 A 
ATOM     99  C   UNL A   1      48.608  27.383  23.188  1.00  0.00     0.198 A 
ATOM    100  F   UNL A   1      46.410  28.211  23.310  1.00  0.00    -0.203 F 
ATOM    101  F   UNL A   1      50.906  26.385  25.805  1.00  0.00    -0.200 F 
ATOM    102  C   UNL A   1      49.754  26.918  23.814  1.00  0.00     0.200 A 
ATOM    103  F   UNL A   1      48.569  27.483  21.852  1.00  0.00    -0.200 F 
ATOM    104  F   UNL A   1      50.831  26.591  23.087  1.00  0.00    -0.200 F 
ENDBRANCH  71  94
ENDBRANCH  45  46
ENDBRANCH  38  40
ENDBRANCH  37  38
ENDBRANCH  36  37
ENDBRANCH   1  36
TORSDOF 13
ENDMDL
MODEL 2
REMARK VINA RESULT:     -13.3      0.514      7.032
REMARK SMILES O=C(CN1C(=O)/C(=C2\SC(N3CCN(c4ccccc4F)CC3)=[NH+]C2=O)c2ccccc21)OCCOC(=O)c1ccc(-c2c3nc(c(-c4c(F)c(F)c(F)c(F)c4F)c4ccc([nH]4)c(-c4c(F)c(F)c(F)c(F)c4F)c4nc(c(-c5c(F)c(F)c(F)c(F)c5F)c5ccc2[nH]5)C=C4)C=C3)cc1
REMARK SMILES IDX 34 1 33 2 2 3 1 4 3 5 4 6 5 7 32 8 6 9 7 10 27 11 31 12 8 13
REMARK SMILES IDX 28 14 30 15 9 16 25 17 29 18 10 19 24 20 26 21 11 22 12 24
REMARK SMILES IDX 23 25 13 26 22 27 14 28 15 29 16 30 20 31 17 32 19 33 21 34
REMARK SMILES IDX 18 35 35 36 36 37 37 38 38 39 39 40 40 41 101 42 41 43
REMARK SMILES IDX 100 44 42 45 43 46 44 47 94 48 45 49 99 50 93 51 95 52 46 53
REMARK SMILES IDX 98 54 92 55 91 56 47 58 79 59 59 60 78 61 60 62 63 63 77 64
REMARK SMILES IDX 96 65 61 66 62 67 76 69 97 70 64 71 48 72 49 73 57 74 50 75
REMARK SMILES IDX 51 76 55 77 58 78 52 79 53 80 56 81 54 82 80 83 81 84 89 85
REMARK SMILES IDX 82 86 83 87 87 88 90 89 84 90 85 91 88 92 86 93 65 94 66 95
REMARK SMILES IDX 74 96 67 97 68 98 72 99 75 100 69 101 70 102 73 103 71 104
REMARK H PARENT 24 23 95 57 63 68
REMARK Flexibility Score: inf
ROOT
ATOM      1  C   UNL A   1      34.402  33.712  30.338  1.00  0.00     0.274 C 
ENDROOT
BRANCH   1   2
ATOM      2  O   UNL A   1      34.071  32.539  29.568  1.00  0.00    -0.461 OA
BRANCH   2   3
ATOM      3  C   UNL A   1      34.696  32.178  28.427  1.00  0.00     0.326 C 
ATOM      4  O   UNL A   1      35.058  33.044  27.628  1.00  0.00    -0.250 OA
BRANCH   3   5
ATOM      5  C   UNL A   1      34.834  30.703  28.056  1.00  0.00     0.248 C 
BRANCH   5   6
ATOM      6  N   UNL A   1      33.839  30.075  27.234  1.00  0.00    -0.296 N 
ATOM      7  C   UNL A   1      34.195  28.984  26.466  1.00  0.00     0.260 C 
ATOM      8  C   UNL A   1      32.686  30.694  26.724  1.00  0.00     0.053 A 
ATOM      9  O   UNL A   1      35.242  28.373  26.570  1.00  0.00    -0.269 OA
ATOM     10  C   UNL A   1      33.089  28.817  25.453  1.00  0.00     0.071 C 
ATOM     11  C   UNL A   1      32.201  29.984  25.613  1.00  0.00     0.012 A 
ATOM     12  C   UNL A   1      32.083  31.856  27.181  1.00  0.00     0.027 A 
ATOM     13  C   UNL A   1      33.050  27.724  24.677  1.00  0.00     0.122 C 
ATOM     14  C   UNL A   1      31.091  30.469  24.938  1.00  0.00     0.011 A 
ATOM     15  C   UNL A   1      30.972  32.340  26.494  1.00  0.00     0.002 A 
ATOM     16  S   UNL A   1      34.068  26.346  24.908  1.00  0.00     0.007 SA
ATOM     17  C   UNL A   1      32.102  27.384  23.571  1.00  0.00     0.347 C 
ATOM     18  C   UNL A   1      30.484  31.654  25.378  1.00  0.00     0.001 A 
ATOM     19  C   UNL A   1      33.020  25.391  23.914  1.00  0.00     0.319 C 
ATOM     20  N   UNL A   1      32.119  26.041  23.261  1.00  0.00    -0.200 N 
ATOM     21  O   UNL A   1      31.411  28.204  22.985  1.00  0.00    -0.240 OA
ATOM     22  N   UNL A   1      33.228  24.051  23.898  1.00  0.00    -0.252 N 
ATOM     23  H   UNL A   1      31.510  25.624  22.611  1.00  0.00     0.316 HD
ATOM     24  C   UNL A   1      33.427  23.266  25.129  1.00  0.00     0.258 C 
ATOM     25  C   UNL A   1      33.465  23.336  22.640  1.00  0.00     0.258 C 
ATOM     26  C   UNL A   1      32.594  21.968  25.081  1.00  0.00     0.162 C 
ATOM     27  C   UNL A   1      32.685  22.013  22.598  1.00  0.00     0.162 C 
ATOM     28  N   UNL A   1      32.913  21.261  23.838  1.00  0.00    -0.361 N 
BRANCH  28  29
ATOM     29  C   UNL A   1      33.067  19.894  23.812  1.00  0.00     0.073 A 
ATOM     30  C   UNL A   1      32.216  19.127  23.004  1.00  0.00     0.029 A 
ATOM     31  C   UNL A   1      34.068  19.215  24.523  1.00  0.00     0.146 A 
ATOM     32  C   UNL A   1      32.360  17.741  22.905  1.00  0.00     0.002 A 
ATOM     33  C   UNL A   1      34.208  17.830  24.450  1.00  0.00     0.041 A 
ATOM     34  F   UNL A   1      34.911  19.895  25.318  1.00  0.00    -0.205 F 
ATOM     35  C   UNL A   1      33.353  17.092  23.634  1.00  0.00     0.003 A 
ENDBRANCH  28  29
ENDBRANCH   5   6
ENDBRANCH   3   5
ENDBRANCH   2   3
ENDBRANCH   1   2
BRANCH   1  36
ATOM     36  C   UNL A   1      34.435  33.423  31.842  1.00  0.00     0.275 C 
BRANCH  36  37
ATOM     37  O   UNL A   1      35.075  32.155  32.082  1.00  0.00    -0.458 OA
BRANCH  37  38
ATOM     38  C   UNL A   1      36.157  32.139  32.904  1.00  0.00     0.338 C 
ATOM     39  O   UNL A   1      36.180  32.322  34.104  1.00  0.00    -0.246 OA
BRANCH  38  40
ATOM     40  C   UNL A   1      37.286  31.620  32.096  1.00  0.00     0.060 A 
ATOM     41  C   UNL A   1      38.365  30.988  32.720  1.00  0.00     0.016 A 
ATOM     42  C   UNL A   1      37.344  31.941  30.733  1.00  0.00     0.016 A 
ATOM     43  C   UNL A   1      39.524  30.722  31.989  1.00  0.00     0.010 A 
ATOM     44  C   UNL A   1      38.510  31.680  30.006  1.00  0.00     0.010 A 
ATOM     45  C   UNL A   1      39.612  31.078  30.631  1.00  0.00    -0.014 A 
BRANCH  45  46
ATOM     46  C   UNL A   1      40.800  30.664  29.847  1.00  0.00     0.031 A 
ATOM     47  C   UNL A   1      41.957  31.579  29.580  1.00  0.00     0.074 A 
ATOM     48  C   UNL A   1      40.833  29.397  29.398  1.00  0.00     0.049 A 
ATOM     49  N   UNL A   1      43.099  31.309  28.998  1.00  0.00    -0.248 NA
ATOM     50  C   UNL A   1      41.822  32.971  30.024  1.00  0.00     0.031 C 
ATOM     51  C   UNL A   1      39.769  28.415  29.604  1.00  0.00     0.029 A 
ATOM     52  N   UNL A   1      41.795  28.715  28.701  1.00  0.00    -0.354 N 
ATOM     53  C   UNL A   1      43.834  32.486  29.027  1.00  0.00     0.074 A 
ATOM     54  C   UNL A   1      42.986  33.487  29.648  1.00  0.00     0.031 C 
ATOM     55  C   UNL A   1      40.151  27.245  29.074  1.00  0.00     0.029 A 
ATOM     56  C   UNL A   1      41.468  27.404  28.467  1.00  0.00     0.049 A 
ATOM     57  H   UNL A   1      42.638  29.125  28.397  1.00  0.00     0.167 HD
ATOM     58  C   UNL A   1      45.101  32.702  28.591  1.00  0.00     0.037 A 
ATOM     59  C   UNL A   1      42.153  26.432  27.837  1.00  0.00     0.037 A 
ATOM     60  C   UNL A   1      45.925  31.714  27.936  1.00  0.00     0.049 A 
ATOM     61  C   UNL A   1      43.515  26.724  27.284  1.00  0.00     0.074 A 
ATOM     62  C   UNL A   1      47.224  31.842  27.469  1.00  0.00     0.029 A 
ATOM     63  N   UNL A   1      45.528  30.418  27.634  1.00  0.00    -0.354 N 
ATOM     64  N   UNL A   1      44.219  27.826  27.357  1.00  0.00    -0.248 NA
ATOM     65  C   UNL A   1      44.180  25.630  26.563  1.00  0.00     0.031 C 
ATOM     66  C   UNL A   1      47.590  30.647  26.840  1.00  0.00     0.029 A 
ATOM     67  C   UNL A   1      46.544  29.749  26.963  1.00  0.00     0.049 A 
ATOM     68  H   UNL A   1      44.653  30.029  27.864  1.00  0.00     0.167 HD
ATOM     69  C   UNL A   1      45.415  27.558  26.708  1.00  0.00     0.074 A 
ATOM     70  C   UNL A   1      45.348  26.180  26.265  1.00  0.00     0.031 C 
ATOM     71  C   UNL A   1      46.471  28.384  26.502  1.00  0.00     0.037 A 
BRANCH  58  72
ATOM     72  C   UNL A   1      45.687  34.070  28.808  1.00  0.00     0.064 A 
ATOM     73  C   UNL A   1      46.437  34.367  29.956  1.00  0.00     0.173 A 
ATOM     74  C   UNL A   1      45.561  35.072  27.833  1.00  0.00     0.173 A 
ATOM     75  F   UNL A   1      46.590  33.447  30.920  1.00  0.00    -0.203 F 
ATOM     76  C   UNL A   1      47.021  35.621  30.129  1.00  0.00     0.198 A 
ATOM     77  C   UNL A   1      46.169  36.314  27.995  1.00  0.00     0.198 A 
ATOM     78  F   UNL A   1      44.867  34.838  26.708  1.00  0.00    -0.203 F 
ATOM     79  F   UNL A   1      47.707  35.889  31.248  1.00  0.00    -0.200 F 
ATOM     80  C   UNL A   1      46.893  36.591  29.146  1.00  0.00     0.200 A 
ATOM     81  F   UNL A   1      46.060  37.243  27.035  1.00  0.00    -0.200 F 
ATOM     82  F   UNL A   1      47.467  37.790  29.305  1.00  0.00    -0.200 F 
ENDBRANCH  58  72
BRANCH  59  83
ATOM     83  C   UNL A   1      41.557  25.077  27.755  1.00  0.00     0.064 A 
ATOM     84  C   UNL A   1      40.508  24.814  26.865  1.00  0.00     0.173 A 
ATOM     85  C   UNL A   1      42.069  24.008  28.504  1.00  0.00     0.173 A 
ATOM     86  F   UNL A   1      39.981  25.811  26.139  1.00  0.00    -0.203 F 
ATOM     87  C   UNL A   1      39.996  23.529  26.723  1.00  0.00     0.198 A 
ATOM     88  C   UNL A   1      41.573  22.719  28.343  1.00  0.00     0.198 A 
ATOM     89  F   UNL A   1      43.080  24.214  29.362  1.00  0.00    -0.203 F 
ATOM     90  F   UNL A   1      38.984  23.303  25.875  1.00  0.00    -0.200 F 
ATOM     91  C   UNL A   1      40.537  22.480  27.453  1.00  0.00     0.200 A 
ATOM     92  F   UNL A   1      42.111  21.704  29.034  1.00  0.00    -0.200 F 
ATOM     93  F   UNL A   1      40.059  21.237  27.297  1.00  0.00    -0.200 F 
ENDBRANCH  59  83
BRANCH  71  94
ATOM     94  C   UNL A   1      47.652  27.817  25.764  1.00  0.00     0.064 A 
ATOM     95  C   UNL A   1      47.686  27.766  24.362  1.00  0.00     0.173 A 
ATOM     96  C   UNL A   1      48.772  27.341  26.463  1.00  0.00     0.173 A 
ATOM     97  F   UNL A   1      46.635  28.190  23.644  1.00  0.00    -0.203 F 
ATOM     98  C   UNL A   1      48.785  27.235  23.690  1.00  0.00     0.198 A 
ATOM     99  C   UNL A   1      49.882  26.840  25.788  1.00  0.00     0.198 A 
ATOM    100  F   UNL A   1      48.794  27.369  27.804  1.00  0.00    -0.203 F 
ATOM    101  F   UNL A   1      48.774  27.150  22.352  1.00  0.00    -0.200 F 
ATOM    102  C   UNL A   1      49.885  26.780  24.403  1.00  0.00     0.200 A 
ATOM    103  F   UNL A   1      50.948  26.411  26.478  1.00  0.00    -0.200 F 
ATOM    104  F   UNL A   1      50.943  26.274  23.754  1.00  0.00    -0.200 F 
ENDBRANCH  71  94
ENDBRANCH  45  46
ENDBRANCH  38  40
ENDBRANCH  37  38
ENDBRANCH  36  37
ENDBRANCH   1  36
TORSDOF 13
ENDMDL
MODEL 3
REMARK VINA RESULT:     -13.2      3.485      9.721
REMARK SMILES O=C(CN1C(=O)/C(=C2\SC(N3CCN(c4ccccc4F)CC3)=[NH+]C2=O)c2ccccc21)OCCOC(=O)c1ccc(-c2c3nc(c(-c4c(F)c(F)c(F)c(F)c4F)c4ccc([nH]4)c(-c4c(F)c(F)c(F)c(F)c4F)c4nc(c(-c5c(F)c(F)c(F)c(F)c5F)c5ccc2[nH]5)C=C4)C=C3)cc1
REMARK SMILES IDX 34 1 33 2 2 3 1 4 3 5 4 6 5 7 32 8 6 9 7 10 27 11 31 12 8 13
REMARK SMILES IDX 28 14 30 15 9 16 25 17 29 18 10 19 24 20 26 21 11 22 12 24
REMARK SMILES IDX 23 25 13 26 22 27 14 28 15 29 16 30 20 31 17 32 19 33 21 34
REMARK SMILES IDX 18 35 35 36 36 37 37 38 38 39 39 40 40 41 101 42 41 43
REMARK SMILES IDX 100 44 42 45 43 46 44 47 94 48 45 49 99 50 93 51 95 52 46 53
REMARK SMILES IDX 98 54 92 55 91 56 47 58 79 59 59 60 78 61 60 62 63 63 77 64
REMARK SMILES IDX 96 65 61 66 62 67 76 69 97 70 64 71 48 72 49 73 57 74 50 75
REMARK SMILES IDX 51 76 55 77 58 78 52 79 53 80 56 81 54 82 80 83 81 84 89 85
REMARK SMILES IDX 82 86 83 87 87 88 90 89 84 90 85 91 88 92 86 93 65 94 66 95
REMARK SMILES IDX 74 96 67 97 68 98 72 99 75 100 69 101 70 102 73 103 71 104
REMARK H PARENT 24 23 95 57 63 68
REMARK Flexibility Score: inf
ROOT
ATOM      1  C   UNL A   1      39.665  21.069  26.575  1.00  0.00     0.274 C 
ENDROOT
BRANCH   1   2
ATOM      2  O   UNL A   1      39.342  22.191  25.730  1.00  0.00    -0.461 OA
BRANCH   2   3
ATOM      3  C   UNL A   1      38.165  22.853  25.763  1.00  0.00     0.326 C 
ATOM      4  O   UNL A   1      38.109  24.018  25.364  1.00  0.00    -0.250 OA
BRANCH   3   5
ATOM      5  C   UNL A   1      36.941  22.219  26.418  1.00  0.00     0.248 C 
BRANCH   5   6
ATOM      6  N   UNL A   1      35.698  22.154  25.703  1.00  0.00    -0.296 N 
ATOM      7  C   UNL A   1      34.768  23.159  25.884  1.00  0.00     0.260 C 
ATOM      8  C   UNL A   1      35.088  20.984  25.224  1.00  0.00     0.053 A 
ATOM      9  O   UNL A   1      34.984  24.212  26.453  1.00  0.00    -0.269 OA
ATOM     10  C   UNL A   1      33.468  22.615  25.342  1.00  0.00     0.071 C 
ATOM     11  C   UNL A   1      33.715  21.198  25.014  1.00  0.00     0.012 A 
ATOM     12  C   UNL A   1      35.687  19.754  25.000  1.00  0.00     0.027 A 
ATOM     13  C   UNL A   1      32.408  23.426  25.203  1.00  0.00     0.122 C 
ATOM     14  C   UNL A   1      32.928  20.141  24.585  1.00  0.00     0.011 A 
ATOM     15  C   UNL A   1      34.888  18.695  24.575  1.00  0.00     0.002 A 
ATOM     16  S   UNL A   1      32.482  25.143  25.390  1.00  0.00     0.007 SA
ATOM     17  C   UNL A   1      31.018  23.096  24.761  1.00  0.00     0.347 C 
ATOM     18  C   UNL A   1      33.518  18.887  24.375  1.00  0.00     0.001 A 
ATOM     19  C   UNL A   1      30.964  25.308  24.575  1.00  0.00     0.319 C 
ATOM     20  N   UNL A   1      30.313  24.215  24.372  1.00  0.00    -0.200 N 
ATOM     21  O   UNL A   1      30.546  21.969  24.769  1.00  0.00    -0.240 OA
ATOM     22  N   UNL A   1      30.582  26.560  24.220  1.00  0.00    -0.252 N 
ATOM     23  H   UNL A   1      29.410  24.182  23.984  1.00  0.00     0.316 HD
ATOM     24  C   UNL A   1      31.493  27.507  23.552  1.00  0.00     0.258 C 
ATOM     25  C   UNL A   1      29.297  27.113  24.659  1.00  0.00     0.258 C 
ATOM     26  C   UNL A   1      30.777  28.206  22.378  1.00  0.00     0.162 C 
ATOM     27  C   UNL A   1      28.594  27.860  23.515  1.00  0.00     0.162 C 
ATOM     28  N   UNL A   1      29.533  28.795  22.881  1.00  0.00    -0.361 N 
BRANCH  28  29
ATOM     29  C   UNL A   1      29.117  30.042  22.475  1.00  0.00     0.073 A 
ATOM     30  C   UNL A   1      28.503  30.182  21.222  1.00  0.00     0.029 A 
ATOM     31  C   UNL A   1      29.232  31.192  23.269  1.00  0.00     0.146 A 
ATOM     32  C   UNL A   1      28.020  31.416  20.782  1.00  0.00     0.002 A 
ATOM     33  C   UNL A   1      28.773  32.434  22.832  1.00  0.00     0.041 A 
ATOM     34  F   UNL A   1      29.815  31.122  24.477  1.00  0.00    -0.205 F 
ATOM     35  C   UNL A   1      28.162  32.544  21.585  1.00  0.00     0.003 A 
ENDBRANCH  28  29
ENDBRANCH   5   6
ENDBRANCH   3   5
ENDBRANCH   2   3
ENDBRANCH   1   2
BRANCH   1  36
ATOM     36  C   UNL A   1      40.132  19.853  25.768  1.00  0.00     0.275 C 
BRANCH  36  37
ATOM     37  O   UNL A   1      41.285  19.263  26.398  1.00  0.00    -0.458 OA
BRANCH  37  38
ATOM     38  C   UNL A   1      42.484  19.399  25.773  1.00  0.00     0.338 C 
ATOM     39  O   UNL A   1      42.973  18.667  24.938  1.00  0.00    -0.246 OA
BRANCH  38  40
ATOM     40  C   UNL A   1      42.989  20.746  26.130  1.00  0.00     0.060 A 
ATOM     41  C   UNL A   1      43.019  21.155  27.466  1.00  0.00     0.016 A 
ATOM     42  C   UNL A   1      43.251  21.663  25.103  1.00  0.00     0.016 A 
ATOM     43  C   UNL A   1      43.262  22.495  27.772  1.00  0.00     0.010 A 
ATOM     44  C   UNL A   1      43.486  23.007  25.413  1.00  0.00     0.010 A 
ATOM     45  C   UNL A   1      43.483  23.434  26.749  1.00  0.00    -0.014 A 
BRANCH  45  46
ATOM     46  C   UNL A   1      43.870  24.820  27.106  1.00  0.00     0.031 A 
ATOM     47  C   UNL A   1      45.261  25.348  26.922  1.00  0.00     0.074 A 
ATOM     48  C   UNL A   1      42.906  25.628  27.582  1.00  0.00     0.049 A 
ATOM     49  N   UNL A   1      45.705  26.568  27.099  1.00  0.00    -0.248 NA
ATOM     50  C   UNL A   1      46.284  24.392  26.481  1.00  0.00     0.031 C 
ATOM     51  C   UNL A   1      41.516  25.225  27.796  1.00  0.00     0.029 A 
ATOM     52  N   UNL A   1      42.939  26.948  27.948  1.00  0.00    -0.354 N 
ATOM     53  C   UNL A   1      47.052  26.539  26.765  1.00  0.00     0.074 A 
ATOM     54  C   UNL A   1      47.362  25.165  26.416  1.00  0.00     0.031 C 
ATOM     55  C   UNL A   1      40.819  26.286  28.224  1.00  0.00     0.029 A 
ATOM     56  C   UNL A   1      41.718  27.430  28.344  1.00  0.00     0.049 A 
ATOM     57  H   UNL A   1      43.757  27.495  27.929  1.00  0.00     0.167 HD
ATOM     58  C   UNL A   1      47.938  27.567  26.737  1.00  0.00     0.037 A 
ATOM     59  C   UNL A   1      41.357  28.659  28.754  1.00  0.00     0.037 A 
ATOM     60  C   UNL A   1      47.634  28.924  27.126  1.00  0.00     0.049 A 
ATOM     61  C   UNL A   1      42.378  29.756  28.801  1.00  0.00     0.074 A 
ATOM     62  C   UNL A   1      48.468  30.032  27.121  1.00  0.00     0.029 A 
ATOM     63  N   UNL A   1      46.408  29.361  27.608  1.00  0.00    -0.354 N 
ATOM     64  N   UNL A   1      43.636  29.730  28.440  1.00  0.00    -0.248 NA
ATOM     65  C   UNL A   1      41.923  31.056  29.310  1.00  0.00     0.031 C 
ATOM     66  C   UNL A   1      47.764  31.120  27.649  1.00  0.00     0.029 A 
ATOM     67  C   UNL A   1      46.471  30.710  27.931  1.00  0.00     0.049 A 
ATOM     68  H   UNL A   1      45.608  28.795  27.706  1.00  0.00     0.167 HD
ATOM     69  C   UNL A   1      44.123  31.009  28.661  1.00  0.00     0.074 A 
ATOM     70  C   UNL A   1      43.015  31.793  29.169  1.00  0.00     0.031 C 
ATOM     71  C   UNL A   1      45.376  31.487  28.458  1.00  0.00     0.037 A 
BRANCH  58  72
ATOM     72  C   UNL A   1      49.335  27.269  26.267  1.00  0.00     0.064 A 
ATOM     73  C   UNL A   1      49.669  27.309  24.905  1.00  0.00     0.173 A 
ATOM     74  C   UNL A   1      50.365  27.010  27.185  1.00  0.00     0.173 A 
ATOM     75  F   UNL A   1      48.724  27.552  23.984  1.00  0.00    -0.203 F 
ATOM     76  C   UNL A   1      50.976  27.082  24.478  1.00  0.00     0.198 A 
ATOM     77  C   UNL A   1      51.676  26.811  26.758  1.00  0.00     0.198 A 
ATOM     78  F   UNL A   1      50.105  26.975  28.501  1.00  0.00    -0.203 F 
ATOM     79  F   UNL A   1      51.263  27.096  23.170  1.00  0.00    -0.200 F 
ATOM     80  C   UNL A   1      51.980  26.841  25.405  1.00  0.00     0.200 A 
ATOM     81  F   UNL A   1      52.647  26.598  27.657  1.00  0.00    -0.200 F 
ATOM     82  F   UNL A   1      53.238  26.637  24.996  1.00  0.00    -0.200 F 
ENDBRANCH  58  72
BRANCH  59  83
ATOM     83  C   UNL A   1      39.936  28.908  29.100  1.00  0.00     0.064 A 
ATOM     84  C   UNL A   1      39.014  29.258  28.106  1.00  0.00     0.173 A 
ATOM     85  C   UNL A   1      39.461  28.728  30.407  1.00  0.00     0.173 A 
ATOM     86  F   UNL A   1      39.430  29.453  26.846  1.00  0.00    -0.203 F 
ATOM     87  C   UNL A   1      37.665  29.415  28.406  1.00  0.00     0.198 A 
ATOM     88  C   UNL A   1      38.108  28.861  30.701  1.00  0.00     0.198 A 
ATOM     89  F   UNL A   1      40.309  28.383  31.388  1.00  0.00    -0.203 F 
ATOM     90  F   UNL A   1      36.803  29.764  27.442  1.00  0.00    -0.200 F 
ATOM     91  C   UNL A   1      37.211  29.205  29.700  1.00  0.00     0.200 A 
ATOM     92  F   UNL A   1      37.669  28.637  31.947  1.00  0.00    -0.200 F 
ATOM     93  F   UNL A   1      35.907  29.332  29.983  1.00  0.00    -0.200 F 
ENDBRANCH  59  83
BRANCH  71  94
ATOM     94  C   UNL A   1      45.620  32.934  28.782  1.00  0.00     0.064 A 
ATOM     95  C   UNL A   1      46.091  33.335  30.042  1.00  0.00     0.173 A 
ATOM     96  C   UNL A   1      45.404  33.931  27.818  1.00  0.00     0.173 A 
ATOM     97  F   UNL A   1      46.297  32.426  31.007  1.00  0.00    -0.203 F 
ATOM     98  C   UNL A   1      46.311  34.680  30.332  1.00  0.00     0.198 A 
ATOM     99  C   UNL A   1      45.654  35.272  28.101  1.00  0.00     0.198 A 
ATOM    100  F   UNL A   1      44.957  33.604  26.596  1.00  0.00    -0.203 F 
ATOM    101  F   UNL A   1      46.712  35.044  31.558  1.00  0.00    -0.200 F 
ATOM    102  C   UNL A   1      46.099  35.646  29.359  1.00  0.00     0.200 A 
ATOM    103  F   UNL A   1      45.460  36.203  27.155  1.00  0.00    -0.200 F 
ATOM    104  F   UNL A   1      46.315  36.939  29.638  1.00  0.00    -0.200 F 
ENDBRANCH  71  94
ENDBRANCH  45  46
ENDBRANCH  38  40
ENDBRANCH  37  38
ENDBRANCH  36  37
ENDBRANCH   1  36
TORSDOF 13
ENDMDL
