MODEL 1
REMARK VINA RESULT:     -11.9      0.000      0.000
REMARK SMILES Cc1n[nH]c(C(=O)N[C@@H](CC(C)C)C(=O)OCCOC(=O)c2ccc(-c3c4nc(c(-c5c(F)c(F)c(F)c(F)c5F)c5ccc([nH]5)c(-c5c(F)c(F)c(F)c(F)c5F)c5nc(c(-c6c(F)c(F)c(F)c(F)c6F)c6ccc3[nH]6)C=C5)C=C4)cc2)n1
REMARK SMILES IDX 17 1 16 2 14 3 15 4 9 5 8 6 6 7 7 8 5 10 1 11 2 12 3 13
REMARK SMILES IDX 85 14 4 15 10 17 11 18 12 19 13 20 18 21 19 22 20 23 21 24
REMARK SMILES IDX 22 25 23 26 84 27 24 28 83 29 25 30 26 31 27 32 77 33 28 34
REMARK SMILES IDX 82 35 76 36 78 37 29 38 81 39 75 40 74 41 30 43 62 44 42 45
REMARK SMILES IDX 61 46 43 47 46 48 60 49 79 50 44 51 45 52 59 54 80 55 47 56
REMARK SMILES IDX 31 57 32 58 40 59 33 60 34 61 38 62 41 63 35 64 36 65 39 66
REMARK SMILES IDX 37 67 63 68 64 69 72 70 65 71 66 72 70 73 73 74 67 75 68 76
REMARK SMILES IDX 71 77 69 78 48 79 49 80 57 81 50 82 51 83 55 84 58 85 52 86
REMARK SMILES IDX 53 87 56 88 54 89
REMARK H PARENT 8 9 4 16 78 42 46 53
REMARK Flexibility Score: inf
ROOT
ATOM      1  C   UNL A   1      37.611  21.043  24.927  1.00  0.00     0.274 C 
ENDROOT
BRANCH   1   2
ATOM      2  O   UNL A   1      37.022  22.350  24.807  1.00  0.00    -0.461 OA
BRANCH   2   3
ATOM      3  C   UNL A   1      36.212  22.561  23.737  1.00  0.00     0.328 C 
ATOM      4  O   UNL A   1      36.585  22.982  22.648  1.00  0.00    -0.250 OA
BRANCH   3   5
ATOM      5  C   UNL A   1      34.727  22.387  24.086  1.00  0.00     0.192 C 
BRANCH   5   6
ATOM      6  N   UNL A   1      34.373  22.270  25.501  1.00  0.00    -0.336 N 
ATOM      7  C   UNL A   1      33.965  21.214  26.294  1.00  0.00     0.289 C 
ATOM      8  O   UNL A   1      33.886  21.475  27.498  1.00  0.00    -0.266 OA
ATOM      9  H   UNL A   1      34.439  23.121  25.991  1.00  0.00     0.164 HD
BRANCH   7  10
ATOM     10  C   UNL A   1      33.634  19.894  25.772  1.00  0.00     0.214 A 
ATOM     11  C   UNL A   1      33.991  17.208  23.460  1.00  0.00     0.092 C 
ATOM     12  C   UNL A   1      33.637  18.141  24.552  1.00  0.00     0.148 A 
ATOM     13  N   UNL A   1      32.827  17.801  25.558  1.00  0.00    -0.159 NA
ATOM     14  N   UNL A   1      34.134  19.413  24.640  1.00  0.00    -0.207 NA
ATOM     15  N   UNL A   1      32.874  18.904  26.326  1.00  0.00    -0.255 N 
ATOM     16  H   UNL A   1      32.414  18.988  27.191  1.00  0.00     0.192 HD
ENDBRANCH   7  10
ENDBRANCH   5   6
BRANCH   5  17
ATOM     17  C   UNL A   1      33.920  23.515  23.415  1.00  0.00     0.040 C 
BRANCH  17  18
ATOM     18  C   UNL A   1      32.563  23.159  22.746  1.00  0.00    -0.015 C 
ATOM     19  C   UNL A   1      32.207  21.670  22.717  1.00  0.00     0.007 C 
ATOM     20  C   UNL A   1      31.442  23.888  23.493  1.00  0.00     0.007 C 
ENDBRANCH  17  18
ENDBRANCH   5  17
ENDBRANCH   3   5
ENDBRANCH   2   3
ENDBRANCH   1   2
BRANCH   1  21
ATOM     21  C   UNL A   1      38.879  21.124  25.756  1.00  0.00     0.275 C 
BRANCH  21  22
ATOM     22  O   UNL A   1      39.042  22.437  26.286  1.00  0.00    -0.458 OA
BRANCH  22  23
ATOM     23  C   UNL A   1      40.084  22.572  27.130  1.00  0.00     0.338 C 
ATOM     24  O   UNL A   1      40.524  21.736  27.915  1.00  0.00    -0.246 OA
BRANCH  23  25
ATOM     25  C   UNL A   1      40.534  23.954  27.152  1.00  0.00     0.060 A 
ATOM     26  C   UNL A   1      41.680  24.223  27.905  1.00  0.00     0.016 A 
ATOM     27  C   UNL A   1      39.648  24.958  26.739  1.00  0.00     0.016 A 
ATOM     28  C   UNL A   1      41.835  25.486  28.419  1.00  0.00     0.010 A 
ATOM     29  C   UNL A   1      39.794  26.215  27.267  1.00  0.00     0.010 A 
ATOM     30  C   UNL A   1      40.840  26.434  28.160  1.00  0.00    -0.014 A 
BRANCH  30  31
ATOM     31  C   UNL A   1      40.942  27.696  28.846  1.00  0.00     0.031 A 
ATOM     32  C   UNL A   1      41.978  28.597  28.302  1.00  0.00     0.074 A 
ATOM     33  C   UNL A   1      40.094  28.042  29.828  1.00  0.00     0.049 A 
ATOM     34  N   UNL A   1      43.008  29.079  28.913  1.00  0.00    -0.248 NA
ATOM     35  C   UNL A   1      41.916  28.909  26.868  1.00  0.00     0.031 C 
ATOM     36  C   UNL A   1      38.859  27.379  30.246  1.00  0.00     0.029 A 
ATOM     37  N   UNL A   1      40.122  29.164  30.587  1.00  0.00    -0.354 N 
ATOM     38  C   UNL A   1      43.660  29.873  27.978  1.00  0.00     0.074 A 
ATOM     39  C   UNL A   1      43.023  29.632  26.709  1.00  0.00     0.031 C 
ATOM     40  C   UNL A   1      38.146  28.233  31.016  1.00  0.00     0.029 A 
ATOM     41  C   UNL A   1      38.930  29.441  31.229  1.00  0.00     0.049 A 
ATOM     42  H   UNL A   1      40.921  29.733  30.674  1.00  0.00     0.167 HD
ATOM     43  C   UNL A   1      44.555  30.822  28.356  1.00  0.00     0.037 A 
ATOM     44  C   UNL A   1      38.598  30.627  31.792  1.00  0.00     0.037 A 
ATOM     45  C   UNL A   1      45.045  30.590  29.689  1.00  0.00     0.049 A 
ATOM     46  C   UNL A   1      39.859  31.387  32.017  1.00  0.00     0.074 A 
ATOM     47  C   UNL A   1      45.732  29.551  30.290  1.00  0.00     0.029 A 
ATOM     48  N   UNL A   1      44.536  31.342  30.719  1.00  0.00    -0.354 N 
ATOM     49  N   UNL A   1      40.758  31.065  32.905  1.00  0.00    -0.248 NA
ATOM     50  C   UNL A   1      40.332  32.255  30.944  1.00  0.00     0.031 C 
ATOM     51  C   UNL A   1      45.189  29.459  31.604  1.00  0.00     0.029 A 
ATOM     52  C   UNL A   1      44.237  30.469  31.735  1.00  0.00     0.049 A 
ATOM     53  H   UNL A   1      44.411  32.318  30.727  1.00  0.00     0.167 HD
ATOM     54  C   UNL A   1      41.976  31.328  32.291  1.00  0.00     0.074 A 
ATOM     55  C   UNL A   1      41.651  32.149  31.129  1.00  0.00     0.031 C 
ATOM     56  C   UNL A   1      43.100  30.621  32.612  1.00  0.00     0.037 A 
BRANCH  43  57
ATOM     57  C   UNL A   1      44.735  32.128  27.636  1.00  0.00     0.064 A 
ATOM     58  C   UNL A   1      45.894  32.336  26.866  1.00  0.00     0.173 A 
ATOM     59  C   UNL A   1      43.962  33.279  27.907  1.00  0.00     0.173 A 
ATOM     60  F   UNL A   1      46.711  31.314  26.572  1.00  0.00    -0.203 F 
ATOM     61  C   UNL A   1      46.285  33.613  26.460  1.00  0.00     0.198 A 
ATOM     62  C   UNL A   1      44.325  34.542  27.450  1.00  0.00     0.198 A 
ATOM     63  F   UNL A   1      42.895  33.246  28.715  1.00  0.00    -0.203 F 
ATOM     64  F   UNL A   1      47.460  33.781  25.838  1.00  0.00    -0.200 F 
ATOM     65  C   UNL A   1      45.503  34.715  26.756  1.00  0.00     0.200 A 
ATOM     66  F   UNL A   1      43.562  35.599  27.762  1.00  0.00    -0.200 F 
ATOM     67  F   UNL A   1      45.907  35.947  26.419  1.00  0.00    -0.200 F 
ENDBRANCH  43  57
BRANCH  44  68
ATOM     68  C   UNL A   1      37.257  31.252  31.861  1.00  0.00     0.064 A 
ATOM     69  C   UNL A   1      36.764  31.768  33.068  1.00  0.00     0.173 A 
ATOM     70  C   UNL A   1      36.529  31.578  30.698  1.00  0.00     0.173 A 
ATOM     71  F   UNL A   1      37.424  31.548  34.216  1.00  0.00    -0.203 F 
ATOM     72  C   UNL A   1      35.622  32.574  33.109  1.00  0.00     0.198 A 
ATOM     73  C   UNL A   1      35.381  32.368  30.742  1.00  0.00     0.198 A 
ATOM     74  F   UNL A   1      36.965  31.217  29.483  1.00  0.00    -0.203 F 
ATOM     75  F   UNL A   1      35.217  33.100  34.273  1.00  0.00    -0.200 F 
ATOM     76  C   UNL A   1      34.935  32.878  31.945  1.00  0.00     0.200 A 
ATOM     77  F   UNL A   1      34.746  32.680  29.602  1.00  0.00    -0.200 F 
ATOM     78  F   UNL A   1      33.871  33.692  31.976  1.00  0.00    -0.200 F 
ENDBRANCH  44  68
BRANCH  56  79
ATOM     79  C   UNL A   1      43.050  29.724  33.816  1.00  0.00     0.064 A 
ATOM     80  C   UNL A   1      43.375  30.148  35.116  1.00  0.00     0.173 A 
ATOM     81  C   UNL A   1      42.510  28.439  33.672  1.00  0.00     0.173 A 
ATOM     82  F   UNL A   1      43.788  31.399  35.350  1.00  0.00    -0.203 F 
ATOM     83  C   UNL A   1      43.222  29.302  36.212  1.00  0.00     0.198 A 
ATOM     84  C   UNL A   1      42.320  27.610  34.775  1.00  0.00     0.198 A 
ATOM     85  F   UNL A   1      42.122  28.002  32.464  1.00  0.00    -0.203 F 
ATOM     86  F   UNL A   1      43.559  29.725  37.439  1.00  0.00    -0.200 F 
ATOM     87  C   UNL A   1      42.688  28.036  36.042  1.00  0.00     0.200 A 
ATOM     88  F   UNL A   1      41.756  26.405  34.613  1.00  0.00    -0.200 F 
ATOM     89  F   UNL A   1      42.501  27.236  37.101  1.00  0.00    -0.200 F 
ENDBRANCH  56  79
ENDBRANCH  30  31
ENDBRANCH  23  25
ENDBRANCH  22  23
ENDBRANCH  21  22
ENDBRANCH   1  21
TORSDOF 15
ENDMDL
MODEL 2
REMARK VINA RESULT:     -11.7      4.156      9.218
REMARK SMILES Cc1n[nH]c(C(=O)N[C@@H](CC(C)C)C(=O)OCCOC(=O)c2ccc(-c3c4nc(c(-c5c(F)c(F)c(F)c(F)c5F)c5ccc([nH]5)c(-c5c(F)c(F)c(F)c(F)c5F)c5nc(c(-c6c(F)c(F)c(F)c(F)c6F)c6ccc3[nH]6)C=C5)C=C4)cc2)n1
REMARK SMILES IDX 17 1 16 2 14 3 15 4 9 5 8 6 6 7 7 8 5 10 1 11 2 12 3 13
REMARK SMILES IDX 85 14 4 15 10 17 11 18 12 19 13 20 18 21 19 22 20 23 21 24
REMARK SMILES IDX 22 25 23 26 84 27 24 28 83 29 25 30 26 31 27 32 77 33 28 34
REMARK SMILES IDX 82 35 76 36 78 37 29 38 81 39 75 40 74 41 30 43 62 44 42 45
REMARK SMILES IDX 61 46 43 47 46 48 60 49 79 50 44 51 45 52 59 54 80 55 47 56
REMARK SMILES IDX 31 57 32 58 40 59 33 60 34 61 38 62 41 63 35 64 36 65 39 66
REMARK SMILES IDX 37 67 63 68 64 69 72 70 65 71 66 72 70 73 73 74 67 75 68 76
REMARK SMILES IDX 71 77 69 78 48 79 49 80 57 81 50 82 51 83 55 84 58 85 52 86
REMARK SMILES IDX 53 87 56 88 54 89
REMARK H PARENT 8 9 4 16 78 42 46 53
REMARK Flexibility Score: inf
ROOT
ATOM      1  C   UNL A   1      32.193  30.490  27.003  1.00  0.00     0.274 C 
ENDROOT
BRANCH   1   2
ATOM      2  O   UNL A   1      32.840  29.216  26.839  1.00  0.00    -0.461 OA
BRANCH   2   3
ATOM      3  C   UNL A   1      32.043  28.117  26.862  1.00  0.00     0.328 C 
ATOM      4  O   UNL A   1      31.286  27.819  27.778  1.00  0.00    -0.250 OA
BRANCH   3   5
ATOM      5  C   UNL A   1      32.321  27.170  25.685  1.00  0.00     0.192 C 
BRANCH   5   6
ATOM      6  N   UNL A   1      33.101  27.693  24.564  1.00  0.00    -0.336 N 
ATOM      7  C   UNL A   1      32.786  28.478  23.470  1.00  0.00     0.289 C 
ATOM      8  O   UNL A   1      33.756  28.835  22.795  1.00  0.00    -0.266 OA
ATOM      9  H   UNL A   1      34.050  27.433  24.594  1.00  0.00     0.164 HD
BRANCH   7  10
ATOM     10  C   UNL A   1      31.423  28.854  23.113  1.00  0.00     0.214 A 
ATOM     11  C   UNL A   1      28.458  30.792  23.488  1.00  0.00     0.092 C 
ATOM     12  C   UNL A   1      29.537  29.854  23.105  1.00  0.00     0.148 A 
ATOM     13  N   UNL A   1      29.462  29.070  22.025  1.00  0.00    -0.159 NA
ATOM     14  N   UNL A   1      30.709  29.738  23.801  1.00  0.00    -0.207 NA
ATOM     15  N   UNL A   1      30.672  28.485  22.035  1.00  0.00    -0.255 N 
ATOM     16  H   UNL A   1      30.982  27.860  21.342  1.00  0.00     0.192 HD
ENDBRANCH   7  10
ENDBRANCH   5   6
BRANCH   5  17
ATOM     17  C   UNL A   1      32.950  25.871  26.226  1.00  0.00     0.040 C 
BRANCH  17  18
ATOM     18  C   UNL A   1      32.081  24.582  26.253  1.00  0.00    -0.015 C 
ATOM     19  C   UNL A   1      30.591  24.778  25.956  1.00  0.00     0.007 C 
ATOM     20  C   UNL A   1      32.632  23.598  25.217  1.00  0.00     0.007 C 
ENDBRANCH  17  18
ENDBRANCH   5  17
ENDBRANCH   3   5
ENDBRANCH   2   3
ENDBRANCH   1   2
BRANCH   1  21
ATOM     21  C   UNL A   1      33.187  31.510  27.524  1.00  0.00     0.275 C 
BRANCH  21  22
ATOM     22  O   UNL A   1      34.518  31.119  27.194  1.00  0.00    -0.458 OA
BRANCH  22  23
ATOM     23  C   UNL A   1      35.477  31.893  27.737  1.00  0.00     0.338 C 
ATOM     24  O   UNL A   1      35.710  33.075  27.498  1.00  0.00    -0.246 OA
BRANCH  23  25
ATOM     25  C   UNL A   1      36.381  31.082  28.536  1.00  0.00     0.060 A 
ATOM     26  C   UNL A   1      37.375  31.767  29.241  1.00  0.00     0.016 A 
ATOM     27  C   UNL A   1      36.442  29.703  28.294  1.00  0.00     0.016 A 
ATOM     28  C   UNL A   1      38.537  31.100  29.535  1.00  0.00     0.010 A 
ATOM     29  C   UNL A   1      37.611  29.042  28.572  1.00  0.00     0.010 A 
ATOM     30  C   UNL A   1      38.665  29.773  29.115  1.00  0.00    -0.014 A 
BRANCH  30  31
ATOM     31  C   UNL A   1      39.952  29.151  29.287  1.00  0.00     0.031 A 
ATOM     32  C   UNL A   1      40.311  28.884  30.694  1.00  0.00     0.074 A 
ATOM     33  C   UNL A   1      40.701  28.767  28.241  1.00  0.00     0.049 A 
ATOM     34  N   UNL A   1      41.322  29.339  31.354  1.00  0.00    -0.248 NA
ATOM     35  C   UNL A   1      39.361  28.098  31.495  1.00  0.00     0.031 C 
ATOM     36  C   UNL A   1      40.333  28.700  26.827  1.00  0.00     0.029 A 
ATOM     37  N   UNL A   1      41.946  28.232  28.268  1.00  0.00    -0.354 N 
ATOM     38  C   UNL A   1      41.218  28.789  32.625  1.00  0.00     0.074 A 
ATOM     39  C   UNL A   1      39.933  28.142  32.697  1.00  0.00     0.031 C 
ATOM     40  C   UNL A   1      41.245  27.943  26.175  1.00  0.00     0.029 A 
ATOM     41  C   UNL A   1      42.305  27.579  27.104  1.00  0.00     0.049 A 
ATOM     42  H   UNL A   1      42.543  28.302  29.048  1.00  0.00     0.167 HD
ATOM     43  C   UNL A   1      42.286  28.740  33.464  1.00  0.00     0.037 A 
ATOM     44  C   UNL A   1      43.344  26.721  26.973  1.00  0.00     0.037 A 
ATOM     45  C   UNL A   1      43.309  29.673  33.078  1.00  0.00     0.049 A 
ATOM     46  C   UNL A   1      44.275  26.964  28.111  1.00  0.00     0.074 A 
ATOM     47  C   UNL A   1      43.348  31.049  32.938  1.00  0.00     0.029 A 
ATOM     48  N   UNL A   1      44.416  29.203  32.416  1.00  0.00    -0.354 N 
ATOM     49  N   UNL A   1      45.004  28.037  28.242  1.00  0.00    -0.248 NA
ATOM     50  C   UNL A   1      44.062  26.207  29.340  1.00  0.00     0.031 C 
ATOM     51  C   UNL A   1      44.180  31.282  31.804  1.00  0.00     0.029 A 
ATOM     52  C   UNL A   1      44.626  30.042  31.350  1.00  0.00     0.049 A 
ATOM     53  H   UNL A   1      44.955  28.415  32.659  1.00  0.00     0.167 HD
ATOM     54  C   UNL A   1      44.986  28.318  29.602  1.00  0.00     0.074 A 
ATOM     55  C   UNL A   1      44.476  27.107  30.236  1.00  0.00     0.031 C 
ATOM     56  C   UNL A   1      45.109  29.597  30.064  1.00  0.00     0.037 A 
BRANCH  43  57
ATOM     57  C   UNL A   1      42.526  27.620  34.437  1.00  0.00     0.064 A 
ATOM     58  C   UNL A   1      43.103  26.422  33.978  1.00  0.00     0.173 A 
ATOM     59  C   UNL A   1      41.951  27.572  35.726  1.00  0.00     0.173 A 
ATOM     60  F   UNL A   1      43.656  26.353  32.758  1.00  0.00    -0.203 F 
ATOM     61  C   UNL A   1      43.043  25.245  34.727  1.00  0.00     0.198 A 
ATOM     62  C   UNL A   1      41.945  26.411  36.494  1.00  0.00     0.198 A 
ATOM     63  F   UNL A   1      41.275  28.605  36.243  1.00  0.00    -0.203 F 
ATOM     64  F   UNL A   1      43.492  24.099  34.199  1.00  0.00    -0.200 F 
ATOM     65  C   UNL A   1      42.459  25.240  35.981  1.00  0.00     0.200 A 
ATOM     66  F   UNL A   1      41.360  26.422  37.700  1.00  0.00    -0.200 F 
ATOM     67  F   UNL A   1      42.348  24.099  36.675  1.00  0.00    -0.200 F 
ENDBRANCH  43  57
BRANCH  44  68
ATOM     68  C   UNL A   1      43.422  25.519  26.111  1.00  0.00     0.064 A 
ATOM     69  C   UNL A   1      44.564  25.259  25.340  1.00  0.00     0.173 A 
ATOM     70  C   UNL A   1      42.482  24.473  26.210  1.00  0.00     0.173 A 
ATOM     71  F   UNL A   1      45.532  26.181  25.235  1.00  0.00    -0.203 F 
ATOM     72  C   UNL A   1      44.762  24.021  24.719  1.00  0.00     0.198 A 
ATOM     73  C   UNL A   1      42.672  23.246  25.576  1.00  0.00     0.198 A 
ATOM     74  F   UNL A   1      41.403  24.581  26.998  1.00  0.00    -0.203 F 
ATOM     75  F   UNL A   1      45.895  23.788  24.041  1.00  0.00    -0.200 F 
ATOM     76  C   UNL A   1      43.818  23.014  24.841  1.00  0.00     0.200 A 
ATOM     77  F   UNL A   1      41.765  22.270  25.732  1.00  0.00    -0.200 F 
ATOM     78  F   UNL A   1      44.031  21.812  24.289  1.00  0.00    -0.200 F 
ENDBRANCH  44  68
BRANCH  56  79
ATOM     79  C   UNL A   1      45.513  30.665  29.088  1.00  0.00     0.064 A 
ATOM     80  C   UNL A   1      46.850  30.994  28.804  1.00  0.00     0.173 A 
ATOM     81  C   UNL A   1      44.520  31.267  28.304  1.00  0.00     0.173 A 
ATOM     82  F   UNL A   1      47.859  30.378  29.430  1.00  0.00    -0.203 F 
ATOM     83  C   UNL A   1      47.171  31.928  27.821  1.00  0.00     0.198 A 
ATOM     84  C   UNL A   1      44.847  32.169  27.295  1.00  0.00     0.198 A 
ATOM     85  F   UNL A   1      43.229  30.945  28.485  1.00  0.00    -0.203 F 
ATOM     86  F   UNL A   1      48.455  32.239  27.585  1.00  0.00    -0.200 F 
ATOM     87  C   UNL A   1      46.170  32.509  27.062  1.00  0.00     0.200 A 
ATOM     88  F   UNL A   1      43.879  32.691  26.528  1.00  0.00    -0.200 F 
ATOM     89  F   UNL A   1      46.481  33.376  26.089  1.00  0.00    -0.200 F 
ENDBRANCH  56  79
ENDBRANCH  30  31
ENDBRANCH  23  25
ENDBRANCH  22  23
ENDBRANCH  21  22
ENDBRANCH   1  21
TORSDOF 15
ENDMDL
MODEL 3
REMARK VINA RESULT:     -11.7      5.428     10.906
REMARK SMILES Cc1n[nH]c(C(=O)N[C@@H](CC(C)C)C(=O)OCCOC(=O)c2ccc(-c3c4nc(c(-c5c(F)c(F)c(F)c(F)c5F)c5ccc([nH]5)c(-c5c(F)c(F)c(F)c(F)c5F)c5nc(c(-c6c(F)c(F)c(F)c(F)c6F)c6ccc3[nH]6)C=C5)C=C4)cc2)n1
REMARK SMILES IDX 17 1 16 2 14 3 15 4 9 5 8 6 6 7 7 8 5 10 1 11 2 12 3 13
REMARK SMILES IDX 85 14 4 15 10 17 11 18 12 19 13 20 18 21 19 22 20 23 21 24
REMARK SMILES IDX 22 25 23 26 84 27 24 28 83 29 25 30 26 31 27 32 77 33 28 34
REMARK SMILES IDX 82 35 76 36 78 37 29 38 81 39 75 40 74 41 30 43 62 44 42 45
REMARK SMILES IDX 61 46 43 47 46 48 60 49 79 50 44 51 45 52 59 54 80 55 47 56
REMARK SMILES IDX 31 57 32 58 40 59 33 60 34 61 38 62 41 63 35 64 36 65 39 66
REMARK SMILES IDX 37 67 63 68 64 69 72 70 65 71 66 72 70 73 73 74 67 75 68 76
REMARK SMILES IDX 71 77 69 78 48 79 49 80 57 81 50 82 51 83 55 84 58 85 52 86
REMARK SMILES IDX 53 87 56 88 54 89
REMARK H PARENT 8 9 4 16 78 42 46 53
REMARK Flexibility Score: inf
ROOT
ATOM      1  C   UNL A   1      34.445  34.464  29.573  1.00  0.00     0.274 C 
ENDROOT
BRANCH   1   2
ATOM      2  O   UNL A   1      34.517  33.679  30.777  1.00  0.00    -0.461 OA
BRANCH   2   3
ATOM      3  C   UNL A   1      35.018  34.294  31.880  1.00  0.00     0.328 C 
ATOM      4  O   UNL A   1      34.594  35.344  32.350  1.00  0.00    -0.250 OA
BRANCH   3   5
ATOM      5  C   UNL A   1      36.305  33.628  32.385  1.00  0.00     0.192 C 
BRANCH   5   6
ATOM      6  N   UNL A   1      36.464  32.192  32.148  1.00  0.00    -0.336 N 
ATOM      7  C   UNL A   1      36.871  31.137  32.942  1.00  0.00     0.289 C 
ATOM      8  O   UNL A   1      36.746  30.024  32.423  1.00  0.00    -0.266 OA
ATOM      9  H   UNL A   1      36.232  31.921  31.231  1.00  0.00     0.164 HD
BRANCH   7  10
ATOM     10  C   UNL A   1      37.420  31.301  34.283  1.00  0.00     0.214 A 
ATOM     11  C   UNL A   1      37.803  33.032  37.372  1.00  0.00     0.092 C 
ATOM     12  C   UNL A   1      37.832  32.110  36.216  1.00  0.00     0.148 A 
ATOM     13  N   UNL A   1      38.436  30.918  36.258  1.00  0.00    -0.159 NA
ATOM     14  N   UNL A   1      37.218  32.384  35.024  1.00  0.00    -0.207 NA
ATOM     15  N   UNL A   1      38.128  30.420  35.047  1.00  0.00    -0.255 N 
ATOM     16  H   UNL A   1      38.384  29.519  34.747  1.00  0.00     0.192 HD
ENDBRANCH   7  10
ENDBRANCH   5   6
BRANCH   5  17
ATOM     17  C   UNL A   1      37.519  34.406  31.841  1.00  0.00     0.040 C 
BRANCH  17  18
ATOM     18  C   UNL A   1      38.926  33.755  31.948  1.00  0.00    -0.015 C 
ATOM     19  C   UNL A   1      39.880  34.039  30.784  1.00  0.00     0.007 C 
ATOM     20  C   UNL A   1      39.600  34.252  33.230  1.00  0.00     0.007 C 
ENDBRANCH  17  18
ENDBRANCH   5  17
ENDBRANCH   3   5
ENDBRANCH   2   3
ENDBRANCH   1   2
BRANCH   1  21
ATOM     21  C   UNL A   1      34.093  33.572  28.397  1.00  0.00     0.275 C 
BRANCH  21  22
ATOM     22  O   UNL A   1      35.269  32.975  27.857  1.00  0.00    -0.458 OA
BRANCH  22  23
ATOM     23  C   UNL A   1      35.202  31.636  27.721  1.00  0.00     0.338 C 
ATOM     24  O   UNL A   1      34.350  30.987  27.119  1.00  0.00    -0.246 OA
BRANCH  23  25
ATOM     25  C   UNL A   1      36.190  30.997  28.574  1.00  0.00     0.060 A 
ATOM     26  C   UNL A   1      37.259  31.794  28.993  1.00  0.00     0.016 A 
ATOM     27  C   UNL A   1      36.220  29.598  28.640  1.00  0.00     0.016 A 
ATOM     28  C   UNL A   1      38.446  31.177  29.296  1.00  0.00     0.010 A 
ATOM     29  C   UNL A   1      37.412  28.983  28.927  1.00  0.00     0.010 A 
ATOM     30  C   UNL A   1      38.523  29.787  29.172  1.00  0.00    -0.014 A 
BRANCH  30  31
ATOM     31  C   UNL A   1      39.820  29.183  29.334  1.00  0.00     0.031 A 
ATOM     32  C   UNL A   1      40.193  28.920  30.738  1.00  0.00     0.074 A 
ATOM     33  C   UNL A   1      40.567  28.811  28.281  1.00  0.00     0.049 A 
ATOM     34  N   UNL A   1      41.203  29.389  31.390  1.00  0.00    -0.248 NA
ATOM     35  C   UNL A   1      39.261  28.120  31.545  1.00  0.00     0.031 C 
ATOM     36  C   UNL A   1      40.189  28.740  26.870  1.00  0.00     0.029 A 
ATOM     37  N   UNL A   1      41.819  28.294  28.298  1.00  0.00    -0.354 N 
ATOM     38  C   UNL A   1      41.117  28.837  32.661  1.00  0.00     0.074 A 
ATOM     39  C   UNL A   1      39.842  28.171  32.742  1.00  0.00     0.031 C 
ATOM     40  C   UNL A   1      41.107  27.996  26.211  1.00  0.00     0.029 A 
ATOM     41  C   UNL A   1      42.178  27.647  27.131  1.00  0.00     0.049 A 
ATOM     42  H   UNL A   1      42.421  28.372  29.073  1.00  0.00     0.167 HD
ATOM     43  C   UNL A   1      42.191  28.802  33.493  1.00  0.00     0.037 A 
ATOM     44  C   UNL A   1      43.229  26.804  26.992  1.00  0.00     0.037 A 
ATOM     45  C   UNL A   1      43.198  29.751  33.100  1.00  0.00     0.049 A 
ATOM     46  C   UNL A   1      44.165  27.060  28.122  1.00  0.00     0.074 A 
ATOM     47  C   UNL A   1      43.216  31.127  32.960  1.00  0.00     0.029 A 
ATOM     48  N   UNL A   1      44.306  29.296  32.428  1.00  0.00    -0.354 N 
ATOM     49  N   UNL A   1      44.880  28.143  28.248  1.00  0.00    -0.248 NA
ATOM     50  C   UNL A   1      43.972  26.299  29.352  1.00  0.00     0.031 C 
ATOM     51  C   UNL A   1      44.036  31.373  31.820  1.00  0.00     0.029 A 
ATOM     52  C   UNL A   1      44.496  30.139  31.362  1.00  0.00     0.049 A 
ATOM     53  H   UNL A   1      44.858  28.516  32.666  1.00  0.00     0.167 HD
ATOM     54  C   UNL A   1      44.867  28.422  29.609  1.00  0.00     0.074 A 
ATOM     55  C   UNL A   1      44.380  27.203  30.246  1.00  0.00     0.031 C 
ATOM     56  C   UNL A   1      44.975  29.702  30.072  1.00  0.00     0.037 A 
BRANCH  43  57
ATOM     57  C   UNL A   1      42.455  27.685  34.462  1.00  0.00     0.064 A 
ATOM     58  C   UNL A   1      43.039  26.493  33.996  1.00  0.00     0.173 A 
ATOM     59  C   UNL A   1      41.895  27.631  35.758  1.00  0.00     0.173 A 
ATOM     60  F   UNL A   1      43.578  26.430  32.770  1.00  0.00    -0.203 F 
ATOM     61  C   UNL A   1      43.000  25.315  34.745  1.00  0.00     0.198 A 
ATOM     62  C   UNL A   1      41.911  26.470  36.526  1.00  0.00     0.198 A 
ATOM     63  F   UNL A   1      41.215  28.657  36.283  1.00  0.00    -0.203 F 
ATOM     64  F   UNL A   1      43.455  24.174  34.212  1.00  0.00    -0.200 F 
ATOM     65  C   UNL A   1      42.432  25.304  36.007  1.00  0.00     0.200 A 
ATOM     66  F   UNL A   1      41.340  26.475  37.738  1.00  0.00    -0.200 F 
ATOM     67  F   UNL A   1      42.340  24.163  36.702  1.00  0.00    -0.200 F 
ENDBRANCH  43  57
BRANCH  44  68
ATOM     68  C   UNL A   1      43.317  25.604  26.128  1.00  0.00     0.064 A 
ATOM     69  C   UNL A   1      44.450  25.369  25.335  1.00  0.00     0.173 A 
ATOM     70  C   UNL A   1      42.402  24.537  26.243  1.00  0.00     0.173 A 
ATOM     71  F   UNL A   1      45.396  26.313  25.213  1.00  0.00    -0.203 F 
ATOM     72  C   UNL A   1      44.664  24.137  24.710  1.00  0.00     0.198 A 
ATOM     73  C   UNL A   1      42.609  23.315  25.606  1.00  0.00     0.198 A 
ATOM     74  F   UNL A   1      41.336  24.622  27.052  1.00  0.00    -0.203 F 
ATOM     75  F   UNL A   1      45.789  23.929  24.011  1.00  0.00    -0.200 F 
ATOM     76  C   UNL A   1      43.746  23.109  24.850  1.00  0.00     0.200 A 
ATOM     77  F   UNL A   1      41.727  22.319  25.778  1.00  0.00    -0.200 F 
ATOM     78  F   UNL A   1      43.974  21.912  24.293  1.00  0.00    -0.200 F 
ENDBRANCH  44  68
BRANCH  56  79
ATOM     79  C   UNL A   1      45.357  30.777  29.093  1.00  0.00     0.064 A 
ATOM     80  C   UNL A   1      44.441  31.408  28.234  1.00  0.00     0.173 A 
ATOM     81  C   UNL A   1      46.661  31.289  29.135  1.00  0.00     0.173 A 
ATOM     82  F   UNL A   1      43.151  31.052  28.220  1.00  0.00    -0.203 F 
ATOM     83  C   UNL A   1      44.830  32.464  27.412  1.00  0.00     0.198 A 
ATOM     84  C   UNL A   1      47.035  32.371  28.342  1.00  0.00     0.198 A 
ATOM     85  F   UNL A   1      47.563  30.769  29.982  1.00  0.00    -0.203 F 
ATOM     86  F   UNL A   1      43.940  33.035  26.586  1.00  0.00    -0.200 F 
ATOM     87  C   UNL A   1      46.125  32.949  27.472  1.00  0.00     0.200 A 
ATOM     88  F   UNL A   1      48.276  32.870  28.440  1.00  0.00    -0.200 F 
ATOM     89  F   UNL A   1      46.489  33.991  26.713  1.00  0.00    -0.200 F 
ENDBRANCH  56  79
ENDBRANCH  30  31
ENDBRANCH  23  25
ENDBRANCH  22  23
ENDBRANCH  21  22
ENDBRANCH   1  21
TORSDOF 15
ENDMDL
