MODEL 1
REMARK VINA RESULT:     -12.6      0.000      0.000
REMARK SMILES O=C(OCCOC(=O)c1ccc(-c2c3nc(c(-c4c(F)c(F)c(F)c(F)c4F)c4ccc([nH]4)c(-c4c(F)c(F)c(F)c(F)c4F)c4nc(c(-c5c(F)c(F)c(F)c(F)c5F)c5ccc2[nH]5)C=C4)C=C3)cc1)C1=Cc2cc(S(F)(F)(F)(F)F)cc(Br)c2O[C@@H]1C(F)(F)F
REMARK SMILES IDX 5 1 4 2 3 3 2 4 1 5 72 6 73 7 88 8 74 9 87 10 75 11 86 12
REMARK SMILES IDX 76 13 84 14 83 15 85 16 89 17 90 18 91 19 92 20 77 21 78 22
REMARK SMILES IDX 79 23 80 24 81 25 82 26 6 27 7 28 8 29 9 30 10 31 71 32
REMARK SMILES IDX 11 33 70 34 12 35 13 36 14 37 64 38 15 39 69 40 63 41 65 42
REMARK SMILES IDX 16 43 68 44 62 45 61 46 17 48 49 49 29 50 48 51 30 52 33 53
REMARK SMILES IDX 47 54 66 55 31 56 32 57 46 59 67 60 34 61 18 62 19 63 27 64
REMARK SMILES IDX 20 65 21 66 25 67 28 68 22 69 23 70 26 71 24 72 50 73 51 74
REMARK SMILES IDX 59 75 52 76 53 77 57 78 60 79 54 80 55 81 58 82 56 83 35 84
REMARK SMILES IDX 36 85 44 86 37 87 38 88 42 89 45 90 39 91 40 92 43 93 41 94
REMARK H PARENT 65 47 33 58
REMARK Flexibility Score: inf
ROOT
ATOM      1  C   UNL A   1      31.710  29.248  25.461  1.00  0.00     0.275 C 
ENDROOT
BRANCH   1   2
ATOM      2  C   UNL A   1      31.747  28.074  26.425  1.00  0.00     0.275 C 
BRANCH   2   3
ATOM      3  O   UNL A   1      31.942  26.870  25.697  1.00  0.00    -0.459 OA
BRANCH   3   4
ATOM      4  C   UNL A   1      33.225  26.555  25.176  1.00  0.00     0.338 C 
ATOM      5  O   UNL A   1      34.249  26.625  25.925  1.00  0.00    -0.246 OA
BRANCH   4   6
ATOM      6  C   UNL A   1      33.372  26.136  23.722  1.00  0.00     0.087 C 
ATOM      7  C   UNL A   1      33.924  24.931  23.415  1.00  0.00     0.027 C 
ATOM      8  C   UNL A   1      32.902  27.062  22.612  1.00  0.00     0.316 C 
ATOM      9  C   UNL A   1      34.393  24.005  24.525  1.00  0.00     0.020 A 
ATOM     10  O   UNL A   1      32.403  24.566  25.697  1.00  0.00    -0.474 OA
ATOM     11  C   UNL A   1      35.643  23.412  24.449  1.00  0.00     0.036 A 
ATOM     12  C   UNL A   1      33.606  23.820  25.578  1.00  0.00     0.142 A 
ATOM     13  C   UNL A   1      35.857  22.400  25.416  1.00  0.00     0.109 A 
ATOM     14  C   UNL A   1      33.944  22.913  26.553  1.00  0.00     0.062 A 
ATOM     15  C   UNL A   1      35.137  22.247  26.512  1.00  0.00     0.044 A 
ATOM     16  Br  UNL A   1      32.696  22.568  28.026  1.00  0.00    -0.047 Br
BRANCH   8  17
ATOM     17  C   UNL A   1      31.830  26.365  21.791  1.00  0.00     0.430 C 
ATOM     18  F   UNL A   1      32.357  25.934  20.648  1.00  0.00    -0.167 F 
ATOM     19  F   UNL A   1      31.350  25.332  22.474  1.00  0.00    -0.167 F 
ATOM     20  F   UNL A   1      30.846  27.221  21.529  1.00  0.00    -0.167 F 
ENDBRANCH   8  17
BRANCH  13  21
ATOM     21  S   UNL A   1      37.212  21.236  25.129  1.00  0.00     0.310 S 
ATOM     22  F   UNL A   1      37.358  21.676  23.611  1.00  0.00    -0.094 F 
ATOM     23  F   UNL A   1      36.162  20.165  24.644  1.00  0.00    -0.094 F 
ATOM     24  F   UNL A   1      38.380  20.238  24.886  1.00  0.00    -0.094 F 
ATOM     25  F   UNL A   1      38.259  22.364  25.481  1.00  0.00    -0.094 F 
ATOM     26  F   UNL A   1      36.046  22.292  25.270  1.00  0.00    -0.094 F 
ENDBRANCH  13  21
ENDBRANCH   4   6
ENDBRANCH   3   4
ENDBRANCH   2   3
ENDBRANCH   1   2
BRANCH   1  27
ATOM     27  O   UNL A   1      32.935  29.963  25.540  1.00  0.00    -0.458 OA
BRANCH  27  28
ATOM     28  C   UNL A   1      33.178  30.837  26.631  1.00  0.00     0.338 C 
ATOM     29  O   UNL A   1      32.375  31.792  26.873  1.00  0.00    -0.246 OA
BRANCH  28  30
ATOM     30  C   UNL A   1      34.400  30.631  27.511  1.00  0.00     0.060 A 
ATOM     31  C   UNL A   1      35.280  31.680  27.727  1.00  0.00     0.016 A 
ATOM     32  C   UNL A   1      34.643  29.418  27.994  1.00  0.00     0.016 A 
ATOM     33  C   UNL A   1      36.541  31.276  28.225  1.00  0.00     0.010 A 
ATOM     34  C   UNL A   1      35.847  29.131  28.590  1.00  0.00     0.010 A 
ATOM     35  C   UNL A   1      36.787  30.104  28.782  1.00  0.00    -0.014 A 
BRANCH  35  36
ATOM     36  C   UNL A   1      38.047  29.853  29.595  1.00  0.00     0.031 A 
ATOM     37  C   UNL A   1      38.145  30.476  30.841  1.00  0.00     0.074 A 
ATOM     38  C   UNL A   1      38.998  28.987  29.085  1.00  0.00     0.049 A 
ATOM     39  N   UNL A   1      39.113  30.330  31.748  1.00  0.00    -0.248 NA
ATOM     40  C   UNL A   1      37.154  31.423  31.370  1.00  0.00     0.031 C 
ATOM     41  C   UNL A   1      38.902  28.349  27.832  1.00  0.00     0.029 A 
ATOM     42  N   UNL A   1      40.178  28.588  29.670  1.00  0.00    -0.354 N 
ATOM     43  C   UNL A   1      38.850  31.072  32.825  1.00  0.00     0.074 A 
ATOM     44  C   UNL A   1      37.589  31.791  32.595  1.00  0.00     0.031 C 
ATOM     45  C   UNL A   1      40.013  27.588  27.660  1.00  0.00     0.029 A 
ATOM     46  C   UNL A   1      40.823  27.735  28.802  1.00  0.00     0.049 A 
ATOM     47  H   UNL A   1      40.507  28.866  30.556  1.00  0.00     0.167 HD
ATOM     48  C   UNL A   1      39.611  31.178  33.991  1.00  0.00     0.037 A 
ATOM     49  C   UNL A   1      42.049  27.112  28.978  1.00  0.00     0.037 A 
ATOM     50  C   UNL A   1      40.815  30.520  34.184  1.00  0.00     0.049 A 
ATOM     51  C   UNL A   1      42.838  27.262  30.120  1.00  0.00     0.074 A 
ATOM     52  C   UNL A   1      41.590  30.609  35.356  1.00  0.00     0.029 A 
ATOM     53  N   UNL A   1      41.471  29.686  33.305  1.00  0.00    -0.354 N 
ATOM     54  N   UNL A   1      42.556  27.974  31.213  1.00  0.00    -0.248 NA
ATOM     55  C   UNL A   1      44.153  26.633  30.303  1.00  0.00     0.031 C 
ATOM     56  C   UNL A   1      42.703  29.847  35.184  1.00  0.00     0.029 A 
ATOM     57  C   UNL A   1      42.641  29.270  33.901  1.00  0.00     0.049 A 
ATOM     58  H   UNL A   1      41.157  29.431  32.408  1.00  0.00     0.167 HD
ATOM     59  C   UNL A   1      43.544  27.861  32.103  1.00  0.00     0.074 A 
ATOM     60  C   UNL A   1      44.589  27.002  31.528  1.00  0.00     0.031 C 
ATOM     61  C   UNL A   1      43.615  28.436  33.373  1.00  0.00     0.037 A 
BRANCH  48  62
ATOM     62  C   UNL A   1      39.088  32.062  35.111  1.00  0.00     0.064 A 
ATOM     63  C   UNL A   1      39.413  33.408  35.122  1.00  0.00     0.173 A 
ATOM     64  C   UNL A   1      38.360  31.521  36.082  1.00  0.00     0.173 A 
ATOM     65  F   UNL A   1      39.914  34.041  34.065  1.00  0.00    -0.203 F 
ATOM     66  C   UNL A   1      39.165  34.048  36.359  1.00  0.00     0.198 A 
ATOM     67  C   UNL A   1      38.038  32.249  37.202  1.00  0.00     0.198 A 
ATOM     68  F   UNL A   1      37.938  30.266  35.968  1.00  0.00    -0.203 F 
ATOM     69  F   UNL A   1      39.763  35.215  36.583  1.00  0.00    -0.200 F 
ATOM     70  C   UNL A   1      38.380  33.569  37.306  1.00  0.00     0.200 A 
ATOM     71  F   UNL A   1      37.385  31.660  38.200  1.00  0.00    -0.200 F 
ATOM     72  F   UNL A   1      37.945  34.328  38.307  1.00  0.00    -0.200 F 
ENDBRANCH  48  62
BRANCH  49  73
ATOM     73  C   UNL A   1      42.563  26.213  27.864  1.00  0.00     0.064 A 
ATOM     74  C   UNL A   1      43.415  26.774  26.929  1.00  0.00     0.173 A 
ATOM     75  C   UNL A   1      42.213  24.934  27.800  1.00  0.00     0.173 A 
ATOM     76  F   UNL A   1      43.990  27.962  27.090  1.00  0.00    -0.203 F 
ATOM     77  C   UNL A   1      43.621  25.967  25.785  1.00  0.00     0.198 A 
ATOM     78  C   UNL A   1      42.564  24.167  26.714  1.00  0.00     0.198 A 
ATOM     79  F   UNL A   1      41.516  24.389  28.793  1.00  0.00    -0.203 F 
ATOM     80  F   UNL A   1      44.115  26.551  24.696  1.00  0.00    -0.200 F 
ATOM     81  C   UNL A   1      43.356  24.675  25.722  1.00  0.00     0.200 A 
ATOM     82  F   UNL A   1      42.127  22.915  26.628  1.00  0.00    -0.200 F 
ATOM     83  F   UNL A   1      43.835  23.908  24.746  1.00  0.00    -0.200 F 
ENDBRANCH  49  73
BRANCH  61  84
ATOM     84  C   UNL A   1      44.833  28.129  34.229  1.00  0.00     0.064 A 
ATOM     85  C   UNL A   1      44.825  27.023  35.062  1.00  0.00     0.173 A 
ATOM     86  C   UNL A   1      45.869  28.958  34.194  1.00  0.00     0.173 A 
ATOM     87  F   UNL A   1      43.938  26.037  34.951  1.00  0.00    -0.203 F 
ATOM     88  C   UNL A   1      45.846  27.036  36.042  1.00  0.00     0.198 A 
ATOM     89  C   UNL A   1      46.898  28.829  35.095  1.00  0.00     0.198 A 
ATOM     90  F   UNL A   1      45.912  29.922  33.279  1.00  0.00    -0.203 F 
ATOM     91  F   UNL A   1      45.707  26.229  37.090  1.00  0.00    -0.200 F 
ATOM     92  C   UNL A   1      46.926  27.794  35.988  1.00  0.00     0.200 A 
ATOM     93  F   UNL A   1      47.881  29.726  35.101  1.00  0.00    -0.200 F 
ATOM     94  F   UNL A   1      47.983  27.562  36.760  1.00  0.00    -0.200 F 
ENDBRANCH  61  84
ENDBRANCH  35  36
ENDBRANCH  28  30
ENDBRANCH  27  28
ENDBRANCH   1  27
TORSDOF 13
ENDMDL
MODEL 2
REMARK VINA RESULT:     -12.5      3.988      6.985
REMARK SMILES O=C(OCCOC(=O)c1ccc(-c2c3nc(c(-c4c(F)c(F)c(F)c(F)c4F)c4ccc([nH]4)c(-c4c(F)c(F)c(F)c(F)c4F)c4nc(c(-c5c(F)c(F)c(F)c(F)c5F)c5ccc2[nH]5)C=C4)C=C3)cc1)C1=Cc2cc(S(F)(F)(F)(F)F)cc(Br)c2O[C@@H]1C(F)(F)F
REMARK SMILES IDX 5 1 4 2 3 3 2 4 1 5 72 6 73 7 88 8 74 9 87 10 75 11 86 12
REMARK SMILES IDX 76 13 84 14 83 15 85 16 89 17 90 18 91 19 92 20 77 21 78 22
REMARK SMILES IDX 79 23 80 24 81 25 82 26 6 27 7 28 8 29 9 30 10 31 71 32
REMARK SMILES IDX 11 33 70 34 12 35 13 36 14 37 64 38 15 39 69 40 63 41 65 42
REMARK SMILES IDX 16 43 68 44 62 45 61 46 17 48 49 49 29 50 48 51 30 52 33 53
REMARK SMILES IDX 47 54 66 55 31 56 32 57 46 59 67 60 34 61 18 62 19 63 27 64
REMARK SMILES IDX 20 65 21 66 25 67 28 68 22 69 23 70 26 71 24 72 50 73 51 74
REMARK SMILES IDX 59 75 52 76 53 77 57 78 60 79 54 80 55 81 58 82 56 83 35 84
REMARK SMILES IDX 36 85 44 86 37 87 38 88 42 89 45 90 39 91 40 92 43 93 41 94
REMARK H PARENT 65 47 33 58
REMARK Flexibility Score: inf
ROOT
ATOM      1  C   UNL A   1      36.661  23.130  25.817  1.00  0.00     0.275 C 
ENDROOT
BRANCH   1   2
ATOM      2  C   UNL A   1      35.865  24.126  24.990  1.00  0.00     0.275 C 
BRANCH   2   3
ATOM      3  O   UNL A   1      34.713  24.529  25.715  1.00  0.00    -0.459 OA
BRANCH   3   4
ATOM      4  C   UNL A   1      33.436  24.023  25.357  1.00  0.00     0.338 C 
ATOM      5  O   UNL A   1      33.291  23.373  24.275  1.00  0.00    -0.246 OA
BRANCH   4   6
ATOM      6  C   UNL A   1      32.241  24.260  26.267  1.00  0.00     0.087 C 
ATOM      7  C   UNL A   1      31.815  25.528  26.513  1.00  0.00     0.027 C 
ATOM      8  C   UNL A   1      31.523  23.081  26.901  1.00  0.00     0.316 C 
ATOM      9  C   UNL A   1      32.533  26.708  25.878  1.00  0.00     0.020 A 
ATOM     10  O   UNL A   1      32.619  25.444  23.867  1.00  0.00    -0.474 OA
ATOM     11  C   UNL A   1      32.885  27.802  26.652  1.00  0.00     0.036 A 
ATOM     12  C   UNL A   1      32.853  26.644  24.591  1.00  0.00     0.142 A 
ATOM     13  C   UNL A   1      33.328  28.917  25.901  1.00  0.00     0.109 A 
ATOM     14  C   UNL A   1      33.408  27.727  23.953  1.00  0.00     0.062 A 
ATOM     15  C   UNL A   1      33.729  28.862  24.644  1.00  0.00     0.044 A 
ATOM     16  Br  UNL A   1      33.746  27.642  22.024  1.00  0.00    -0.047 Br
BRANCH   8  17
ATOM     17  C   UNL A   1      30.070  23.072  26.456  1.00  0.00     0.430 C 
ATOM     18  F   UNL A   1      29.984  23.543  25.215  1.00  0.00    -0.167 F 
ATOM     19  F   UNL A   1      29.603  21.828  26.491  1.00  0.00    -0.167 F 
ATOM     20  F   UNL A   1      29.351  23.839  27.271  1.00  0.00    -0.167 F 
ENDBRANCH   8  17
BRANCH  13  21
ATOM     21  S   UNL A   1      33.347  30.530  26.721  1.00  0.00     0.310 S 
ATOM     22  F   UNL A   1      32.924  29.900  28.116  1.00  0.00    -0.094 F 
ATOM     23  F   UNL A   1      31.811  30.685  26.406  1.00  0.00    -0.094 F 
ATOM     24  F   UNL A   1      33.369  31.917  27.425  1.00  0.00    -0.094 F 
ATOM     25  F   UNL A   1      34.848  30.295  27.152  1.00  0.00    -0.094 F 
ATOM     26  F   UNL A   1      33.309  29.073  26.110  1.00  0.00    -0.094 F 
ENDBRANCH  13  21
ENDBRANCH   4   6
ENDBRANCH   3   4
ENDBRANCH   2   3
ENDBRANCH   1   2
BRANCH   1  27
ATOM     27  O   UNL A   1      38.008  23.111  25.366  1.00  0.00    -0.458 OA
BRANCH  27  28
ATOM     28  C   UNL A   1      39.069  23.011  26.304  1.00  0.00     0.338 C 
ATOM     29  O   UNL A   1      39.606  21.884  26.540  1.00  0.00    -0.246 OA
BRANCH  28  30
ATOM     30  C   UNL A   1      39.561  24.253  27.028  1.00  0.00     0.060 A 
ATOM     31  C   UNL A   1      39.286  24.421  28.376  1.00  0.00     0.016 A 
ATOM     32  C   UNL A   1      40.180  25.197  26.329  1.00  0.00     0.016 A 
ATOM     33  C   UNL A   1      39.450  25.750  28.834  1.00  0.00     0.010 A 
ATOM     34  C   UNL A   1      40.429  26.430  26.885  1.00  0.00     0.010 A 
ATOM     35  C   UNL A   1      40.130  26.684  28.194  1.00  0.00    -0.014 A 
BRANCH  35  36
ATOM     36  C   UNL A   1      40.557  27.973  28.878  1.00  0.00     0.031 A 
ATOM     37  C   UNL A   1      39.585  28.959  29.060  1.00  0.00     0.074 A 
ATOM     38  C   UNL A   1      41.861  28.079  29.328  1.00  0.00     0.049 A 
ATOM     39  N   UNL A   1      39.716  30.120  29.704  1.00  0.00    -0.248 NA
ATOM     40  C   UNL A   1      38.209  28.864  28.553  1.00  0.00     0.031 C 
ATOM     41  C   UNL A   1      42.844  27.085  29.155  1.00  0.00     0.029 A 
ATOM     42  N   UNL A   1      42.438  29.129  30.006  1.00  0.00    -0.354 N 
ATOM     43  C   UNL A   1      38.562  30.790  29.686  1.00  0.00     0.074 A 
ATOM     44  C   UNL A   1      37.577  29.994  28.939  1.00  0.00     0.031 C 
ATOM     45  C   UNL A   1      44.000  27.534  29.709  1.00  0.00     0.029 A 
ATOM     46  C   UNL A   1      43.759  28.816  30.240  1.00  0.00     0.049 A 
ATOM     47  H   UNL A   1      41.986  29.960  30.276  1.00  0.00     0.167 HD
ATOM     48  C   UNL A   1      38.291  32.031  30.263  1.00  0.00     0.037 A 
ATOM     49  C   UNL A   1      44.716  29.592  30.876  1.00  0.00     0.037 A 
ATOM     50  C   UNL A   1      39.236  32.788  30.937  1.00  0.00     0.049 A 
ATOM     51  C   UNL A   1      44.460  30.860  31.403  1.00  0.00     0.074 A 
ATOM     52  C   UNL A   1      38.978  34.038  31.532  1.00  0.00     0.029 A 
ATOM     53  N   UNL A   1      40.563  32.486  31.149  1.00  0.00    -0.354 N 
ATOM     54  N   UNL A   1      43.296  31.512  31.419  1.00  0.00    -0.248 NA
ATOM     55  C   UNL A   1      45.473  31.704  32.050  1.00  0.00     0.031 C 
ATOM     56  C   UNL A   1      40.134  34.488  32.087  1.00  0.00     0.029 A 
ATOM     57  C   UNL A   1      41.134  33.526  31.847  1.00  0.00     0.049 A 
ATOM     58  H   UNL A   1      41.023  31.667  30.854  1.00  0.00     0.167 HD
ATOM     59  C   UNL A   1      43.438  32.692  32.027  1.00  0.00     0.074 A 
ATOM     60  C   UNL A   1      44.842  32.836  32.435  1.00  0.00     0.031 C 
ATOM     61  C   UNL A   1      42.452  33.652  32.260  1.00  0.00     0.037 A 
BRANCH  48  62
ATOM     62  C   UNL A   1      36.879  32.584  30.146  1.00  0.00     0.064 A 
ATOM     63  C   UNL A   1      36.538  33.349  29.044  1.00  0.00     0.173 A 
ATOM     64  C   UNL A   1      36.008  32.355  31.123  1.00  0.00     0.173 A 
ATOM     65  F   UNL A   1      37.276  33.396  27.938  1.00  0.00    -0.203 F 
ATOM     66  C   UNL A   1      35.336  34.077  29.201  1.00  0.00     0.198 A 
ATOM     67  C   UNL A   1      34.794  32.998  31.141  1.00  0.00     0.198 A 
ATOM     68  F   UNL A   1      36.313  31.496  32.091  1.00  0.00    -0.203 F 
ATOM     69  F   UNL A   1      35.114  35.093  28.372  1.00  0.00    -0.200 F 
ATOM     70  C   UNL A   1      34.416  33.817  30.112  1.00  0.00     0.200 A 
ATOM     71  F   UNL A   1      33.975  32.823  32.174  1.00  0.00    -0.200 F 
ATOM     72  F   UNL A   1      33.189  34.322  30.035  1.00  0.00    -0.200 F 
ENDBRANCH  48  62
BRANCH  49  73
ATOM     73  C   UNL A   1      46.123  29.032  31.007  1.00  0.00     0.064 A 
ATOM     74  C   UNL A   1      46.419  28.300  32.145  1.00  0.00     0.173 A 
ATOM     75  C   UNL A   1      47.030  29.229  30.059  1.00  0.00     0.173 A 
ATOM     76  F   UNL A   1      45.489  27.864  32.990  1.00  0.00    -0.203 F 
ATOM     77  C   UNL A   1      47.801  28.058  32.326  1.00  0.00     0.198 A 
ATOM     78  C   UNL A   1      48.336  28.844  30.249  1.00  0.00     0.198 A 
ATOM     79  F   UNL A   1      46.674  29.805  28.914  1.00  0.00    -0.203 F 
ATOM     80  F   UNL A   1      48.212  27.692  33.538  1.00  0.00    -0.200 F 
ATOM     81  C   UNL A   1      48.712  28.169  31.377  1.00  0.00     0.200 A 
ATOM     82  F   UNL A   1      49.246  29.133  29.324  1.00  0.00    -0.200 F 
ATOM     83  F   UNL A   1      49.930  27.652  31.511  1.00  0.00    -0.200 F 
ENDBRANCH  49  73
BRANCH  61  84
ATOM     84  C   UNL A   1      42.847  34.911  33.014  1.00  0.00     0.064 A 
ATOM     85  C   UNL A   1      42.685  34.968  34.389  1.00  0.00     0.173 A 
ATOM     86  C   UNL A   1      43.300  35.955  32.331  1.00  0.00     0.173 A 
ATOM     87  F   UNL A   1      42.482  33.889  35.140  1.00  0.00    -0.203 F 
ATOM     88  C   UNL A   1      42.756  36.277  34.921  1.00  0.00     0.198 A 
ATOM     89  C   UNL A   1      43.475  37.171  32.946  1.00  0.00     0.198 A 
ATOM     90  F   UNL A   1      43.586  35.823  31.039  1.00  0.00    -0.203 F 
ATOM     91  F   UNL A   1      42.264  36.476  36.141  1.00  0.00    -0.200 F 
ATOM     92  C   UNL A   1      43.275  37.315  34.290  1.00  0.00     0.200 A 
ATOM     93  F   UNL A   1      43.842  38.225  32.222  1.00  0.00    -0.200 F 
ATOM     94  F   UNL A   1      43.587  38.438  34.930  1.00  0.00    -0.200 F 
ENDBRANCH  61  84
ENDBRANCH  35  36
ENDBRANCH  28  30
ENDBRANCH  27  28
ENDBRANCH   1  27
TORSDOF 13
ENDMDL
MODEL 3
REMARK VINA RESULT:     -12.5      1.713      2.334
REMARK SMILES O=C(OCCOC(=O)c1ccc(-c2c3nc(c(-c4c(F)c(F)c(F)c(F)c4F)c4ccc([nH]4)c(-c4c(F)c(F)c(F)c(F)c4F)c4nc(c(-c5c(F)c(F)c(F)c(F)c5F)c5ccc2[nH]5)C=C4)C=C3)cc1)C1=Cc2cc(S(F)(F)(F)(F)F)cc(Br)c2O[C@@H]1C(F)(F)F
REMARK SMILES IDX 5 1 4 2 3 3 2 4 1 5 72 6 73 7 88 8 74 9 87 10 75 11 86 12
REMARK SMILES IDX 76 13 84 14 83 15 85 16 89 17 90 18 91 19 92 20 77 21 78 22
REMARK SMILES IDX 79 23 80 24 81 25 82 26 6 27 7 28 8 29 9 30 10 31 71 32
REMARK SMILES IDX 11 33 70 34 12 35 13 36 14 37 64 38 15 39 69 40 63 41 65 42
REMARK SMILES IDX 16 43 68 44 62 45 61 46 17 48 49 49 29 50 48 51 30 52 33 53
REMARK SMILES IDX 47 54 66 55 31 56 32 57 46 59 67 60 34 61 18 62 19 63 27 64
REMARK SMILES IDX 20 65 21 66 25 67 28 68 22 69 23 70 26 71 24 72 50 73 51 74
REMARK SMILES IDX 59 75 52 76 53 77 57 78 60 79 54 80 55 81 58 82 56 83 35 84
REMARK SMILES IDX 36 85 44 86 37 87 38 88 42 89 45 90 39 91 40 92 43 93 41 94
REMARK H PARENT 65 47 33 58
REMARK Flexibility Score: inf
ROOT
ATOM      1  C   UNL A   1      32.910  28.679  25.034  1.00  0.00     0.275 C 
ENDROOT
BRANCH   1   2
ATOM      2  C   UNL A   1      33.534  28.247  23.717  1.00  0.00     0.275 C 
BRANCH   2   3
ATOM      3  O   UNL A   1      33.789  26.851  23.749  1.00  0.00    -0.459 OA
BRANCH   3   4
ATOM      4  C   UNL A   1      33.156  25.991  22.813  1.00  0.00     0.338 C 
ATOM      5  O   UNL A   1      33.841  25.426  21.904  1.00  0.00    -0.246 OA
BRANCH   4   6
ATOM      6  C   UNL A   1      31.658  25.747  22.898  1.00  0.00     0.087 C 
ATOM      7  C   UNL A   1      31.188  24.547  23.331  1.00  0.00     0.027 C 
ATOM      8  C   UNL A   1      30.685  26.845  22.499  1.00  0.00     0.316 C 
ATOM      9  C   UNL A   1      32.161  23.449  23.731  1.00  0.00     0.020 A 
ATOM     10  O   UNL A   1      33.441  25.123  24.830  1.00  0.00    -0.474 OA
ATOM     11  C   UNL A   1      31.981  22.160  23.257  1.00  0.00     0.036 A 
ATOM     12  C   UNL A   1      33.200  23.764  24.494  1.00  0.00     0.142 A 
ATOM     13  C   UNL A   1      32.807  21.198  23.887  1.00  0.00     0.109 A 
ATOM     14  C   UNL A   1      34.045  22.787  24.963  1.00  0.00     0.062 A 
ATOM     15  C   UNL A   1      33.892  21.482  24.583  1.00  0.00     0.044 A 
ATOM     16  Br  UNL A   1      35.491  23.270  26.196  1.00  0.00    -0.047 Br
BRANCH   8  17
ATOM     17  C   UNL A   1      29.808  27.202  23.688  1.00  0.00     0.430 C 
ATOM     18  F   UNL A   1      30.393  26.791  24.810  1.00  0.00    -0.167 F 
ATOM     19  F   UNL A   1      29.637  28.519  23.734  1.00  0.00    -0.167 F 
ATOM     20  F   UNL A   1      28.625  26.605  23.562  1.00  0.00    -0.167 F 
ENDBRANCH   8  17
BRANCH  13  21
ATOM     21  S   UNL A   1      32.343  19.456  23.725  1.00  0.00     0.310 S 
ATOM     22  F   UNL A   1      33.857  18.981  23.749  1.00  0.00    -0.094 F 
ATOM     23  F   UNL A   1      32.482  19.586  22.161  1.00  0.00    -0.094 F 
ATOM     24  F   UNL A   1      31.941  17.959  23.592  1.00  0.00    -0.094 F 
ATOM     25  F   UNL A   1      32.347  19.308  25.297  1.00  0.00    -0.094 F 
ATOM     26  F   UNL A   1      32.860  20.941  23.878  1.00  0.00    -0.094 F 
ENDBRANCH  13  21
ENDBRANCH   4   6
ENDBRANCH   3   4
ENDBRANCH   2   3
ENDBRANCH   1   2
BRANCH   1  27
ATOM     27  O   UNL A   1      33.093  30.076  25.208  1.00  0.00    -0.458 OA
BRANCH  27  28
ATOM     28  C   UNL A   1      33.101  30.634  26.514  1.00  0.00     0.338 C 
ATOM     29  O   UNL A   1      32.063  31.212  26.965  1.00  0.00    -0.246 OA
BRANCH  28  30
ATOM     30  C   UNL A   1      34.352  30.540  27.372  1.00  0.00     0.060 A 
ATOM     31  C   UNL A   1      35.077  31.684  27.662  1.00  0.00     0.016 A 
ATOM     32  C   UNL A   1      34.771  29.342  27.762  1.00  0.00     0.016 A 
ATOM     33  C   UNL A   1      36.391  31.428  28.124  1.00  0.00     0.010 A 
ATOM     34  C   UNL A   1      36.012  29.186  28.331  1.00  0.00     0.010 A 
ATOM     35  C   UNL A   1      36.807  30.266  28.591  1.00  0.00    -0.014 A 
BRANCH  35  36
ATOM     36  C   UNL A   1      38.101  30.138  29.379  1.00  0.00     0.031 A 
ATOM     37  C   UNL A   1      38.149  30.731  30.642  1.00  0.00     0.074 A 
ATOM     38  C   UNL A   1      39.136  29.402  28.830  1.00  0.00     0.049 A 
ATOM     39  N   UNL A   1      39.142  30.671  31.531  1.00  0.00    -0.248 NA
ATOM     40  C   UNL A   1      37.065  31.542  31.213  1.00  0.00     0.031 C 
ATOM     41  C   UNL A   1      39.092  28.794  27.559  1.00  0.00     0.029 A 
ATOM     42  N   UNL A   1      40.365  29.125  29.386  1.00  0.00    -0.354 N 
ATOM     43  C   UNL A   1      38.814  31.347  32.634  1.00  0.00     0.074 A 
ATOM     44  C   UNL A   1      37.476  31.923  32.443  1.00  0.00     0.031 C 
ATOM     45  C   UNL A   1      40.280  28.170  27.349  1.00  0.00     0.029 A 
ATOM     46  C   UNL A   1      41.087  28.376  28.484  1.00  0.00     0.049 A 
ATOM     47  H   UNL A   1      40.674  29.412  30.275  1.00  0.00     0.167 HD
ATOM     48  C   UNL A   1      39.578  31.505  33.792  1.00  0.00     0.037 A 
ATOM     49  C   UNL A   1      42.379  27.893  28.623  1.00  0.00     0.037 A 
ATOM     50  C   UNL A   1      40.853  30.985  33.948  1.00  0.00     0.049 A 
ATOM     51  C   UNL A   1      43.166  28.100  29.758  1.00  0.00     0.074 A 
ATOM     52  C   UNL A   1      41.633  31.128  35.111  1.00  0.00     0.029 A 
ATOM     53  N   UNL A   1      41.585  30.258  33.035  1.00  0.00    -0.354 N 
ATOM     54  N   UNL A   1      42.823  28.742  30.876  1.00  0.00    -0.248 NA
ATOM     55  C   UNL A   1      44.547  27.621  29.904  1.00  0.00     0.031 C 
ATOM     56  C   UNL A   1      42.822  30.504  34.901  1.00  0.00     0.029 A 
ATOM     57  C   UNL A   1      42.805  29.961  33.602  1.00  0.00     0.049 A 
ATOM     58  H   UNL A   1      41.287  29.995  32.135  1.00  0.00     0.167 HD
ATOM     59  C   UNL A   1      43.832  28.718  31.749  1.00  0.00     0.074 A 
ATOM     60  C   UNL A   1      44.959  28.002  31.134  1.00  0.00     0.031 C 
ATOM     61  C   UNL A   1      43.858  29.261  33.035  1.00  0.00     0.037 A 
BRANCH  48  62
ATOM     62  C   UNL A   1      38.977  32.291  34.946  1.00  0.00     0.064 A 
ATOM     63  C   UNL A   1      39.084  33.672  34.956  1.00  0.00     0.173 A 
ATOM     64  C   UNL A   1      38.393  31.637  35.944  1.00  0.00     0.173 A 
ATOM     65  F   UNL A   1      39.425  34.380  33.883  1.00  0.00    -0.203 F 
ATOM     66  C   UNL A   1      38.798  34.259  36.210  1.00  0.00     0.198 A 
ATOM     67  C   UNL A   1      38.015  32.300  37.086  1.00  0.00     0.198 A 
ATOM     68  F   UNL A   1      38.171  30.331  35.836  1.00  0.00    -0.203 F 
ATOM     69  F   UNL A   1      39.213  35.506  36.419  1.00  0.00    -0.200 F 
ATOM     70  C   UNL A   1      38.147  33.658  37.189  1.00  0.00     0.200 A 
ATOM     71  F   UNL A   1      37.514  31.611  38.108  1.00  0.00    -0.200 F 
ATOM     72  F   UNL A   1      37.646  34.334  38.218  1.00  0.00    -0.200 F 
ENDBRANCH  48  62
BRANCH  49  73
ATOM     73  C   UNL A   1      42.974  27.092  27.476  1.00  0.00     0.064 A 
ATOM     74  C   UNL A   1      42.756  25.725  27.466  1.00  0.00     0.173 A 
ATOM     75  C   UNL A   1      43.667  27.687  26.512  1.00  0.00     0.173 A 
ATOM     76  F   UNL A   1      41.868  25.126  28.254  1.00  0.00    -0.203 F 
ATOM     77  C   UNL A   1      43.564  25.023  26.540  1.00  0.00     0.198 A 
ATOM     78  C   UNL A   1      44.321  26.942  25.560  1.00  0.00     0.198 A 
ATOM     79  F   UNL A   1      43.732  29.014  26.469  1.00  0.00    -0.203 F 
ATOM     80  F   UNL A   1      43.692  23.709  26.703  1.00  0.00    -0.200 F 
ATOM     81  C   UNL A   1      44.198  25.581  25.526  1.00  0.00     0.200 A 
ATOM     82  F   UNL A   1      45.083  27.555  24.659  1.00  0.00    -0.200 F 
ATOM     83  F   UNL A   1      44.692  24.858  24.525  1.00  0.00    -0.200 F 
ENDBRANCH  49  73
BRANCH  61  84
ATOM     84  C   UNL A   1      45.118  29.071  33.864  1.00  0.00     0.064 A 
ATOM     85  C   UNL A   1      45.253  27.945  34.661  1.00  0.00     0.173 A 
ATOM     86  C   UNL A   1      46.050  30.016  33.844  1.00  0.00     0.173 A 
ATOM     87  F   UNL A   1      44.485  26.867  34.528  1.00  0.00    -0.203 F 
ATOM     88  C   UNL A   1      46.282  28.047  35.627  1.00  0.00     0.198 A 
ATOM     89  C   UNL A   1      47.102  29.979  34.727  1.00  0.00     0.198 A 
ATOM     90  F   UNL A   1      45.965  31.006  32.962  1.00  0.00    -0.203 F 
ATOM     91  F   UNL A   1      46.255  27.196  36.649  1.00  0.00    -0.200 F 
ATOM     92  C   UNL A   1      47.265  28.927  35.584  1.00  0.00     0.200 A 
ATOM     93  F   UNL A   1      47.974  30.984  34.750  1.00  0.00    -0.200 F 
ATOM     94  F   UNL A   1      48.355  28.796  36.334  1.00  0.00    -0.200 F 
ENDBRANCH  61  84
ENDBRANCH  35  36
ENDBRANCH  28  30
ENDBRANCH  27  28
ENDBRANCH   1  27
TORSDOF 13
ENDMDL
