MODEL 1
REMARK VINA RESULT:     -10.9      0.000      0.000
REMARK SMILES O=C(OCCOC(=O)[C@]1([NH2+]C2CC2)CCC[C@H](SC[C@H](O)CO)C1)c1ccc(-c2c3nc(c(-c4c(F)c(F)c(F)c(F)c4F)c4ccc([nH]4)c(-c4c(F)c(F)c(F)c(F)c4F)c4nc(c(-c5c(F)c(F)c(F)c(F)c5F)c5ccc2[nH]5)C=C4)C=C3)cc1
REMARK SMILES IDX 6 1 5 2 4 3 3 4 2 5 1 6 25 7 26 8 87 9 27 10 86 11 28 12
REMARK SMILES IDX 29 13 30 14 80 15 31 16 85 17 79 18 81 19 32 20 84 21 78 22
REMARK SMILES IDX 77 23 33 25 65 26 45 27 64 28 46 29 49 30 63 31 82 32 47 33
REMARK SMILES IDX 48 34 62 36 83 37 50 38 34 39 35 40 43 41 36 42 37 43 41 44
REMARK SMILES IDX 44 45 38 46 39 47 42 48 40 49 66 50 67 51 75 52 68 53 69 54
REMARK SMILES IDX 73 55 76 56 70 57 71 58 74 59 72 60 51 61 52 62 60 63 53 64
REMARK SMILES IDX 54 65 58 66 61 67 55 68 56 69 59 70 57 71 7 72 8 73 9 74
REMARK SMILES IDX 14 75 24 76 15 77 17 78 16 79 10 80 11 83 12 84 13 85 18 86
REMARK SMILES IDX 19 87 20 88 22 89 23 90 21 92
REMARK H PARENT 81 24 49 35 10 81 10 82 23 91 21 93
REMARK Flexibility Score: inf
ROOT
ATOM      1  O   UNL A   1      32.351  27.509  26.282  1.00  0.00    -0.457 OA
ENDROOT
BRANCH   1   2
ATOM      2  C   UNL A   1      31.754  28.634  26.912  1.00  0.00     0.274 C 
BRANCH   2   3
ATOM      3  C   UNL A   1      32.215  29.854  26.121  1.00  0.00     0.275 C 
BRANCH   3   4
ATOM      4  O   UNL A   1      32.118  31.085  26.886  1.00  0.00    -0.458 OA
BRANCH   4   5
ATOM      5  C   UNL A   1      33.069  31.922  27.370  1.00  0.00     0.338 C 
ATOM      6  O   UNL A   1      32.813  33.122  27.459  1.00  0.00    -0.246 OA
BRANCH   5   7
ATOM      7  C   UNL A   1      34.424  31.487  27.833  1.00  0.00     0.060 A 
ATOM      8  C   UNL A   1      34.727  30.202  28.272  1.00  0.00     0.016 A 
ATOM      9  C   UNL A   1      35.431  32.473  27.953  1.00  0.00     0.016 A 
ATOM     10  C   UNL A   1      36.031  29.887  28.700  1.00  0.00     0.010 A 
ATOM     11  C   UNL A   1      36.730  32.168  28.414  1.00  0.00     0.010 A 
ATOM     12  C   UNL A   1      37.056  30.857  28.763  1.00  0.00    -0.014 A 
BRANCH  12  13
ATOM     13  C   UNL A   1      38.354  30.458  29.394  1.00  0.00     0.031 A 
ATOM     14  C   UNL A   1      38.552  30.851  30.823  1.00  0.00     0.074 A 
ATOM     15  C   UNL A   1      39.279  29.675  28.801  1.00  0.00     0.049 A 
ATOM     16  N   UNL A   1      39.427  30.423  31.693  1.00  0.00    -0.248 NA
ATOM     17  C   UNL A   1      37.638  31.886  31.331  1.00  0.00     0.031 C 
ATOM     18  C   UNL A   1      39.317  29.335  27.392  1.00  0.00     0.029 A 
ATOM     19  N   UNL A   1      40.344  28.968  29.318  1.00  0.00    -0.354 N 
ATOM     20  C   UNL A   1      39.168  31.134  32.852  1.00  0.00     0.074 A 
ATOM     21  C   UNL A   1      38.043  32.004  32.584  1.00  0.00     0.031 C 
ATOM     22  C   UNL A   1      40.199  28.347  27.179  1.00  0.00     0.029 A 
ATOM     23  C   UNL A   1      40.900  28.070  28.426  1.00  0.00     0.049 A 
ATOM     24  H   UNL A   1      40.677  29.092  30.236  1.00  0.00     0.167 HD
ATOM     25  C   UNL A   1      39.838  31.100  34.026  1.00  0.00     0.037 A 
ATOM     26  C   UNL A   1      41.877  27.153  28.586  1.00  0.00     0.037 A 
ATOM     27  C   UNL A   1      41.028  30.329  34.250  1.00  0.00     0.049 A 
ATOM     28  C   UNL A   1      42.608  27.131  29.903  1.00  0.00     0.074 A 
ATOM     29  C   UNL A   1      41.848  30.307  35.362  1.00  0.00     0.029 A 
ATOM     30  N   UNL A   1      41.591  29.467  33.317  1.00  0.00    -0.354 N 
ATOM     31  N   UNL A   1      42.345  27.794  31.003  1.00  0.00    -0.248 NA
ATOM     32  C   UNL A   1      43.810  26.289  29.982  1.00  0.00     0.031 C 
ATOM     33  C   UNL A   1      42.935  29.469  35.083  1.00  0.00     0.029 A 
ATOM     34  C   UNL A   1      42.758  28.920  33.822  1.00  0.00     0.049 A 
ATOM     35  H   UNL A   1      41.215  29.274  32.428  1.00  0.00     0.167 HD
ATOM     36  C   UNL A   1      43.361  27.475  31.891  1.00  0.00     0.074 A 
ATOM     37  C   UNL A   1      44.212  26.510  31.226  1.00  0.00     0.031 C 
ATOM     38  C   UNL A   1      43.591  27.965  33.135  1.00  0.00     0.037 A 
BRANCH  25  39
ATOM     39  C   UNL A   1      39.338  32.029  35.088  1.00  0.00     0.064 A 
ATOM     40  C   UNL A   1      39.786  33.357  35.172  1.00  0.00     0.173 A 
ATOM     41  C   UNL A   1      38.494  31.551  36.100  1.00  0.00     0.173 A 
ATOM     42  F   UNL A   1      40.629  33.844  34.249  1.00  0.00    -0.203 F 
ATOM     43  C   UNL A   1      39.444  34.156  36.259  1.00  0.00     0.198 A 
ATOM     44  C   UNL A   1      38.132  32.362  37.170  1.00  0.00     0.198 A 
ATOM     45  F   UNL A   1      38.055  30.284  36.071  1.00  0.00    -0.203 F 
ATOM     46  F   UNL A   1      39.952  35.392  36.366  1.00  0.00    -0.200 F 
ATOM     47  C   UNL A   1      38.620  33.658  37.257  1.00  0.00     0.200 A 
ATOM     48  F   UNL A   1      37.340  31.878  38.136  1.00  0.00    -0.200 F 
ATOM     49  F   UNL A   1      38.316  34.418  38.318  1.00  0.00    -0.200 F 
ENDBRANCH  25  39
BRANCH  26  50
ATOM     50  C   UNL A   1      42.273  26.215  27.488  1.00  0.00     0.064 A 
ATOM     51  C   UNL A   1      41.623  24.979  27.326  1.00  0.00     0.173 A 
ATOM     52  C   UNL A   1      43.333  26.494  26.612  1.00  0.00     0.173 A 
ATOM     53  F   UNL A   1      40.626  24.634  28.155  1.00  0.00    -0.203 F 
ATOM     54  C   UNL A   1      42.024  24.064  26.349  1.00  0.00     0.198 A 
ATOM     55  C   UNL A   1      43.705  25.599  25.607  1.00  0.00     0.198 A 
ATOM     56  F   UNL A   1      44.012  27.645  26.724  1.00  0.00    -0.203 F 
ATOM     57  F   UNL A   1      41.421  22.870  26.263  1.00  0.00    -0.200 F 
ATOM     58  C   UNL A   1      43.058  24.380  25.484  1.00  0.00     0.200 A 
ATOM     59  F   UNL A   1      44.696  25.918  24.765  1.00  0.00    -0.200 F 
ATOM     60  F   UNL A   1      43.439  23.507  24.541  1.00  0.00    -0.200 F 
ENDBRANCH  26  50
BRANCH  38  61
ATOM     61  C   UNL A   1      44.806  27.461  33.853  1.00  0.00     0.064 A 
ATOM     62  C   UNL A   1      46.035  28.133  33.777  1.00  0.00     0.173 A 
ATOM     63  C   UNL A   1      44.724  26.324  34.669  1.00  0.00     0.173 A 
ATOM     64  F   UNL A   1      46.167  29.216  32.995  1.00  0.00    -0.203 F 
ATOM     65  C   UNL A   1      47.145  27.673  34.480  1.00  0.00     0.198 A 
ATOM     66  C   UNL A   1      45.828  25.884  35.393  1.00  0.00     0.198 A 
ATOM     67  F   UNL A   1      43.569  25.649  34.775  1.00  0.00    -0.203 F 
ATOM     68  F   UNL A   1      48.321  28.305  34.362  1.00  0.00    -0.200 F 
ATOM     69  C   UNL A   1      47.037  26.555  35.294  1.00  0.00     0.200 A 
ATOM     70  F   UNL A   1      45.720  24.811  36.189  1.00  0.00    -0.200 F 
ATOM     71  F   UNL A   1      48.103  26.120  35.981  1.00  0.00    -0.200 F 
ENDBRANCH  38  61
ENDBRANCH  12  13
ENDBRANCH   5   7
ENDBRANCH   4   5
ENDBRANCH   3   4
ENDBRANCH   2   3
ENDBRANCH   1   2
BRANCH   1  72
ATOM     72  C   UNL A   1      31.563  26.439  25.984  1.00  0.00     0.368 C 
ATOM     73  O   UNL A   1      30.488  26.186  26.511  1.00  0.00    -0.245 OA
BRANCH  72  74
ATOM     74  C   UNL A   1      32.235  25.638  24.842  1.00  0.00     0.195 C 
ATOM     75  C   UNL A   1      33.543  26.254  24.314  1.00  0.00     0.081 C 
ATOM     76  C   UNL A   1      31.225  25.507  23.678  1.00  0.00     0.095 C 
ATOM     77  C   UNL A   1      33.332  27.496  23.447  1.00  0.00     0.008 C 
ATOM     78  C   UNL A   1      31.029  26.698  22.736  1.00  0.00     0.053 C 
ATOM     79  C   UNL A   1      32.387  27.223  22.280  1.00  0.00     0.015 C 
BRANCH  74  80
ATOM     80  N   UNL A   1      32.507  24.243  25.332  1.00  0.00    -0.330 N 
ATOM     81  H   UNL A   1      32.549  24.273  26.351  1.00  0.00     0.347 HD
ATOM     82  H   UNL A   1      33.379  23.961  24.885  1.00  0.00     0.347 HD
BRANCH  80  83
ATOM     83  C   UNL A   1      31.522  23.219  24.955  1.00  0.00     0.183 C 
ATOM     84  C   UNL A   1      31.762  21.801  25.397  1.00  0.00     0.071 C 
ATOM     85  C   UNL A   1      30.671  22.603  26.036  1.00  0.00     0.071 C 
ENDBRANCH  80  83
ENDBRANCH  74  80
BRANCH  78  86
ATOM     86  S   UNL A   1      30.040  28.060  23.475  1.00  0.00    -0.156 SA
BRANCH  86  87
ATOM     87  C   UNL A   1      30.230  29.356  22.202  1.00  0.00     0.104 C 
BRANCH  87  88
ATOM     88  C   UNL A   1      29.013  30.288  22.120  1.00  0.00     0.149 C 
BRANCH  88  89
ATOM     89  C   UNL A   1      28.644  30.978  23.440  1.00  0.00     0.188 C 
BRANCH  89  90
ATOM     90  O   UNL A   1      27.227  31.162  23.502  1.00  0.00    -0.394 OA
ATOM     91  H   UNL A   1      26.964  31.857  22.879  1.00  0.00     0.210 HD
ENDBRANCH  89  90
ENDBRANCH  88  89
BRANCH  88  92
ATOM     92  O   UNL A   1      29.253  31.306  21.127  1.00  0.00    -0.390 OA
ATOM     93  H   UNL A   1      28.856  32.141  21.419  1.00  0.00     0.211 HD
ENDBRANCH  88  92
ENDBRANCH  87  88
ENDBRANCH  86  87
ENDBRANCH  78  86
ENDBRANCH  72  74
ENDBRANCH   1  72
TORSDOF 19
ENDMDL
MODEL 2
REMARK VINA RESULT:     -10.9      4.574      9.794
REMARK SMILES O=C(OCCOC(=O)[C@]1([NH2+]C2CC2)CCC[C@H](SC[C@H](O)CO)C1)c1ccc(-c2c3nc(c(-c4c(F)c(F)c(F)c(F)c4F)c4ccc([nH]4)c(-c4c(F)c(F)c(F)c(F)c4F)c4nc(c(-c5c(F)c(F)c(F)c(F)c5F)c5ccc2[nH]5)C=C4)C=C3)cc1
REMARK SMILES IDX 6 1 5 2 4 3 3 4 2 5 1 6 25 7 26 8 87 9 27 10 86 11 28 12
REMARK SMILES IDX 29 13 30 14 80 15 31 16 85 17 79 18 81 19 32 20 84 21 78 22
REMARK SMILES IDX 77 23 33 25 65 26 45 27 64 28 46 29 49 30 63 31 82 32 47 33
REMARK SMILES IDX 48 34 62 36 83 37 50 38 34 39 35 40 43 41 36 42 37 43 41 44
REMARK SMILES IDX 44 45 38 46 39 47 42 48 40 49 66 50 67 51 75 52 68 53 69 54
REMARK SMILES IDX 73 55 76 56 70 57 71 58 74 59 72 60 51 61 52 62 60 63 53 64
REMARK SMILES IDX 54 65 58 66 61 67 55 68 56 69 59 70 57 71 7 72 8 73 9 74
REMARK SMILES IDX 14 75 24 76 15 77 17 78 16 79 10 80 11 83 12 84 13 85 18 86
REMARK SMILES IDX 19 87 20 88 22 89 23 90 21 92
REMARK H PARENT 81 24 49 35 10 81 10 82 23 91 21 93
REMARK Flexibility Score: inf
ROOT
ATOM      1  O   UNL A   1      35.266  23.043  23.806  1.00  0.00    -0.457 OA
ENDROOT
BRANCH   1   2
ATOM      2  C   UNL A   1      36.676  22.863  23.793  1.00  0.00     0.274 C 
BRANCH   2   3
ATOM      3  C   UNL A   1      36.923  21.439  24.281  1.00  0.00     0.275 C 
BRANCH   3   4
ATOM      4  O   UNL A   1      37.533  21.398  25.599  1.00  0.00    -0.458 OA
BRANCH   4   5
ATOM      5  C   UNL A   1      38.809  21.608  26.006  1.00  0.00     0.338 C 
ATOM      6  O   UNL A   1      39.647  20.728  25.807  1.00  0.00    -0.246 OA
BRANCH   5   7
ATOM      7  C   UNL A   1      39.293  22.858  26.671  1.00  0.00     0.060 A 
ATOM      8  C   UNL A   1      38.777  24.127  26.423  1.00  0.00     0.016 A 
ATOM      9  C   UNL A   1      40.429  22.767  27.509  1.00  0.00     0.016 A 
ATOM     10  C   UNL A   1      39.303  25.250  27.091  1.00  0.00     0.010 A 
ATOM     11  C   UNL A   1      40.980  23.896  28.153  1.00  0.00     0.010 A 
ATOM     12  C   UNL A   1      40.400  25.152  27.975  1.00  0.00    -0.014 A 
BRANCH  12  13
ATOM     13  C   UNL A   1      40.990  26.425  28.496  1.00  0.00     0.031 A 
ATOM     14  C   UNL A   1      42.377  26.755  28.044  1.00  0.00     0.074 A 
ATOM     15  C   UNL A   1      40.313  27.333  29.230  1.00  0.00     0.049 A 
ATOM     16  N   UNL A   1      43.028  27.885  28.103  1.00  0.00    -0.248 NA
ATOM     17  C   UNL A   1      43.136  25.640  27.456  1.00  0.00     0.031 C 
ATOM     18  C   UNL A   1      39.033  27.112  29.873  1.00  0.00     0.029 A 
ATOM     19  N   UNL A   1      40.578  28.656  29.518  1.00  0.00    -0.354 N 
ATOM     20  C   UNL A   1      44.272  27.619  27.558  1.00  0.00     0.074 A 
ATOM     21  C   UNL A   1      44.280  26.230  27.154  1.00  0.00     0.031 C 
ATOM     22  C   UNL A   1      38.522  28.277  30.299  1.00  0.00     0.029 A 
ATOM     23  C   UNL A   1      39.509  29.326  30.084  1.00  0.00     0.049 A 
ATOM     24  H   UNL A   1      41.447  29.082  29.339  1.00  0.00     0.167 HD
ATOM     25  C   UNL A   1      45.335  28.448  27.446  1.00  0.00     0.037 A 
ATOM     26  C   UNL A   1      39.353  30.625  30.413  1.00  0.00     0.037 A 
ATOM     27  C   UNL A   1      45.367  29.788  27.960  1.00  0.00     0.049 A 
ATOM     28  C   UNL A   1      40.549  31.531  30.277  1.00  0.00     0.074 A 
ATOM     29  C   UNL A   1      46.426  30.674  28.000  1.00  0.00     0.029 A 
ATOM     30  N   UNL A   1      44.289  30.422  28.564  1.00  0.00    -0.354 N 
ATOM     31  N   UNL A   1      41.719  31.277  29.743  1.00  0.00    -0.248 NA
ATOM     32  C   UNL A   1      40.431  32.879  30.850  1.00  0.00     0.031 C 
ATOM     33  C   UNL A   1      46.003  31.827  28.673  1.00  0.00     0.029 A 
ATOM     34  C   UNL A   1      44.662  31.683  28.996  1.00  0.00     0.049 A 
ATOM     35  H   UNL A   1      43.391  30.032  28.671  1.00  0.00     0.167 HD
ATOM     36  C   UNL A   1      42.483  32.417  29.940  1.00  0.00     0.074 A 
ATOM     37  C   UNL A   1      41.627  33.388  30.588  1.00  0.00     0.031 C 
ATOM     38  C   UNL A   1      43.789  32.629  29.645  1.00  0.00     0.037 A 
BRANCH  25  39
ATOM     39  C   UNL A   1      46.568  27.847  26.846  1.00  0.00     0.064 A 
ATOM     40  C   UNL A   1      46.760  27.800  25.456  1.00  0.00     0.173 A 
ATOM     41  C   UNL A   1      47.508  27.206  27.666  1.00  0.00     0.173 A 
ATOM     42  F   UNL A   1      45.864  28.362  24.632  1.00  0.00    -0.203 F 
ATOM     43  C   UNL A   1      47.825  27.090  24.909  1.00  0.00     0.198 A 
ATOM     44  C   UNL A   1      48.586  26.521  27.115  1.00  0.00     0.198 A 
ATOM     45  F   UNL A   1      47.356  27.209  28.999  1.00  0.00    -0.203 F 
ATOM     46  F   UNL A   1      47.943  26.983  23.578  1.00  0.00    -0.200 F 
ATOM     47  C   UNL A   1      48.735  26.450  25.738  1.00  0.00     0.200 A 
ATOM     48  F   UNL A   1      49.461  25.900  27.917  1.00  0.00    -0.200 F 
ATOM     49  F   UNL A   1      49.742  25.742  25.209  1.00  0.00    -0.200 F 
ENDBRANCH  25  39
BRANCH  26  50
ATOM     50  C   UNL A   1      38.060  31.159  30.949  1.00  0.00     0.064 A 
ATOM     51  C   UNL A   1      37.027  31.551  30.079  1.00  0.00     0.173 A 
ATOM     52  C   UNL A   1      37.838  31.342  32.321  1.00  0.00     0.173 A 
ATOM     53  F   UNL A   1      37.190  31.437  28.752  1.00  0.00    -0.203 F 
ATOM     54  C   UNL A   1      35.841  32.112  30.559  1.00  0.00     0.198 A 
ATOM     55  C   UNL A   1      36.635  31.862  32.804  1.00  0.00     0.198 A 
ATOM     56  F   UNL A   1      38.789  31.011  33.206  1.00  0.00    -0.203 F 
ATOM     57  F   UNL A   1      34.903  32.531  29.699  1.00  0.00    -0.200 F 
ATOM     58  C   UNL A   1      35.642  32.257  31.922  1.00  0.00     0.200 A 
ATOM     59  F   UNL A   1      36.445  31.985  34.124  1.00  0.00    -0.200 F 
ATOM     60  F   UNL A   1      34.502  32.788  32.385  1.00  0.00    -0.200 F 
ENDBRANCH  26  50
BRANCH  38  61
ATOM     61  C   UNL A   1      44.366  33.961  30.018  1.00  0.00     0.064 A 
ATOM     62  C   UNL A   1      45.006  34.166  31.250  1.00  0.00     0.173 A 
ATOM     63  C   UNL A   1      44.323  35.029  29.110  1.00  0.00     0.173 A 
ATOM     64  F   UNL A   1      45.058  33.179  32.158  1.00  0.00    -0.203 F 
ATOM     65  C   UNL A   1      45.569  35.399  31.565  1.00  0.00     0.198 A 
ATOM     66  C   UNL A   1      44.912  36.252  29.417  1.00  0.00     0.198 A 
ATOM     67  F   UNL A   1      43.723  34.880  27.920  1.00  0.00    -0.203 F 
ATOM     68  F   UNL A   1      46.141  35.587  32.762  1.00  0.00    -0.200 F 
ATOM     69  C   UNL A   1      45.530  36.437  30.645  1.00  0.00     0.200 A 
ATOM     70  F   UNL A   1      44.885  37.249  28.524  1.00  0.00    -0.200 F 
ATOM     71  F   UNL A   1      46.083  37.620  30.945  1.00  0.00    -0.200 F 
ENDBRANCH  38  61
ENDBRANCH  12  13
ENDBRANCH   5   7
ENDBRANCH   4   5
ENDBRANCH   3   4
ENDBRANCH   2   3
ENDBRANCH   1   2
BRANCH   1  72
ATOM     72  C   UNL A   1      34.697  23.621  24.899  1.00  0.00     0.368 C 
ATOM     73  O   UNL A   1      35.236  23.755  25.989  1.00  0.00    -0.245 OA
BRANCH  72  74
ATOM     74  C   UNL A   1      33.282  24.116  24.512  1.00  0.00     0.195 C 
ATOM     75  C   UNL A   1      32.491  24.755  25.668  1.00  0.00     0.081 C 
ATOM     76  C   UNL A   1      32.484  22.919  23.944  1.00  0.00     0.095 C 
ATOM     77  C   UNL A   1      31.961  23.741  26.683  1.00  0.00     0.008 C 
ATOM     78  C   UNL A   1      31.871  21.913  24.924  1.00  0.00     0.053 C 
ATOM     79  C   UNL A   1      31.115  22.657  26.021  1.00  0.00     0.015 C 
BRANCH  74  80
ATOM     80  N   UNL A   1      33.413  25.112  23.392  1.00  0.00    -0.330 N 
ATOM     81  H   UNL A   1      34.313  24.953  22.939  1.00  0.00     0.347 HD
ATOM     82  H   UNL A   1      33.319  26.028  23.830  1.00  0.00     0.347 HD
BRANCH  80  83
ATOM     83  C   UNL A   1      32.374  25.062  22.355  1.00  0.00     0.183 C 
ATOM     84  C   UNL A   1      31.774  26.359  21.883  1.00  0.00     0.071 C 
ATOM     85  C   UNL A   1      32.696  25.595  20.983  1.00  0.00     0.071 C 
ENDBRANCH  80  83
ENDBRANCH  74  80
BRANCH  78  86
ATOM     86  S   UNL A   1      33.105  20.772  25.667  1.00  0.00    -0.156 SA
BRANCH  86  87
ATOM     87  C   UNL A   1      33.044  19.379  24.487  1.00  0.00     0.104 C 
BRANCH  87  88
ATOM     88  C   UNL A   1      32.757  18.035  25.172  1.00  0.00     0.149 C 
BRANCH  88  89
ATOM     89  C   UNL A   1      33.749  16.917  24.828  1.00  0.00     0.188 C 
BRANCH  89  90
ATOM     90  O   UNL A   1      35.080  17.356  25.116  1.00  0.00    -0.394 OA
ATOM     91  H   UNL A   1      35.392  16.930  25.930  1.00  0.00     0.210 HD
ENDBRANCH  89  90
ENDBRANCH  88  89
BRANCH  88  92
ATOM     92  O   UNL A   1      32.753  18.215  26.602  1.00  0.00    -0.390 OA
ATOM     93  H   UNL A   1      31.841  18.182  26.930  1.00  0.00     0.211 HD
ENDBRANCH  88  92
ENDBRANCH  87  88
ENDBRANCH  86  87
ENDBRANCH  78  86
ENDBRANCH  72  74
ENDBRANCH   1  72
TORSDOF 19
ENDMDL
MODEL 3
REMARK VINA RESULT:     -10.8      0.696      1.821
REMARK SMILES O=C(OCCOC(=O)[C@]1([NH2+]C2CC2)CCC[C@H](SC[C@H](O)CO)C1)c1ccc(-c2c3nc(c(-c4c(F)c(F)c(F)c(F)c4F)c4ccc([nH]4)c(-c4c(F)c(F)c(F)c(F)c4F)c4nc(c(-c5c(F)c(F)c(F)c(F)c5F)c5ccc2[nH]5)C=C4)C=C3)cc1
REMARK SMILES IDX 6 1 5 2 4 3 3 4 2 5 1 6 25 7 26 8 87 9 27 10 86 11 28 12
REMARK SMILES IDX 29 13 30 14 80 15 31 16 85 17 79 18 81 19 32 20 84 21 78 22
REMARK SMILES IDX 77 23 33 25 65 26 45 27 64 28 46 29 49 30 63 31 82 32 47 33
REMARK SMILES IDX 48 34 62 36 83 37 50 38 34 39 35 40 43 41 36 42 37 43 41 44
REMARK SMILES IDX 44 45 38 46 39 47 42 48 40 49 66 50 67 51 75 52 68 53 69 54
REMARK SMILES IDX 73 55 76 56 70 57 71 58 74 59 72 60 51 61 52 62 60 63 53 64
REMARK SMILES IDX 54 65 58 66 61 67 55 68 56 69 59 70 57 71 7 72 8 73 9 74
REMARK SMILES IDX 14 75 24 76 15 77 17 78 16 79 10 80 11 83 12 84 13 85 18 86
REMARK SMILES IDX 19 87 20 88 22 89 23 90 21 92
REMARK H PARENT 81 24 49 35 10 81 10 82 23 91 21 93
REMARK Flexibility Score: inf
ROOT
ATOM      1  O   UNL A   1      31.548  27.721  26.360  1.00  0.00    -0.457 OA
ENDROOT
BRANCH   1   2
ATOM      2  C   UNL A   1      31.857  28.659  27.382  1.00  0.00     0.274 C 
BRANCH   2   3
ATOM      3  C   UNL A   1      31.507  30.031  26.816  1.00  0.00     0.275 C 
BRANCH   3   4
ATOM      4  O   UNL A   1      32.684  30.823  26.502  1.00  0.00    -0.458 OA
BRANCH   4   5
ATOM      5  C   UNL A   1      33.489  31.586  27.282  1.00  0.00     0.338 C 
ATOM      6  O   UNL A   1      33.085  32.689  27.650  1.00  0.00    -0.246 OA
BRANCH   5   7
ATOM      7  C   UNL A   1      34.847  31.174  27.758  1.00  0.00     0.060 A 
ATOM      8  C   UNL A   1      35.201  29.866  28.077  1.00  0.00     0.016 A 
ATOM      9  C   UNL A   1      35.794  32.191  28.022  1.00  0.00     0.016 A 
ATOM     10  C   UNL A   1      36.504  29.574  28.527  1.00  0.00     0.010 A 
ATOM     11  C   UNL A   1      37.088  31.905  28.506  1.00  0.00     0.010 A 
ATOM     12  C   UNL A   1      37.471  30.583  28.735  1.00  0.00    -0.014 A 
BRANCH  12  13
ATOM     13  C   UNL A   1      38.763  30.186  29.378  1.00  0.00     0.031 A 
ATOM     14  C   UNL A   1      38.954  30.595  30.804  1.00  0.00     0.074 A 
ATOM     15  C   UNL A   1      39.688  29.392  28.800  1.00  0.00     0.049 A 
ATOM     16  N   UNL A   1      39.821  30.173  31.684  1.00  0.00    -0.248 NA
ATOM     17  C   UNL A   1      38.041  31.639  31.294  1.00  0.00     0.031 C 
ATOM     18  C   UNL A   1      39.735  29.036  27.396  1.00  0.00     0.029 A 
ATOM     19  N   UNL A   1      40.748  28.687  29.333  1.00  0.00    -0.354 N 
ATOM     20  C   UNL A   1      39.558  30.898  32.834  1.00  0.00     0.074 A 
ATOM     21  C   UNL A   1      38.438  31.770  32.548  1.00  0.00     0.031 C 
ATOM     22  C   UNL A   1      40.614  28.041  27.200  1.00  0.00     0.029 A 
ATOM     23  C   UNL A   1      41.305  27.777  28.454  1.00  0.00     0.049 A 
ATOM     24  H   UNL A   1      41.075  28.820  30.251  1.00  0.00     0.167 HD
ATOM     25  C   UNL A   1      40.221  30.876  34.013  1.00  0.00     0.037 A 
ATOM     26  C   UNL A   1      42.277  26.857  28.631  1.00  0.00     0.037 A 
ATOM     27  C   UNL A   1      41.406  30.102  34.252  1.00  0.00     0.049 A 
ATOM     28  C   UNL A   1      43.000  26.847  29.953  1.00  0.00     0.074 A 
ATOM     29  C   UNL A   1      42.219  30.090  35.370  1.00  0.00     0.029 A 
ATOM     30  N   UNL A   1      41.971  29.227  33.334  1.00  0.00    -0.354 N 
ATOM     31  N   UNL A   1      42.733  27.525  31.043  1.00  0.00    -0.248 NA
ATOM     32  C   UNL A   1      44.198  26.001  30.050  1.00  0.00     0.031 C 
ATOM     33  C   UNL A   1      43.303  29.244  35.108  1.00  0.00     0.029 A 
ATOM     34  C   UNL A   1      43.133  28.681  33.852  1.00  0.00     0.049 A 
ATOM     35  H   UNL A   1      41.600  29.025  32.445  1.00  0.00     0.167 HD
ATOM     36  C   UNL A   1      43.742  27.212  31.942  1.00  0.00     0.074 A 
ATOM     37  C   UNL A   1      44.592  26.235  31.294  1.00  0.00     0.031 C 
ATOM     38  C   UNL A   1      43.966  27.714  33.181  1.00  0.00     0.037 A 
BRANCH  25  39
ATOM     39  C   UNL A   1      39.717  31.819  35.060  1.00  0.00     0.064 A 
ATOM     40  C   UNL A   1      40.271  33.099  35.221  1.00  0.00     0.173 A 
ATOM     41  C   UNL A   1      38.755  31.393  35.986  1.00  0.00     0.173 A 
ATOM     42  F   UNL A   1      41.226  33.532  34.384  1.00  0.00    -0.203 F 
ATOM     43  C   UNL A   1      39.911  33.898  36.303  1.00  0.00     0.198 A 
ATOM     44  C   UNL A   1      38.379  32.207  37.049  1.00  0.00     0.198 A 
ATOM     45  F   UNL A   1      38.212  30.171  35.882  1.00  0.00    -0.203 F 
ATOM     46  F   UNL A   1      40.514  35.081  36.489  1.00  0.00    -0.200 F 
ATOM     47  C   UNL A   1      38.968  33.451  37.216  1.00  0.00     0.200 A 
ATOM     48  F   UNL A   1      37.471  31.771  37.933  1.00  0.00    -0.200 F 
ATOM     49  F   UNL A   1      38.645  34.209  38.273  1.00  0.00    -0.200 F 
ENDBRANCH  25  39
BRANCH  26  50
ATOM     50  C   UNL A   1      42.677  25.905  27.547  1.00  0.00     0.064 A 
ATOM     51  C   UNL A   1      43.703  26.231  26.643  1.00  0.00     0.173 A 
ATOM     52  C   UNL A   1      42.021  24.681  27.347  1.00  0.00     0.173 A 
ATOM     53  F   UNL A   1      44.345  27.404  26.755  1.00  0.00    -0.203 F 
ATOM     54  C   UNL A   1      44.044  25.383  25.587  1.00  0.00     0.198 A 
ATOM     55  C   UNL A   1      42.391  23.814  26.317  1.00  0.00     0.198 A 
ATOM     56  F   UNL A   1      41.017  24.316  28.158  1.00  0.00    -0.203 F 
ATOM     57  F   UNL A   1      44.986  25.754  24.708  1.00  0.00    -0.200 F 
ATOM     58  C   UNL A   1      43.394  24.170  25.431  1.00  0.00     0.200 A 
ATOM     59  F   UNL A   1      41.767  22.635  26.183  1.00  0.00    -0.200 F 
ATOM     60  F   UNL A   1      43.724  23.352  24.422  1.00  0.00    -0.200 F 
ENDBRANCH  26  50
BRANCH  38  61
ATOM     61  C   UNL A   1      45.174  27.214  33.913  1.00  0.00     0.064 A 
ATOM     62  C   UNL A   1      45.119  26.073  34.727  1.00  0.00     0.173 A 
ATOM     63  C   UNL A   1      46.411  27.855  33.756  1.00  0.00     0.173 A 
ATOM     64  F   UNL A   1      43.955  25.436  34.922  1.00  0.00    -0.203 F 
ATOM     65  C   UNL A   1      46.259  25.600  35.371  1.00  0.00     0.198 A 
ATOM     66  C   UNL A   1      47.554  27.363  34.378  1.00  0.00     0.198 A 
ATOM     67  F   UNL A   1      46.512  28.949  32.987  1.00  0.00    -0.203 F 
ATOM     68  F   UNL A   1      46.179  24.532  36.176  1.00  0.00    -0.200 F 
ATOM     69  C   UNL A   1      47.477  26.240  35.188  1.00  0.00     0.200 A 
ATOM     70  F   UNL A   1      48.732  27.974  34.191  1.00  0.00    -0.200 F 
ATOM     71  F   UNL A   1      48.576  25.776  35.799  1.00  0.00    -0.200 F 
ENDBRANCH  38  61
ENDBRANCH  12  13
ENDBRANCH   5   7
ENDBRANCH   4   5
ENDBRANCH   3   4
ENDBRANCH   2   3
ENDBRANCH   1   2
BRANCH   1  72
ATOM     72  C   UNL A   1      32.563  27.237  25.595  1.00  0.00     0.368 C 
ATOM     73  O   UNL A   1      33.694  27.702  25.546  1.00  0.00    -0.245 OA
BRANCH  72  74
ATOM     74  C   UNL A   1      32.057  25.981  24.844  1.00  0.00     0.195 C 
ATOM     75  C   UNL A   1      32.999  25.478  23.735  1.00  0.00     0.081 C 
ATOM     76  C   UNL A   1      30.673  26.302  24.234  1.00  0.00     0.095 C 
ATOM     77  C   UNL A   1      32.989  26.350  22.478  1.00  0.00     0.008 C 
ATOM     78  C   UNL A   1      30.611  27.111  22.935  1.00  0.00     0.053 C 
ATOM     79  C   UNL A   1      31.582  26.524  21.915  1.00  0.00     0.015 C 
BRANCH  74  80
ATOM     80  N   UNL A   1      31.839  24.880  25.845  1.00  0.00    -0.330 N 
ATOM     81  H   UNL A   1      31.494  25.306  26.705  1.00  0.00     0.347 HD
ATOM     82  H   UNL A   1      32.741  24.415  25.940  1.00  0.00     0.347 HD
BRANCH  80  83
ATOM     83  C   UNL A   1      30.891  23.827  25.455  1.00  0.00     0.183 C 
ATOM     84  C   UNL A   1      31.423  22.438  25.228  1.00  0.00     0.071 C 
ATOM     85  C   UNL A   1      30.589  22.726  26.438  1.00  0.00     0.071 C 
ENDBRANCH  80  83
ENDBRANCH  74  80
BRANCH  78  86
ATOM     86  S   UNL A   1      30.950  28.902  23.173  1.00  0.00    -0.156 SA
BRANCH  86  87
ATOM     87  C   UNL A   1      29.738  29.640  22.022  1.00  0.00     0.104 C 
BRANCH  87  88
ATOM     88  C   UNL A   1      28.495  30.184  22.740  1.00  0.00     0.149 C 
BRANCH  88  89
ATOM     89  C   UNL A   1      28.209  31.670  22.489  1.00  0.00     0.188 C 
BRANCH  89  90
ATOM     90  O   UNL A   1      29.432  32.344  22.176  1.00  0.00    -0.394 OA
ATOM     91  H   UNL A   1      29.788  32.756  22.979  1.00  0.00     0.210 HD
ENDBRANCH  89  90
ENDBRANCH  88  89
BRANCH  88  92
ATOM     92  O   UNL A   1      27.337  29.425  22.339  1.00  0.00    -0.390 OA
ATOM     93  H   UNL A   1      26.728  29.343  23.089  1.00  0.00     0.211 HD
ENDBRANCH  88  92
ENDBRANCH  87  88
ENDBRANCH  86  87
ENDBRANCH  78  86
ENDBRANCH  72  74
ENDBRANCH   1  72
TORSDOF 19
ENDMDL
