MODEL 1
REMARK VINA RESULT:     -13.0      0.000      0.000
REMARK SMILES O=C(NCc1ccc(C(=O)OCCOC(=O)c2ccc(-c3c4nc(c(-c5c(F)c(F)c(F)c(F)c5F)c5ccc([nH]5)c(-c5c(F)c(F)c(F)c(F)c5F)c5nc(c(-c6c(F)c(F)c(F)c(F)c6F)c6ccc3[nH]6)C=C5)C=C4)cc2)o1)Nc1ccc(F)c(Cl)c1
REMARK SMILES IDX 12 1 11 2 9 3 10 4 8 5 5 6 6 7 80 8 7 9 4 10 3 11 1 12 2 13
REMARK SMILES IDX 81 14 82 17 83 18 89 19 84 20 87 21 85 22 88 23 86 24 13 25
REMARK SMILES IDX 14 26 15 27 16 28 17 29 18 30 79 31 19 32 78 33 20 34 21 35
REMARK SMILES IDX 22 36 72 37 23 38 77 39 71 40 73 41 24 42 76 43 70 44 69 45
REMARK SMILES IDX 25 47 57 48 37 49 56 50 38 51 41 52 55 53 74 54 39 55 40 56
REMARK SMILES IDX 54 58 75 59 42 60 26 61 27 62 35 63 28 64 29 65 33 66 36 67
REMARK SMILES IDX 30 68 31 69 34 70 32 71 58 72 59 73 67 74 60 75 61 76 65 77
REMARK SMILES IDX 68 78 62 79 63 80 66 81 64 82 43 83 44 84 52 85 45 86 46 87
REMARK SMILES IDX 50 88 53 89 47 90 48 91 51 92 49 93
REMARK H PARENT 3 15 81 16 73 46 41 57
REMARK Flexibility Score: inf
ROOT
ATOM      1  C   UNL A   1      44.953  21.109  24.614  1.00  0.00     0.275 C 
ENDROOT
BRANCH   1   2
ATOM      2  O   UNL A   1      43.918  20.184  24.235  1.00  0.00    -0.456 OA
BRANCH   2   3
ATOM      3  C   UNL A   1      43.640  19.207  25.147  1.00  0.00     0.374 C 
ATOM      4  O   UNL A   1      44.215  18.124  25.197  1.00  0.00    -0.242 OA
BRANCH   3   5
ATOM      5  C   UNL A   1      42.674  19.684  26.108  1.00  0.00     0.211 A 
ATOM      6  C   UNL A   1      40.978  20.967  26.707  1.00  0.00     0.124 A 
ATOM      7  C   UNL A   1      41.156  20.060  27.730  1.00  0.00     0.048 A 
ATOM      8  O   UNL A   1      41.936  20.782  25.759  1.00  0.00    -0.452 OA
ATOM      9  C   UNL A   1      42.238  19.227  27.340  1.00  0.00     0.058 A 
BRANCH   6  10
ATOM     10  C   UNL A   1      39.992  22.037  26.425  1.00  0.00     0.193 C 
BRANCH  10  11
ATOM     11  N   UNL A   1      39.032  21.520  25.481  1.00  0.00    -0.331 N 
ATOM     12  O   UNL A   1      37.076  21.038  24.582  1.00  0.00    -0.248 OA
ATOM     13  C   UNL A   1      37.704  21.757  25.353  1.00  0.00     0.319 C 
ATOM     14  N   UNL A   1      37.192  22.813  26.056  1.00  0.00    -0.308 N 
ATOM     15  H   UNL A   1      39.402  20.891  24.821  1.00  0.00     0.165 HD
ATOM     16  H   UNL A   1      37.819  23.359  26.585  1.00  0.00     0.171 HD
BRANCH  14  17
ATOM     17  C   UNL A   1      35.829  23.176  26.078  1.00  0.00     0.044 A 
ATOM     18  C   UNL A   1      34.942  22.343  26.773  1.00  0.00     0.029 A 
ATOM     19  C   UNL A   1      35.354  24.352  25.484  1.00  0.00     0.049 A 
ATOM     20  C   UNL A   1      33.632  22.759  27.002  1.00  0.00     0.043 A 
ATOM     21  C   UNL A   1      34.039  24.754  25.696  1.00  0.00     0.078 A 
ATOM     22  C   UNL A   1      33.211  23.983  26.502  1.00  0.00     0.141 A 
ATOM     23  Cl  UNL A   1      33.457  26.202  24.967  1.00  0.00    -0.081 Cl
ATOM     24  F   UNL A   1      31.997  24.427  26.841  1.00  0.00    -0.205 F 
ENDBRANCH  14  17
ENDBRANCH  10  11
ENDBRANCH   6  10
ENDBRANCH   3   5
ENDBRANCH   2   3
ENDBRANCH   1   2
BRANCH   1  25
ATOM     25  C   UNL A   1      44.771  22.474  23.936  1.00  0.00     0.275 C 
BRANCH  25  26
ATOM     26  O   UNL A   1      43.945  23.369  24.710  1.00  0.00    -0.458 OA
BRANCH  26  27
ATOM     27  C   UNL A   1      44.535  24.533  25.071  1.00  0.00     0.338 C 
ATOM     28  O   UNL A   1      45.575  24.993  24.626  1.00  0.00    -0.246 OA
BRANCH  27  29
ATOM     29  C   UNL A   1      43.693  25.279  26.026  1.00  0.00     0.060 A 
ATOM     30  C   UNL A   1      44.068  26.589  26.327  1.00  0.00     0.016 A 
ATOM     31  C   UNL A   1      42.630  24.682  26.708  1.00  0.00     0.016 A 
ATOM     32  C   UNL A   1      43.416  27.303  27.327  1.00  0.00     0.010 A 
ATOM     33  C   UNL A   1      41.972  25.400  27.718  1.00  0.00     0.010 A 
ATOM     34  C   UNL A   1      42.381  26.704  28.055  1.00  0.00    -0.014 A 
BRANCH  34  35
ATOM     35  C   UNL A   1      41.825  27.426  29.229  1.00  0.00     0.031 A 
ATOM     36  C   UNL A   1      42.517  27.308  30.559  1.00  0.00     0.074 A 
ATOM     37  C   UNL A   1      40.755  28.232  29.087  1.00  0.00     0.049 A 
ATOM     38  N   UNL A   1      42.253  27.914  31.688  1.00  0.00    -0.248 NA
ATOM     39  C   UNL A   1      43.671  26.397  30.626  1.00  0.00     0.031 C 
ATOM     40  C   UNL A   1      40.043  28.454  27.832  1.00  0.00     0.029 A 
ATOM     41  N   UNL A   1      40.086  29.018  29.995  1.00  0.00    -0.354 N 
ATOM     42  C   UNL A   1      43.187  27.443  32.601  1.00  0.00     0.074 A 
ATOM     43  C   UNL A   1      44.021  26.489  31.901  1.00  0.00     0.031 C 
ATOM     44  C   UNL A   1      39.040  29.320  28.046  1.00  0.00     0.029 A 
ATOM     45  C   UNL A   1      39.006  29.686  29.461  1.00  0.00     0.049 A 
ATOM     46  H   UNL A   1      40.354  29.096  30.939  1.00  0.00     0.167 HD
ATOM     47  C   UNL A   1      43.341  27.784  33.902  1.00  0.00     0.037 A 
ATOM     48  C   UNL A   1      38.095  30.492  30.052  1.00  0.00     0.037 A 
ATOM     49  C   UNL A   1      42.527  28.756  34.581  1.00  0.00     0.049 A 
ATOM     50  C   UNL A   1      38.289  30.821  31.516  1.00  0.00     0.074 A 
ATOM     51  C   UNL A   1      42.624  29.204  35.887  1.00  0.00     0.029 A 
ATOM     52  N   UNL A   1      41.459  29.429  34.004  1.00  0.00    -0.354 N 
ATOM     53  N   UNL A   1      39.274  30.488  32.319  1.00  0.00    -0.248 NA
ATOM     54  C   UNL A   1      37.267  31.663  32.151  1.00  0.00     0.031 C 
ATOM     55  C   UNL A   1      41.591  30.121  36.111  1.00  0.00     0.029 A 
ATOM     56  C   UNL A   1      40.872  30.269  34.935  1.00  0.00     0.049 A 
ATOM     57  H   UNL A   1      41.163  29.323  33.072  1.00  0.00     0.167 HD
ATOM     58  C   UNL A   1      39.025  31.139  33.522  1.00  0.00     0.074 A 
ATOM     59  C   UNL A   1      37.815  31.910  33.331  1.00  0.00     0.031 C 
ATOM     60  C   UNL A   1      39.720  31.097  34.686  1.00  0.00     0.037 A 
BRANCH  47  61
ATOM     61  C   UNL A   1      44.414  27.085  34.683  1.00  0.00     0.064 A 
ATOM     62  C   UNL A   1      45.696  27.634  34.833  1.00  0.00     0.173 A 
ATOM     63  C   UNL A   1      44.144  25.864  35.320  1.00  0.00     0.173 A 
ATOM     64  F   UNL A   1      46.009  28.792  34.232  1.00  0.00    -0.203 F 
ATOM     65  C   UNL A   1      46.675  26.975  35.574  1.00  0.00     0.198 A 
ATOM     66  C   UNL A   1      45.116  25.220  36.079  1.00  0.00     0.198 A 
ATOM     67  F   UNL A   1      42.932  25.298  35.209  1.00  0.00    -0.203 F 
ATOM     68  F   UNL A   1      47.905  27.498  35.672  1.00  0.00    -0.200 F 
ATOM     69  C   UNL A   1      46.383  25.772  36.201  1.00  0.00     0.200 A 
ATOM     70  F   UNL A   1      44.830  24.062  36.690  1.00  0.00    -0.200 F 
ATOM     71  F   UNL A   1      47.324  25.142  36.917  1.00  0.00    -0.200 F 
ENDBRANCH  47  61
BRANCH  48  72
ATOM     72  C   UNL A   1      36.971  31.083  29.254  1.00  0.00     0.064 A 
ATOM     73  C   UNL A   1      35.888  30.310  28.801  1.00  0.00     0.173 A 
ATOM     74  C   UNL A   1      36.939  32.450  28.929  1.00  0.00     0.173 A 
ATOM     75  F   UNL A   1      35.906  28.978  28.943  1.00  0.00    -0.203 F 
ATOM     76  C   UNL A   1      34.803  30.876  28.132  1.00  0.00     0.198 A 
ATOM     77  C   UNL A   1      35.846  33.022  28.275  1.00  0.00     0.198 A 
ATOM     78  F   UNL A   1      37.968  33.244  29.258  1.00  0.00    -0.203 F 
ATOM     79  F   UNL A   1      33.801  30.095  27.705  1.00  0.00    -0.200 F 
ATOM     80  C   UNL A   1      34.773  32.237  27.887  1.00  0.00     0.200 A 
ATOM     81  F   UNL A   1      35.837  34.338  28.020  1.00  0.00    -0.200 F 
ATOM     82  F   UNL A   1      33.729  32.785  27.251  1.00  0.00    -0.200 F 
ENDBRANCH  48  72
BRANCH  60  83
ATOM     83  C   UNL A   1      39.241  31.980  35.804  1.00  0.00     0.064 A 
ATOM     84  C   UNL A   1      39.709  33.293  35.960  1.00  0.00     0.173 A 
ATOM     85  C   UNL A   1      38.288  31.509  36.720  1.00  0.00     0.173 A 
ATOM     86  F   UNL A   1      40.625  33.788  35.115  1.00  0.00    -0.203 F 
ATOM     87  C   UNL A   1      39.273  34.087  37.017  1.00  0.00     0.198 A 
ATOM     88  C   UNL A   1      37.829  32.318  37.756  1.00  0.00     0.198 A 
ATOM     89  F   UNL A   1      37.795  30.266  36.606  1.00  0.00    -0.203 F 
ATOM     90  F   UNL A   1      39.781  35.316  37.182  1.00  0.00    -0.200 F 
ATOM     91  C   UNL A   1      38.331  33.601  37.911  1.00  0.00     0.200 A 
ATOM     92  F   UNL A   1      36.904  31.854  38.609  1.00  0.00    -0.200 F 
ATOM     93  F   UNL A   1      37.913  34.367  38.928  1.00  0.00    -0.200 F 
ENDBRANCH  60  83
ENDBRANCH  34  35
ENDBRANCH  27  29
ENDBRANCH  26  27
ENDBRANCH  25  26
ENDBRANCH   1  25
TORSDOF 14
ENDMDL
MODEL 2
REMARK VINA RESULT:     -12.5      5.151     10.181
REMARK SMILES O=C(NCc1ccc(C(=O)OCCOC(=O)c2ccc(-c3c4nc(c(-c5c(F)c(F)c(F)c(F)c5F)c5ccc([nH]5)c(-c5c(F)c(F)c(F)c(F)c5F)c5nc(c(-c6c(F)c(F)c(F)c(F)c6F)c6ccc3[nH]6)C=C5)C=C4)cc2)o1)Nc1ccc(F)c(Cl)c1
REMARK SMILES IDX 12 1 11 2 9 3 10 4 8 5 5 6 6 7 80 8 7 9 4 10 3 11 1 12 2 13
REMARK SMILES IDX 81 14 82 17 83 18 89 19 84 20 87 21 85 22 88 23 86 24 13 25
REMARK SMILES IDX 14 26 15 27 16 28 17 29 18 30 79 31 19 32 78 33 20 34 21 35
REMARK SMILES IDX 22 36 72 37 23 38 77 39 71 40 73 41 24 42 76 43 70 44 69 45
REMARK SMILES IDX 25 47 57 48 37 49 56 50 38 51 41 52 55 53 74 54 39 55 40 56
REMARK SMILES IDX 54 58 75 59 42 60 26 61 27 62 35 63 28 64 29 65 33 66 36 67
REMARK SMILES IDX 30 68 31 69 34 70 32 71 58 72 59 73 67 74 60 75 61 76 65 77
REMARK SMILES IDX 68 78 62 79 63 80 66 81 64 82 43 83 44 84 52 85 45 86 46 87
REMARK SMILES IDX 50 88 53 89 47 90 48 91 51 92 49 93
REMARK H PARENT 3 15 81 16 73 46 41 57
REMARK Flexibility Score: inf
ROOT
ATOM      1  C   UNL A   1      33.802  35.901  28.747  1.00  0.00     0.275 C 
ENDROOT
BRANCH   1   2
ATOM      2  O   UNL A   1      34.202  34.535  28.963  1.00  0.00    -0.456 OA
BRANCH   2   3
ATOM      3  C   UNL A   1      33.550  33.604  28.207  1.00  0.00     0.374 C 
ATOM      4  O   UNL A   1      32.478  33.801  27.643  1.00  0.00    -0.242 OA
BRANCH   3   5
ATOM      5  C   UNL A   1      34.361  32.418  28.070  1.00  0.00     0.211 A 
ATOM      6  C   UNL A   1      34.690  30.339  27.402  1.00  0.00     0.124 A 
ATOM      7  C   UNL A   1      35.920  30.814  27.800  1.00  0.00     0.048 A 
ATOM      8  O   UNL A   1      33.738  31.284  27.626  1.00  0.00    -0.452 OA
ATOM      9  C   UNL A   1      35.712  32.155  28.220  1.00  0.00     0.058 A 
BRANCH   6  10
ATOM     10  C   UNL A   1      34.212  29.079  26.783  1.00  0.00     0.193 C 
BRANCH  10  11
ATOM     11  N   UNL A   1      34.203  29.259  25.353  1.00  0.00    -0.331 N 
ATOM     12  O   UNL A   1      33.472  29.219  23.272  1.00  0.00    -0.248 OA
ATOM     13  C   UNL A   1      33.182  29.227  24.465  1.00  0.00     0.319 C 
ATOM     14  N   UNL A   1      31.914  29.260  24.978  1.00  0.00    -0.308 N 
ATOM     15  H   UNL A   1      35.087  29.433  24.956  1.00  0.00     0.165 HD
ATOM     16  H   UNL A   1      31.815  29.339  25.954  1.00  0.00     0.171 HD
BRANCH  14  17
ATOM     17  C   UNL A   1      30.735  29.188  24.206  1.00  0.00     0.044 A 
ATOM     18  C   UNL A   1      30.311  27.924  23.777  1.00  0.00     0.029 A 
ATOM     19  C   UNL A   1      29.960  30.316  23.909  1.00  0.00     0.049 A 
ATOM     20  C   UNL A   1      29.054  27.772  23.195  1.00  0.00     0.043 A 
ATOM     21  C   UNL A   1      28.715  30.164  23.307  1.00  0.00     0.078 A 
ATOM     22  C   UNL A   1      28.250  28.889  23.012  1.00  0.00     0.141 A 
ATOM     23  Cl  UNL A   1      27.761  31.552  22.946  1.00  0.00    -0.081 Cl
ATOM     24  F   UNL A   1      27.000  28.711  22.577  1.00  0.00    -0.205 F 
ENDBRANCH  14  17
ENDBRANCH  10  11
ENDBRANCH   6  10
ENDBRANCH   3   5
ENDBRANCH   2   3
ENDBRANCH   1   2
BRANCH   1  25
ATOM     25  C   UNL A   1      32.720  36.340  29.743  1.00  0.00     0.275 C 
BRANCH  25  26
ATOM     26  O   UNL A   1      33.243  36.549  31.071  1.00  0.00    -0.458 OA
BRANCH  26  27
ATOM     27  C   UNL A   1      32.878  35.621  31.988  1.00  0.00     0.338 C 
ATOM     28  O   UNL A   1      31.739  35.279  32.265  1.00  0.00    -0.246 OA
BRANCH  27  29
ATOM     29  C   UNL A   1      34.061  34.958  32.569  1.00  0.00     0.060 A 
ATOM     30  C   UNL A   1      35.304  35.555  32.351  1.00  0.00     0.016 A 
ATOM     31  C   UNL A   1      33.983  33.721  33.212  1.00  0.00     0.016 A 
ATOM     32  C   UNL A   1      36.477  34.913  32.737  1.00  0.00     0.010 A 
ATOM     33  C   UNL A   1      35.165  33.072  33.600  1.00  0.00     0.010 A 
ATOM     34  C   UNL A   1      36.420  33.651  33.337  1.00  0.00    -0.014 A 
BRANCH  34  35
ATOM     35  C   UNL A   1      37.691  32.917  33.576  1.00  0.00     0.031 A 
ATOM     36  C   UNL A   1      38.476  33.198  34.827  1.00  0.00     0.074 A 
ATOM     37  C   UNL A   1      38.096  31.962  32.717  1.00  0.00     0.049 A 
ATOM     38  N   UNL A   1      39.561  32.618  35.273  1.00  0.00    -0.248 NA
ATOM     39  C   UNL A   1      37.967  34.265  35.703  1.00  0.00     0.031 C 
ATOM     40  C   UNL A   1      37.382  31.579  31.502  1.00  0.00     0.029 A 
ATOM     41  N   UNL A   1      39.195  31.135  32.733  1.00  0.00    -0.354 N 
ATOM     42  C   UNL A   1      39.876  33.261  36.463  1.00  0.00     0.074 A 
ATOM     43  C   UNL A   1      38.876  34.286  36.668  1.00  0.00     0.031 C 
ATOM     44  C   UNL A   1      38.056  30.592  30.892  1.00  0.00     0.029 A 
ATOM     45  C   UNL A   1      39.274  30.295  31.644  1.00  0.00     0.049 A 
ATOM     46  H   UNL A   1      39.862  31.143  33.457  1.00  0.00     0.167 HD
ATOM     47  C   UNL A   1      40.900  33.010  37.312  1.00  0.00     0.037 A 
ATOM     48  C   UNL A   1      40.225  29.400  31.296  1.00  0.00     0.037 A 
ATOM     49  C   UNL A   1      41.872  31.968  37.116  1.00  0.00     0.049 A 
ATOM     50  C   UNL A   1      41.368  29.174  32.261  1.00  0.00     0.074 A 
ATOM     51  C   UNL A   1      42.927  31.604  37.934  1.00  0.00     0.029 A 
ATOM     52  N   UNL A   1      41.908  31.123  36.015  1.00  0.00    -0.354 N 
ATOM     53  N   UNL A   1      41.559  29.683  33.457  1.00  0.00    -0.248 NA
ATOM     54  C   UNL A   1      42.414  28.230  31.847  1.00  0.00     0.031 C 
ATOM     55  C   UNL A   1      43.623  30.562  37.310  1.00  0.00     0.029 A 
ATOM     56  C   UNL A   1      42.983  30.256  36.120  1.00  0.00     0.049 A 
ATOM     57  H   UNL A   1      41.266  31.139  35.269  1.00  0.00     0.167 HD
ATOM     58  C   UNL A   1      42.697  29.064  33.960  1.00  0.00     0.074 A 
ATOM     59  C   UNL A   1      43.135  28.122  32.952  1.00  0.00     0.031 C 
ATOM     60  C   UNL A   1      43.338  29.262  35.140  1.00  0.00     0.037 A 
BRANCH  47  61
ATOM     61  C   UNL A   1      41.037  33.892  38.517  1.00  0.00     0.064 A 
ATOM     62  C   UNL A   1      41.842  35.040  38.505  1.00  0.00     0.173 A 
ATOM     63  C   UNL A   1      40.325  33.602  39.691  1.00  0.00     0.173 A 
ATOM     64  F   UNL A   1      42.554  35.353  37.412  1.00  0.00    -0.203 F 
ATOM     65  C   UNL A   1      41.945  35.855  39.631  1.00  0.00     0.198 A 
ATOM     66  C   UNL A   1      40.411  34.430  40.807  1.00  0.00     0.198 A 
ATOM     67  F   UNL A   1      39.539  32.516  39.753  1.00  0.00    -0.203 F 
ATOM     68  F   UNL A   1      42.751  36.925  39.610  1.00  0.00    -0.200 F 
ATOM     69  C   UNL A   1      41.226  35.553  40.778  1.00  0.00     0.200 A 
ATOM     70  F   UNL A   1      39.711  34.141  41.911  1.00  0.00    -0.200 F 
ATOM     71  F   UNL A   1      41.323  36.339  41.859  1.00  0.00    -0.200 F 
ENDBRANCH  47  61
BRANCH  48  72
ATOM     72  C   UNL A   1      40.103  28.616  30.022  1.00  0.00     0.064 A 
ATOM     73  C   UNL A   1      40.618  29.088  28.803  1.00  0.00     0.173 A 
ATOM     74  C   UNL A   1      39.475  27.360  29.989  1.00  0.00     0.173 A 
ATOM     75  F   UNL A   1      41.106  30.332  28.714  1.00  0.00    -0.203 F 
ATOM     76  C   UNL A   1      40.579  28.322  27.638  1.00  0.00     0.198 A 
ATOM     77  C   UNL A   1      39.450  26.584  28.828  1.00  0.00     0.198 A 
ATOM     78  F   UNL A   1      38.891  26.870  31.092  1.00  0.00    -0.203 F 
ATOM     79  F   UNL A   1      41.069  28.822  26.495  1.00  0.00    -0.200 F 
ATOM     80  C   UNL A   1      40.012  27.061  27.656  1.00  0.00     0.200 A 
ATOM     81  F   UNL A   1      38.876  25.373  28.849  1.00  0.00    -0.200 F 
ATOM     82  F   UNL A   1      39.979  26.320  26.540  1.00  0.00    -0.200 F 
ENDBRANCH  48  72
BRANCH  60  83
ATOM     83  C   UNL A   1      44.515  28.378  35.439  1.00  0.00     0.064 A 
ATOM     84  C   UNL A   1      44.369  27.160  36.119  1.00  0.00     0.173 A 
ATOM     85  C   UNL A   1      45.803  28.748  35.023  1.00  0.00     0.173 A 
ATOM     86  F   UNL A   1      43.160  26.764  36.543  1.00  0.00    -0.203 F 
ATOM     87  C   UNL A   1      45.475  26.366  36.411  1.00  0.00     0.198 A 
ATOM     88  C   UNL A   1      46.903  27.934  35.286  1.00  0.00     0.198 A 
ATOM     89  F   UNL A   1      45.996  29.895  34.353  1.00  0.00    -0.203 F 
ATOM     90  F   UNL A   1      45.319  25.237  37.116  1.00  0.00    -0.200 F 
ATOM     91  C   UNL A   1      46.740  26.751  35.990  1.00  0.00     0.200 A 
ATOM     92  F   UNL A   1      48.122  28.299  34.862  1.00  0.00    -0.200 F 
ATOM     93  F   UNL A   1      47.803  25.986  36.272  1.00  0.00    -0.200 F 
ENDBRANCH  60  83
ENDBRANCH  34  35
ENDBRANCH  27  29
ENDBRANCH  26  27
ENDBRANCH  25  26
ENDBRANCH   1  25
TORSDOF 14
ENDMDL
MODEL 3
REMARK VINA RESULT:     -12.4      3.726      9.044
REMARK SMILES O=C(NCc1ccc(C(=O)OCCOC(=O)c2ccc(-c3c4nc(c(-c5c(F)c(F)c(F)c(F)c5F)c5ccc([nH]5)c(-c5c(F)c(F)c(F)c(F)c5F)c5nc(c(-c6c(F)c(F)c(F)c(F)c6F)c6ccc3[nH]6)C=C5)C=C4)cc2)o1)Nc1ccc(F)c(Cl)c1
REMARK SMILES IDX 12 1 11 2 9 3 10 4 8 5 5 6 6 7 80 8 7 9 4 10 3 11 1 12 2 13
REMARK SMILES IDX 81 14 82 17 83 18 89 19 84 20 87 21 85 22 88 23 86 24 13 25
REMARK SMILES IDX 14 26 15 27 16 28 17 29 18 30 79 31 19 32 78 33 20 34 21 35
REMARK SMILES IDX 22 36 72 37 23 38 77 39 71 40 73 41 24 42 76 43 70 44 69 45
REMARK SMILES IDX 25 47 57 48 37 49 56 50 38 51 41 52 55 53 74 54 39 55 40 56
REMARK SMILES IDX 54 58 75 59 42 60 26 61 27 62 35 63 28 64 29 65 33 66 36 67
REMARK SMILES IDX 30 68 31 69 34 70 32 71 58 72 59 73 67 74 60 75 61 76 65 77
REMARK SMILES IDX 68 78 62 79 63 80 66 81 64 82 43 83 44 84 52 85 45 86 46 87
REMARK SMILES IDX 50 88 53 89 47 90 48 91 51 92 49 93
REMARK H PARENT 3 15 81 16 73 46 41 57
REMARK Flexibility Score: inf
ROOT
ATOM      1  C   UNL A   1      31.373  30.303  25.383  1.00  0.00     0.275 C 
ENDROOT
BRANCH   1   2
ATOM      2  O   UNL A   1      32.515  29.472  25.104  1.00  0.00    -0.456 OA
BRANCH   2   3
ATOM      3  C   UNL A   1      32.318  28.495  24.172  1.00  0.00     0.374 C 
ATOM      4  O   UNL A   1      32.532  28.631  22.971  1.00  0.00    -0.242 OA
BRANCH   3   5
ATOM      5  C   UNL A   1      31.947  27.258  24.818  1.00  0.00     0.211 A 
ATOM      6  C   UNL A   1      31.487  25.098  24.794  1.00  0.00     0.124 A 
ATOM      7  C   UNL A   1      31.589  25.455  26.121  1.00  0.00     0.048 A 
ATOM      8  O   UNL A   1      31.637  26.199  24.010  1.00  0.00    -0.452 OA
ATOM      9  C   UNL A   1      31.897  26.842  26.137  1.00  0.00     0.058 A 
BRANCH   6  10
ATOM     10  C   UNL A   1      31.281  23.819  24.073  1.00  0.00     0.193 C 
BRANCH  10  11
ATOM     11  N   UNL A   1      32.374  23.647  23.149  1.00  0.00    -0.331 N 
ATOM     12  O   UNL A   1      34.446  23.442  22.417  1.00  0.00    -0.248 OA
ATOM     13  C   UNL A   1      33.675  23.340  23.367  1.00  0.00     0.319 C 
ATOM     14  N   UNL A   1      34.004  22.890  24.617  1.00  0.00    -0.308 N 
ATOM     15  H   UNL A   1      32.136  23.773  22.203  1.00  0.00     0.165 HD
ATOM     16  H   UNL A   1      33.277  22.783  25.273  1.00  0.00     0.171 HD
BRANCH  14  17
ATOM     17  C   UNL A   1      35.313  22.569  25.035  1.00  0.00     0.044 A 
ATOM     18  C   UNL A   1      35.766  21.262  24.816  1.00  0.00     0.029 A 
ATOM     19  C   UNL A   1      36.177  23.516  25.600  1.00  0.00     0.049 A 
ATOM     20  C   UNL A   1      37.109  20.949  25.016  1.00  0.00     0.043 A 
ATOM     21  C   UNL A   1      37.512  23.194  25.819  1.00  0.00     0.078 A 
ATOM     22  C   UNL A   1      37.977  21.933  25.468  1.00  0.00     0.141 A 
ATOM     23  Cl  UNL A   1      38.573  24.361  26.511  1.00  0.00    -0.081 Cl
ATOM     24  F   UNL A   1      39.282  21.655  25.528  1.00  0.00    -0.205 F 
ENDBRANCH  14  17
ENDBRANCH  10  11
ENDBRANCH   6  10
ENDBRANCH   3   5
ENDBRANCH   2   3
ENDBRANCH   1   2
BRANCH   1  25
ATOM     25  C   UNL A   1      31.678  31.342  26.471  1.00  0.00     0.275 C 
BRANCH  25  26
ATOM     26  O   UNL A   1      32.837  30.994  27.258  1.00  0.00    -0.458 OA
BRANCH  26  27
ATOM     27  C   UNL A   1      33.651  32.029  27.575  1.00  0.00     0.338 C 
ATOM     28  O   UNL A   1      33.349  33.211  27.607  1.00  0.00    -0.246 OA
BRANCH  27  29
ATOM     29  C   UNL A   1      34.977  31.545  28.003  1.00  0.00     0.060 A 
ATOM     30  C   UNL A   1      35.089  30.197  28.348  1.00  0.00     0.016 A 
ATOM     31  C   UNL A   1      36.064  32.405  28.181  1.00  0.00     0.016 A 
ATOM     32  C   UNL A   1      36.265  29.702  28.903  1.00  0.00     0.010 A 
ATOM     33  C   UNL A   1      37.250  31.906  28.742  1.00  0.00     0.010 A 
ATOM     34  C   UNL A   1      37.346  30.559  29.135  1.00  0.00    -0.014 A 
BRANCH  34  35
ATOM     35  C   UNL A   1      38.519  30.040  29.888  1.00  0.00     0.031 A 
ATOM     36  C   UNL A   1      38.726  30.472  31.313  1.00  0.00     0.074 A 
ATOM     37  C   UNL A   1      39.345  29.138  29.322  1.00  0.00     0.049 A 
ATOM     38  N   UNL A   1      39.629  30.081  32.175  1.00  0.00    -0.248 NA
ATOM     39  C   UNL A   1      37.783  31.468  31.846  1.00  0.00     0.031 C 
ATOM     40  C   UNL A   1      39.202  28.617  27.965  1.00  0.00     0.029 A 
ATOM     41  N   UNL A   1      40.456  28.495  29.812  1.00  0.00    -0.354 N 
ATOM     42  C   UNL A   1      39.379  30.796  33.339  1.00  0.00     0.074 A 
ATOM     43  C   UNL A   1      38.247  31.656  33.073  1.00  0.00     0.031 C 
ATOM     44  C   UNL A   1      40.185  27.733  27.732  1.00  0.00     0.029 A 
ATOM     45  C   UNL A   1      41.056  27.650  28.904  1.00  0.00     0.049 A 
ATOM     46  H   UNL A   1      40.793  28.626  30.728  1.00  0.00     0.167 HD
ATOM     47  C   UNL A   1      40.030  30.730  34.525  1.00  0.00     0.037 A 
ATOM     48  C   UNL A   1      42.179  26.906  29.008  1.00  0.00     0.037 A 
ATOM     49  C   UNL A   1      41.135  29.849  34.789  1.00  0.00     0.049 A 
ATOM     50  C   UNL A   1      42.892  26.888  30.342  1.00  0.00     0.074 A 
ATOM     51  C   UNL A   1      41.841  29.676  35.967  1.00  0.00     0.029 A 
ATOM     52  N   UNL A   1      41.699  28.993  33.854  1.00  0.00    -0.354 N 
ATOM     53  N   UNL A   1      42.544  27.451  31.477  1.00  0.00    -0.248 NA
ATOM     54  C   UNL A   1      44.134  26.109  30.425  1.00  0.00     0.031 C 
ATOM     55  C   UNL A   1      42.855  28.741  35.734  1.00  0.00     0.029 A 
ATOM     56  C   UNL A   1      42.761  28.308  34.421  1.00  0.00     0.049 A 
ATOM     57  H   UNL A   1      41.392  28.888  32.925  1.00  0.00     0.167 HD
ATOM     58  C   UNL A   1      43.480  27.031  32.416  1.00  0.00     0.074 A 
ATOM     59  C   UNL A   1      44.390  26.144  31.724  1.00  0.00     0.031 C 
ATOM     60  C   UNL A   1      43.592  27.358  33.728  1.00  0.00     0.037 A 
BRANCH  47  61
ATOM     61  C   UNL A   1      39.579  31.653  35.617  1.00  0.00     0.064 A 
ATOM     62  C   UNL A   1      40.158  32.917  35.803  1.00  0.00     0.173 A 
ATOM     63  C   UNL A   1      38.528  31.281  36.469  1.00  0.00     0.173 A 
ATOM     64  F   UNL A   1      41.176  33.314  35.024  1.00  0.00    -0.203 F 
ATOM     65  C   UNL A   1      39.716  33.766  36.816  1.00  0.00     0.198 A 
ATOM     66  C   UNL A   1      38.072  32.140  37.466  1.00  0.00     0.198 A 
ATOM     67  F   UNL A   1      37.938  30.084  36.332  1.00  0.00    -0.203 F 
ATOM     68  F   UNL A   1      40.310  34.953  37.001  1.00  0.00    -0.200 F 
ATOM     69  C   UNL A   1      38.670  33.380  37.642  1.00  0.00     0.200 A 
ATOM     70  F   UNL A   1      37.058  31.769  38.257  1.00  0.00    -0.200 F 
ATOM     71  F   UNL A   1      38.243  34.199  38.613  1.00  0.00    -0.200 F 
ENDBRANCH  47  61
BRANCH  48  72
ATOM     72  C   UNL A   1      42.656  26.082  27.849  1.00  0.00     0.064 A 
ATOM     73  C   UNL A   1      42.134  24.807  27.573  1.00  0.00     0.173 A 
ATOM     74  C   UNL A   1      43.646  26.552  26.970  1.00  0.00     0.173 A 
ATOM     75  F   UNL A   1      41.291  24.224  28.436  1.00  0.00    -0.203 F 
ATOM     76  C   UNL A   1      42.517  24.077  26.448  1.00  0.00     0.198 A 
ATOM     77  C   UNL A   1      44.020  25.831  25.834  1.00  0.00     0.198 A 
ATOM     78  F   UNL A   1      44.251  27.726  27.204  1.00  0.00    -0.203 F 
ATOM     79  F   UNL A   1      42.002  22.858  26.236  1.00  0.00    -0.200 F 
ATOM     80  C   UNL A   1      43.447  24.599  25.567  1.00  0.00     0.200 A 
ATOM     81  F   UNL A   1      44.940  26.334  24.999  1.00  0.00    -0.200 F 
ATOM     82  F   UNL A   1      43.813  23.904  24.482  1.00  0.00    -0.200 F 
ENDBRANCH  48  72
BRANCH  60  83
ATOM     83  C   UNL A   1      44.677  26.677  34.514  1.00  0.00     0.064 A 
ATOM     84  C   UNL A   1      45.956  27.237  34.647  1.00  0.00     0.173 A 
ATOM     85  C   UNL A   1      44.425  25.456  35.159  1.00  0.00     0.173 A 
ATOM     86  F   UNL A   1      46.249  28.398  34.045  1.00  0.00    -0.203 F 
ATOM     87  C   UNL A   1      46.956  26.578  35.358  1.00  0.00     0.198 A 
ATOM     88  C   UNL A   1      45.417  24.817  35.898  1.00  0.00     0.198 A 
ATOM     89  F   UNL A   1      43.213  24.885  35.080  1.00  0.00    -0.203 F 
ATOM     90  F   UNL A   1      48.188  27.103  35.417  1.00  0.00    -0.200 F 
ATOM     91  C   UNL A   1      46.685  25.372  35.987  1.00  0.00     0.200 A 
ATOM     92  F   UNL A   1      45.148  23.661  36.522  1.00  0.00    -0.200 F 
ATOM     93  F   UNL A   1      47.648  24.741  36.671  1.00  0.00    -0.200 F 
ENDBRANCH  60  83
ENDBRANCH  34  35
ENDBRANCH  27  29
ENDBRANCH  26  27
ENDBRANCH  25  26
ENDBRANCH   1  25
TORSDOF 14
ENDMDL
