MODEL 1
REMARK VINA RESULT:     -13.6      0.000      0.000
REMARK SMILES O=C(OCCOC(=O)[C@H]1CC2=c3ccccc3=N[C@H]2[C@@H](c2ccccc2)[NH2+]1)c1ccc(-c2c3nc(c(-c4c(F)c(F)c(F)c(F)c4F)c4ccc([nH]4)c(-c4c(F)c(F)c(F)c(F)c4F)c4nc(c(-c5c(F)c(F)c(F)c(F)c5F)c5ccc2[nH]5)C=C4)C=C3)cc1
REMARK SMILES IDX 4 1 3 2 2 3 1 4 28 5 29 6 90 7 30 8 89 9 31 10 32 11 33 12
REMARK SMILES IDX 83 13 34 14 88 15 82 16 84 17 35 18 87 19 81 20 80 21 36 23
REMARK SMILES IDX 68 24 48 25 67 26 49 27 52 28 66 29 85 30 50 31 51 32 65 34
REMARK SMILES IDX 86 35 53 36 37 37 38 38 46 39 39 40 40 41 44 42 47 43 41 44
REMARK SMILES IDX 42 45 45 46 43 47 69 48 70 49 78 50 71 51 72 52 76 53 79 54
REMARK SMILES IDX 73 55 74 56 77 57 75 58 54 59 55 60 63 61 56 62 57 63 61 64
REMARK SMILES IDX 64 65 58 66 59 67 62 68 60 69 5 70 6 71 7 72 8 73 9 74 10 75
REMARK SMILES IDX 27 76 11 77 20 78 12 81 19 82 13 83 17 84 18 85 14 86 16 87
REMARK SMILES IDX 15 88 21 89 22 90 26 91 23 92 25 93 24 94
REMARK H PARENT 84 22 52 33 27 79 27 80
REMARK Flexibility Score: inf
ROOT
ATOM      1  C   UNL A   1      31.417  32.393  26.864  1.00  0.00     0.275 C 
ENDROOT
BRANCH   1   2
ATOM      2  O   UNL A   1      32.422  33.402  26.899  1.00  0.00    -0.458 OA
BRANCH   2   3
ATOM      3  C   UNL A   1      33.196  33.700  27.961  1.00  0.00     0.338 C 
ATOM      4  O   UNL A   1      32.785  34.556  28.746  1.00  0.00    -0.246 OA
BRANCH   3   5
ATOM      5  C   UNL A   1      34.532  33.050  28.241  1.00  0.00     0.060 A 
ATOM      6  C   UNL A   1      34.419  31.743  28.667  1.00  0.00     0.016 A 
ATOM      7  C   UNL A   1      35.841  33.563  28.196  1.00  0.00     0.016 A 
ATOM      8  C   UNL A   1      35.529  31.068  29.167  1.00  0.00     0.010 A 
ATOM      9  C   UNL A   1      36.972  32.845  28.711  1.00  0.00     0.010 A 
ATOM     10  C   UNL A   1      36.835  31.588  29.288  1.00  0.00    -0.014 A 
BRANCH  10  11
ATOM     11  C   UNL A   1      37.878  30.761  30.062  1.00  0.00     0.031 A 
ATOM     12  C   UNL A   1      38.823  29.709  29.439  1.00  0.00     0.074 A 
ATOM     13  C   UNL A   1      38.152  31.129  31.340  1.00  0.00     0.049 A 
ATOM     14  N   UNL A   1      39.937  29.184  29.929  1.00  0.00    -0.248 NA
ATOM     15  C   UNL A   1      38.482  29.151  28.126  1.00  0.00     0.031 C 
ATOM     16  C   UNL A   1      37.376  32.099  32.122  1.00  0.00     0.029 A 
ATOM     17  N   UNL A   1      39.199  30.821  32.182  1.00  0.00    -0.354 N 
ATOM     18  C   UNL A   1      40.456  28.317  28.952  1.00  0.00     0.074 A 
ATOM     19  C   UNL A   1      39.485  28.309  27.888  1.00  0.00     0.031 C 
ATOM     20  C   UNL A   1      38.075  32.469  33.197  1.00  0.00     0.029 A 
ATOM     21  C   UNL A   1      39.206  31.568  33.340  1.00  0.00     0.049 A 
ATOM     22  H   UNL A   1      39.875  30.136  31.977  1.00  0.00     0.167 HD
ATOM     23  C   UNL A   1      41.632  27.621  28.938  1.00  0.00     0.037 A 
ATOM     24  C   UNL A   1      39.959  31.498  34.455  1.00  0.00     0.037 A 
ATOM     25  C   UNL A   1      42.491  27.477  30.090  1.00  0.00     0.049 A 
ATOM     26  C   UNL A   1      41.008  30.440  34.540  1.00  0.00     0.074 A 
ATOM     27  C   UNL A   1      43.617  26.679  30.225  1.00  0.00     0.029 A 
ATOM     28  N   UNL A   1      42.288  28.092  31.309  1.00  0.00    -0.354 N 
ATOM     29  N   UNL A   1      41.545  29.741  33.576  1.00  0.00    -0.248 NA
ATOM     30  C   UNL A   1      41.506  30.111  35.882  1.00  0.00     0.031 C 
ATOM     31  C   UNL A   1      44.067  26.771  31.538  1.00  0.00     0.029 A 
ATOM     32  C   UNL A   1      43.214  27.617  32.223  1.00  0.00     0.049 A 
ATOM     33  H   UNL A   1      41.595  28.764  31.499  1.00  0.00     0.167 HD
ATOM     34  C   UNL A   1      42.437  28.880  34.191  1.00  0.00     0.074 A 
ATOM     35  C   UNL A   1      42.397  29.168  35.608  1.00  0.00     0.031 C 
ATOM     36  C   UNL A   1      43.200  27.921  33.624  1.00  0.00     0.037 A 
BRANCH  23  37
ATOM     37  C   UNL A   1      42.150  26.912  27.695  1.00  0.00     0.064 A 
ATOM     38  C   UNL A   1      43.072  27.585  26.860  1.00  0.00     0.173 A 
ATOM     39  C   UNL A   1      41.950  25.553  27.428  1.00  0.00     0.173 A 
ATOM     40  F   UNL A   1      43.359  28.881  27.077  1.00  0.00    -0.203 F 
ATOM     41  C   UNL A   1      43.704  26.955  25.786  1.00  0.00     0.198 A 
ATOM     42  C   UNL A   1      42.579  24.925  26.344  1.00  0.00     0.198 A 
ATOM     43  F   UNL A   1      41.177  24.814  28.236  1.00  0.00    -0.203 F 
ATOM     44  F   UNL A   1      44.529  27.653  24.989  1.00  0.00    -0.200 F 
ATOM     45  C   UNL A   1      43.442  25.628  25.516  1.00  0.00     0.200 A 
ATOM     46  F   UNL A   1      42.364  23.622  26.109  1.00  0.00    -0.200 F 
ATOM     47  F   UNL A   1      44.011  25.031  24.459  1.00  0.00    -0.200 F 
ENDBRANCH  23  37
BRANCH  24  48
ATOM     48  C   UNL A   1      39.617  32.351  35.628  1.00  0.00     0.064 A 
ATOM     49  C   UNL A   1      40.259  33.571  35.860  1.00  0.00     0.173 A 
ATOM     50  C   UNL A   1      38.591  31.976  36.515  1.00  0.00     0.173 A 
ATOM     51  F   UNL A   1      41.276  33.956  35.074  1.00  0.00    -0.203 F 
ATOM     52  C   UNL A   1      39.857  34.403  36.905  1.00  0.00     0.198 A 
ATOM     53  C   UNL A   1      38.157  32.829  37.523  1.00  0.00     0.198 A 
ATOM     54  F   UNL A   1      37.963  30.799  36.361  1.00  0.00    -0.203 F 
ATOM     55  F   UNL A   1      40.496  35.562  37.119  1.00  0.00    -0.200 F 
ATOM     56  C   UNL A   1      38.790  34.044  37.718  1.00  0.00     0.200 A 
ATOM     57  F   UNL A   1      37.108  32.484  38.282  1.00  0.00    -0.200 F 
ATOM     58  F   UNL A   1      38.373  34.867  38.688  1.00  0.00    -0.200 F 
ENDBRANCH  24  48
BRANCH  36  59
ATOM     59  C   UNL A   1      44.067  27.092  34.515  1.00  0.00     0.064 A 
ATOM     60  C   UNL A   1      45.326  27.550  34.922  1.00  0.00     0.173 A 
ATOM     61  C   UNL A   1      43.595  25.884  35.050  1.00  0.00     0.173 A 
ATOM     62  F   UNL A   1      45.817  28.700  34.433  1.00  0.00    -0.203 F 
ATOM     63  C   UNL A   1      46.093  26.820  35.822  1.00  0.00     0.198 A 
ATOM     64  C   UNL A   1      44.348  25.175  35.978  1.00  0.00     0.198 A 
ATOM     65  F   UNL A   1      42.384  25.419  34.706  1.00  0.00    -0.203 F 
ATOM     66  F   UNL A   1      47.310  27.258  36.171  1.00  0.00    -0.200 F 
ATOM     67  C   UNL A   1      45.598  25.639  36.359  1.00  0.00     0.200 A 
ATOM     68  F   UNL A   1      43.857  24.051  36.518  1.00  0.00    -0.200 F 
ATOM     69  F   UNL A   1      46.329  24.949  37.244  1.00  0.00    -0.200 F 
ENDBRANCH  36  59
ENDBRANCH  10  11
ENDBRANCH   3   5
ENDBRANCH   2   3
ENDBRANCH   1   2
BRANCH   1  70
ATOM     70  C   UNL A   1      31.827  31.073  26.204  1.00  0.00     0.274 C 
BRANCH  70  71
ATOM     71  O   UNL A   1      31.822  29.924  27.071  1.00  0.00    -0.458 OA
BRANCH  71  72
ATOM     72  C   UNL A   1      32.654  28.856  26.791  1.00  0.00     0.365 C 
ATOM     73  O   UNL A   1      33.514  28.442  27.542  1.00  0.00    -0.245 OA
BRANCH  72  74
ATOM     74  C   UNL A   1      32.510  28.430  25.294  1.00  0.00     0.298 C 
ATOM     75  C   UNL A   1      33.601  27.491  24.573  1.00  0.00     0.111 C 
ATOM     76  N   UNL A   1      31.105  28.015  25.064  1.00  0.00    -0.326 N 
ATOM     77  C   UNL A   1      33.129  26.436  23.412  1.00  0.00    -0.024 C 
ATOM     78  C   UNL A   1      31.046  27.703  23.648  1.00  0.00     0.243 C 
ATOM     79  H   UNL A   1      30.462  28.773  25.294  1.00  0.00     0.347 HD
ATOM     80  H   UNL A   1      30.833  27.223  25.647  1.00  0.00     0.347 HD
ATOM     81  C   UNL A   1      33.603  25.172  23.412  1.00  0.00     0.002 A 
ATOM     82  C   UNL A   1      31.619  26.288  23.453  1.00  0.00     0.196 C 
ATOM     83  C   UNL A   1      33.469  24.056  22.457  1.00  0.00     0.010 A 
ATOM     84  C   UNL A   1      32.736  24.774  24.558  1.00  0.00     0.066 A 
ATOM     85  N   UNL A   1      31.580  25.377  24.653  1.00  0.00    -0.270 NA
ATOM     86  C   UNL A   1      33.476  22.799  22.965  1.00  0.00     0.001 A 
ATOM     87  C   UNL A   1      33.303  23.589  25.252  1.00  0.00     0.028 A 
ATOM     88  C   UNL A   1      33.659  22.608  24.403  1.00  0.00     0.002 A 
BRANCH  78  89
ATOM     89  C   UNL A   1      29.877  28.308  22.915  1.00  0.00     0.012 A 
ATOM     90  C   UNL A   1      30.127  29.476  22.191  1.00  0.00     0.010 A 
ATOM     91  C   UNL A   1      28.549  28.004  23.275  1.00  0.00     0.010 A 
ATOM     92  C   UNL A   1      29.099  30.383  21.976  1.00  0.00     0.001 A 
ATOM     93  C   UNL A   1      27.503  28.861  22.938  1.00  0.00     0.001 A 
ATOM     94  C   UNL A   1      27.784  30.068  22.311  1.00  0.00     0.000 A 
ENDBRANCH  78  89
ENDBRANCH  72  74
ENDBRANCH  71  72
ENDBRANCH  70  71
ENDBRANCH   1  70
TORSDOF 12
ENDMDL
MODEL 2
REMARK VINA RESULT:     -13.6      0.405      1.973
REMARK SMILES O=C(OCCOC(=O)[C@H]1CC2=c3ccccc3=N[C@H]2[C@@H](c2ccccc2)[NH2+]1)c1ccc(-c2c3nc(c(-c4c(F)c(F)c(F)c(F)c4F)c4ccc([nH]4)c(-c4c(F)c(F)c(F)c(F)c4F)c4nc(c(-c5c(F)c(F)c(F)c(F)c5F)c5ccc2[nH]5)C=C4)C=C3)cc1
REMARK SMILES IDX 4 1 3 2 2 3 1 4 28 5 29 6 90 7 30 8 89 9 31 10 32 11 33 12
REMARK SMILES IDX 83 13 34 14 88 15 82 16 84 17 35 18 87 19 81 20 80 21 36 23
REMARK SMILES IDX 68 24 48 25 67 26 49 27 52 28 66 29 85 30 50 31 51 32 65 34
REMARK SMILES IDX 86 35 53 36 37 37 38 38 46 39 39 40 40 41 44 42 47 43 41 44
REMARK SMILES IDX 42 45 45 46 43 47 69 48 70 49 78 50 71 51 72 52 76 53 79 54
REMARK SMILES IDX 73 55 74 56 77 57 75 58 54 59 55 60 63 61 56 62 57 63 61 64
REMARK SMILES IDX 64 65 58 66 59 67 62 68 60 69 5 70 6 71 7 72 8 73 9 74 10 75
REMARK SMILES IDX 27 76 11 77 20 78 12 81 19 82 13 83 17 84 18 85 14 86 16 87
REMARK SMILES IDX 15 88 21 89 22 90 26 91 23 92 25 93 24 94
REMARK H PARENT 84 22 52 33 27 79 27 80
REMARK Flexibility Score: inf
ROOT
ATOM      1  C   UNL A   1      31.331  32.287  26.905  1.00  0.00     0.275 C 
ENDROOT
BRANCH   1   2
ATOM      2  O   UNL A   1      32.184  33.428  26.878  1.00  0.00    -0.458 OA
BRANCH   2   3
ATOM      3  C   UNL A   1      32.988  33.829  27.883  1.00  0.00     0.338 C 
ATOM      4  O   UNL A   1      32.608  34.774  28.576  1.00  0.00    -0.246 OA
BRANCH   3   5
ATOM      5  C   UNL A   1      34.320  33.191  28.204  1.00  0.00     0.060 A 
ATOM      6  C   UNL A   1      34.205  31.883  28.629  1.00  0.00     0.016 A 
ATOM      7  C   UNL A   1      35.625  33.715  28.198  1.00  0.00     0.016 A 
ATOM      8  C   UNL A   1      35.306  31.219  29.164  1.00  0.00     0.010 A 
ATOM      9  C   UNL A   1      36.746  33.008  28.748  1.00  0.00     0.010 A 
ATOM     10  C   UNL A   1      36.603  31.751  29.323  1.00  0.00    -0.014 A 
BRANCH  10  11
ATOM     11  C   UNL A   1      37.629  30.934  30.130  1.00  0.00     0.031 A 
ATOM     12  C   UNL A   1      38.586  29.873  29.541  1.00  0.00     0.074 A 
ATOM     13  C   UNL A   1      37.877  31.319  31.408  1.00  0.00     0.049 A 
ATOM     14  N   UNL A   1      39.690  29.354  30.061  1.00  0.00    -0.248 NA
ATOM     15  C   UNL A   1      38.271  29.298  28.229  1.00  0.00     0.031 C 
ATOM     16  C   UNL A   1      37.086  32.301  32.160  1.00  0.00     0.029 A 
ATOM     17  N   UNL A   1      38.907  31.023  32.276  1.00  0.00    -0.354 N 
ATOM     18  C   UNL A   1      40.228  28.474  29.107  1.00  0.00     0.074 A 
ATOM     19  C   UNL A   1      39.279  28.452  28.024  1.00  0.00     0.031 C 
ATOM     20  C   UNL A   1      37.762  32.685  33.244  1.00  0.00     0.029 A 
ATOM     21  C   UNL A   1      38.890  31.786  33.423  1.00  0.00     0.049 A 
ATOM     22  H   UNL A   1      39.586  30.334  32.094  1.00  0.00     0.167 HD
ATOM     23  C   UNL A   1      41.403  27.777  29.127  1.00  0.00     0.037 A 
ATOM     24  C   UNL A   1      39.620  31.731  34.554  1.00  0.00     0.037 A 
ATOM     25  C   UNL A   1      42.238  27.649  30.298  1.00  0.00     0.049 A 
ATOM     26  C   UNL A   1      40.666  30.674  34.676  1.00  0.00     0.074 A 
ATOM     27  C   UNL A   1      43.361  26.852  30.467  1.00  0.00     0.029 A 
ATOM     28  N   UNL A   1      42.011  28.281  31.505  1.00  0.00    -0.354 N 
ATOM     29  N   UNL A   1      41.222  29.961  33.732  1.00  0.00    -0.248 NA
ATOM     30  C   UNL A   1      41.136  30.364  36.031  1.00  0.00     0.031 C 
ATOM     31  C   UNL A   1      43.784  26.962  31.788  1.00  0.00     0.029 A 
ATOM     32  C   UNL A   1      42.918  27.818  32.443  1.00  0.00     0.049 A 
ATOM     33  H   UNL A   1      41.314  28.955  31.670  1.00  0.00     0.167 HD
ATOM     34  C   UNL A   1      42.101  29.108  34.378  1.00  0.00     0.074 A 
ATOM     35  C   UNL A   1      42.032  29.416  35.789  1.00  0.00     0.031 C 
ATOM     36  C   UNL A   1      42.875  28.141  33.840  1.00  0.00     0.037 A 
BRANCH  23  37
ATOM     37  C   UNL A   1      41.946  27.051  27.905  1.00  0.00     0.064 A 
ATOM     38  C   UNL A   1      41.626  25.685  27.724  1.00  0.00     0.173 A 
ATOM     39  C   UNL A   1      42.564  27.691  26.824  1.00  0.00     0.173 A 
ATOM     40  F   UNL A   1      40.989  25.006  28.693  1.00  0.00    -0.203 F 
ATOM     41  C   UNL A   1      41.961  24.987  26.561  1.00  0.00     0.198 A 
ATOM     42  C   UNL A   1      42.907  26.987  25.661  1.00  0.00     0.198 A 
ATOM     43  F   UNL A   1      42.804  29.009  26.869  1.00  0.00    -0.203 F 
ATOM     44  F   UNL A   1      41.685  23.678  26.461  1.00  0.00    -0.200 F 
ATOM     45  C   UNL A   1      42.620  25.635  25.537  1.00  0.00     0.200 A 
ATOM     46  F   UNL A   1      43.503  27.625  24.644  1.00  0.00    -0.200 F 
ATOM     47  F   UNL A   1      42.984  24.959  24.437  1.00  0.00    -0.200 F 
ENDBRANCH  23  37
BRANCH  24  48
ATOM     48  C   UNL A   1      39.254  32.600  35.708  1.00  0.00     0.064 A 
ATOM     49  C   UNL A   1      38.386  32.160  36.711  1.00  0.00     0.173 A 
ATOM     50  C   UNL A   1      39.819  33.880  35.851  1.00  0.00     0.173 A 
ATOM     51  F   UNL A   1      37.781  30.967  36.603  1.00  0.00    -0.203 F 
ATOM     52  C   UNL A   1      38.133  32.948  37.835  1.00  0.00     0.198 A 
ATOM     53  C   UNL A   1      39.608  34.642  36.995  1.00  0.00     0.198 A 
ATOM     54  F   UNL A   1      40.633  34.369  34.902  1.00  0.00    -0.203 F 
ATOM     55  F   UNL A   1      37.285  32.514  38.778  1.00  0.00    -0.200 F 
ATOM     56  C   UNL A   1      38.764  34.176  37.987  1.00  0.00     0.200 A 
ATOM     57  F   UNL A   1      40.245  35.810  37.144  1.00  0.00    -0.200 F 
ATOM     58  F   UNL A   1      38.560  34.907  39.090  1.00  0.00    -0.200 F 
ENDBRANCH  24  48
BRANCH  36  59
ATOM     59  C   UNL A   1      43.722  27.324  34.760  1.00  0.00     0.064 A 
ATOM     60  C   UNL A   1      43.297  26.064  35.199  1.00  0.00     0.173 A 
ATOM     61  C   UNL A   1      45.007  27.754  35.120  1.00  0.00     0.173 A 
ATOM     62  F   UNL A   1      42.073  25.615  34.878  1.00  0.00    -0.203 F 
ATOM     63  C   UNL A   1      44.122  25.266  35.981  1.00  0.00     0.198 A 
ATOM     64  C   UNL A   1      45.845  26.938  35.871  1.00  0.00     0.198 A 
ATOM     65  F   UNL A   1      45.465  28.944  34.703  1.00  0.00    -0.203 F 
ATOM     66  F   UNL A   1      43.683  24.078  36.419  1.00  0.00    -0.200 F 
ATOM     67  C   UNL A   1      45.401  25.698  36.307  1.00  0.00     0.200 A 
ATOM     68  F   UNL A   1      47.089  27.344  36.161  1.00  0.00    -0.200 F 
ATOM     69  F   UNL A   1      46.204  24.917  37.041  1.00  0.00    -0.200 F 
ENDBRANCH  36  59
ENDBRANCH  10  11
ENDBRANCH   3   5
ENDBRANCH   2   3
ENDBRANCH   1   2
BRANCH   1  70
ATOM     70  C   UNL A   1      31.838  31.062  26.138  1.00  0.00     0.274 C 
BRANCH  70  71
ATOM     71  O   UNL A   1      31.863  29.834  26.886  1.00  0.00    -0.458 OA
BRANCH  71  72
ATOM     72  C   UNL A   1      32.780  28.854  26.557  1.00  0.00     0.365 C 
ATOM     73  O   UNL A   1      33.723  28.536  27.254  1.00  0.00    -0.245 OA
BRANCH  72  74
ATOM     74  C   UNL A   1      32.588  28.403  25.073  1.00  0.00     0.298 C 
ATOM     75  C   UNL A   1      33.618  27.396  24.355  1.00  0.00     0.111 C 
ATOM     76  N   UNL A   1      31.160  28.052  24.877  1.00  0.00    -0.326 N 
ATOM     77  C   UNL A   1      33.073  26.340  23.226  1.00  0.00    -0.024 C 
ATOM     78  C   UNL A   1      31.059  27.713  23.470  1.00  0.00     0.243 C 
ATOM     79  H   UNL A   1      30.559  28.846  25.102  1.00  0.00     0.347 HD
ATOM     80  H   UNL A   1      30.861  27.287  25.484  1.00  0.00     0.347 HD
ATOM     81  C   UNL A   1      33.485  25.055  23.246  1.00  0.00     0.002 A 
ATOM     82  C   UNL A   1      31.558  26.268  23.297  1.00  0.00     0.196 C 
ATOM     83  C   UNL A   1      33.278  23.926  22.319  1.00  0.00     0.010 A 
ATOM     84  C   UNL A   1      32.621  24.725  24.417  1.00  0.00     0.066 A 
ATOM     85  N   UNL A   1      31.498  25.386  24.518  1.00  0.00    -0.270 NA
ATOM     86  C   UNL A   1      33.234  22.681  22.855  1.00  0.00     0.001 A 
ATOM     87  C   UNL A   1      33.144  23.529  25.127  1.00  0.00     0.028 A 
ATOM     88  C   UNL A   1      33.435  22.513  24.294  1.00  0.00     0.002 A 
BRANCH  78  89
ATOM     89  C   UNL A   1      29.908  28.358  22.745  1.00  0.00     0.012 A 
ATOM     90  C   UNL A   1      30.197  29.505  22.003  1.00  0.00     0.010 A 
ATOM     91  C   UNL A   1      28.572  28.117  23.126  1.00  0.00     0.010 A 
ATOM     92  C   UNL A   1      29.206  30.453  21.788  1.00  0.00     0.001 A 
ATOM     93  C   UNL A   1      27.559  29.014  22.792  1.00  0.00     0.001 A 
ATOM     94  C   UNL A   1      27.884  30.199  22.145  1.00  0.00     0.000 A 
ENDBRANCH  78  89
ENDBRANCH  72  74
ENDBRANCH  71  72
ENDBRANCH  70  71
ENDBRANCH   1  70
TORSDOF 12
ENDMDL
MODEL 3
REMARK VINA RESULT:     -13.5      1.894      4.234
REMARK SMILES O=C(OCCOC(=O)[C@H]1CC2=c3ccccc3=N[C@H]2[C@@H](c2ccccc2)[NH2+]1)c1ccc(-c2c3nc(c(-c4c(F)c(F)c(F)c(F)c4F)c4ccc([nH]4)c(-c4c(F)c(F)c(F)c(F)c4F)c4nc(c(-c5c(F)c(F)c(F)c(F)c5F)c5ccc2[nH]5)C=C4)C=C3)cc1
REMARK SMILES IDX 4 1 3 2 2 3 1 4 28 5 29 6 90 7 30 8 89 9 31 10 32 11 33 12
REMARK SMILES IDX 83 13 34 14 88 15 82 16 84 17 35 18 87 19 81 20 80 21 36 23
REMARK SMILES IDX 68 24 48 25 67 26 49 27 52 28 66 29 85 30 50 31 51 32 65 34
REMARK SMILES IDX 86 35 53 36 37 37 38 38 46 39 39 40 40 41 44 42 47 43 41 44
REMARK SMILES IDX 42 45 45 46 43 47 69 48 70 49 78 50 71 51 72 52 76 53 79 54
REMARK SMILES IDX 73 55 74 56 77 57 75 58 54 59 55 60 63 61 56 62 57 63 61 64
REMARK SMILES IDX 64 65 58 66 59 67 62 68 60 69 5 70 6 71 7 72 8 73 9 74 10 75
REMARK SMILES IDX 27 76 11 77 20 78 12 81 19 82 13 83 17 84 18 85 14 86 16 87
REMARK SMILES IDX 15 88 21 89 22 90 26 91 23 92 25 93 24 94
REMARK H PARENT 84 22 52 33 27 79 27 80
REMARK Flexibility Score: inf
ROOT
ATOM      1  C   UNL A   1      31.596  28.825  26.533  1.00  0.00     0.275 C 
ENDROOT
BRANCH   1   2
ATOM      2  O   UNL A   1      32.438  29.887  26.094  1.00  0.00    -0.458 OA
BRANCH   2   3
ATOM      3  C   UNL A   1      33.000  30.820  26.887  1.00  0.00     0.338 C 
ATOM      4  O   UNL A   1      32.335  31.823  27.149  1.00  0.00    -0.246 OA
BRANCH   3   5
ATOM      5  C   UNL A   1      34.390  30.707  27.470  1.00  0.00     0.060 A 
ATOM      6  C   UNL A   1      34.832  29.403  27.566  1.00  0.00     0.016 A 
ATOM      7  C   UNL A   1      35.267  31.684  27.973  1.00  0.00     0.016 A 
ATOM      8  C   UNL A   1      35.997  29.107  28.270  1.00  0.00     0.010 A 
ATOM      9  C   UNL A   1      36.466  31.354  28.689  1.00  0.00     0.010 A 
ATOM     10  C   UNL A   1      36.832  30.034  28.926  1.00  0.00    -0.014 A 
BRANCH  10  11
ATOM     11  C   UNL A   1      37.955  29.489  29.829  1.00  0.00     0.031 A 
ATOM     12  C   UNL A   1      39.111  28.577  29.362  1.00  0.00     0.074 A 
ATOM     13  C   UNL A   1      38.076  30.019  31.073  1.00  0.00     0.049 A 
ATOM     14  N   UNL A   1      40.268  28.314  29.954  1.00  0.00    -0.248 NA
ATOM     15  C   UNL A   1      38.960  27.845  28.099  1.00  0.00     0.031 C 
ATOM     16  C   UNL A   1      37.091  30.898  31.713  1.00  0.00     0.029 A 
ATOM     17  N   UNL A   1      39.105  29.990  31.990  1.00  0.00    -0.354 N 
ATOM     18  C   UNL A   1      40.995  27.471  29.097  1.00  0.00     0.074 A 
ATOM     19  C   UNL A   1      40.111  27.184  27.997  1.00  0.00     0.031 C 
ATOM     20  C   UNL A   1      37.641  31.489  32.776  1.00  0.00     0.029 A 
ATOM     21  C   UNL A   1      38.904  30.830  33.063  1.00  0.00     0.049 A 
ATOM     22  H   UNL A   1      39.904  29.425  31.888  1.00  0.00     0.167 HD
ATOM     23  C   UNL A   1      42.274  27.005  29.210  1.00  0.00     0.037 A 
ATOM     24  C   UNL A   1      39.584  31.004  34.213  1.00  0.00     0.037 A 
ATOM     25  C   UNL A   1      43.070  27.130  30.409  1.00  0.00     0.049 A 
ATOM     26  C   UNL A   1      40.798  30.171  34.456  1.00  0.00     0.074 A 
ATOM     27  C   UNL A   1      44.310  26.569  30.678  1.00  0.00     0.029 A 
ATOM     28  N   UNL A   1      42.682  27.808  31.548  1.00  0.00    -0.354 N 
ATOM     29  N   UNL A   1      41.512  29.496  33.594  1.00  0.00    -0.248 NA
ATOM     30  C   UNL A   1      41.259  30.066  35.846  1.00  0.00     0.031 C 
ATOM     31  C   UNL A   1      44.650  26.865  31.994  1.00  0.00     0.029 A 
ATOM     32  C   UNL A   1      43.617  27.600  32.547  1.00  0.00     0.049 A 
ATOM     33  H   UNL A   1      41.869  28.355  31.635  1.00  0.00     0.167 HD
ATOM     34  C   UNL A   1      42.502  28.875  34.336  1.00  0.00     0.074 A 
ATOM     35  C   UNL A   1      42.320  29.282  35.712  1.00  0.00     0.031 C 
ATOM     36  C   UNL A   1      43.460  28.025  33.907  1.00  0.00     0.037 A 
BRANCH  23  37
ATOM     37  C   UNL A   1      42.990  26.291  28.072  1.00  0.00     0.064 A 
ATOM     38  C   UNL A   1      42.793  24.899  27.908  1.00  0.00     0.173 A 
ATOM     39  C   UNL A   1      43.662  26.948  27.036  1.00  0.00     0.173 A 
ATOM     40  F   UNL A   1      42.114  24.199  28.834  1.00  0.00    -0.203 F 
ATOM     41  C   UNL A   1      43.293  24.199  26.808  1.00  0.00     0.198 A 
ATOM     42  C   UNL A   1      44.171  26.241  25.937  1.00  0.00     0.198 A 
ATOM     43  F   UNL A   1      43.797  28.281  27.059  1.00  0.00    -0.203 F 
ATOM     44  F   UNL A   1      43.127  22.870  26.727  1.00  0.00    -0.200 F 
ATOM     45  C   UNL A   1      44.001  24.869  25.832  1.00  0.00     0.200 A 
ATOM     46  F   UNL A   1      44.817  26.897  24.962  1.00  0.00    -0.200 F 
ATOM     47  F   UNL A   1      44.523  24.194  24.797  1.00  0.00    -0.200 F 
ENDBRANCH  23  37
BRANCH  24  48
ATOM     48  C   UNL A   1      39.020  31.885  35.274  1.00  0.00     0.064 A 
ATOM     49  C   UNL A   1      38.232  31.374  36.310  1.00  0.00     0.173 A 
ATOM     50  C   UNL A   1      39.310  33.261  35.296  1.00  0.00     0.173 A 
ATOM     51  F   UNL A   1      37.885  30.078  36.314  1.00  0.00    -0.203 F 
ATOM     52  C   UNL A   1      37.796  32.196  37.350  1.00  0.00     0.198 A 
ATOM     53  C   UNL A   1      38.920  34.068  36.359  1.00  0.00     0.198 A 
ATOM     54  F   UNL A   1      40.033  33.814  34.309  1.00  0.00    -0.203 F 
ATOM     55  F   UNL A   1      37.029  31.688  38.325  1.00  0.00    -0.200 F 
ATOM     56  C   UNL A   1      38.162  33.535  37.387  1.00  0.00     0.200 A 
ATOM     57  F   UNL A   1      39.304  35.351  36.398  1.00  0.00    -0.200 F 
ATOM     58  F   UNL A   1      37.785  34.310  38.411  1.00  0.00    -0.200 F 
ENDBRANCH  24  48
BRANCH  36  59
ATOM     59  C   UNL A   1      44.401  27.456  34.919  1.00  0.00     0.064 A 
ATOM     60  C   UNL A   1      45.541  28.166  35.317  1.00  0.00     0.173 A 
ATOM     61  C   UNL A   1      44.110  26.249  35.568  1.00  0.00     0.173 A 
ATOM     62  F   UNL A   1      45.858  29.325  34.720  1.00  0.00    -0.203 F 
ATOM     63  C   UNL A   1      46.368  27.679  36.323  1.00  0.00     0.198 A 
ATOM     64  C   UNL A   1      44.917  25.782  36.599  1.00  0.00     0.198 A 
ATOM     65  F   UNL A   1      43.015  25.547  35.234  1.00  0.00    -0.203 F 
ATOM     66  F   UNL A   1      47.472  28.355  36.665  1.00  0.00    -0.200 F 
ATOM     67  C   UNL A   1      46.049  26.493  36.971  1.00  0.00     0.200 A 
ATOM     68  F   UNL A   1      44.593  24.653  37.243  1.00  0.00    -0.200 F 
ATOM     69  F   UNL A   1      46.834  26.037  37.955  1.00  0.00    -0.200 F 
ENDBRANCH  36  59
ENDBRANCH  10  11
ENDBRANCH   3   5
ENDBRANCH   2   3
ENDBRANCH   1   2
BRANCH   1  70
ATOM     70  C   UNL A   1      31.792  27.484  25.820  1.00  0.00     0.274 C 
BRANCH  70  71
ATOM     71  O   UNL A   1      32.988  26.768  26.174  1.00  0.00    -0.458 OA
BRANCH  71  72
ATOM     72  C   UNL A   1      33.758  26.192  25.180  1.00  0.00     0.365 C 
ATOM     73  O   UNL A   1      33.833  26.611  24.042  1.00  0.00    -0.245 OA
BRANCH  72  74
ATOM     74  C   UNL A   1      34.303  24.804  25.647  1.00  0.00     0.298 C 
ATOM     75  C   UNL A   1      33.323  23.555  25.910  1.00  0.00     0.111 C 
ATOM     76  N   UNL A   1      35.498  24.477  24.831  1.00  0.00    -0.326 N 
ATOM     77  C   UNL A   1      33.844  22.031  25.605  1.00  0.00    -0.024 C 
ATOM     78  C   UNL A   1      35.974  23.218  25.372  1.00  0.00     0.243 C 
ATOM     79  H   UNL A   1      36.209  25.203  24.925  1.00  0.00     0.347 HD
ATOM     80  H   UNL A   1      35.283  24.416  23.835  1.00  0.00     0.347 HD
ATOM     81  C   UNL A   1      33.043  21.160  24.955  1.00  0.00     0.002 A 
ATOM     82  C   UNL A   1      35.112  22.093  24.773  1.00  0.00     0.196 C 
ATOM     83  C   UNL A   1      33.172  19.722  24.652  1.00  0.00     0.010 A 
ATOM     84  C   UNL A   1      33.265  21.828  23.641  1.00  0.00     0.066 A 
ATOM     85  N   UNL A   1      34.431  22.394  23.463  1.00  0.00    -0.270 NA
ATOM     86  C   UNL A   1      32.598  19.274  23.508  1.00  0.00     0.001 A 
ATOM     87  C   UNL A   1      32.152  21.520  22.706  1.00  0.00     0.028 A 
ATOM     88  C   UNL A   1      31.852  20.209  22.666  1.00  0.00     0.002 A 
BRANCH  78  89
ATOM     89  C   UNL A   1      37.454  23.166  25.647  1.00  0.00     0.012 A 
ATOM     90  C   UNL A   1      38.092  21.947  25.412  1.00  0.00     0.010 A 
ATOM     91  C   UNL A   1      38.076  24.105  26.494  1.00  0.00     0.010 A 
ATOM     92  C   UNL A   1      39.238  21.623  26.126  1.00  0.00     0.001 A 
ATOM     93  C   UNL A   1      39.295  23.819  27.106  1.00  0.00     0.001 A 
ATOM     94  C   UNL A   1      39.863  22.562  26.942  1.00  0.00     0.000 A 
ENDBRANCH  78  89
ENDBRANCH  72  74
ENDBRANCH  71  72
ENDBRANCH  70  71
ENDBRANCH   1  70
TORSDOF 12
ENDMDL
