MODEL 1
REMARK VINA RESULT:     -12.1      0.000      0.000
REMARK SMILES O=C(OCCOC(=O)c1ccc(-c2cccc(O)c2)cc1Cl)c1ccc(-c2c3nc(c(-c4c(F)c(F)c(F)c(F)c4F)c4ccc([nH]4)c(-c4c(F)c(F)c(F)c(F)c4F)c4nc(c(-c5c(F)c(F)c(F)c(F)c5F)c5ccc2[nH]5)C=C4)C=C3)cc1
REMARK SMILES IDX 4 1 3 2 2 3 1 4 23 5 24 6 85 7 25 8 84 9 26 10 27 11 28 12
REMARK SMILES IDX 78 13 29 14 83 15 77 16 79 17 30 18 82 19 76 20 75 21 31 23
REMARK SMILES IDX 63 24 43 25 62 26 44 27 47 28 61 29 80 30 45 31 46 32 60 34
REMARK SMILES IDX 81 35 48 36 32 37 33 38 41 39 34 40 35 41 39 42 42 43 36 44
REMARK SMILES IDX 37 45 40 46 38 47 64 48 65 49 73 50 66 51 67 52 71 53 74 54
REMARK SMILES IDX 68 55 69 56 72 57 70 58 49 59 50 60 58 61 51 62 52 63 56 64
REMARK SMILES IDX 59 65 53 66 54 67 57 68 55 69 5 70 6 71 7 72 8 73 9 74 10 75
REMARK SMILES IDX 21 76 11 77 20 78 22 79 12 80 13 81 14 82 19 83 15 84 17 85
REMARK SMILES IDX 16 86 18 87
REMARK H PARENT 79 22 47 33 18 88
REMARK Flexibility Score: inf
ROOT
ATOM      1  C   UNL A   1      43.476  21.686  25.486  1.00  0.00     0.275 C 
ENDROOT
BRANCH   1   2
ATOM      2  O   UNL A   1      43.035  23.000  25.096  1.00  0.00    -0.458 OA
BRANCH   2   3
ATOM      3  C   UNL A   1      43.607  24.214  25.266  1.00  0.00     0.338 C 
ATOM      4  O   UNL A   1      44.535  24.533  24.524  1.00  0.00    -0.246 OA
BRANCH   3   5
ATOM      5  C   UNL A   1      43.263  25.163  26.373  1.00  0.00     0.060 A 
ATOM      6  C   UNL A   1      43.805  26.434  26.562  1.00  0.00     0.016 A 
ATOM      7  C   UNL A   1      42.294  24.722  27.299  1.00  0.00     0.016 A 
ATOM      8  C   UNL A   1      43.344  27.269  27.579  1.00  0.00     0.010 A 
ATOM      9  C   UNL A   1      41.818  25.557  28.314  1.00  0.00     0.010 A 
ATOM     10  C   UNL A   1      42.344  26.843  28.454  1.00  0.00    -0.014 A 
BRANCH  10  11
ATOM     11  C   UNL A   1      41.969  27.728  29.575  1.00  0.00     0.031 A 
ATOM     12  C   UNL A   1      40.773  28.611  29.418  1.00  0.00     0.074 A 
ATOM     13  C   UNL A   1      42.613  27.634  30.753  1.00  0.00     0.049 A 
ATOM     14  N   UNL A   1      40.172  29.350  30.311  1.00  0.00    -0.248 NA
ATOM     15  C   UNL A   1      40.141  28.632  28.089  1.00  0.00     0.031 C 
ATOM     16  C   UNL A   1      43.728  26.732  31.020  1.00  0.00     0.029 A 
ATOM     17  N   UNL A   1      42.420  28.280  31.945  1.00  0.00    -0.354 N 
ATOM     18  C   UNL A   1      39.064  29.879  29.669  1.00  0.00     0.074 A 
ATOM     19  C   UNL A   1      39.113  29.439  28.292  1.00  0.00     0.031 C 
ATOM     20  C   UNL A   1      44.154  26.906  32.281  1.00  0.00     0.029 A 
ATOM     21  C   UNL A   1      43.327  27.927  32.915  1.00  0.00     0.049 A 
ATOM     22  H   UNL A   1      41.700  28.935  32.092  1.00  0.00     0.167 HD
ATOM     23  C   UNL A   1      38.075  30.631  30.199  1.00  0.00     0.037 A 
ATOM     24  C   UNL A   1      43.465  28.378  34.175  1.00  0.00     0.037 A 
ATOM     25  C   UNL A   1      38.071  31.099  31.557  1.00  0.00     0.049 A 
ATOM     26  C   UNL A   1      42.428  29.336  34.697  1.00  0.00     0.074 A 
ATOM     27  C   UNL A   1      37.159  31.925  32.188  1.00  0.00     0.029 A 
ATOM     28  N   UNL A   1      39.048  30.787  32.496  1.00  0.00    -0.354 N 
ATOM     29  N   UNL A   1      41.367  29.815  34.090  1.00  0.00    -0.248 NA
ATOM     30  C   UNL A   1      42.580  29.788  36.085  1.00  0.00     0.031 C 
ATOM     31  C   UNL A   1      37.611  32.152  33.492  1.00  0.00     0.029 A 
ATOM     32  C   UNL A   1      38.774  31.423  33.695  1.00  0.00     0.049 A 
ATOM     33  H   UNL A   1      39.822  30.201  32.332  1.00  0.00     0.167 HD
ATOM     34  C   UNL A   1      40.708  30.594  35.028  1.00  0.00     0.074 A 
ATOM     35  C   UNL A   1      41.479  30.507  36.252  1.00  0.00     0.031 C 
ATOM     36  C   UNL A   1      39.566  31.314  34.894  1.00  0.00     0.037 A 
BRANCH  23  37
ATOM     37  C   UNL A   1      36.944  30.999  29.285  1.00  0.00     0.064 A 
ATOM     38  C   UNL A   1      36.794  32.308  28.800  1.00  0.00     0.173 A 
ATOM     39  C   UNL A   1      35.986  30.047  28.913  1.00  0.00     0.173 A 
ATOM     40  F   UNL A   1      37.670  33.263  29.149  1.00  0.00    -0.203 F 
ATOM     41  C   UNL A   1      35.709  32.657  28.000  1.00  0.00     0.198 A 
ATOM     42  C   UNL A   1      34.916  30.392  28.091  1.00  0.00     0.198 A 
ATOM     43  F   UNL A   1      36.079  28.785  29.356  1.00  0.00    -0.203 F 
ATOM     44  F   UNL A   1      35.555  33.925  27.597  1.00  0.00    -0.200 F 
ATOM     45  C   UNL A   1      34.774  31.698  27.643  1.00  0.00     0.200 A 
ATOM     46  F   UNL A   1      34.014  29.464  27.745  1.00  0.00    -0.200 F 
ATOM     47  F   UNL A   1      33.726  32.034  26.877  1.00  0.00    -0.200 F 
ENDBRANCH  23  37
BRANCH  24  48
ATOM     48  C   UNL A   1      44.610  27.934  35.017  1.00  0.00     0.064 A 
ATOM     49  C   UNL A   1      45.830  28.624  35.031  1.00  0.00     0.173 A 
ATOM     50  C   UNL A   1      44.514  26.774  35.803  1.00  0.00     0.173 A 
ATOM     51  F   UNL A   1      45.982  29.731  34.289  1.00  0.00    -0.203 F 
ATOM     52  C   UNL A   1      46.919  28.153  35.763  1.00  0.00     0.198 A 
ATOM     53  C   UNL A   1      45.593  26.320  36.560  1.00  0.00     0.198 A 
ATOM     54  F   UNL A   1      43.369  26.077  35.836  1.00  0.00    -0.203 F 
ATOM     55  F   UNL A   1      48.092  28.798  35.709  1.00  0.00    -0.200 F 
ATOM     56  C   UNL A   1      46.799  27.002  36.528  1.00  0.00     0.200 A 
ATOM     57  F   UNL A   1      45.467  25.215  37.307  1.00  0.00    -0.200 F 
ATOM     58  F   UNL A   1      47.849  26.544  37.225  1.00  0.00    -0.200 F 
ENDBRANCH  24  48
BRANCH  36  59
ATOM     59  C   UNL A   1      39.078  32.038  36.115  1.00  0.00     0.064 A 
ATOM     60  C   UNL A   1      39.470  33.355  36.395  1.00  0.00     0.173 A 
ATOM     61  C   UNL A   1      38.189  31.412  37.002  1.00  0.00     0.173 A 
ATOM     62  F   UNL A   1      40.331  33.991  35.585  1.00  0.00    -0.203 F 
ATOM     63  C   UNL A   1      39.017  34.007  37.538  1.00  0.00     0.198 A 
ATOM     64  C   UNL A   1      37.710  32.079  38.123  1.00  0.00     0.198 A 
ATOM     65  F   UNL A   1      37.779  30.155  36.774  1.00  0.00    -0.203 F 
ATOM     66  F   UNL A   1      39.453  35.243  37.817  1.00  0.00    -0.200 F 
ATOM     67  C   UNL A   1      38.133  33.372  38.396  1.00  0.00     0.200 A 
ATOM     68  F   UNL A   1      36.844  31.471  38.944  1.00  0.00    -0.200 F 
ATOM     69  F   UNL A   1      37.695  34.002  39.494  1.00  0.00    -0.200 F 
ENDBRANCH  36  59
ENDBRANCH  10  11
ENDBRANCH   3   5
ENDBRANCH   2   3
ENDBRANCH   1   2
BRANCH   1  70
ATOM     70  C   UNL A   1      42.397  20.810  26.126  1.00  0.00     0.275 C 
BRANCH  70  71
ATOM     71  O   UNL A   1      41.065  21.142  25.707  1.00  0.00    -0.458 OA
BRANCH  71  72
ATOM     72  C   UNL A   1      40.203  21.464  26.706  1.00  0.00     0.339 C 
ATOM     73  O   UNL A   1      40.426  21.431  27.905  1.00  0.00    -0.246 OA
BRANCH  72  74
ATOM     74  C   UNL A   1      38.961  22.014  26.137  1.00  0.00     0.078 A 
ATOM     75  C   UNL A   1      38.647  23.346  26.434  1.00  0.00     0.018 A 
ATOM     76  C   UNL A   1      38.096  21.263  25.343  1.00  0.00     0.056 A 
ATOM     77  C   UNL A   1      37.507  23.944  25.882  1.00  0.00     0.010 A 
ATOM     78  C   UNL A   1      36.946  21.863  24.811  1.00  0.00     0.030 A 
ATOM     79  Cl  UNL A   1      38.361  19.590  25.001  1.00  0.00    -0.083 Cl
ATOM     80  C   UNL A   1      36.639  23.215  25.057  1.00  0.00    -0.017 A 
BRANCH  80  81
ATOM     81  C   UNL A   1      35.419  23.820  24.495  1.00  0.00    -0.015 A 
ATOM     82  C   UNL A   1      34.739  24.827  25.202  1.00  0.00     0.009 A 
ATOM     83  C   UNL A   1      34.897  23.424  23.253  1.00  0.00     0.054 A 
ATOM     84  C   UNL A   1      33.580  25.419  24.690  1.00  0.00     0.004 A 
ATOM     85  C   UNL A   1      33.739  24.018  22.749  1.00  0.00     0.116 A 
ATOM     86  C   UNL A   1      33.077  25.013  23.458  1.00  0.00     0.046 A 
BRANCH  85  87
ATOM     87  O   UNL A   1      33.279  23.591  21.537  1.00  0.00    -0.508 OA
ATOM     88  H   UNL A   1      33.606  23.978  20.749  1.00  0.00     0.293 HD
ENDBRANCH  85  87
ENDBRANCH  80  81
ENDBRANCH  72  74
ENDBRANCH  71  72
ENDBRANCH  70  71
ENDBRANCH   1  70
TORSDOF 13
ENDMDL
MODEL 2
REMARK VINA RESULT:     -12.1      0.541      7.443
REMARK SMILES O=C(OCCOC(=O)c1ccc(-c2cccc(O)c2)cc1Cl)c1ccc(-c2c3nc(c(-c4c(F)c(F)c(F)c(F)c4F)c4ccc([nH]4)c(-c4c(F)c(F)c(F)c(F)c4F)c4nc(c(-c5c(F)c(F)c(F)c(F)c5F)c5ccc2[nH]5)C=C4)C=C3)cc1
REMARK SMILES IDX 4 1 3 2 2 3 1 4 23 5 24 6 85 7 25 8 84 9 26 10 27 11 28 12
REMARK SMILES IDX 78 13 29 14 83 15 77 16 79 17 30 18 82 19 76 20 75 21 31 23
REMARK SMILES IDX 63 24 43 25 62 26 44 27 47 28 61 29 80 30 45 31 46 32 60 34
REMARK SMILES IDX 81 35 48 36 32 37 33 38 41 39 34 40 35 41 39 42 42 43 36 44
REMARK SMILES IDX 37 45 40 46 38 47 64 48 65 49 73 50 66 51 67 52 71 53 74 54
REMARK SMILES IDX 68 55 69 56 72 57 70 58 49 59 50 60 58 61 51 62 52 63 56 64
REMARK SMILES IDX 59 65 53 66 54 67 57 68 55 69 5 70 6 71 7 72 8 73 9 74 10 75
REMARK SMILES IDX 21 76 11 77 20 78 22 79 12 80 13 81 14 82 19 83 15 84 17 85
REMARK SMILES IDX 16 86 18 87
REMARK H PARENT 79 22 47 33 18 88
REMARK Flexibility Score: inf
ROOT
ATOM      1  C   UNL A   1      43.913  21.733  25.334  1.00  0.00     0.275 C 
ENDROOT
BRANCH   1   2
ATOM      2  O   UNL A   1      43.611  23.053  24.842  1.00  0.00    -0.458 OA
BRANCH   2   3
ATOM      3  C   UNL A   1      44.106  24.263  25.189  1.00  0.00     0.338 C 
ATOM      4  O   UNL A   1      45.109  24.675  24.607  1.00  0.00    -0.246 OA
BRANCH   3   5
ATOM      5  C   UNL A   1      43.583  25.098  26.317  1.00  0.00     0.060 A 
ATOM      6  C   UNL A   1      44.051  26.357  26.692  1.00  0.00     0.016 A 
ATOM      7  C   UNL A   1      42.511  24.553  27.056  1.00  0.00     0.016 A 
ATOM      8  C   UNL A   1      43.428  27.085  27.704  1.00  0.00     0.010 A 
ATOM      9  C   UNL A   1      41.873  25.281  28.065  1.00  0.00     0.010 A 
ATOM     10  C   UNL A   1      42.332  26.559  28.391  1.00  0.00    -0.014 A 
BRANCH  10  11
ATOM     11  C   UNL A   1      41.778  27.328  29.523  1.00  0.00     0.031 A 
ATOM     12  C   UNL A   1      42.475  27.254  30.844  1.00  0.00     0.074 A 
ATOM     13  C   UNL A   1      40.754  28.177  29.325  1.00  0.00     0.049 A 
ATOM     14  N   UNL A   1      42.263  27.953  31.927  1.00  0.00    -0.248 NA
ATOM     15  C   UNL A   1      43.588  26.297  30.948  1.00  0.00     0.031 C 
ATOM     16  C   UNL A   1      40.079  28.380  28.047  1.00  0.00     0.029 A 
ATOM     17  N   UNL A   1      40.112  29.037  30.176  1.00  0.00    -0.354 N 
ATOM     18  C   UNL A   1      43.247  27.560  32.819  1.00  0.00     0.074 A 
ATOM     19  C   UNL A   1      44.011  26.510  32.183  1.00  0.00     0.031 C 
ATOM     20  C   UNL A   1      39.088  29.273  28.200  1.00  0.00     0.029 A 
ATOM     21  C   UNL A   1      39.070  29.715  29.590  1.00  0.00     0.049 A 
ATOM     22  H   UNL A   1      40.372  29.157  31.118  1.00  0.00     0.167 HD
ATOM     23  C   UNL A   1      43.510  28.064  34.045  1.00  0.00     0.037 A 
ATOM     24  C   UNL A   1      38.206  30.599  30.122  1.00  0.00     0.037 A 
ATOM     25  C   UNL A   1      42.707  29.074  34.679  1.00  0.00     0.049 A 
ATOM     26  C   UNL A   1      38.432  31.036  31.543  1.00  0.00     0.074 A 
ATOM     27  C   UNL A   1      42.833  29.613  35.945  1.00  0.00     0.029 A 
ATOM     28  N   UNL A   1      41.608  29.687  34.087  1.00  0.00    -0.354 N 
ATOM     29  N   UNL A   1      39.381  30.676  32.376  1.00  0.00    -0.248 NA
ATOM     30  C   UNL A   1      37.497  32.025  32.091  1.00  0.00     0.031 C 
ATOM     31  C   UNL A   1      41.781  30.516  36.137  1.00  0.00     0.029 A 
ATOM     32  C   UNL A   1      41.032  30.583  34.971  1.00  0.00     0.049 A 
ATOM     33  H   UNL A   1      41.287  29.509  33.174  1.00  0.00     0.167 HD
ATOM     34  C   UNL A   1      39.181  31.418  33.530  1.00  0.00     0.074 A 
ATOM     35  C   UNL A   1      38.029  32.263  33.282  1.00  0.00     0.031 C 
ATOM     36  C   UNL A   1      39.884  31.408  34.690  1.00  0.00     0.037 A 
BRANCH  23  37
ATOM     37  C   UNL A   1      44.699  27.502  34.765  1.00  0.00     0.064 A 
ATOM     38  C   UNL A   1      45.965  28.100  34.660  1.00  0.00     0.173 A 
ATOM     39  C   UNL A   1      44.581  26.342  35.542  1.00  0.00     0.173 A 
ATOM     40  F   UNL A   1      46.135  29.197  33.906  1.00  0.00    -0.203 F 
ATOM     41  C   UNL A   1      47.077  27.538  35.283  1.00  0.00     0.198 A 
ATOM     42  C   UNL A   1      45.690  25.798  36.186  1.00  0.00     0.198 A 
ATOM     43  F   UNL A   1      43.396  25.729  35.668  1.00  0.00    -0.203 F 
ATOM     44  F   UNL A   1      48.286  28.092  35.122  1.00  0.00    -0.200 F 
ATOM     45  C   UNL A   1      46.937  26.391  36.049  1.00  0.00     0.200 A 
ATOM     46  F   UNL A   1      45.554  24.691  36.928  1.00  0.00    -0.200 F 
ATOM     47  F   UNL A   1      48.008  25.848  36.645  1.00  0.00    -0.200 F 
ENDBRANCH  23  37
BRANCH  24  48
ATOM     48  C   UNL A   1      37.067  31.122  29.317  1.00  0.00     0.064 A 
ATOM     49  C   UNL A   1      37.024  32.451  28.874  1.00  0.00     0.173 A 
ATOM     50  C   UNL A   1      35.972  30.300  29.006  1.00  0.00     0.173 A 
ATOM     51  F   UNL A   1      38.038  33.284  29.154  1.00  0.00    -0.203 F 
ATOM     52  C   UNL A   1      35.916  32.949  28.189  1.00  0.00     0.198 A 
ATOM     53  C   UNL A   1      34.878  30.790  28.294  1.00  0.00     0.198 A 
ATOM     54  F   UNL A   1      35.961  29.017  29.396  1.00  0.00    -0.203 F 
ATOM     55  F   UNL A   1      35.875  34.240  27.832  1.00  0.00    -0.200 F 
ATOM     56  C   UNL A   1      34.844  32.118  27.898  1.00  0.00     0.200 A 
ATOM     57  F   UNL A   1      33.852  29.978  28.005  1.00  0.00    -0.200 F 
ATOM     58  F   UNL A   1      33.777  32.599  27.247  1.00  0.00    -0.200 F 
ENDBRANCH  24  48
BRANCH  36  59
ATOM     59  C   UNL A   1      39.436  32.360  35.759  1.00  0.00     0.064 A 
ATOM     60  C   UNL A   1      39.954  33.660  35.851  1.00  0.00     0.173 A 
ATOM     61  C   UNL A   1      38.458  31.973  36.687  1.00  0.00     0.173 A 
ATOM     62  F   UNL A   1      40.903  34.072  34.996  1.00  0.00    -0.203 F 
ATOM     63  C   UNL A   1      39.535  34.526  36.857  1.00  0.00     0.198 A 
ATOM     64  C   UNL A   1      38.015  32.853  37.668  1.00  0.00     0.198 A 
ATOM     65  F   UNL A   1      37.926  30.742  36.636  1.00  0.00    -0.203 F 
ATOM     66  F   UNL A   1      40.088  35.741  36.964  1.00  0.00    -0.200 F 
ATOM     67  C   UNL A   1      38.561  34.124  37.759  1.00  0.00     0.200 A 
ATOM     68  F   UNL A   1      37.063  32.470  38.530  1.00  0.00    -0.200 F 
ATOM     69  F   UNL A   1      38.156  34.960  38.724  1.00  0.00    -0.200 F 
ENDBRANCH  36  59
ENDBRANCH  10  11
ENDBRANCH   3   5
ENDBRANCH   2   3
ENDBRANCH   1   2
BRANCH   1  70
ATOM     70  C   UNL A   1      42.740  21.014  26.004  1.00  0.00     0.275 C 
BRANCH  70  71
ATOM     71  O   UNL A   1      41.462  21.591  25.696  1.00  0.00    -0.458 OA
BRANCH  71  72
ATOM     72  C   UNL A   1      40.484  21.364  26.612  1.00  0.00     0.339 C 
ATOM     73  O   UNL A   1      40.616  20.857  27.713  1.00  0.00    -0.246 OA
BRANCH  72  74
ATOM     74  C   UNL A   1      39.218  21.956  26.148  1.00  0.00     0.078 A 
ATOM     75  C   UNL A   1      38.959  23.287  26.500  1.00  0.00     0.018 A 
ATOM     76  C   UNL A   1      38.280  21.247  25.401  1.00  0.00     0.056 A 
ATOM     77  C   UNL A   1      37.798  23.926  26.047  1.00  0.00     0.010 A 
ATOM     78  C   UNL A   1      37.110  21.887  24.969  1.00  0.00     0.030 A 
ATOM     79  Cl  UNL A   1      38.478  19.578  25.000  1.00  0.00    -0.083 Cl
ATOM     80  C   UNL A   1      36.855  23.238  25.270  1.00  0.00    -0.017 A 
BRANCH  80  81
ATOM     81  C   UNL A   1      35.612  23.885  24.813  1.00  0.00    -0.015 A 
ATOM     82  C   UNL A   1      34.887  24.717  25.684  1.00  0.00     0.009 A 
ATOM     83  C   UNL A   1      35.113  23.703  23.514  1.00  0.00     0.054 A 
ATOM     84  C   UNL A   1      33.706  25.344  25.276  1.00  0.00     0.004 A 
ATOM     85  C   UNL A   1      33.933  24.331  23.113  1.00  0.00     0.116 A 
ATOM     86  C   UNL A   1      33.226  25.151  23.984  1.00  0.00     0.046 A 
BRANCH  85  87
ATOM     87  O   UNL A   1      33.498  24.115  21.838  1.00  0.00    -0.508 OA
ATOM     88  H   UNL A   1      33.055  23.318  21.623  1.00  0.00     0.293 HD
ENDBRANCH  85  87
ENDBRANCH  80  81
ENDBRANCH  72  74
ENDBRANCH  71  72
ENDBRANCH  70  71
ENDBRANCH   1  70
TORSDOF 13
ENDMDL
MODEL 3
REMARK VINA RESULT:     -12.0      0.580      7.613
REMARK SMILES O=C(OCCOC(=O)c1ccc(-c2cccc(O)c2)cc1Cl)c1ccc(-c2c3nc(c(-c4c(F)c(F)c(F)c(F)c4F)c4ccc([nH]4)c(-c4c(F)c(F)c(F)c(F)c4F)c4nc(c(-c5c(F)c(F)c(F)c(F)c5F)c5ccc2[nH]5)C=C4)C=C3)cc1
REMARK SMILES IDX 4 1 3 2 2 3 1 4 23 5 24 6 85 7 25 8 84 9 26 10 27 11 28 12
REMARK SMILES IDX 78 13 29 14 83 15 77 16 79 17 30 18 82 19 76 20 75 21 31 23
REMARK SMILES IDX 63 24 43 25 62 26 44 27 47 28 61 29 80 30 45 31 46 32 60 34
REMARK SMILES IDX 81 35 48 36 32 37 33 38 41 39 34 40 35 41 39 42 42 43 36 44
REMARK SMILES IDX 37 45 40 46 38 47 64 48 65 49 73 50 66 51 67 52 71 53 74 54
REMARK SMILES IDX 68 55 69 56 72 57 70 58 49 59 50 60 58 61 51 62 52 63 56 64
REMARK SMILES IDX 59 65 53 66 54 67 57 68 55 69 5 70 6 71 7 72 8 73 9 74 10 75
REMARK SMILES IDX 21 76 11 77 20 78 22 79 12 80 13 81 14 82 19 83 15 84 17 85
REMARK SMILES IDX 16 86 18 87
REMARK H PARENT 79 22 47 33 18 88
REMARK Flexibility Score: inf
ROOT
ATOM      1  C   UNL A   1      43.948  21.727  25.237  1.00  0.00     0.275 C 
ENDROOT
BRANCH   1   2
ATOM      2  O   UNL A   1      43.669  23.045  24.726  1.00  0.00    -0.458 OA
BRANCH   2   3
ATOM      3  C   UNL A   1      44.160  24.254  25.079  1.00  0.00     0.338 C 
ATOM      4  O   UNL A   1      45.158  24.675  24.494  1.00  0.00    -0.246 OA
BRANCH   3   5
ATOM      5  C   UNL A   1      43.639  25.080  26.216  1.00  0.00     0.060 A 
ATOM      6  C   UNL A   1      44.098  26.342  26.592  1.00  0.00     0.016 A 
ATOM      7  C   UNL A   1      42.581  24.521  26.963  1.00  0.00     0.016 A 
ATOM      8  C   UNL A   1      43.478  27.059  27.613  1.00  0.00     0.010 A 
ATOM      9  C   UNL A   1      41.946  25.238  27.981  1.00  0.00     0.010 A 
ATOM     10  C   UNL A   1      42.395  26.519  28.308  1.00  0.00    -0.014 A 
BRANCH  10  11
ATOM     11  C   UNL A   1      41.844  27.277  29.449  1.00  0.00     0.031 A 
ATOM     12  C   UNL A   1      42.547  27.193  30.766  1.00  0.00     0.074 A 
ATOM     13  C   UNL A   1      40.817  28.126  29.263  1.00  0.00     0.049 A 
ATOM     14  N   UNL A   1      42.338  27.882  31.856  1.00  0.00    -0.248 NA
ATOM     15  C   UNL A   1      43.662  26.237  30.858  1.00  0.00     0.031 C 
ATOM     16  C   UNL A   1      40.137  28.339  27.990  1.00  0.00     0.029 A 
ATOM     17  N   UNL A   1      40.178  28.977  30.124  1.00  0.00    -0.354 N 
ATOM     18  C   UNL A   1      43.326  27.484  32.741  1.00  0.00     0.074 A 
ATOM     19  C   UNL A   1      44.090  26.440  32.093  1.00  0.00     0.031 C 
ATOM     20  C   UNL A   1      39.145  29.229  28.155  1.00  0.00     0.029 A 
ATOM     21  C   UNL A   1      39.132  29.659  29.548  1.00  0.00     0.049 A 
ATOM     22  H   UNL A   1      40.442  29.090  31.065  1.00  0.00     0.167 HD
ATOM     23  C   UNL A   1      43.593  27.978  33.970  1.00  0.00     0.037 A 
ATOM     24  C   UNL A   1      38.268  30.536  30.091  1.00  0.00     0.037 A 
ATOM     25  C   UNL A   1      42.791  28.980  34.616  1.00  0.00     0.049 A 
ATOM     26  C   UNL A   1      38.500  30.962  31.515  1.00  0.00     0.074 A 
ATOM     27  C   UNL A   1      42.922  29.509  35.886  1.00  0.00     0.029 A 
ATOM     28  N   UNL A   1      41.689  29.596  34.034  1.00  0.00    -0.354 N 
ATOM     29  N   UNL A   1      39.453  30.597  32.341  1.00  0.00    -0.248 NA
ATOM     30  C   UNL A   1      37.565  31.945  32.075  1.00  0.00     0.031 C 
ATOM     31  C   UNL A   1      41.869  30.408  36.090  1.00  0.00     0.029 A 
ATOM     32  C   UNL A   1      41.115  30.484  34.928  1.00  0.00     0.049 A 
ATOM     33  H   UNL A   1      41.364  29.426  33.120  1.00  0.00     0.167 HD
ATOM     34  C   UNL A   1      39.256  31.329  33.502  1.00  0.00     0.074 A 
ATOM     35  C   UNL A   1      38.102  32.174  33.265  1.00  0.00     0.031 C 
ATOM     36  C   UNL A   1      39.965  31.310  34.658  1.00  0.00     0.037 A 
BRANCH  23  37
ATOM     37  C   UNL A   1      44.786  27.412  34.680  1.00  0.00     0.064 A 
ATOM     38  C   UNL A   1      44.677  26.274  35.495  1.00  0.00     0.173 A 
ATOM     39  C   UNL A   1      46.041  28.026  34.572  1.00  0.00     0.173 A 
ATOM     40  F   UNL A   1      43.492  25.665  35.653  1.00  0.00    -0.203 F 
ATOM     41  C   UNL A   1      45.777  25.788  36.199  1.00  0.00     0.198 A 
ATOM     42  C   UNL A   1      47.144  27.522  35.257  1.00  0.00     0.198 A 
ATOM     43  F   UNL A   1      46.196  29.120  33.814  1.00  0.00    -0.203 F 
ATOM     44  F   UNL A   1      45.637  24.735  37.016  1.00  0.00    -0.200 F 
ATOM     45  C   UNL A   1      47.010  26.410  36.076  1.00  0.00     0.200 A 
ATOM     46  F   UNL A   1      48.336  28.123  35.135  1.00  0.00    -0.200 F 
ATOM     47  F   UNL A   1      48.066  25.947  36.757  1.00  0.00    -0.200 F 
ENDBRANCH  23  37
BRANCH  24  48
ATOM     48  C   UNL A   1      37.126  31.065  29.295  1.00  0.00     0.064 A 
ATOM     49  C   UNL A   1      37.073  32.401  28.875  1.00  0.00     0.173 A 
ATOM     50  C   UNL A   1      36.036  30.240  28.971  1.00  0.00     0.173 A 
ATOM     51  F   UNL A   1      38.080  33.236  29.168  1.00  0.00    -0.203 F 
ATOM     52  C   UNL A   1      35.961  32.901  28.198  1.00  0.00     0.198 A 
ATOM     53  C   UNL A   1      34.939  30.733  28.268  1.00  0.00     0.198 A 
ATOM     54  F   UNL A   1      36.035  28.951  29.340  1.00  0.00    -0.203 F 
ATOM     55  F   UNL A   1      35.910  34.198  27.863  1.00  0.00    -0.200 F 
ATOM     56  C   UNL A   1      34.895  32.067  27.894  1.00  0.00     0.200 A 
ATOM     57  F   UNL A   1      33.919  29.919  27.965  1.00  0.00    -0.200 F 
ATOM     58  F   UNL A   1      33.823  32.551  27.252  1.00  0.00    -0.200 F 
ENDBRANCH  24  48
BRANCH  36  59
ATOM     59  C   UNL A   1      39.519  32.252  35.738  1.00  0.00     0.064 A 
ATOM     60  C   UNL A   1      38.522  31.898  36.658  1.00  0.00     0.173 A 
ATOM     61  C   UNL A   1      40.116  33.515  35.866  1.00  0.00     0.173 A 
ATOM     62  F   UNL A   1      37.910  30.707  36.567  1.00  0.00    -0.203 F 
ATOM     63  C   UNL A   1      38.113  32.789  37.646  1.00  0.00     0.198 A 
ATOM     64  C   UNL A   1      39.731  34.389  36.876  1.00  0.00     0.198 A 
ATOM     65  F   UNL A   1      41.081  33.898  35.015  1.00  0.00    -0.203 F 
ATOM     66  F   UNL A   1      37.115  32.453  38.474  1.00  0.00    -0.200 F 
ATOM     67  C   UNL A   1      38.722  34.029  37.758  1.00  0.00     0.200 A 
ATOM     68  F   UNL A   1      40.330  35.581  36.995  1.00  0.00    -0.200 F 
ATOM     69  F   UNL A   1      38.330  34.885  38.712  1.00  0.00    -0.200 F 
ENDBRANCH  36  59
ENDBRANCH  10  11
ENDBRANCH   3   5
ENDBRANCH   2   3
ENDBRANCH   1   2
BRANCH   1  70
ATOM     70  C   UNL A   1      42.776  21.056  25.956  1.00  0.00     0.275 C 
BRANCH  70  71
ATOM     71  O   UNL A   1      41.512  21.692  25.711  1.00  0.00    -0.458 OA
BRANCH  71  72
ATOM     72  C   UNL A   1      40.534  21.411  26.612  1.00  0.00     0.339 C 
ATOM     73  O   UNL A   1      40.673  20.879  27.701  1.00  0.00    -0.246 OA
BRANCH  72  74
ATOM     74  C   UNL A   1      39.255  21.978  26.153  1.00  0.00     0.078 A 
ATOM     75  C   UNL A   1      38.978  23.309  26.492  1.00  0.00     0.018 A 
ATOM     76  C   UNL A   1      38.322  21.245  25.423  1.00  0.00     0.056 A 
ATOM     77  C   UNL A   1      37.802  23.923  26.043  1.00  0.00     0.010 A 
ATOM     78  C   UNL A   1      37.138  21.862  24.994  1.00  0.00     0.030 A 
ATOM     79  Cl  UNL A   1      38.543  19.575  25.038  1.00  0.00    -0.083 Cl
ATOM     80  C   UNL A   1      36.864  23.211  25.282  1.00  0.00    -0.017 A 
BRANCH  80  81
ATOM     81  C   UNL A   1      35.607  23.834  24.829  1.00  0.00    -0.015 A 
ATOM     82  C   UNL A   1      34.822  24.577  25.728  1.00  0.00     0.009 A 
ATOM     83  C   UNL A   1      35.152  23.714  23.506  1.00  0.00     0.054 A 
ATOM     84  C   UNL A   1      33.626  25.178  25.324  1.00  0.00     0.004 A 
ATOM     85  C   UNL A   1      33.958  24.316  23.109  1.00  0.00     0.116 A 
ATOM     86  C   UNL A   1      33.191  25.048  24.009  1.00  0.00     0.046 A 
BRANCH  85  87
ATOM     87  O   UNL A   1      33.568  24.164  21.811  1.00  0.00    -0.508 OA
ATOM     88  H   UNL A   1      32.975  23.477  21.577  1.00  0.00     0.293 HD
ENDBRANCH  85  87
ENDBRANCH  80  81
ENDBRANCH  72  74
ENDBRANCH  71  72
ENDBRANCH  70  71
ENDBRANCH   1  70
TORSDOF 13
ENDMDL
