MODEL 1
REMARK VINA RESULT:     -12.3      0.000      0.000
REMARK SMILES CC1(C)[C@H](C(=O)OCCOC(=O)c2ccc(-c3c4nc(c(-c5c(F)c(F)c(F)c(F)c5F)c5ccc([nH]5)c(-c5c(F)c(F)c(F)c(F)c5F)c5nc(c(-c6c(F)c(F)c(F)c(F)c6F)c6ccc3[nH]6)C=C5)C=C4)cc2)[C@@H]1C(=O)Nc1ccc(Cl)c(Br)c1
REMARK SMILES IDX 8 1 7 2 5 3 6 4 4 5 1 6 2 7 3 8 76 9 77 10 78 11 79 12 80 14
REMARK SMILES IDX 81 15 87 16 82 17 85 18 83 19 86 20 84 21 9 22 10 23 11 24
REMARK SMILES IDX 12 25 13 26 14 27 75 28 15 29 74 30 16 31 17 32 18 33 68 34
REMARK SMILES IDX 19 35 73 36 67 37 69 38 20 39 72 40 66 41 65 42 21 44 53 45
REMARK SMILES IDX 33 46 52 47 34 48 37 49 51 50 70 51 35 52 36 53 50 55 71 56
REMARK SMILES IDX 38 57 22 58 23 59 31 60 24 61 25 62 29 63 32 64 26 65 27 66
REMARK SMILES IDX 30 67 28 68 54 69 55 70 63 71 56 72 57 73 61 74 64 75 58 76
REMARK SMILES IDX 59 77 62 78 60 79 39 80 40 81 48 82 41 83 42 84 46 85 49 86
REMARK SMILES IDX 43 87 44 88 47 89 45 90
REMARK H PARENT 79 13 69 43 37 54
REMARK Flexibility Score: inf
ROOT
ATOM      1  C   UNL A   1      31.247  29.206  24.977  1.00  0.00     0.274 C 
ENDROOT
BRANCH   1   2
ATOM      2  O   UNL A   1      31.477  28.326  23.859  1.00  0.00    -0.462 OA
BRANCH   2   3
ATOM      3  C   UNL A   1      30.611  27.284  23.777  1.00  0.00     0.310 C 
ATOM      4  O   UNL A   1      29.401  27.386  23.886  1.00  0.00    -0.252 OA
BRANCH   3   5
ATOM      5  C   UNL A   1      31.197  25.960  23.452  1.00  0.00     0.118 C 
ATOM      6  C   UNL A   1      33.213  24.767  22.469  1.00  0.00     0.013 C 
ATOM      7  C   UNL A   1      32.623  25.508  23.650  1.00  0.00    -0.009 C 
ATOM      8  C   UNL A   1      33.633  26.384  24.347  1.00  0.00     0.013 C 
ATOM      9  C   UNL A   1      31.472  24.859  24.445  1.00  0.00     0.100 C 
BRANCH   9  10
ATOM     10  C   UNL A   1      31.376  24.996  25.919  1.00  0.00     0.228 C 
ATOM     11  O   UNL A   1      30.591  25.814  26.391  1.00  0.00    -0.274 OA
ATOM     12  N   UNL A   1      32.123  24.214  26.766  1.00  0.00    -0.326 N 
ATOM     13  H   UNL A   1      31.875  24.294  27.715  1.00  0.00     0.169 HD
BRANCH  12  14
ATOM     14  C   UNL A   1      33.175  23.320  26.517  1.00  0.00     0.042 A 
ATOM     15  C   UNL A   1      32.822  21.985  26.291  1.00  0.00     0.028 A 
ATOM     16  C   UNL A   1      34.516  23.700  26.428  1.00  0.00     0.043 A 
ATOM     17  C   UNL A   1      33.778  21.070  25.844  1.00  0.00     0.024 A 
ATOM     18  C   UNL A   1      35.480  22.780  25.986  1.00  0.00     0.038 A 
ATOM     19  C   UNL A   1      35.105  21.470  25.667  1.00  0.00     0.055 A 
ATOM     20  Br  UNL A   1      37.259  23.414  25.766  1.00  0.00    -0.049 Br
ATOM     21  Cl  UNL A   1      36.209  20.306  25.025  1.00  0.00    -0.083 Cl
ENDBRANCH  12  14
ENDBRANCH   9  10
ENDBRANCH   3   5
ENDBRANCH   2   3
ENDBRANCH   1   2
BRANCH   1  22
ATOM     22  C   UNL A   1      32.481  30.038  25.361  1.00  0.00     0.275 C 
BRANCH  22  23
ATOM     23  O   UNL A   1      32.659  30.164  26.786  1.00  0.00    -0.458 OA
BRANCH  23  24
ATOM     24  C   UNL A   1      33.236  31.321  27.187  1.00  0.00     0.338 C 
ATOM     25  O   UNL A   1      32.701  32.415  27.282  1.00  0.00    -0.246 OA
BRANCH  24  26
ATOM     26  C   UNL A   1      34.610  31.083  27.664  1.00  0.00     0.060 A 
ATOM     27  C   UNL A   1      34.965  29.765  27.974  1.00  0.00     0.016 A 
ATOM     28  C   UNL A   1      35.496  32.126  27.928  1.00  0.00     0.016 A 
ATOM     29  C   UNL A   1      36.191  29.472  28.552  1.00  0.00     0.010 A 
ATOM     30  C   UNL A   1      36.724  31.838  28.537  1.00  0.00     0.010 A 
ATOM     31  C   UNL A   1      37.064  30.514  28.871  1.00  0.00    -0.014 A 
BRANCH  31  32
ATOM     32  C   UNL A   1      38.258  30.226  29.695  1.00  0.00     0.031 A 
ATOM     33  C   UNL A   1      39.320  29.328  29.133  1.00  0.00     0.074 A 
ATOM     34  C   UNL A   1      38.413  30.796  30.902  1.00  0.00     0.049 A 
ATOM     35  N   UNL A   1      40.365  28.806  29.720  1.00  0.00    -0.248 NA
ATOM     36  C   UNL A   1      39.186  28.972  27.711  1.00  0.00     0.031 C 
ATOM     37  C   UNL A   1      37.503  31.770  31.500  1.00  0.00     0.029 A 
ATOM     38  N   UNL A   1      39.394  30.625  31.845  1.00  0.00    -0.354 N 
ATOM     39  C   UNL A   1      40.992  28.033  28.753  1.00  0.00     0.074 A 
ATOM     40  C   UNL A   1      40.215  28.155  27.538  1.00  0.00     0.031 C 
ATOM     41  C   UNL A   1      37.957  32.097  32.721  1.00  0.00     0.029 A 
ATOM     42  C   UNL A   1      39.154  31.310  33.009  1.00  0.00     0.049 A 
ATOM     43  H   UNL A   1      40.192  30.067  31.700  1.00  0.00     0.167 HD
ATOM     44  C   UNL A   1      42.111  27.282  28.876  1.00  0.00     0.037 A 
ATOM     45  C   UNL A   1      39.803  31.264  34.189  1.00  0.00     0.037 A 
ATOM     46  C   UNL A   1      42.881  27.185  30.087  1.00  0.00     0.049 A 
ATOM     47  C   UNL A   1      40.997  30.356  34.330  1.00  0.00     0.074 A 
ATOM     48  C   UNL A   1      44.019  26.437  30.333  1.00  0.00     0.029 A 
ATOM     49  N   UNL A   1      42.590  27.868  31.260  1.00  0.00    -0.354 N 
ATOM     50  N   UNL A   1      41.557  29.579  33.434  1.00  0.00    -0.248 NA
ATOM     51  C   UNL A   1      41.643  30.310  35.650  1.00  0.00     0.031 C 
ATOM     52  C   UNL A   1      44.394  26.639  31.665  1.00  0.00     0.029 A 
ATOM     53  C   UNL A   1      43.518  27.549  32.235  1.00  0.00     0.049 A 
ATOM     54  H   UNL A   1      41.833  28.488  31.379  1.00  0.00     0.167 HD
ATOM     55  C   UNL A   1      42.633  28.975  34.068  1.00  0.00     0.074 A 
ATOM     56  C   UNL A   1      42.653  29.479  35.427  1.00  0.00     0.031 C 
ATOM     57  C   UNL A   1      43.527  28.084  33.573  1.00  0.00     0.037 A 
BRANCH  44  58
ATOM     58  C   UNL A   1      42.533  26.467  27.691  1.00  0.00     0.064 A 
ATOM     59  C   UNL A   1      43.519  26.910  26.798  1.00  0.00     0.173 A 
ATOM     60  C   UNL A   1      41.951  25.211  27.456  1.00  0.00     0.173 A 
ATOM     61  F   UNL A   1      44.092  28.111  26.967  1.00  0.00    -0.203 F 
ATOM     62  C   UNL A   1      43.891  26.136  25.702  1.00  0.00     0.198 A 
ATOM     63  C   UNL A   1      42.344  24.429  26.375  1.00  0.00     0.198 A 
ATOM     64  F   UNL A   1      41.003  24.742  28.281  1.00  0.00    -0.203 F 
ATOM     65  F   UNL A   1      44.804  26.598  24.835  1.00  0.00    -0.200 F 
ATOM     66  C   UNL A   1      43.309  24.895  25.494  1.00  0.00     0.200 A 
ATOM     67  F   UNL A   1      41.786  23.226  26.181  1.00  0.00    -0.200 F 
ATOM     68  F   UNL A   1      43.672  24.150  24.441  1.00  0.00    -0.200 F 
ENDBRANCH  44  58
BRANCH  45  69
ATOM     69  C   UNL A   1      39.308  32.064  35.339  1.00  0.00     0.064 A 
ATOM     70  C   UNL A   1      39.652  33.415  35.483  1.00  0.00     0.173 A 
ATOM     71  C   UNL A   1      38.485  31.491  36.320  1.00  0.00     0.173 A 
ATOM     72  F   UNL A   1      40.460  33.999  34.587  1.00  0.00    -0.203 F 
ATOM     73  C   UNL A   1      39.200  34.159  36.570  1.00  0.00     0.198 A 
ATOM     74  C   UNL A   1      38.010  32.245  37.392  1.00  0.00     0.198 A 
ATOM     75  F   UNL A   1      38.132  30.200  36.233  1.00  0.00    -0.203 F 
ATOM     76  F   UNL A   1      39.577  35.438  36.708  1.00  0.00    -0.200 F 
ATOM     77  C   UNL A   1      38.373  33.576  37.519  1.00  0.00     0.200 A 
ATOM     78  F   UNL A   1      37.205  31.679  38.301  1.00  0.00    -0.200 F 
ATOM     79  F   UNL A   1      37.935  34.294  38.563  1.00  0.00    -0.200 F 
ENDBRANCH  45  69
BRANCH  57  80
ATOM     80  C   UNL A   1      44.634  27.639  34.482  1.00  0.00     0.064 A 
ATOM     81  C   UNL A   1      45.830  28.359  34.593  1.00  0.00     0.173 A 
ATOM     82  C   UNL A   1      44.463  26.511  35.299  1.00  0.00     0.173 A 
ATOM     83  F   UNL A   1      46.045  29.437  33.822  1.00  0.00    -0.203 F 
ATOM     84  C   UNL A   1      46.826  27.956  35.479  1.00  0.00     0.198 A 
ATOM     85  C   UNL A   1      45.449  26.126  36.201  1.00  0.00     0.198 A 
ATOM     86  F   UNL A   1      43.331  25.794  35.234  1.00  0.00    -0.203 F 
ATOM     87  F   UNL A   1      47.977  28.639  35.545  1.00  0.00    -0.200 F 
ATOM     88  C   UNL A   1      46.631  26.846  36.288  1.00  0.00     0.200 A 
ATOM     89  F   UNL A   1      45.254  25.062  36.991  1.00  0.00    -0.200 F 
ATOM     90  F   UNL A   1      47.586  26.468  37.149  1.00  0.00    -0.200 F 
ENDBRANCH  57  80
ENDBRANCH  31  32
ENDBRANCH  24  26
ENDBRANCH  23  24
ENDBRANCH  22  23
ENDBRANCH   1  22
TORSDOF 13
ENDMDL
MODEL 2
REMARK VINA RESULT:     -12.2      4.619      9.716
REMARK SMILES CC1(C)[C@H](C(=O)OCCOC(=O)c2ccc(-c3c4nc(c(-c5c(F)c(F)c(F)c(F)c5F)c5ccc([nH]5)c(-c5c(F)c(F)c(F)c(F)c5F)c5nc(c(-c6c(F)c(F)c(F)c(F)c6F)c6ccc3[nH]6)C=C5)C=C4)cc2)[C@@H]1C(=O)Nc1ccc(Cl)c(Br)c1
REMARK SMILES IDX 8 1 7 2 5 3 6 4 4 5 1 6 2 7 3 8 76 9 77 10 78 11 79 12 80 14
REMARK SMILES IDX 81 15 87 16 82 17 85 18 83 19 86 20 84 21 9 22 10 23 11 24
REMARK SMILES IDX 12 25 13 26 14 27 75 28 15 29 74 30 16 31 17 32 18 33 68 34
REMARK SMILES IDX 19 35 73 36 67 37 69 38 20 39 72 40 66 41 65 42 21 44 53 45
REMARK SMILES IDX 33 46 52 47 34 48 37 49 51 50 70 51 35 52 36 53 50 55 71 56
REMARK SMILES IDX 38 57 22 58 23 59 31 60 24 61 25 62 29 63 32 64 26 65 27 66
REMARK SMILES IDX 30 67 28 68 54 69 55 70 63 71 56 72 57 73 61 74 64 75 58 76
REMARK SMILES IDX 59 77 62 78 60 79 39 80 40 81 48 82 41 83 42 84 46 85 49 86
REMARK SMILES IDX 43 87 44 88 47 89 45 90
REMARK H PARENT 79 13 69 43 37 54
REMARK Flexibility Score: inf
ROOT
ATOM      1  C   UNL A   1      35.351  20.586  25.021  1.00  0.00     0.274 C 
ENDROOT
BRANCH   1   2
ATOM      2  O   UNL A   1      34.782  21.854  24.641  1.00  0.00    -0.462 OA
BRANCH   2   3
ATOM      3  C   UNL A   1      33.489  21.790  24.235  1.00  0.00     0.310 C 
ATOM      4  O   UNL A   1      33.003  20.849  23.633  1.00  0.00    -0.252 OA
BRANCH   3   5
ATOM      5  C   UNL A   1      32.614  22.921  24.634  1.00  0.00     0.118 C 
ATOM      6  C   UNL A   1      32.043  24.544  26.503  1.00  0.00     0.013 C 
ATOM      7  C   UNL A   1      33.002  24.165  25.394  1.00  0.00    -0.009 C 
ATOM      8  C   UNL A   1      34.439  24.450  25.750  1.00  0.00     0.013 C 
ATOM      9  C   UNL A   1      32.527  24.251  23.930  1.00  0.00     0.100 C 
BRANCH   9  10
ATOM     10  C   UNL A   1      33.436  24.703  22.848  1.00  0.00     0.228 C 
ATOM     11  O   UNL A   1      33.986  23.862  22.143  1.00  0.00    -0.274 OA
ATOM     12  N   UNL A   1      33.653  26.036  22.599  1.00  0.00    -0.326 N 
ATOM     13  H   UNL A   1      34.159  26.218  21.775  1.00  0.00     0.169 HD
BRANCH  12  14
ATOM     14  C   UNL A   1      33.281  27.186  23.312  1.00  0.00     0.042 A 
ATOM     15  C   UNL A   1      32.133  27.852  22.870  1.00  0.00     0.028 A 
ATOM     16  C   UNL A   1      33.949  27.650  24.447  1.00  0.00     0.043 A 
ATOM     17  C   UNL A   1      31.580  28.883  23.632  1.00  0.00     0.024 A 
ATOM     18  C   UNL A   1      33.399  28.692  25.211  1.00  0.00     0.038 A 
ATOM     19  C   UNL A   1      32.196  29.290  24.817  1.00  0.00     0.055 A 
ATOM     20  Br  UNL A   1      34.302  29.174  26.813  1.00  0.00    -0.049 Br
ATOM     21  Cl  UNL A   1      31.403  30.509  25.751  1.00  0.00    -0.083 Cl
ENDBRANCH  12  14
ENDBRANCH   9  10
ENDBRANCH   3   5
ENDBRANCH   2   3
ENDBRANCH   1   2
BRANCH   1  22
ATOM     22  C   UNL A   1      36.885  20.556  24.938  1.00  0.00     0.275 C 
BRANCH  22  23
ATOM     23  O   UNL A   1      37.512  21.657  25.628  1.00  0.00    -0.458 OA
BRANCH  23  24
ATOM     24  C   UNL A   1      38.795  21.438  25.999  1.00  0.00     0.338 C 
ATOM     25  O   UNL A   1      39.474  20.454  25.751  1.00  0.00    -0.246 OA
BRANCH  24  26
ATOM     26  C   UNL A   1      39.366  22.637  26.641  1.00  0.00     0.060 A 
ATOM     27  C   UNL A   1      38.919  23.883  26.188  1.00  0.00     0.016 A 
ATOM     28  C   UNL A   1      40.403  22.559  27.569  1.00  0.00     0.016 A 
ATOM     29  C   UNL A   1      39.498  25.059  26.644  1.00  0.00     0.010 A 
ATOM     30  C   UNL A   1      41.009  23.741  28.011  1.00  0.00     0.010 A 
ATOM     31  C   UNL A   1      40.574  24.991  27.532  1.00  0.00    -0.014 A 
BRANCH  31  32
ATOM     32  C   UNL A   1      41.337  26.222  27.831  1.00  0.00     0.031 A 
ATOM     33  C   UNL A   1      40.662  27.318  28.603  1.00  0.00     0.074 A 
ATOM     34  C   UNL A   1      42.624  26.338  27.463  1.00  0.00     0.049 A 
ATOM     35  N   UNL A   1      41.066  28.538  28.843  1.00  0.00    -0.248 NA
ATOM     36  C   UNL A   1      39.352  26.989  29.188  1.00  0.00     0.031 C 
ATOM     37  C   UNL A   1      43.414  25.296  26.811  1.00  0.00     0.029 A 
ATOM     38  N   UNL A   1      43.490  27.396  27.582  1.00  0.00    -0.354 N 
ATOM     39  C   UNL A   1      40.047  29.134  29.572  1.00  0.00     0.074 A 
ATOM     40  C   UNL A   1      39.007  28.142  29.742  1.00  0.00     0.031 C 
ATOM     41  C   UNL A   1      44.645  25.774  26.565  1.00  0.00     0.029 A 
ATOM     42  C   UNL A   1      44.707  27.171  26.990  1.00  0.00     0.049 A 
ATOM     43  H   UNL A   1      43.260  28.234  28.045  1.00  0.00     0.167 HD
ATOM     44  C   UNL A   1      39.987  30.400  30.048  1.00  0.00     0.037 A 
ATOM     45  C   UNL A   1      45.733  28.016  26.775  1.00  0.00     0.037 A 
ATOM     46  C   UNL A   1      41.038  31.367  29.885  1.00  0.00     0.049 A 
ATOM     47  C   UNL A   1      45.611  29.445  27.238  1.00  0.00     0.074 A 
ATOM     48  C   UNL A   1      41.076  32.685  30.306  1.00  0.00     0.029 A 
ATOM     49  N   UNL A   1      42.247  31.114  29.250  1.00  0.00    -0.354 N 
ATOM     50  N   UNL A   1      44.624  30.027  27.876  1.00  0.00    -0.248 NA
ATOM     51  C   UNL A   1      46.740  30.338  26.940  1.00  0.00     0.031 C 
ATOM     52  C   UNL A   1      42.291  33.240  29.893  1.00  0.00     0.029 A 
ATOM     53  C   UNL A   1      43.031  32.254  29.257  1.00  0.00     0.049 A 
ATOM     54  H   UNL A   1      42.507  30.250  28.855  1.00  0.00     0.167 HD
ATOM     55  C   UNL A   1      45.021  31.341  28.082  1.00  0.00     0.074 A 
ATOM     56  C   UNL A   1      46.344  31.472  27.504  1.00  0.00     0.031 C 
ATOM     57  C   UNL A   1      44.354  32.350  28.694  1.00  0.00     0.037 A 
BRANCH  44  58
ATOM     58  C   UNL A   1      38.724  30.822  30.737  1.00  0.00     0.064 A 
ATOM     59  C   UNL A   1      37.597  31.252  30.023  1.00  0.00     0.173 A 
ATOM     60  C   UNL A   1      38.637  30.776  32.137  1.00  0.00     0.173 A 
ATOM     61  F   UNL A   1      37.635  31.332  28.685  1.00  0.00    -0.203 F 
ATOM     62  C   UNL A   1      36.436  31.642  30.688  1.00  0.00     0.198 A 
ATOM     63  C   UNL A   1      37.468  31.142  32.796  1.00  0.00     0.198 A 
ATOM     64  F   UNL A   1      39.689  30.372  32.866  1.00  0.00    -0.203 F 
ATOM     65  F   UNL A   1      35.385  32.093  29.988  1.00  0.00    -0.200 F 
ATOM     66  C   UNL A   1      36.370  31.581  32.071  1.00  0.00     0.200 A 
ATOM     67  F   UNL A   1      37.403  31.073  34.133  1.00  0.00    -0.200 F 
ATOM     68  F   UNL A   1      35.251  31.953  32.708  1.00  0.00    -0.200 F 
ENDBRANCH  44  58
BRANCH  45  69
ATOM     69  C   UNL A   1      46.940  27.547  26.047  1.00  0.00     0.064 A 
ATOM     70  C   UNL A   1      47.041  27.674  24.655  1.00  0.00     0.173 A 
ATOM     71  C   UNL A   1      48.015  26.959  26.730  1.00  0.00     0.173 A 
ATOM     72  F   UNL A   1      46.028  28.203  23.956  1.00  0.00    -0.203 F 
ATOM     73  C   UNL A   1      48.168  27.219  23.973  1.00  0.00     0.198 A 
ATOM     74  C   UNL A   1      49.153  26.531  26.049  1.00  0.00     0.198 A 
ATOM     75  F   UNL A   1      47.965  26.807  28.061  1.00  0.00    -0.203 F 
ATOM     76  F   UNL A   1      48.223  27.312  22.637  1.00  0.00    -0.200 F 
ATOM     77  C   UNL A   1      49.226  26.655  24.670  1.00  0.00     0.200 A 
ATOM     78  F   UNL A   1      50.176  25.994  26.728  1.00  0.00    -0.200 F 
ATOM     79  F   UNL A   1      50.311  26.222  24.014  1.00  0.00    -0.200 F 
ENDBRANCH  45  69
BRANCH  57  80
ATOM     80  C   UNL A   1      45.061  33.666  28.823  1.00  0.00     0.064 A 
ATOM     81  C   UNL A   1      45.915  33.941  29.899  1.00  0.00     0.173 A 
ATOM     82  C   UNL A   1      44.927  34.637  27.820  1.00  0.00     0.173 A 
ATOM     83  F   UNL A   1      46.064  33.047  30.890  1.00  0.00    -0.203 F 
ATOM     84  C   UNL A   1      46.600  35.151  29.975  1.00  0.00     0.198 A 
ATOM     85  C   UNL A   1      45.633  35.835  27.886  1.00  0.00     0.198 A 
ATOM     86  F   UNL A   1      44.127  34.417  26.766  1.00  0.00    -0.203 F 
ATOM     87  F   UNL A   1      47.386  35.408  31.029  1.00  0.00    -0.200 F 
ATOM     88  C   UNL A   1      46.465  36.092  28.965  1.00  0.00     0.200 A 
ATOM     89  F   UNL A   1      45.512  36.737  26.903  1.00  0.00    -0.200 F 
ATOM     90  F   UNL A   1      47.135  37.251  29.034  1.00  0.00    -0.200 F 
ENDBRANCH  57  80
ENDBRANCH  31  32
ENDBRANCH  24  26
ENDBRANCH  23  24
ENDBRANCH  22  23
ENDBRANCH   1  22
TORSDOF 13
ENDMDL
MODEL 3
REMARK VINA RESULT:     -12.2      0.133      1.977
REMARK SMILES CC1(C)[C@H](C(=O)OCCOC(=O)c2ccc(-c3c4nc(c(-c5c(F)c(F)c(F)c(F)c5F)c5ccc([nH]5)c(-c5c(F)c(F)c(F)c(F)c5F)c5nc(c(-c6c(F)c(F)c(F)c(F)c6F)c6ccc3[nH]6)C=C5)C=C4)cc2)[C@@H]1C(=O)Nc1ccc(Cl)c(Br)c1
REMARK SMILES IDX 8 1 7 2 5 3 6 4 4 5 1 6 2 7 3 8 76 9 77 10 78 11 79 12 80 14
REMARK SMILES IDX 81 15 87 16 82 17 85 18 83 19 86 20 84 21 9 22 10 23 11 24
REMARK SMILES IDX 12 25 13 26 14 27 75 28 15 29 74 30 16 31 17 32 18 33 68 34
REMARK SMILES IDX 19 35 73 36 67 37 69 38 20 39 72 40 66 41 65 42 21 44 53 45
REMARK SMILES IDX 33 46 52 47 34 48 37 49 51 50 70 51 35 52 36 53 50 55 71 56
REMARK SMILES IDX 38 57 22 58 23 59 31 60 24 61 25 62 29 63 32 64 26 65 27 66
REMARK SMILES IDX 30 67 28 68 54 69 55 70 63 71 56 72 57 73 61 74 64 75 58 76
REMARK SMILES IDX 59 77 62 78 60 79 39 80 40 81 48 82 41 83 42 84 46 85 49 86
REMARK SMILES IDX 43 87 44 88 47 89 45 90
REMARK H PARENT 79 13 69 43 37 54
REMARK Flexibility Score: inf
ROOT
ATOM      1  C   UNL A   1      31.126  28.943  25.173  1.00  0.00     0.274 C 
ENDROOT
BRANCH   1   2
ATOM      2  O   UNL A   1      31.409  28.172  23.989  1.00  0.00    -0.462 OA
BRANCH   2   3
ATOM      3  C   UNL A   1      30.581  27.115  23.796  1.00  0.00     0.310 C 
ATOM      4  O   UNL A   1      29.364  27.182  23.811  1.00  0.00    -0.252 OA
BRANCH   3   5
ATOM      5  C   UNL A   1      31.227  25.819  23.468  1.00  0.00     0.118 C 
ATOM      6  C   UNL A   1      33.298  24.722  22.486  1.00  0.00     0.013 C 
ATOM      7  C   UNL A   1      32.671  25.431  23.669  1.00  0.00    -0.009 C 
ATOM      8  C   UNL A   1      33.639  26.350  24.371  1.00  0.00     0.013 C 
ATOM      9  C   UNL A   1      31.549  24.728  24.457  1.00  0.00     0.100 C 
BRANCH   9  10
ATOM     10  C   UNL A   1      31.443  24.855  25.931  1.00  0.00     0.228 C 
ATOM     11  O   UNL A   1      30.631  25.645  26.404  1.00  0.00    -0.274 OA
ATOM     12  N   UNL A   1      32.210  24.092  26.777  1.00  0.00    -0.326 N 
ATOM     13  H   UNL A   1      31.956  24.159  27.726  1.00  0.00     0.169 HD
BRANCH  12  14
ATOM     14  C   UNL A   1      33.291  23.232  26.529  1.00  0.00     0.042 A 
ATOM     15  C   UNL A   1      32.982  21.887  26.304  1.00  0.00     0.028 A 
ATOM     16  C   UNL A   1      34.618  23.655  26.438  1.00  0.00     0.043 A 
ATOM     17  C   UNL A   1      33.967  21.003  25.858  1.00  0.00     0.024 A 
ATOM     18  C   UNL A   1      35.612  22.767  25.997  1.00  0.00     0.038 A 
ATOM     19  C   UNL A   1      35.279  21.445  25.679  1.00  0.00     0.055 A 
ATOM     20  Br  UNL A   1      37.369  23.459  25.775  1.00  0.00    -0.049 Br
ATOM     21  Cl  UNL A   1      36.420  20.317  25.037  1.00  0.00    -0.083 Cl
ENDBRANCH  12  14
ENDBRANCH   9  10
ENDBRANCH   3   5
ENDBRANCH   2   3
ENDBRANCH   1   2
BRANCH   1  22
ATOM     22  C   UNL A   1      32.137  30.073  25.420  1.00  0.00     0.275 C 
BRANCH  22  23
ATOM     23  O   UNL A   1      32.707  30.045  26.745  1.00  0.00    -0.458 OA
BRANCH  23  24
ATOM     24  C   UNL A   1      33.269  31.209  27.148  1.00  0.00     0.338 C 
ATOM     25  O   UNL A   1      32.720  32.296  27.239  1.00  0.00    -0.246 OA
BRANCH  24  26
ATOM     26  C   UNL A   1      34.643  30.987  27.632  1.00  0.00     0.060 A 
ATOM     27  C   UNL A   1      35.015  29.673  27.933  1.00  0.00     0.016 A 
ATOM     28  C   UNL A   1      35.511  32.042  27.910  1.00  0.00     0.016 A 
ATOM     29  C   UNL A   1      36.243  29.393  28.516  1.00  0.00     0.010 A 
ATOM     30  C   UNL A   1      36.739  31.767  28.524  1.00  0.00     0.010 A 
ATOM     31  C   UNL A   1      37.097  30.446  28.850  1.00  0.00    -0.014 A 
BRANCH  31  32
ATOM     32  C   UNL A   1      38.290  30.168  29.679  1.00  0.00     0.031 A 
ATOM     33  C   UNL A   1      39.358  29.273  29.126  1.00  0.00     0.074 A 
ATOM     34  C   UNL A   1      38.438  30.746  30.883  1.00  0.00     0.049 A 
ATOM     35  N   UNL A   1      40.404  28.759  29.719  1.00  0.00    -0.248 NA
ATOM     36  C   UNL A   1      39.231  28.908  27.705  1.00  0.00     0.031 C 
ATOM     37  C   UNL A   1      37.522  31.720  31.472  1.00  0.00     0.029 A 
ATOM     38  N   UNL A   1      39.418  30.587  31.830  1.00  0.00    -0.354 N 
ATOM     39  C   UNL A   1      41.037  27.983  28.758  1.00  0.00     0.074 A 
ATOM     40  C   UNL A   1      40.264  28.095  27.541  1.00  0.00     0.031 C 
ATOM     41  C   UNL A   1      37.971  32.056  32.693  1.00  0.00     0.029 A 
ATOM     42  C   UNL A   1      39.171  31.277  32.990  1.00  0.00     0.049 A 
ATOM     43  H   UNL A   1      40.219  30.031  31.691  1.00  0.00     0.167 HD
ATOM     44  C   UNL A   1      42.160  27.239  28.890  1.00  0.00     0.037 A 
ATOM     45  C   UNL A   1      39.816  31.241  34.171  1.00  0.00     0.037 A 
ATOM     46  C   UNL A   1      42.927  27.153  30.103  1.00  0.00     0.049 A 
ATOM     47  C   UNL A   1      41.015  30.341  34.322  1.00  0.00     0.074 A 
ATOM     48  C   UNL A   1      44.068  26.413  30.357  1.00  0.00     0.029 A 
ATOM     49  N   UNL A   1      42.629  27.842  31.271  1.00  0.00    -0.354 N 
ATOM     50  N   UNL A   1      41.581  29.561  33.432  1.00  0.00    -0.248 NA
ATOM     51  C   UNL A   1      41.657  30.305  35.643  1.00  0.00     0.031 C 
ATOM     52  C   UNL A   1      44.438  26.624  31.689  1.00  0.00     0.029 A 
ATOM     53  C   UNL A   1      43.555  27.534  32.251  1.00  0.00     0.049 A 
ATOM     54  H   UNL A   1      41.869  28.459  31.385  1.00  0.00     0.167 HD
ATOM     55  C   UNL A   1      42.658  28.966  34.073  1.00  0.00     0.074 A 
ATOM     56  C   UNL A   1      42.671  29.478  35.429  1.00  0.00     0.031 C 
ATOM     57  C   UNL A   1      43.558  28.077  33.586  1.00  0.00     0.037 A 
BRANCH  44  58
ATOM     58  C   UNL A   1      42.590  26.419  27.710  1.00  0.00     0.064 A 
ATOM     59  C   UNL A   1      42.050  25.151  27.451  1.00  0.00     0.173 A 
ATOM     60  C   UNL A   1      43.547  26.922  26.815  1.00  0.00     0.173 A 
ATOM     61  F   UNL A   1      41.147  24.618  28.287  1.00  0.00    -0.203 F 
ATOM     62  C   UNL A   1      42.469  24.408  26.350  1.00  0.00     0.198 A 
ATOM     63  C   UNL A   1      43.944  26.187  25.702  1.00  0.00     0.198 A 
ATOM     64  F   UNL A   1      44.094  28.129  27.019  1.00  0.00    -0.203 F 
ATOM     65  F   UNL A   1      41.973  23.179  26.144  1.00  0.00    -0.200 F 
ATOM     66  C   UNL A   1      43.410  24.928  25.474  1.00  0.00     0.200 A 
ATOM     67  F   UNL A   1      44.846  26.696  24.851  1.00  0.00    -0.200 F 
ATOM     68  F   UNL A   1      43.808  24.213  24.413  1.00  0.00    -0.200 F 
ENDBRANCH  44  58
BRANCH  45  69
ATOM     69  C   UNL A   1      39.314  32.046  35.315  1.00  0.00     0.064 A 
ATOM     70  C   UNL A   1      38.497  31.473  36.299  1.00  0.00     0.173 A 
ATOM     71  C   UNL A   1      39.637  33.405  35.443  1.00  0.00     0.173 A 
ATOM     72  F   UNL A   1      38.136  30.186  36.204  1.00  0.00    -0.203 F 
ATOM     73  C   UNL A   1      38.014  32.233  37.363  1.00  0.00     0.198 A 
ATOM     74  C   UNL A   1      39.177  34.156  36.523  1.00  0.00     0.198 A 
ATOM     75  F   UNL A   1      40.410  34.003  34.524  1.00  0.00    -0.203 F 
ATOM     76  F   UNL A   1      37.200  31.674  38.268  1.00  0.00    -0.200 F 
ATOM     77  C   UNL A   1      38.361  33.571  37.478  1.00  0.00     0.200 A 
ATOM     78  F   UNL A   1      39.521  35.446  36.634  1.00  0.00    -0.200 F 
ATOM     79  F   UNL A   1      37.899  34.300  38.504  1.00  0.00    -0.200 F 
ENDBRANCH  45  69
BRANCH  57  80
ATOM     80  C   UNL A   1      44.664  27.643  34.501  1.00  0.00     0.064 A 
ATOM     81  C   UNL A   1      44.555  26.494  35.296  1.00  0.00     0.173 A 
ATOM     82  C   UNL A   1      45.872  28.356  34.532  1.00  0.00     0.173 A 
ATOM     83  F   UNL A   1      43.413  25.788  35.310  1.00  0.00    -0.203 F 
ATOM     84  C   UNL A   1      45.612  26.082  36.103  1.00  0.00     0.198 A 
ATOM     85  C   UNL A   1      46.935  27.926  35.320  1.00  0.00     0.198 A 
ATOM     86  F   UNL A   1      46.026  29.458  33.783  1.00  0.00    -0.203 F 
ATOM     87  F   UNL A   1      45.476  24.999  36.880  1.00  0.00    -0.200 F 
ATOM     88  C   UNL A   1      46.803  26.793  36.107  1.00  0.00     0.200 A 
ATOM     89  F   UNL A   1      48.090  28.607  35.313  1.00  0.00    -0.200 F 
ATOM     90  F   UNL A   1      47.824  26.386  36.875  1.00  0.00    -0.200 F 
ENDBRANCH  57  80
ENDBRANCH  31  32
ENDBRANCH  24  26
ENDBRANCH  23  24
ENDBRANCH  22  23
ENDBRANCH   1  22
TORSDOF 13
ENDMDL
