MODEL 1
REMARK VINA RESULT:     -10.5      0.000      0.000
REMARK SMILES CC[C@@H](C)CNC(=O)N1CCO[C@@H](CC(=O)OCCOC(=O)c2ccc(-c3c4nc(c(-c5c(F)c(F)c(F)c(F)c5F)c5ccc([nH]5)c(-c5c(F)c(F)c(F)c(F)c5F)c5nc(c(-c6c(F)c(F)c(F)c(F)c6F)c6ccc3[nH]6)C=C5)C=C4)cc2)C1
REMARK SMILES IDX 17 1 15 2 16 3 14 4 13 5 9 6 10 7 86 8 11 9 12 10 7 11 6 12
REMARK SMILES IDX 8 14 5 15 3 16 4 17 2 18 1 19 18 20 19 21 20 22 21 23 22 24
REMARK SMILES IDX 23 25 24 26 85 27 25 28 84 29 26 30 27 31 28 32 78 33 29 34
REMARK SMILES IDX 83 35 77 36 79 37 30 38 82 39 76 40 75 41 31 43 63 44 43 45
REMARK SMILES IDX 62 46 44 47 47 48 61 49 80 50 45 51 46 52 60 54 81 55 48 56
REMARK SMILES IDX 32 57 33 58 41 59 34 60 35 61 39 62 42 63 36 64 37 65 40 66
REMARK SMILES IDX 38 67 64 68 65 69 73 70 66 71 67 72 71 73 74 74 68 75 69 76
REMARK SMILES IDX 72 77 70 78 49 79 50 80 58 81 51 82 52 83 56 84 59 85 53 86
REMARK SMILES IDX 54 87 57 88 55 89
REMARK H PARENT 6 13 79 42 47 53
REMARK Flexibility Score: inf
ROOT
ATOM      1  O   UNL A   1      32.544  27.782  25.675  1.00  0.00    -0.462 OA
ENDROOT
BRANCH   1   2
ATOM      2  C   UNL A   1      31.493  27.080  26.159  1.00  0.00     0.308 C 
ATOM      3  O   UNL A   1      30.995  27.235  27.267  1.00  0.00    -0.252 OA
BRANCH   2   4
ATOM      4  C   UNL A   1      31.033  26.016  25.194  1.00  0.00     0.156 C 
BRANCH   4   5
ATOM      5  C   UNL A   1      31.864  24.734  25.203  1.00  0.00     0.149 C 
ATOM      6  N   UNL A   1      32.418  22.668  26.446  1.00  0.00    -0.320 N 
ATOM      7  C   UNL A   1      31.850  21.873  25.362  1.00  0.00     0.150 C 
ATOM      8  C   UNL A   1      31.800  23.988  26.557  1.00  0.00     0.154 C 
ATOM      9  C   UNL A   1      32.021  22.638  24.052  1.00  0.00     0.182 C 
ATOM     10  O   UNL A   1      31.339  23.904  24.129  1.00  0.00    -0.374 OA
BRANCH   6  11
ATOM     11  C   UNL A   1      33.263  22.247  27.428  1.00  0.00     0.317 C 
ATOM     12  N   UNL A   1      34.500  21.789  27.130  1.00  0.00    -0.338 N 
ATOM     13  H   UNL A   1      34.876  21.174  27.800  1.00  0.00     0.165 HD
ATOM     14  O   UNL A   1      32.956  22.284  28.621  1.00  0.00    -0.249 OA
BRANCH  12  15
ATOM     15  C   UNL A   1      35.374  22.044  25.997  1.00  0.00     0.121 C 
BRANCH  15  16
ATOM     16  C   UNL A   1      36.089  23.407  26.082  1.00  0.00     0.005 C 
ATOM     17  C   UNL A   1      35.394  24.382  25.122  1.00  0.00     0.009 C 
BRANCH  16  18
ATOM     18  C   UNL A   1      37.592  23.265  25.770  1.00  0.00     0.002 C 
ATOM     19  C   UNL A   1      38.474  24.258  26.515  1.00  0.00     0.004 C 
ENDBRANCH  16  18
ENDBRANCH  15  16
ENDBRANCH  12  15
ENDBRANCH   6  11
ENDBRANCH   4   5
ENDBRANCH   2   4
ENDBRANCH   1   2
BRANCH   1  20
ATOM     20  C   UNL A   1      32.254  28.875  24.783  1.00  0.00     0.274 C 
BRANCH  20  21
ATOM     21  C   UNL A   1      31.996  30.173  25.552  1.00  0.00     0.275 C 
BRANCH  21  22
ATOM     22  O   UNL A   1      32.670  30.166  26.825  1.00  0.00    -0.458 OA
BRANCH  22  23
ATOM     23  C   UNL A   1      33.296  31.317  27.164  1.00  0.00     0.338 C 
ATOM     24  O   UNL A   1      32.874  32.453  27.059  1.00  0.00    -0.246 OA
BRANCH  23  25
ATOM     25  C   UNL A   1      34.561  30.988  27.838  1.00  0.00     0.060 A 
ATOM     26  C   UNL A   1      35.525  31.991  27.969  1.00  0.00     0.016 A 
ATOM     27  C   UNL A   1      34.802  29.699  28.316  1.00  0.00     0.016 A 
ATOM     28  C   UNL A   1      36.730  31.717  28.610  1.00  0.00     0.010 A 
ATOM     29  C   UNL A   1      36.012  29.426  28.958  1.00  0.00     0.010 A 
ATOM     30  C   UNL A   1      36.977  30.435  29.118  1.00  0.00    -0.014 A 
BRANCH  30  31
ATOM     31  C   UNL A   1      38.233  30.153  29.850  1.00  0.00     0.031 A 
ATOM     32  C   UNL A   1      39.249  29.214  29.276  1.00  0.00     0.074 A 
ATOM     33  C   UNL A   1      38.438  30.726  31.050  1.00  0.00     0.049 A 
ATOM     34  N   UNL A   1      40.347  28.750  29.818  1.00  0.00    -0.248 NA
ATOM     35  C   UNL A   1      38.996  28.728  27.912  1.00  0.00     0.031 C 
ATOM     36  C   UNL A   1      37.532  31.679  31.691  1.00  0.00     0.029 A 
ATOM     37  N   UNL A   1      39.461  30.575  31.952  1.00  0.00    -0.354 N 
ATOM     38  C   UNL A   1      40.909  27.909  28.869  1.00  0.00     0.074 A 
ATOM     39  C   UNL A   1      40.025  27.913  27.722  1.00  0.00     0.031 C 
ATOM     40  C   UNL A   1      38.031  32.015  32.891  1.00  0.00     0.029 A 
ATOM     41  C   UNL A   1      39.264  31.266  33.120  1.00  0.00     0.049 A 
ATOM     42  H   UNL A   1      40.259  30.025  31.776  1.00  0.00     0.167 HD
ATOM     43  C   UNL A   1      42.060  27.200  28.954  1.00  0.00     0.037 A 
ATOM     44  C   UNL A   1      39.974  31.262  34.264  1.00  0.00     0.037 A 
ATOM     45  C   UNL A   1      42.936  27.208  30.098  1.00  0.00     0.049 A 
ATOM     46  C   UNL A   1      41.206  30.405  34.360  1.00  0.00     0.074 A 
ATOM     47  C   UNL A   1      44.151  26.564  30.260  1.00  0.00     0.029 A 
ATOM     48  N   UNL A   1      42.683  27.888  31.281  1.00  0.00    -0.354 N 
ATOM     49  N   UNL A   1      41.746  29.631  33.452  1.00  0.00    -0.248 NA
ATOM     50  C   UNL A   1      41.920  30.414  35.645  1.00  0.00     0.031 C 
ATOM     51  C   UNL A   1      44.607  26.812  31.560  1.00  0.00     0.029 A 
ATOM     52  C   UNL A   1      43.699  27.646  32.192  1.00  0.00     0.049 A 
ATOM     53  H   UNL A   1      41.898  28.458  31.448  1.00  0.00     0.167 HD
ATOM     54  C   UNL A   1      42.864  29.063  34.049  1.00  0.00     0.074 A 
ATOM     55  C   UNL A   1      42.937  29.602  35.392  1.00  0.00     0.031 C 
ATOM     56  C   UNL A   1      43.746  28.175  33.531  1.00  0.00     0.037 A 
BRANCH  43  57
ATOM     57  C   UNL A   1      42.428  26.330  27.790  1.00  0.00     0.064 A 
ATOM     58  C   UNL A   1      43.318  26.761  26.797  1.00  0.00     0.173 A 
ATOM     59  C   UNL A   1      41.911  25.029  27.690  1.00  0.00     0.173 A 
ATOM     60  F   UNL A   1      43.829  28.000  26.840  1.00  0.00    -0.203 F 
ATOM     61  C   UNL A   1      43.663  25.929  25.734  1.00  0.00     0.198 A 
ATOM     62  C   UNL A   1      42.277  24.190  26.641  1.00  0.00     0.198 A 
ATOM     63  F   UNL A   1      41.059  24.566  28.617  1.00  0.00    -0.203 F 
ATOM     64  F   UNL A   1      44.486  26.375  24.775  1.00  0.00    -0.200 F 
ATOM     65  C   UNL A   1      43.148  24.643  25.660  1.00  0.00     0.200 A 
ATOM     66  F   UNL A   1      41.786  22.945  26.576  1.00  0.00    -0.200 F 
ATOM     67  F   UNL A   1      43.485  23.841  24.641  1.00  0.00    -0.200 F 
ENDBRANCH  43  57
BRANCH  44  68
ATOM     68  C   UNL A   1      39.507  32.066  35.422  1.00  0.00     0.064 A 
ATOM     69  C   UNL A   1      39.942  33.384  35.609  1.00  0.00     0.173 A 
ATOM     70  C   UNL A   1      38.610  31.533  36.359  1.00  0.00     0.173 A 
ATOM     71  F   UNL A   1      40.821  33.927  34.756  1.00  0.00    -0.203 F 
ATOM     72  C   UNL A   1      39.501  34.137  36.696  1.00  0.00     0.198 A 
ATOM     73  C   UNL A   1      38.149  32.295  37.429  1.00  0.00     0.198 A 
ATOM     74  F   UNL A   1      38.168  30.274  36.226  1.00  0.00    -0.203 F 
ATOM     75  F   UNL A   1      39.960  35.384  36.874  1.00  0.00    -0.200 F 
ATOM     76  C   UNL A   1      38.599  33.596  37.600  1.00  0.00     0.200 A 
ATOM     77  F   UNL A   1      37.270  31.772  38.295  1.00  0.00    -0.200 F 
ATOM     78  F   UNL A   1      38.170  34.324  38.640  1.00  0.00    -0.200 F 
ENDBRANCH  44  68
BRANCH  56  79
ATOM     79  C   UNL A   1      44.865  27.725  34.424  1.00  0.00     0.064 A 
ATOM     80  C   UNL A   1      44.751  26.567  35.208  1.00  0.00     0.173 A 
ATOM     81  C   UNL A   1      46.074  28.435  34.469  1.00  0.00     0.173 A 
ATOM     82  F   UNL A   1      43.608  25.865  35.212  1.00  0.00    -0.203 F 
ATOM     83  C   UNL A   1      45.803  26.145  36.017  1.00  0.00     0.198 A 
ATOM     84  C   UNL A   1      47.133  27.996  35.259  1.00  0.00     0.198 A 
ATOM     85  F   UNL A   1      46.234  29.546  33.735  1.00  0.00    -0.203 F 
ATOM     86  F   UNL A   1      45.658  25.058  36.786  1.00  0.00    -0.200 F 
ATOM     87  C   UNL A   1      46.994  26.855  36.036  1.00  0.00     0.200 A 
ATOM     88  F   UNL A   1      48.287  28.677  35.269  1.00  0.00    -0.200 F 
ATOM     89  F   UNL A   1      48.008  26.443  36.810  1.00  0.00    -0.200 F 
ENDBRANCH  56  79
ENDBRANCH  30  31
ENDBRANCH  23  25
ENDBRANCH  22  23
ENDBRANCH  21  22
ENDBRANCH  20  21
ENDBRANCH   1  20
TORSDOF 16
ENDMDL
MODEL 2
REMARK VINA RESULT:     -10.5      5.015     10.349
REMARK SMILES CC[C@@H](C)CNC(=O)N1CCO[C@@H](CC(=O)OCCOC(=O)c2ccc(-c3c4nc(c(-c5c(F)c(F)c(F)c(F)c5F)c5ccc([nH]5)c(-c5c(F)c(F)c(F)c(F)c5F)c5nc(c(-c6c(F)c(F)c(F)c(F)c6F)c6ccc3[nH]6)C=C5)C=C4)cc2)C1
REMARK SMILES IDX 17 1 15 2 16 3 14 4 13 5 9 6 10 7 86 8 11 9 12 10 7 11 6 12
REMARK SMILES IDX 8 14 5 15 3 16 4 17 2 18 1 19 18 20 19 21 20 22 21 23 22 24
REMARK SMILES IDX 23 25 24 26 85 27 25 28 84 29 26 30 27 31 28 32 78 33 29 34
REMARK SMILES IDX 83 35 77 36 79 37 30 38 82 39 76 40 75 41 31 43 63 44 43 45
REMARK SMILES IDX 62 46 44 47 47 48 61 49 80 50 45 51 46 52 60 54 81 55 48 56
REMARK SMILES IDX 32 57 33 58 41 59 34 60 35 61 39 62 42 63 36 64 37 65 40 66
REMARK SMILES IDX 38 67 64 68 65 69 73 70 66 71 67 72 71 73 74 74 68 75 69 76
REMARK SMILES IDX 72 77 70 78 49 79 50 80 58 81 51 82 52 83 56 84 59 85 53 86
REMARK SMILES IDX 54 87 57 88 55 89
REMARK H PARENT 6 13 79 42 47 53
REMARK Flexibility Score: inf
ROOT
ATOM      1  O   UNL A   1      38.719  21.835  26.260  1.00  0.00    -0.462 OA
ENDROOT
BRANCH   1   2
ATOM      2  C   UNL A   1      38.087  22.918  25.750  1.00  0.00     0.308 C 
ATOM      3  O   UNL A   1      38.220  24.065  26.159  1.00  0.00    -0.252 OA
BRANCH   2   4
ATOM      4  C   UNL A   1      37.131  22.545  24.646  1.00  0.00     0.156 C 
BRANCH   4   5
ATOM      5  C   UNL A   1      35.660  22.490  25.056  1.00  0.00     0.149 C 
ATOM      6  N   UNL A   1      33.687  21.038  25.394  1.00  0.00    -0.320 N 
ATOM      7  C   UNL A   1      33.706  21.356  26.818  1.00  0.00     0.150 C 
ATOM      8  C   UNL A   1      35.013  21.111  24.785  1.00  0.00     0.154 C 
ATOM      9  C   UNL A   1      34.283  22.758  26.999  1.00  0.00     0.182 C 
ATOM     10  O   UNL A   1      35.623  22.810  26.475  1.00  0.00    -0.374 OA
BRANCH   6  11
ATOM     11  C   UNL A   1      32.656  20.510  24.678  1.00  0.00     0.317 C 
ATOM     12  N   UNL A   1      32.531  19.173  24.521  1.00  0.00    -0.338 N 
ATOM     13  H   UNL A   1      32.029  18.905  23.718  1.00  0.00     0.165 HD
ATOM     14  O   UNL A   1      31.784  21.215  24.163  1.00  0.00    -0.249 OA
BRANCH  12  15
ATOM     15  C   UNL A   1      33.005  18.061  25.328  1.00  0.00     0.121 C 
BRANCH  15  16
ATOM     16  C   UNL A   1      34.100  17.231  24.627  1.00  0.00     0.005 C 
ATOM     17  C   UNL A   1      33.779  17.167  23.128  1.00  0.00     0.009 C 
BRANCH  16  18
ATOM     18  C   UNL A   1      34.216  15.827  25.252  1.00  0.00     0.002 C 
ATOM     19  C   UNL A   1      32.887  15.093  25.375  1.00  0.00     0.004 C 
ENDBRANCH  16  18
ENDBRANCH  15  16
ENDBRANCH  12  15
ENDBRANCH   6  11
ENDBRANCH   4   5
ENDBRANCH   2   4
ENDBRANCH   1   2
BRANCH   1  20
ATOM     20  C   UNL A   1      38.887  20.698  25.392  1.00  0.00     0.274 C 
BRANCH  20  21
ATOM     21  C   UNL A   1      39.631  19.562  26.096  1.00  0.00     0.275 C 
BRANCH  21  22
ATOM     22  O   UNL A   1      40.830  19.203  25.384  1.00  0.00    -0.458 OA
BRANCH  22  23
ATOM     23  C   UNL A   1      41.969  19.198  26.117  1.00  0.00     0.338 C 
ATOM     24  O   UNL A   1      42.660  18.241  26.412  1.00  0.00    -0.246 OA
BRANCH  23  25
ATOM     25  C   UNL A   1      42.352  20.588  26.407  1.00  0.00     0.060 A 
ATOM     26  C   UNL A   1      42.425  20.993  27.742  1.00  0.00     0.016 A 
ATOM     27  C   UNL A   1      42.616  21.487  25.373  1.00  0.00     0.016 A 
ATOM     28  C   UNL A   1      42.795  22.299  28.053  1.00  0.00     0.010 A 
ATOM     29  C   UNL A   1      42.985  22.797  25.687  1.00  0.00     0.010 A 
ATOM     30  C   UNL A   1      43.087  23.206  27.027  1.00  0.00    -0.014 A 
BRANCH  30  31
ATOM     31  C   UNL A   1      43.534  24.580  27.353  1.00  0.00     0.031 A 
ATOM     32  C   UNL A   1      42.564  25.584  27.894  1.00  0.00     0.074 A 
ATOM     33  C   UNL A   1      44.815  24.925  27.128  1.00  0.00     0.049 A 
ATOM     34  N   UNL A   1      42.736  26.860  28.125  1.00  0.00    -0.248 NA
ATOM     35  C   UNL A   1      41.218  25.087  28.218  1.00  0.00     0.031 C 
ATOM     36  C   UNL A   1      45.854  24.021  26.631  1.00  0.00     0.029 A 
ATOM     37  N   UNL A   1      45.456  26.130  27.267  1.00  0.00    -0.354 N 
ATOM     38  C   UNL A   1      41.520  27.324  28.607  1.00  0.00     0.074 A 
ATOM     39  C   UNL A   1      40.614  26.195  28.623  1.00  0.00     0.031 C 
ATOM     40  C   UNL A   1      46.998  24.709  26.492  1.00  0.00     0.029 A 
ATOM     41  C   UNL A   1      46.760  26.106  26.842  1.00  0.00     0.049 A 
ATOM     42  H   UNL A   1      45.022  26.933  27.636  1.00  0.00     0.167 HD
ATOM     43  C   UNL A   1      41.198  28.580  29.000  1.00  0.00     0.037 A 
ATOM     44  C   UNL A   1      47.651  27.107  26.710  1.00  0.00     0.037 A 
ATOM     45  C   UNL A   1      42.111  29.694  28.986  1.00  0.00     0.049 A 
ATOM     46  C   UNL A   1      47.243  28.507  27.079  1.00  0.00     0.074 A 
ATOM     47  C   UNL A   1      41.894  30.993  29.413  1.00  0.00     0.029 A 
ATOM     48  N   UNL A   1      43.413  29.642  28.510  1.00  0.00    -0.354 N 
ATOM     49  N   UNL A   1      46.100  28.935  27.556  1.00  0.00    -0.248 NA
ATOM     50  C   UNL A   1      48.244  29.563  26.879  1.00  0.00     0.031 C 
ATOM     51  C   UNL A   1      43.047  31.740  29.146  1.00  0.00     0.029 A 
ATOM     52  C   UNL A   1      43.999  30.896  28.595  1.00  0.00     0.049 A 
ATOM     53  H   UNL A   1      43.856  28.834  28.164  1.00  0.00     0.167 HD
ATOM     54  C   UNL A   1      46.244  30.306  27.720  1.00  0.00     0.074 A 
ATOM     55  C   UNL A   1      47.594  30.635  27.312  1.00  0.00     0.031 C 
ATOM     56  C   UNL A   1      45.337  31.209  28.165  1.00  0.00     0.037 A 
BRANCH  43  57
ATOM     57  C   UNL A   1      39.789  28.826  29.451  1.00  0.00     0.064 A 
ATOM     58  C   UNL A   1      39.404  28.671  30.789  1.00  0.00     0.173 A 
ATOM     59  C   UNL A   1      38.822  29.264  28.534  1.00  0.00     0.173 A 
ATOM     60  F   UNL A   1      40.289  28.242  31.702  1.00  0.00    -0.203 F 
ATOM     61  C   UNL A   1      38.095  28.925  31.191  1.00  0.00     0.198 A 
ATOM     62  C   UNL A   1      37.520  29.542  28.943  1.00  0.00     0.198 A 
ATOM     63  F   UNL A   1      39.140  29.433  27.242  1.00  0.00    -0.203 F 
ATOM     64  F   UNL A   1      37.738  28.734  32.469  1.00  0.00    -0.200 F 
ATOM     65  C   UNL A   1      37.156  29.367  30.270  1.00  0.00     0.200 A 
ATOM     66  F   UNL A   1      36.617  29.978  28.054  1.00  0.00    -0.200 F 
ATOM     67  F   UNL A   1      35.899  29.617  30.660  1.00  0.00    -0.200 F 
ENDBRANCH  43  57
BRANCH  44  68
ATOM     68  C   UNL A   1      49.001  26.822  26.162  1.00  0.00     0.064 A 
ATOM     69  C   UNL A   1      50.034  26.361  26.988  1.00  0.00     0.173 A 
ATOM     70  C   UNL A   1      49.281  26.997  24.799  1.00  0.00     0.173 A 
ATOM     71  F   UNL A   1      49.822  26.206  28.302  1.00  0.00    -0.203 F 
ATOM     72  C   UNL A   1      51.300  26.093  26.471  1.00  0.00     0.198 A 
ATOM     73  C   UNL A   1      50.539  26.703  24.279  1.00  0.00     0.198 A 
ATOM     74  F   UNL A   1      48.327  27.441  23.968  1.00  0.00    -0.203 F 
ATOM     75  F   UNL A   1      52.283  25.688  27.288  1.00  0.00    -0.200 F 
ATOM     76  C   UNL A   1      51.550  26.255  25.116  1.00  0.00     0.200 A 
ATOM     77  F   UNL A   1      50.773  26.852  22.967  1.00  0.00    -0.200 F 
ATOM     78  F   UNL A   1      52.765  25.989  24.620  1.00  0.00    -0.200 F 
ENDBRANCH  44  68
BRANCH  56  79
ATOM     79  C   UNL A   1      45.776  32.642  28.228  1.00  0.00     0.064 A 
ATOM     80  C   UNL A   1      46.408  33.163  29.367  1.00  0.00     0.173 A 
ATOM     81  C   UNL A   1      45.599  33.493  27.127  1.00  0.00     0.173 A 
ATOM     82  F   UNL A   1      46.583  32.392  30.451  1.00  0.00    -0.203 F 
ATOM     83  C   UNL A   1      46.832  34.488  29.407  1.00  0.00     0.198 A 
ATOM     84  C   UNL A   1      46.047  34.811  27.161  1.00  0.00     0.198 A 
ATOM     85  F   UNL A   1      45.004  33.043  26.012  1.00  0.00    -0.203 F 
ATOM     86  F   UNL A   1      47.397  34.974  30.520  1.00  0.00    -0.200 F 
ATOM     87  C   UNL A   1      46.658  35.308  28.303  1.00  0.00     0.200 A 
ATOM     88  F   UNL A   1      45.887  35.600  26.090  1.00  0.00    -0.200 F 
ATOM     89  F   UNL A   1      47.072  36.582  28.341  1.00  0.00    -0.200 F 
ENDBRANCH  56  79
ENDBRANCH  30  31
ENDBRANCH  23  25
ENDBRANCH  22  23
ENDBRANCH  21  22
ENDBRANCH  20  21
ENDBRANCH   1  20
TORSDOF 16
ENDMDL
MODEL 3
REMARK VINA RESULT:     -10.5      4.967     10.213
REMARK SMILES CC[C@@H](C)CNC(=O)N1CCO[C@@H](CC(=O)OCCOC(=O)c2ccc(-c3c4nc(c(-c5c(F)c(F)c(F)c(F)c5F)c5ccc([nH]5)c(-c5c(F)c(F)c(F)c(F)c5F)c5nc(c(-c6c(F)c(F)c(F)c(F)c6F)c6ccc3[nH]6)C=C5)C=C4)cc2)C1
REMARK SMILES IDX 17 1 15 2 16 3 14 4 13 5 9 6 10 7 86 8 11 9 12 10 7 11 6 12
REMARK SMILES IDX 8 14 5 15 3 16 4 17 2 18 1 19 18 20 19 21 20 22 21 23 22 24
REMARK SMILES IDX 23 25 24 26 85 27 25 28 84 29 26 30 27 31 28 32 78 33 29 34
REMARK SMILES IDX 83 35 77 36 79 37 30 38 82 39 76 40 75 41 31 43 63 44 43 45
REMARK SMILES IDX 62 46 44 47 47 48 61 49 80 50 45 51 46 52 60 54 81 55 48 56
REMARK SMILES IDX 32 57 33 58 41 59 34 60 35 61 39 62 42 63 36 64 37 65 40 66
REMARK SMILES IDX 38 67 64 68 65 69 73 70 66 71 67 72 71 73 74 74 68 75 69 76
REMARK SMILES IDX 72 77 70 78 49 79 50 80 58 81 51 82 52 83 56 84 59 85 53 86
REMARK SMILES IDX 54 87 57 88 55 89
REMARK H PARENT 6 13 79 42 47 53
REMARK Flexibility Score: inf
ROOT
ATOM      1  O   UNL A   1      38.530  21.813  26.223  1.00  0.00    -0.462 OA
ENDROOT
BRANCH   1   2
ATOM      2  C   UNL A   1      37.996  22.955  25.732  1.00  0.00     0.308 C 
ATOM      3  O   UNL A   1      38.198  24.075  26.184  1.00  0.00    -0.252 OA
BRANCH   2   4
ATOM      4  C   UNL A   1      37.052  22.690  24.587  1.00  0.00     0.156 C 
BRANCH   4   5
ATOM      5  C   UNL A   1      35.579  22.576  24.977  1.00  0.00     0.149 C 
ATOM      6  N   UNL A   1      33.666  21.044  25.307  1.00  0.00    -0.320 N 
ATOM      7  C   UNL A   1      33.650  21.383  26.727  1.00  0.00     0.150 C 
ATOM      8  C   UNL A   1      34.997  21.167  24.716  1.00  0.00     0.154 C 
ATOM      9  C   UNL A   1      34.163  22.811  26.895  1.00  0.00     0.182 C 
ATOM     10  O   UNL A   1      35.507  22.913  26.390  1.00  0.00    -0.374 OA
BRANCH   6  11
ATOM     11  C   UNL A   1      32.669  20.462  24.583  1.00  0.00     0.317 C 
ATOM     12  N   UNL A   1      32.579  19.117  24.482  1.00  0.00    -0.338 N 
ATOM     13  H   UNL A   1      32.108  18.803  23.677  1.00  0.00     0.165 HD
ATOM     14  O   UNL A   1      31.799  21.124  24.013  1.00  0.00    -0.249 OA
BRANCH  12  15
ATOM     15  C   UNL A   1      33.051  18.052  25.350  1.00  0.00     0.121 C 
BRANCH  15  16
ATOM     16  C   UNL A   1      34.072  17.122  24.664  1.00  0.00     0.005 C 
ATOM     17  C   UNL A   1      33.747  17.063  23.166  1.00  0.00     0.009 C 
BRANCH  16  18
ATOM     18  C   UNL A   1      34.069  15.723  25.309  1.00  0.00     0.002 C 
ATOM     19  C   UNL A   1      32.686  15.093  25.413  1.00  0.00     0.004 C 
ENDBRANCH  16  18
ENDBRANCH  15  16
ENDBRANCH  12  15
ENDBRANCH   6  11
ENDBRANCH   4   5
ENDBRANCH   2   4
ENDBRANCH   1   2
BRANCH   1  20
ATOM     20  C   UNL A   1      38.646  20.696  25.321  1.00  0.00     0.274 C 
BRANCH  20  21
ATOM     21  C   UNL A   1      39.404  19.533  25.965  1.00  0.00     0.275 C 
BRANCH  21  22
ATOM     22  O   UNL A   1      40.653  19.289  25.291  1.00  0.00    -0.458 OA
BRANCH  22  23
ATOM     23  C   UNL A   1      41.750  19.245  26.084  1.00  0.00     0.338 C 
ATOM     24  O   UNL A   1      42.396  18.266  26.407  1.00  0.00    -0.246 OA
BRANCH  23  25
ATOM     25  C   UNL A   1      42.157  20.620  26.407  1.00  0.00     0.060 A 
ATOM     26  C   UNL A   1      42.321  20.967  27.751  1.00  0.00     0.016 A 
ATOM     27  C   UNL A   1      42.354  21.563  25.397  1.00  0.00     0.016 A 
ATOM     28  C   UNL A   1      42.716  22.258  28.092  1.00  0.00     0.010 A 
ATOM     29  C   UNL A   1      42.748  22.858  25.742  1.00  0.00     0.010 A 
ATOM     30  C   UNL A   1      42.942  23.209  27.089  1.00  0.00    -0.014 A 
BRANCH  30  31
ATOM     31  C   UNL A   1      43.415  24.567  27.443  1.00  0.00     0.031 A 
ATOM     32  C   UNL A   1      42.458  25.587  27.977  1.00  0.00     0.074 A 
ATOM     33  C   UNL A   1      44.709  24.883  27.249  1.00  0.00     0.049 A 
ATOM     34  N   UNL A   1      42.656  26.856  28.229  1.00  0.00    -0.248 NA
ATOM     35  C   UNL A   1      41.095  25.119  28.266  1.00  0.00     0.031 C 
ATOM     36  C   UNL A   1      45.736  23.961  26.762  1.00  0.00     0.029 A 
ATOM     37  N   UNL A   1      45.376  26.070  27.418  1.00  0.00    -0.354 N 
ATOM     38  C   UNL A   1      41.442  27.342  28.692  1.00  0.00     0.074 A 
ATOM     39  C   UNL A   1      40.508  26.236  28.673  1.00  0.00     0.031 C 
ATOM     40  C   UNL A   1      46.899  24.622  26.656  1.00  0.00     0.029 A 
ATOM     41  C   UNL A   1      46.687  26.020  27.020  1.00  0.00     0.049 A 
ATOM     42  H   UNL A   1      44.953  26.879  27.789  1.00  0.00     0.167 HD
ATOM     43  C   UNL A   1      41.143  28.600  29.094  1.00  0.00     0.037 A 
ATOM     44  C   UNL A   1      47.605  27.001  26.920  1.00  0.00     0.037 A 
ATOM     45  C   UNL A   1      42.082  29.692  29.115  1.00  0.00     0.049 A 
ATOM     46  C   UNL A   1      47.223  28.405  27.300  1.00  0.00     0.074 A 
ATOM     47  C   UNL A   1      41.887  30.990  29.555  1.00  0.00     0.029 A 
ATOM     48  N   UNL A   1      43.392  29.615  28.666  1.00  0.00    -0.354 N 
ATOM     49  N   UNL A   1      46.081  28.854  27.759  1.00  0.00    -0.248 NA
ATOM     50  C   UNL A   1      48.254  29.439  27.135  1.00  0.00     0.031 C 
ATOM     51  C   UNL A   1      43.064  31.712  29.322  1.00  0.00     0.029 A 
ATOM     52  C   UNL A   1      44.006  30.852  28.780  1.00  0.00     0.049 A 
ATOM     53  H   UNL A   1      43.822  28.801  28.318  1.00  0.00     0.167 HD
ATOM     54  C   UNL A   1      46.254  30.219  27.944  1.00  0.00     0.074 A 
ATOM     55  C   UNL A   1      47.620  30.520  27.569  1.00  0.00     0.031 C 
ATOM     56  C   UNL A   1      45.361  31.139  28.383  1.00  0.00     0.037 A 
BRANCH  43  57
ATOM     57  C   UNL A   1      39.731  28.875  29.519  1.00  0.00     0.064 A 
ATOM     58  C   UNL A   1      38.766  29.343  28.616  1.00  0.00     0.173 A 
ATOM     59  C   UNL A   1      39.330  28.627  30.840  1.00  0.00     0.173 A 
ATOM     60  F   UNL A   1      39.101  29.608  27.345  1.00  0.00    -0.203 F 
ATOM     61  C   UNL A   1      37.454  29.572  29.026  1.00  0.00     0.198 A 
ATOM     62  C   UNL A   1      38.013  28.832  31.241  1.00  0.00     0.198 A 
ATOM     63  F   UNL A   1      40.214  28.174  31.742  1.00  0.00    -0.203 F 
ATOM     64  F   UNL A   1      36.556  30.056  28.156  1.00  0.00    -0.200 F 
ATOM     65  C   UNL A   1      37.077  29.311  30.335  1.00  0.00     0.200 A 
ATOM     66  F   UNL A   1      37.648  28.570  32.504  1.00  0.00    -0.200 F 
ATOM     67  F   UNL A   1      35.813  29.525  30.727  1.00  0.00    -0.200 F 
ENDBRANCH  43  57
BRANCH  44  68
ATOM     68  C   UNL A   1      48.959  26.690  26.397  1.00  0.00     0.064 A 
ATOM     69  C   UNL A   1      49.278  26.894  25.049  1.00  0.00     0.173 A 
ATOM     70  C   UNL A   1      49.964  26.189  27.239  1.00  0.00     0.173 A 
ATOM     71  F   UNL A   1      48.343  27.344  24.201  1.00  0.00    -0.203 F 
ATOM     72  C   UNL A   1      50.550  26.603  24.560  1.00  0.00     0.198 A 
ATOM     73  C   UNL A   1      51.242  25.924  26.755  1.00  0.00     0.198 A 
ATOM     74  F   UNL A   1      49.707  25.972  28.537  1.00  0.00    -0.203 F 
ATOM     75  F   UNL A   1      50.820  26.772  23.258  1.00  0.00    -0.200 F 
ATOM     76  C   UNL A   1      51.533  26.126  25.415  1.00  0.00     0.200 A 
ATOM     77  F   UNL A   1      52.192  25.473  27.586  1.00  0.00    -0.200 F 
ATOM     78  F   UNL A   1      52.758  25.854  24.945  1.00  0.00    -0.200 F 
ENDBRANCH  44  68
BRANCH  56  79
ATOM     79  C   UNL A   1      45.833  32.559  28.474  1.00  0.00     0.064 A 
ATOM     80  C   UNL A   1      45.651  33.458  27.412  1.00  0.00     0.173 A 
ATOM     81  C   UNL A   1      46.437  33.039  29.645  1.00  0.00     0.173 A 
ATOM     82  F   UNL A   1      45.094  33.041  26.264  1.00  0.00    -0.203 F 
ATOM     83  C   UNL A   1      46.073  34.781  27.514  1.00  0.00     0.198 A 
ATOM     84  C   UNL A   1      46.835  34.369  29.753  1.00  0.00     0.198 A 
ATOM     85  F   UNL A   1      46.630  32.221  30.691  1.00  0.00    -0.203 F 
ATOM     86  F   UNL A   1      45.924  35.610  26.472  1.00  0.00    -0.200 F 
ATOM     87  C   UNL A   1      46.657  35.236  28.686  1.00  0.00     0.200 A 
ATOM     88  F   UNL A   1      47.390  34.811  30.890  1.00  0.00    -0.200 F 
ATOM     89  F   UNL A   1      47.056  36.512  28.784  1.00  0.00    -0.200 F 
ENDBRANCH  56  79
ENDBRANCH  30  31
ENDBRANCH  23  25
ENDBRANCH  22  23
ENDBRANCH  21  22
ENDBRANCH  20  21
ENDBRANCH   1  20
TORSDOF 16
ENDMDL
