MODEL 1
REMARK VINA RESULT:     -12.8      0.000      0.000
REMARK SMILES Cc1nn(CC(=O)NC(C)(C)C)c(C)c1S(=O)(=O)N1CCC[C@@H](C(=O)OCCOC(=O)c2ccc(-c3c4nc(c(-c5c(F)c(F)c(F)c(F)c5F)c5ccc([nH]5)c(-c5c(F)c(F)c(F)c(F)c5F)c5nc(c(-c6c(F)c(F)c(F)c(F)c6F)c6ccc3[nH]6)C=C5)C=C4)cc2)C1
REMARK SMILES IDX 26 1 24 2 25 3 23 4 19 5 20 6 95 7 21 8 22 9 16 10 17 11
REMARK SMILES IDX 18 12 15 13 1 14 2 15 3 16 4 17 13 18 14 19 5 20 6 21 7 22
REMARK SMILES IDX 8 23 9 25 10 26 11 27 12 28 27 29 28 30 29 31 30 32 31 33
REMARK SMILES IDX 32 34 33 35 94 36 34 37 93 38 35 39 36 40 37 41 87 42 38 43
REMARK SMILES IDX 92 44 86 45 88 46 39 47 91 48 85 49 84 50 40 52 72 53 52 54
REMARK SMILES IDX 71 55 53 56 56 57 70 58 89 59 54 60 55 61 69 63 90 64 57 65
REMARK SMILES IDX 41 66 42 67 50 68 43 69 44 70 48 71 51 72 45 73 46 74 49 75
REMARK SMILES IDX 47 76 73 77 74 78 82 79 75 80 76 81 80 82 83 83 77 84 78 85
REMARK SMILES IDX 81 86 79 87 58 88 59 89 67 90 60 91 61 92 65 93 68 94 62 95
REMARK SMILES IDX 63 96 66 97 64 98
REMARK H PARENT 8 24 88 51 56 62
REMARK Flexibility Score: inf
ROOT
ATOM      1  O   UNL A   1      32.505  30.069  25.890  1.00  0.00    -0.462 OA
ENDROOT
BRANCH   1   2
ATOM      2  C   UNL A   1      31.416  30.178  25.077  1.00  0.00     0.310 C 
ATOM      3  O   UNL A   1      30.629  31.115  25.084  1.00  0.00    -0.252 OA
BRANCH   2   4
ATOM      4  C   UNL A   1      31.327  28.986  24.144  1.00  0.00     0.114 C 
ATOM      5  N   UNL A   1      31.250  26.477  24.489  1.00  0.00    -0.197 NA
ATOM      6  C   UNL A   1      29.968  26.391  23.769  1.00  0.00     0.102 C 
ATOM      7  C   UNL A   1      31.812  27.774  24.914  1.00  0.00     0.117 C 
ATOM      8  C   UNL A   1      29.773  27.556  22.819  1.00  0.00     0.018 C 
ATOM      9  C   UNL A   1      29.919  28.867  23.563  1.00  0.00     0.018 C 
BRANCH   5  10
ATOM     10  S   UNL A   1      31.611  25.168  25.494  1.00  0.00     0.246 S 
ATOM     11  O   UNL A   1      30.348  24.559  25.881  1.00  0.00    -0.207 OA
ATOM     12  O   UNL A   1      32.566  25.606  26.481  1.00  0.00    -0.207 OA
BRANCH  10  13
ATOM     13  C   UNL A   1      32.413  23.860  24.694  1.00  0.00     0.126 A 
ATOM     14  C   UNL A   1      32.808  24.538  22.139  1.00  0.00     0.070 C 
ATOM     15  C   UNL A   1      32.792  23.668  23.340  1.00  0.00     0.080 A 
ATOM     16  N   UNL A   1      33.187  22.404  23.136  1.00  0.00    -0.176 NA
ATOM     17  N   UNL A   1      32.990  21.784  24.308  1.00  0.00    -0.259 N 
ATOM     18  C   UNL A   1      32.721  22.660  25.330  1.00  0.00     0.056 A 
ATOM     19  C   UNL A   1      32.654  22.284  26.769  1.00  0.00     0.068 C 
BRANCH  17  20
ATOM     20  C   UNL A   1      33.068  20.339  24.372  1.00  0.00     0.244 C 
BRANCH  20  21
ATOM     21  C   UNL A   1      34.426  19.791  24.739  1.00  0.00     0.242 C 
ATOM     22  O   UNL A   1      35.350  20.572  25.013  1.00  0.00    -0.273 OA
ATOM     23  N   UNL A   1      34.694  18.476  24.958  1.00  0.00    -0.350 N 
ATOM     24  H   UNL A   1      35.525  18.372  25.477  1.00  0.00     0.164 HD
BRANCH  23  25
ATOM     25  C   UNL A   1      34.103  17.154  24.646  1.00  0.00     0.032 C 
ATOM     26  C   UNL A   1      35.083  16.071  25.131  1.00  0.00     0.034 C 
ATOM     27  C   UNL A   1      32.792  17.040  25.445  1.00  0.00     0.034 C 
ATOM     28  C   UNL A   1      33.759  16.880  23.186  1.00  0.00     0.034 C 
ENDBRANCH  23  25
ENDBRANCH  20  21
ENDBRANCH  17  20
ENDBRANCH  10  13
ENDBRANCH   5  10
ENDBRANCH   2   4
ENDBRANCH   1   2
BRANCH   1  29
ATOM     29  C   UNL A   1      32.343  30.573  27.228  1.00  0.00     0.274 C 
BRANCH  29  30
ATOM     30  C   UNL A   1      33.449  31.563  27.570  1.00  0.00     0.275 C 
BRANCH  30  31
ATOM     31  O   UNL A   1      34.743  30.955  27.517  1.00  0.00    -0.458 OA
BRANCH  31  32
ATOM     32  C   UNL A   1      35.762  31.758  27.892  1.00  0.00     0.338 C 
ATOM     33  O   UNL A   1      35.933  32.928  27.591  1.00  0.00    -0.246 OA
BRANCH  32  34
ATOM     34  C   UNL A   1      36.784  30.980  28.589  1.00  0.00     0.060 A 
ATOM     35  C   UNL A   1      37.845  31.682  29.170  1.00  0.00     0.016 A 
ATOM     36  C   UNL A   1      36.820  29.592  28.411  1.00  0.00     0.016 A 
ATOM     37  C   UNL A   1      39.014  31.002  29.446  1.00  0.00     0.010 A 
ATOM     38  C   UNL A   1      37.990  28.919  28.675  1.00  0.00     0.010 A 
ATOM     39  C   UNL A   1      39.093  29.643  29.129  1.00  0.00    -0.014 A 
BRANCH  39  40
ATOM     40  C   UNL A   1      40.354  28.963  29.352  1.00  0.00     0.031 A 
ATOM     41  C   UNL A   1      40.695  28.778  30.779  1.00  0.00     0.074 A 
ATOM     42  C   UNL A   1      41.064  28.425  28.342  1.00  0.00     0.049 A 
ATOM     43  N   UNL A   1      41.767  29.154  31.392  1.00  0.00    -0.248 NA
ATOM     44  C   UNL A   1      39.676  28.175  31.654  1.00  0.00     0.031 C 
ATOM     45  C   UNL A   1      40.639  28.303  26.944  1.00  0.00     0.029 A 
ATOM     46  N   UNL A   1      42.260  27.767  28.368  1.00  0.00    -0.354 N 
ATOM     47  C   UNL A   1      41.640  28.668  32.689  1.00  0.00     0.074 A 
ATOM     48  C   UNL A   1      40.286  28.211  32.838  1.00  0.00     0.031 C 
ATOM     49  C   UNL A   1      41.451  27.432  26.309  1.00  0.00     0.029 A 
ATOM     50  C   UNL A   1      42.522  27.044  27.214  1.00  0.00     0.049 A 
ATOM     51  H   UNL A   1      42.878  27.801  29.133  1.00  0.00     0.167 HD
ATOM     52  C   UNL A   1      42.742  28.425  33.444  1.00  0.00     0.037 A 
ATOM     53  C   UNL A   1      43.515  26.146  27.017  1.00  0.00     0.037 A 
ATOM     54  C   UNL A   1      43.904  29.093  32.925  1.00  0.00     0.049 A 
ATOM     55  C   UNL A   1      44.581  26.390  28.015  1.00  0.00     0.074 A 
ATOM     56  C   UNL A   1      44.457  30.350  33.002  1.00  0.00     0.029 A 
ATOM     57  N   UNL A   1      44.522  28.436  31.898  1.00  0.00    -0.354 N 
ATOM     58  N   UNL A   1      45.346  27.444  28.014  1.00  0.00    -0.248 NA
ATOM     59  C   UNL A   1      44.633  25.579  29.229  1.00  0.00     0.031 C 
ATOM     60  C   UNL A   1      45.361  30.465  31.903  1.00  0.00     0.029 A 
ATOM     61  C   UNL A   1      45.333  29.275  31.182  1.00  0.00     0.049 A 
ATOM     62  H   UNL A   1      44.401  27.479  31.699  1.00  0.00     0.167 HD
ATOM     63  C   UNL A   1      45.632  27.653  29.347  1.00  0.00     0.074 A 
ATOM     64  C   UNL A   1      45.342  26.394  30.015  1.00  0.00     0.031 C 
ATOM     65  C   UNL A   1      45.740  28.915  29.845  1.00  0.00     0.037 A 
BRANCH  52  66
ATOM     66  C   UNL A   1      42.886  27.230  34.356  1.00  0.00     0.064 A 
ATOM     67  C   UNL A   1      42.783  27.418  35.748  1.00  0.00     0.173 A 
ATOM     68  C   UNL A   1      43.443  25.998  33.946  1.00  0.00     0.173 A 
ATOM     69  F   UNL A   1      42.291  28.562  36.247  1.00  0.00    -0.203 F 
ATOM     70  C   UNL A   1      43.261  26.471  36.657  1.00  0.00     0.198 A 
ATOM     71  C   UNL A   1      43.867  25.033  34.856  1.00  0.00     0.198 A 
ATOM     72  F   UNL A   1      43.706  25.728  32.661  1.00  0.00    -0.203 F 
ATOM     73  F   UNL A   1      43.252  26.744  37.969  1.00  0.00    -0.200 F 
ATOM     74  C   UNL A   1      43.806  25.282  36.211  1.00  0.00     0.200 A 
ATOM     75  F   UNL A   1      44.415  23.896  34.403  1.00  0.00    -0.200 F 
ATOM     76  F   UNL A   1      44.317  24.397  37.078  1.00  0.00    -0.200 F 
ENDBRANCH  52  66
BRANCH  53  77
ATOM     77  C   UNL A   1      43.532  24.975  26.115  1.00  0.00     0.064 A 
ATOM     78  C   UNL A   1      44.568  24.790  25.187  1.00  0.00     0.173 A 
ATOM     79  C   UNL A   1      42.666  23.885  26.320  1.00  0.00     0.173 A 
ATOM     80  F   UNL A   1      45.458  25.767  24.963  1.00  0.00    -0.203 F 
ATOM     81  C   UNL A   1      44.742  23.574  24.521  1.00  0.00     0.198 A 
ATOM     82  C   UNL A   1      42.832  22.676  25.646  1.00  0.00     0.198 A 
ATOM     83  F   UNL A   1      41.696  23.942  27.246  1.00  0.00    -0.203 F 
ATOM     84  F   UNL A   1      45.780  23.412  23.689  1.00  0.00    -0.200 F 
ATOM     85  C   UNL A   1      43.880  22.515  24.758  1.00  0.00     0.200 A 
ATOM     86  F   UNL A   1      42.011  21.651  25.907  1.00  0.00    -0.200 F 
ATOM     87  F   UNL A   1      44.081  21.332  24.164  1.00  0.00    -0.200 F 
ENDBRANCH  53  77
BRANCH  65  88
ATOM     88  C   UNL A   1      46.111  29.994  28.882  1.00  0.00     0.064 A 
ATOM     89  C   UNL A   1      47.431  30.304  28.520  1.00  0.00     0.173 A 
ATOM     90  C   UNL A   1      45.079  30.728  28.282  1.00  0.00     0.173 A 
ATOM     91  F   UNL A   1      48.460  29.591  28.997  1.00  0.00    -0.203 F 
ATOM     92  C   UNL A   1      47.705  31.343  27.633  1.00  0.00     0.198 A 
ATOM     93  C   UNL A   1      45.354  31.741  27.370  1.00  0.00     0.198 A 
ATOM     94  F   UNL A   1      43.798  30.443  28.565  1.00  0.00    -0.203 F 
ATOM     95  F   UNL A   1      48.974  31.644  27.322  1.00  0.00    -0.200 F 
ATOM     96  C   UNL A   1      46.666  32.057  27.057  1.00  0.00     0.200 A 
ATOM     97  F   UNL A   1      44.345  32.403  26.787  1.00  0.00    -0.200 F 
ATOM     98  F   UNL A   1      46.928  33.043  26.186  1.00  0.00    -0.200 F 
ENDBRANCH  65  88
ENDBRANCH  39  40
ENDBRANCH  32  34
ENDBRANCH  31  32
ENDBRANCH  30  31
ENDBRANCH  29  30
ENDBRANCH   1  29
TORSDOF 16
ENDMDL
MODEL 2
REMARK VINA RESULT:     -12.8      1.621      6.546
REMARK SMILES Cc1nn(CC(=O)NC(C)(C)C)c(C)c1S(=O)(=O)N1CCC[C@@H](C(=O)OCCOC(=O)c2ccc(-c3c4nc(c(-c5c(F)c(F)c(F)c(F)c5F)c5ccc([nH]5)c(-c5c(F)c(F)c(F)c(F)c5F)c5nc(c(-c6c(F)c(F)c(F)c(F)c6F)c6ccc3[nH]6)C=C5)C=C4)cc2)C1
REMARK SMILES IDX 26 1 24 2 25 3 23 4 19 5 20 6 95 7 21 8 22 9 16 10 17 11
REMARK SMILES IDX 18 12 15 13 1 14 2 15 3 16 4 17 13 18 14 19 5 20 6 21 7 22
REMARK SMILES IDX 8 23 9 25 10 26 11 27 12 28 27 29 28 30 29 31 30 32 31 33
REMARK SMILES IDX 32 34 33 35 94 36 34 37 93 38 35 39 36 40 37 41 87 42 38 43
REMARK SMILES IDX 92 44 86 45 88 46 39 47 91 48 85 49 84 50 40 52 72 53 52 54
REMARK SMILES IDX 71 55 53 56 56 57 70 58 89 59 54 60 55 61 69 63 90 64 57 65
REMARK SMILES IDX 41 66 42 67 50 68 43 69 44 70 48 71 51 72 45 73 46 74 49 75
REMARK SMILES IDX 47 76 73 77 74 78 82 79 75 80 76 81 80 82 83 83 77 84 78 85
REMARK SMILES IDX 81 86 79 87 58 88 59 89 67 90 60 91 61 92 65 93 68 94 62 95
REMARK SMILES IDX 63 96 66 97 64 98
REMARK H PARENT 8 24 88 51 56 62
REMARK Flexibility Score: inf
ROOT
ATOM      1  O   UNL A   1      32.962  29.960  26.005  1.00  0.00    -0.462 OA
ENDROOT
BRANCH   1   2
ATOM      2  C   UNL A   1      31.805  30.083  25.294  1.00  0.00     0.310 C 
ATOM      3  O   UNL A   1      31.005  31.001  25.413  1.00  0.00    -0.252 OA
BRANCH   2   4
ATOM      4  C   UNL A   1      31.656  28.933  24.317  1.00  0.00     0.114 C 
ATOM      5  N   UNL A   1      31.415  26.423  24.568  1.00  0.00    -0.197 NA
ATOM      6  C   UNL A   1      30.143  26.445  23.827  1.00  0.00     0.102 C 
ATOM      7  C   UNL A   1      32.051  27.666  25.048  1.00  0.00     0.117 C 
ATOM      8  C   UNL A   1      30.038  27.654  22.918  1.00  0.00     0.018 C 
ATOM      9  C   UNL A   1      30.253  28.925  23.712  1.00  0.00     0.018 C 
BRANCH   5  10
ATOM     10  S   UNL A   1      31.676  25.059  25.528  1.00  0.00     0.246 S 
ATOM     11  O   UNL A   1      30.373  24.489  25.833  1.00  0.00    -0.207 OA
ATOM     12  O   UNL A   1      32.603  25.413  26.574  1.00  0.00    -0.207 OA
BRANCH  10  13
ATOM     13  C   UNL A   1      32.458  23.752  24.707  1.00  0.00     0.126 A 
ATOM     14  C   UNL A   1      32.806  24.442  22.148  1.00  0.00     0.070 C 
ATOM     15  C   UNL A   1      32.811  23.565  23.345  1.00  0.00     0.080 A 
ATOM     16  N   UNL A   1      33.198  22.301  23.127  1.00  0.00    -0.176 NA
ATOM     17  N   UNL A   1      33.021  21.676  24.300  1.00  0.00    -0.259 N 
ATOM     18  C   UNL A   1      32.775  22.548  25.331  1.00  0.00     0.056 A 
ATOM     19  C   UNL A   1      32.733  22.165  26.769  1.00  0.00     0.068 C 
BRANCH  17  20
ATOM     20  C   UNL A   1      33.095  20.231  24.355  1.00  0.00     0.244 C 
BRANCH  20  21
ATOM     21  C   UNL A   1      34.456  19.676  24.702  1.00  0.00     0.242 C 
ATOM     22  O   UNL A   1      35.392  20.453  24.942  1.00  0.00    -0.273 OA
ATOM     23  N   UNL A   1      34.718  18.363  24.940  1.00  0.00    -0.350 N 
ATOM     24  H   UNL A   1      35.558  18.261  25.442  1.00  0.00     0.164 HD
BRANCH  23  25
ATOM     25  C   UNL A   1      34.108  17.042  24.664  1.00  0.00     0.032 C 
ATOM     26  C   UNL A   1      33.990  16.884  23.138  1.00  0.00     0.034 C 
ATOM     27  C   UNL A   1      35.073  15.971  25.207  1.00  0.00     0.034 C 
ATOM     28  C   UNL A   1      32.744  16.768  25.289  1.00  0.00     0.034 C 
ENDBRANCH  23  25
ENDBRANCH  20  21
ENDBRANCH  17  20
ENDBRANCH  10  13
ENDBRANCH   5  10
ENDBRANCH   2   4
ENDBRANCH   1   2
BRANCH   1  29
ATOM     29  C   UNL A   1      32.989  30.623  27.281  1.00  0.00     0.274 C 
BRANCH  29  30
ATOM     30  C   UNL A   1      34.399  31.093  27.615  1.00  0.00     0.275 C 
BRANCH  30  31
ATOM     31  O   UNL A   1      35.277  29.996  27.884  1.00  0.00    -0.458 OA
BRANCH  31  32
ATOM     32  C   UNL A   1      36.176  30.218  28.867  1.00  0.00     0.338 C 
ATOM     33  O   UNL A   1      36.130  31.074  29.735  1.00  0.00    -0.246 OA
BRANCH  32  34
ATOM     34  C   UNL A   1      37.362  29.391  28.657  1.00  0.00     0.060 A 
ATOM     35  C   UNL A   1      37.799  28.604  29.729  1.00  0.00     0.016 A 
ATOM     36  C   UNL A   1      38.161  29.621  27.531  1.00  0.00     0.016 A 
ATOM     37  C   UNL A   1      39.106  28.161  29.733  1.00  0.00     0.010 A 
ATOM     38  C   UNL A   1      39.467  29.189  27.544  1.00  0.00     0.010 A 
ATOM     39  C   UNL A   1      39.942  28.520  28.672  1.00  0.00    -0.014 A 
BRANCH  39  40
ATOM     40  C   UNL A   1      41.332  28.114  28.732  1.00  0.00     0.031 A 
ATOM     41  C   UNL A   1      41.607  26.811  28.089  1.00  0.00     0.074 A 
ATOM     42  C   UNL A   1      42.296  28.929  29.203  1.00  0.00     0.049 A 
ATOM     43  N   UNL A   1      42.168  25.773  28.612  1.00  0.00    -0.248 NA
ATOM     44  C   UNL A   1      41.118  26.608  26.716  1.00  0.00     0.031 C 
ATOM     45  C   UNL A   1      42.143  30.340  29.571  1.00  0.00     0.029 A 
ATOM     46  N   UNL A   1      43.637  28.710  29.340  1.00  0.00    -0.354 N 
ATOM     47  C   UNL A   1      42.273  24.849  27.578  1.00  0.00     0.074 A 
ATOM     48  C   UNL A   1      41.486  25.349  26.484  1.00  0.00     0.031 C 
ATOM     49  C   UNL A   1      43.364  30.904  29.678  1.00  0.00     0.029 A 
ATOM     50  C   UNL A   1      44.374  29.870  29.518  1.00  0.00     0.049 A 
ATOM     51  H   UNL A   1      44.042  27.813  29.314  1.00  0.00     0.167 HD
ATOM     52  C   UNL A   1      43.229  23.886  27.610  1.00  0.00     0.037 A 
ATOM     53  C   UNL A   1      45.721  29.998  29.487  1.00  0.00     0.037 A 
ATOM     54  C   UNL A   1      43.763  23.705  28.931  1.00  0.00     0.049 A 
ATOM     55  C   UNL A   1      46.330  28.670  29.728  1.00  0.00     0.074 A 
ATOM     56  C   UNL A   1      43.413  23.018  30.070  1.00  0.00     0.029 A 
ATOM     57  N   UNL A   1      44.730  24.607  29.278  1.00  0.00    -0.354 N 
ATOM     58  N   UNL A   1      46.276  28.045  30.870  1.00  0.00    -0.248 NA
ATOM     59  C   UNL A   1      46.781  27.866  28.595  1.00  0.00     0.031 C 
ATOM     60  C   UNL A   1      44.130  23.622  31.146  1.00  0.00     0.029 A 
ATOM     61  C   UNL A   1      44.898  24.664  30.635  1.00  0.00     0.049 A 
ATOM     62  H   UNL A   1      45.241  25.148  28.633  1.00  0.00     0.167 HD
ATOM     63  C   UNL A   1      46.272  26.710  30.523  1.00  0.00     0.074 A 
ATOM     64  C   UNL A   1      46.774  26.655  29.160  1.00  0.00     0.031 C 
ATOM     65  C   UNL A   1      45.539  25.810  31.234  1.00  0.00     0.037 A 
BRANCH  52  66
ATOM     66  C   UNL A   1      44.013  23.443  26.396  1.00  0.00     0.064 A 
ATOM     67  C   UNL A   1      43.961  22.091  26.007  1.00  0.00     0.173 A 
ATOM     68  C   UNL A   1      45.053  24.206  25.818  1.00  0.00     0.173 A 
ATOM     69  F   UNL A   1      43.028  21.270  26.513  1.00  0.00    -0.203 F 
ATOM     70  C   UNL A   1      44.917  21.532  25.154  1.00  0.00     0.198 A 
ATOM     71  C   UNL A   1      45.971  23.658  24.926  1.00  0.00     0.198 A 
ATOM     72  F   UNL A   1      45.294  25.472  26.182  1.00  0.00    -0.203 F 
ATOM     73  F   UNL A   1      44.899  20.216  24.906  1.00  0.00    -0.200 F 
ATOM     74  C   UNL A   1      45.923  22.314  24.618  1.00  0.00     0.200 A 
ATOM     75  F   UNL A   1      46.953  24.428  24.435  1.00  0.00    -0.200 F 
ATOM     76  F   UNL A   1      46.873  21.770  23.847  1.00  0.00    -0.200 F 
ENDBRANCH  52  66
BRANCH  53  77
ATOM     77  C   UNL A   1      46.526  31.175  29.101  1.00  0.00     0.064 A 
ATOM     78  C   UNL A   1      46.561  31.625  27.772  1.00  0.00     0.173 A 
ATOM     79  C   UNL A   1      47.076  32.033  30.072  1.00  0.00     0.173 A 
ATOM     80  F   UNL A   1      46.024  30.884  26.793  1.00  0.00    -0.203 F 
ATOM     81  C   UNL A   1      47.093  32.874  27.438  1.00  0.00     0.198 A 
ATOM     82  C   UNL A   1      47.618  33.273  29.737  1.00  0.00     0.198 A 
ATOM     83  F   UNL A   1      47.015  31.723  31.376  1.00  0.00    -0.203 F 
ATOM     84  F   UNL A   1      47.052  33.298  26.168  1.00  0.00    -0.200 F 
ATOM     85  C   UNL A   1      47.612  33.700  28.422  1.00  0.00     0.200 A 
ATOM     86  F   UNL A   1      48.088  34.075  30.701  1.00  0.00    -0.200 F 
ATOM     87  F   UNL A   1      48.068  34.920  28.110  1.00  0.00    -0.200 F 
ENDBRANCH  53  77
BRANCH  65  88
ATOM     88  C   UNL A   1      45.233  26.156  32.654  1.00  0.00     0.064 A 
ATOM     89  C   UNL A   1      46.104  25.911  33.727  1.00  0.00     0.173 A 
ATOM     90  C   UNL A   1      44.013  26.786  32.933  1.00  0.00     0.173 A 
ATOM     91  F   UNL A   1      47.317  25.382  33.520  1.00  0.00    -0.203 F 
ATOM     92  C   UNL A   1      45.741  26.238  35.032  1.00  0.00     0.198 A 
ATOM     93  C   UNL A   1      43.669  27.143  34.232  1.00  0.00     0.198 A 
ATOM     94  F   UNL A   1      43.163  27.078  31.936  1.00  0.00    -0.203 F 
ATOM     95  F   UNL A   1      46.574  25.968  36.048  1.00  0.00    -0.200 F 
ATOM     96  C   UNL A   1      44.526  26.856  35.282  1.00  0.00     0.200 A 
ATOM     97  F   UNL A   1      42.511  27.775  34.464  1.00  0.00    -0.200 F 
ATOM     98  F   UNL A   1      44.186  27.189  36.536  1.00  0.00    -0.200 F 
ENDBRANCH  65  88
ENDBRANCH  39  40
ENDBRANCH  32  34
ENDBRANCH  31  32
ENDBRANCH  30  31
ENDBRANCH  29  30
ENDBRANCH   1  29
TORSDOF 16
ENDMDL
MODEL 3
REMARK VINA RESULT:     -12.8      1.810      2.196
REMARK SMILES Cc1nn(CC(=O)NC(C)(C)C)c(C)c1S(=O)(=O)N1CCC[C@@H](C(=O)OCCOC(=O)c2ccc(-c3c4nc(c(-c5c(F)c(F)c(F)c(F)c5F)c5ccc([nH]5)c(-c5c(F)c(F)c(F)c(F)c5F)c5nc(c(-c6c(F)c(F)c(F)c(F)c6F)c6ccc3[nH]6)C=C5)C=C4)cc2)C1
REMARK SMILES IDX 26 1 24 2 25 3 23 4 19 5 20 6 95 7 21 8 22 9 16 10 17 11
REMARK SMILES IDX 18 12 15 13 1 14 2 15 3 16 4 17 13 18 14 19 5 20 6 21 7 22
REMARK SMILES IDX 8 23 9 25 10 26 11 27 12 28 27 29 28 30 29 31 30 32 31 33
REMARK SMILES IDX 32 34 33 35 94 36 34 37 93 38 35 39 36 40 37 41 87 42 38 43
REMARK SMILES IDX 92 44 86 45 88 46 39 47 91 48 85 49 84 50 40 52 72 53 52 54
REMARK SMILES IDX 71 55 53 56 56 57 70 58 89 59 54 60 55 61 69 63 90 64 57 65
REMARK SMILES IDX 41 66 42 67 50 68 43 69 44 70 48 71 51 72 45 73 46 74 49 75
REMARK SMILES IDX 47 76 73 77 74 78 82 79 75 80 76 81 80 82 83 83 77 84 78 85
REMARK SMILES IDX 81 86 79 87 58 88 59 89 67 90 60 91 61 92 65 93 68 94 62 95
REMARK SMILES IDX 63 96 66 97 64 98
REMARK H PARENT 8 24 88 51 56 62
REMARK Flexibility Score: inf
ROOT
ATOM      1  O   UNL A   1      33.220  29.606  25.807  1.00  0.00    -0.462 OA
ENDROOT
BRANCH   1   2
ATOM      2  C   UNL A   1      31.987  30.086  25.474  1.00  0.00     0.310 C 
ATOM      3  O   UNL A   1      31.398  30.976  26.072  1.00  0.00    -0.252 OA
BRANCH   2   4
ATOM      4  C   UNL A   1      31.455  29.376  24.245  1.00  0.00     0.114 C 
ATOM      5  N   UNL A   1      30.519  27.061  23.809  1.00  0.00    -0.197 NA
ATOM      6  C   UNL A   1      29.264  27.637  23.298  1.00  0.00     0.102 C 
ATOM      7  C   UNL A   1      31.513  27.887  24.522  1.00  0.00     0.117 C 
ATOM      8  C   UNL A   1      29.454  29.053  22.793  1.00  0.00     0.018 C 
ATOM      9  C   UNL A   1      30.074  29.914  23.873  1.00  0.00     0.018 C 
BRANCH   5  10
ATOM     10  S   UNL A   1      30.437  25.446  24.296  1.00  0.00     0.246 S 
ATOM     11  O   UNL A   1      29.814  24.700  23.215  1.00  0.00    -0.207 OA
ATOM     12  O   UNL A   1      29.909  25.404  25.637  1.00  0.00    -0.207 OA
BRANCH  10  13
ATOM     13  C   UNL A   1      31.976  24.667  24.433  1.00  0.00     0.126 A 
ATOM     14  C   UNL A   1      33.652  25.780  22.674  1.00  0.00     0.070 C 
ATOM     15  C   UNL A   1      33.182  24.818  23.701  1.00  0.00     0.080 A 
ATOM     16  N   UNL A   1      34.047  23.843  24.011  1.00  0.00    -0.176 NA
ATOM     17  N   UNL A   1      33.383  23.045  24.858  1.00  0.00    -0.259 N 
ATOM     18  C   UNL A   1      32.211  23.605  25.302  1.00  0.00     0.056 A 
ATOM     19  C   UNL A   1      31.366  23.043  26.392  1.00  0.00     0.068 C 
BRANCH  17  20
ATOM     20  C   UNL A   1      33.931  21.747  25.192  1.00  0.00     0.244 C 
BRANCH  20  21
ATOM     21  C   UNL A   1      34.825  21.728  26.408  1.00  0.00     0.242 C 
ATOM     22  O   UNL A   1      34.346  21.453  27.518  1.00  0.00    -0.273 OA
ATOM     23  N   UNL A   1      36.181  21.831  26.373  1.00  0.00    -0.350 N 
ATOM     24  H   UNL A   1      36.578  21.487  27.205  1.00  0.00     0.164 HD
BRANCH  23  25
ATOM     25  C   UNL A   1      37.234  22.308  25.448  1.00  0.00     0.032 C 
ATOM     26  C   UNL A   1      37.494  23.794  25.754  1.00  0.00     0.034 C 
ATOM     27  C   UNL A   1      38.510  21.502  25.753  1.00  0.00     0.034 C 
ATOM     28  C   UNL A   1      36.961  22.159  23.955  1.00  0.00     0.034 C 
ENDBRANCH  23  25
ENDBRANCH  20  21
ENDBRANCH  17  20
ENDBRANCH  10  13
ENDBRANCH   5  10
ENDBRANCH   2   4
ENDBRANCH   1   2
BRANCH   1  29
ATOM     29  C   UNL A   1      33.611  29.779  27.180  1.00  0.00     0.274 C 
BRANCH  29  30
ATOM     30  C   UNL A   1      35.124  29.678  27.327  1.00  0.00     0.275 C 
BRANCH  30  31
ATOM     31  O   UNL A   1      35.713  30.937  27.662  1.00  0.00    -0.458 OA
BRANCH  31  32
ATOM     32  C   UNL A   1      35.704  31.234  28.980  1.00  0.00     0.338 C 
ATOM     33  O   UNL A   1      34.973  32.021  29.558  1.00  0.00    -0.246 OA
BRANCH  32  34
ATOM     34  C   UNL A   1      36.845  30.606  29.643  1.00  0.00     0.060 A 
ATOM     35  C   UNL A   1      38.105  31.182  29.443  1.00  0.00     0.016 A 
ATOM     36  C   UNL A   1      36.691  29.331  30.199  1.00  0.00     0.016 A 
ATOM     37  C   UNL A   1      39.227  30.412  29.673  1.00  0.00     0.010 A 
ATOM     38  C   UNL A   1      37.811  28.561  30.416  1.00  0.00     0.010 A 
ATOM     39  C   UNL A   1      39.061  29.089  30.090  1.00  0.00    -0.014 A 
BRANCH  39  40
ATOM     40  C   UNL A   1      40.247  28.270  30.250  1.00  0.00     0.031 A 
ATOM     41  C   UNL A   1      40.759  28.216  31.636  1.00  0.00     0.074 A 
ATOM     42  C   UNL A   1      40.737  27.518  29.246  1.00  0.00     0.049 A 
ATOM     43  N   UNL A   1      41.944  28.510  32.054  1.00  0.00    -0.248 NA
ATOM     44  C   UNL A   1      39.806  27.875  32.705  1.00  0.00     0.031 C 
ATOM     45  C   UNL A   1      40.109  27.285  27.942  1.00  0.00     0.029 A 
ATOM     46  N   UNL A   1      41.835  26.706  29.218  1.00  0.00    -0.354 N 
ATOM     47  C   UNL A   1      41.942  28.210  33.413  1.00  0.00     0.074 A 
ATOM     48  C   UNL A   1      40.576  27.970  33.789  1.00  0.00     0.031 C 
ATOM     49  C   UNL A   1      40.711  26.238  27.341  1.00  0.00     0.029 A 
ATOM     50  C   UNL A   1      41.842  25.817  28.153  1.00  0.00     0.049 A 
ATOM     51  H   UNL A   1      42.554  26.747  29.889  1.00  0.00     0.167 HD
ATOM     52  C   UNL A   1      43.100  27.909  34.053  1.00  0.00     0.037 A 
ATOM     53  C   UNL A   1      42.679  24.771  27.965  1.00  0.00     0.037 A 
ATOM     54  C   UNL A   1      44.251  28.338  33.308  1.00  0.00     0.049 A 
ATOM     55  C   UNL A   1      43.896  24.983  28.781  1.00  0.00     0.074 A 
ATOM     56  C   UNL A   1      44.960  29.505  33.140  1.00  0.00     0.029 A 
ATOM     57  N   UNL A   1      44.634  27.479  32.316  1.00  0.00    -0.354 N 
ATOM     58  N   UNL A   1      44.777  25.911  28.539  1.00  0.00    -0.248 NA
ATOM     59  C   UNL A   1      44.017  24.329  30.082  1.00  0.00     0.031 C 
ATOM     60  C   UNL A   1      45.708  29.355  31.933  1.00  0.00     0.029 A 
ATOM     61  C   UNL A   1      45.433  28.102  31.395  1.00  0.00     0.049 A 
ATOM     62  H   UNL A   1      44.369  26.532  32.270  1.00  0.00     0.167 HD
ATOM     63  C   UNL A   1      45.270  26.240  29.784  1.00  0.00     0.074 A 
ATOM     64  C   UNL A   1      44.924  25.127  30.652  1.00  0.00     0.031 C 
ATOM     65  C   UNL A   1      45.602  27.526  30.083  1.00  0.00     0.037 A 
BRANCH  52  66
ATOM     66  C   UNL A   1      43.222  26.827  35.101  1.00  0.00     0.064 A 
ATOM     67  C   UNL A   1      43.507  27.194  36.430  1.00  0.00     0.173 A 
ATOM     68  C   UNL A   1      43.399  25.460  34.792  1.00  0.00     0.173 A 
ATOM     69  F   UNL A   1      43.395  28.471  36.825  1.00  0.00    -0.203 F 
ATOM     70  C   UNL A   1      43.995  26.271  37.360  1.00  0.00     0.198 A 
ATOM     71  C   UNL A   1      43.833  24.534  35.737  1.00  0.00     0.198 A 
ATOM     72  F   UNL A   1      43.275  24.989  33.545  1.00  0.00    -0.203 F 
ATOM     73  F   UNL A   1      44.367  26.688  38.578  1.00  0.00    -0.200 F 
ATOM     74  C   UNL A   1      44.161  24.944  37.012  1.00  0.00     0.200 A 
ATOM     75  F   UNL A   1      44.009  23.255  35.373  1.00  0.00    -0.200 F 
ATOM     76  F   UNL A   1      44.682  24.070  37.884  1.00  0.00    -0.200 F 
ENDBRANCH  52  66
BRANCH  53  77
ATOM     77  C   UNL A   1      42.426  23.507  27.241  1.00  0.00     0.064 A 
ATOM     78  C   UNL A   1      43.140  23.182  26.079  1.00  0.00     0.173 A 
ATOM     79  C   UNL A   1      41.656  22.480  27.818  1.00  0.00     0.173 A 
ATOM     80  F   UNL A   1      43.926  24.094  25.491  1.00  0.00    -0.203 F 
ATOM     81  C   UNL A   1      43.106  21.894  25.538  1.00  0.00     0.198 A 
ATOM     82  C   UNL A   1      41.612  21.198  27.271  1.00  0.00     0.198 A 
ATOM     83  F   UNL A   1      41.004  22.675  28.974  1.00  0.00    -0.203 F 
ATOM     84  F   UNL A   1      43.851  21.602  24.463  1.00  0.00    -0.200 F 
ATOM     85  C   UNL A   1      42.350  20.901  26.140  1.00  0.00     0.200 A 
ATOM     86  F   UNL A   1      40.902  20.239  27.881  1.00  0.00    -0.200 F 
ATOM     87  F   UNL A   1      42.363  19.652  25.656  1.00  0.00    -0.200 F 
ENDBRANCH  53  77
BRANCH  65  88
ATOM     88  C   UNL A   1      45.964  28.416  28.939  1.00  0.00     0.064 A 
ATOM     89  C   UNL A   1      47.259  28.523  28.408  1.00  0.00     0.173 A 
ATOM     90  C   UNL A   1      44.948  29.171  28.341  1.00  0.00     0.173 A 
ATOM     91  F   UNL A   1      48.261  27.771  28.881  1.00  0.00    -0.203 F 
ATOM     92  C   UNL A   1      47.530  29.394  27.355  1.00  0.00     0.198 A 
ATOM     93  C   UNL A   1      45.214  30.013  27.268  1.00  0.00     0.198 A 
ATOM     94  F   UNL A   1      43.685  29.074  28.788  1.00  0.00    -0.203 F 
ATOM     95  F   UNL A   1      48.779  29.506  26.880  1.00  0.00    -0.200 F 
ATOM     96  C   UNL A   1      46.507  30.135  26.784  1.00  0.00     0.200 A 
ATOM     97  F   UNL A   1      44.215  30.699  26.695  1.00  0.00    -0.200 F 
ATOM     98  F   UNL A   1      46.764  30.958  25.757  1.00  0.00    -0.200 F 
ENDBRANCH  65  88
ENDBRANCH  39  40
ENDBRANCH  32  34
ENDBRANCH  31  32
ENDBRANCH  30  31
ENDBRANCH  29  30
ENDBRANCH   1  29
TORSDOF 16
ENDMDL
