MODEL 1
REMARK VINA RESULT:     -12.2      0.000      0.000
REMARK SMILES COc1ccc(Nc2c(C(=O)OCCOC(=O)c3ccc(-c4c5nc(c(-c6c(F)c(F)c(F)c(F)c6F)c6ccc([nH]6)c(-c6c(F)c(F)c(F)c(F)c6F)c6nc(c(-c7c(F)c(F)c(F)c(F)c7F)c7ccc4[nH]7)C=C6)C=C5)cc3)[nH]c(=O)[nH]c2=O)cc1
REMARK SMILES IDX 13 1 12 2 10 3 11 4 9 5 8 6 85 7 81 8 84 9 86 10 82 11 83 14
REMARK SMILES IDX 7 15 6 17 3 18 4 19 88 20 5 21 87 22 2 23 1 24 14 25 15 26
REMARK SMILES IDX 16 27 17 28 18 29 19 30 80 31 20 32 79 33 21 34 22 35 23 36
REMARK SMILES IDX 73 37 24 38 78 39 72 40 74 41 25 42 77 43 71 44 70 45 26 47
REMARK SMILES IDX 58 48 38 49 57 50 39 51 42 52 56 53 75 54 40 55 41 56 55 58
REMARK SMILES IDX 76 59 43 60 27 61 28 62 36 63 29 64 30 65 34 66 37 67 31 68
REMARK SMILES IDX 32 69 35 70 33 71 59 72 60 73 68 74 61 75 62 76 66 77 69 78
REMARK SMILES IDX 63 79 64 80 67 81 65 82 44 83 45 84 53 85 46 86 47 87 51 88
REMARK SMILES IDX 54 89 48 90 49 91 52 92 50 93
REMARK H PARENT 81 12 84 13 7 16 74 46 42 57
REMARK Flexibility Score: inf
ROOT
ATOM      1  C   UNL A   1      31.778  28.440  27.450  1.00  0.00     0.275 C 
ENDROOT
BRANCH   1   2
ATOM      2  O   UNL A   1      32.433  27.422  26.664  1.00  0.00    -0.457 OA
BRANCH   2   3
ATOM      3  C   UNL A   1      31.638  26.583  25.960  1.00  0.00     0.357 C 
ATOM      4  O   UNL A   1      30.768  25.861  26.433  1.00  0.00    -0.244 OA
BRANCH   3   5
ATOM      5  C   UNL A   1      31.835  26.682  24.476  1.00  0.00     0.158 A 
ATOM      6  C   UNL A   1      32.930  26.246  23.819  1.00  0.00     0.136 A 
ATOM      7  C   UNL A   1      32.888  26.444  22.312  1.00  0.00     0.278 A 
ATOM      8  N   UNL A   1      30.799  27.311  23.819  1.00  0.00    -0.299 N 
ATOM      9  N   UNL A   1      31.914  27.264  21.817  1.00  0.00    -0.272 N 
ATOM     10  O   UNL A   1      33.653  25.875  21.537  1.00  0.00    -0.267 OA
ATOM     11  C   UNL A   1      30.823  27.674  22.511  1.00  0.00     0.326 A 
ATOM     12  H   UNL A   1      29.984  27.511  24.333  1.00  0.00     0.172 HD
ATOM     13  H   UNL A   1      32.012  27.583  20.891  1.00  0.00     0.175 HD
ATOM     14  O   UNL A   1      29.912  28.313  22.001  1.00  0.00    -0.248 OA
BRANCH   6  15
ATOM     15  N   UNL A   1      33.993  25.556  24.382  1.00  0.00    -0.349 N 
ATOM     16  H   UNL A   1      34.716  26.118  24.743  1.00  0.00     0.167 HD
BRANCH  15  17
ATOM     17  C   UNL A   1      34.189  24.168  24.512  1.00  0.00     0.039 A 
ATOM     18  C   UNL A   1      34.735  21.414  24.767  1.00  0.00     0.119 A 
ATOM     19  C   UNL A   1      33.433  21.891  24.903  1.00  0.00     0.048 A 
ATOM     20  C   UNL A   1      35.767  22.303  24.485  1.00  0.00     0.048 A 
ATOM     21  C   UNL A   1      33.167  23.259  24.790  1.00  0.00     0.030 A 
ATOM     22  C   UNL A   1      35.495  23.670  24.370  1.00  0.00     0.030 A 
BRANCH  18  23
ATOM     23  O   UNL A   1      34.889  20.060  24.882  1.00  0.00    -0.497 OA
ATOM     24  C   UNL A   1      33.702  19.315  24.626  1.00  0.00     0.278 C 
ENDBRANCH  18  23
ENDBRANCH  15  17
ENDBRANCH   6  15
ENDBRANCH   3   5
ENDBRANCH   2   3
ENDBRANCH   1   2
BRANCH   1  25
ATOM     25  C   UNL A   1      31.757  29.794  26.732  1.00  0.00     0.275 C 
BRANCH  25  26
ATOM     26  O   UNL A   1      33.084  30.229  26.377  1.00  0.00    -0.458 OA
BRANCH  26  27
ATOM     27  C   UNL A   1      33.536  31.308  27.051  1.00  0.00     0.338 C 
ATOM     28  O   UNL A   1      32.928  32.342  27.285  1.00  0.00    -0.246 OA
BRANCH  27  29
ATOM     29  C   UNL A   1      34.840  31.011  27.659  1.00  0.00     0.060 A 
ATOM     30  C   UNL A   1      35.082  29.681  28.001  1.00  0.00     0.016 A 
ATOM     31  C   UNL A   1      35.758  32.005  28.001  1.00  0.00     0.016 A 
ATOM     32  C   UNL A   1      36.228  29.328  28.701  1.00  0.00     0.010 A 
ATOM     33  C   UNL A   1      36.921  31.649  28.698  1.00  0.00     0.010 A 
ATOM     34  C   UNL A   1      37.154  30.310  29.071  1.00  0.00    -0.014 A 
BRANCH  34  35
ATOM     35  C   UNL A   1      38.301  29.925  29.933  1.00  0.00     0.031 A 
ATOM     36  C   UNL A   1      39.400  29.069  29.369  1.00  0.00     0.074 A 
ATOM     37  C   UNL A   1      38.407  30.411  31.183  1.00  0.00     0.049 A 
ATOM     38  N   UNL A   1      40.446  28.558  29.968  1.00  0.00    -0.248 NA
ATOM     39  C   UNL A   1      39.308  28.745  27.937  1.00  0.00     0.031 C 
ATOM     40  C   UNL A   1      37.455  31.320  31.819  1.00  0.00     0.029 A 
ATOM     41  N   UNL A   1      39.381  30.230  32.133  1.00  0.00    -0.354 N 
ATOM     42  C   UNL A   1      41.111  27.819  28.999  1.00  0.00     0.074 A 
ATOM     43  C   UNL A   1      40.351  27.945  27.774  1.00  0.00     0.031 C 
ATOM     44  C   UNL A   1      37.910  31.649  33.039  1.00  0.00     0.029 A 
ATOM     45  C   UNL A   1      39.154  30.926  33.295  1.00  0.00     0.049 A 
ATOM     46  H   UNL A   1      40.168  29.655  31.995  1.00  0.00     0.167 HD
ATOM     47  C   UNL A   1      42.252  27.100  29.123  1.00  0.00     0.037 A 
ATOM     48  C   UNL A   1      39.857  30.960  34.442  1.00  0.00     0.037 A 
ATOM     49  C   UNL A   1      43.032  27.013  30.330  1.00  0.00     0.049 A 
ATOM     50  C   UNL A   1      41.099  30.122  34.568  1.00  0.00     0.074 A 
ATOM     51  C   UNL A   1      44.191  26.293  30.564  1.00  0.00     0.029 A 
ATOM     52  N   UNL A   1      42.738  27.689  31.506  1.00  0.00    -0.354 N 
ATOM     53  N   UNL A   1      41.678  29.358  33.674  1.00  0.00    -0.248 NA
ATOM     54  C   UNL A   1      41.775  30.135  35.873  1.00  0.00     0.031 C 
ATOM     55  C   UNL A   1      44.584  26.513  31.889  1.00  0.00     0.029 A 
ATOM     56  C   UNL A   1      43.691  27.399  32.469  1.00  0.00     0.049 A 
ATOM     57  H   UNL A   1      41.966  28.286  31.636  1.00  0.00     0.167 HD
ATOM     58  C   UNL A   1      42.789  28.812  34.298  1.00  0.00     0.074 A 
ATOM     59  C   UNL A   1      42.815  29.344  35.646  1.00  0.00     0.031 C 
ATOM     60  C   UNL A   1      43.704  27.943  33.803  1.00  0.00     0.037 A 
BRANCH  47  61
ATOM     61  C   UNL A   1      42.700  26.312  27.927  1.00  0.00     0.064 A 
ATOM     62  C   UNL A   1      42.256  25.003  27.691  1.00  0.00     0.173 A 
ATOM     63  C   UNL A   1      43.588  26.882  27.002  1.00  0.00     0.173 A 
ATOM     64  F   UNL A   1      41.422  24.408  28.556  1.00  0.00    -0.203 F 
ATOM     65  C   UNL A   1      42.708  24.283  26.588  1.00  0.00     0.198 A 
ATOM     66  C   UNL A   1      44.017  26.169  25.886  1.00  0.00     0.198 A 
ATOM     67  F   UNL A   1      44.042  28.132  27.181  1.00  0.00    -0.203 F 
ATOM     68  F   UNL A   1      42.312  23.016  26.409  1.00  0.00    -0.200 F 
ATOM     69  C   UNL A   1      43.584  24.868  25.685  1.00  0.00     0.200 A 
ATOM     70  F   UNL A   1      44.857  26.738  25.011  1.00  0.00    -0.200 F 
ATOM     71  F   UNL A   1      44.019  24.172  24.625  1.00  0.00    -0.200 F 
ENDBRANCH  47  61
BRANCH  48  72
ATOM     72  C   UNL A   1      39.394  31.810  35.568  1.00  0.00     0.064 A 
ATOM     73  C   UNL A   1      39.858  33.124  35.716  1.00  0.00     0.173 A 
ATOM     74  C   UNL A   1      38.476  31.331  36.513  1.00  0.00     0.173 A 
ATOM     75  F   UNL A   1      40.759  33.617  34.854  1.00  0.00    -0.203 F 
ATOM     76  C   UNL A   1      39.421  33.926  36.769  1.00  0.00     0.198 A 
ATOM     77  C   UNL A   1      38.020  32.142  37.551  1.00  0.00     0.198 A 
ATOM     78  F   UNL A   1      38.006  30.078  36.420  1.00  0.00    -0.203 F 
ATOM     79  F   UNL A   1      39.905  35.169  36.907  1.00  0.00    -0.200 F 
ATOM     80  C   UNL A   1      38.497  33.438  37.680  1.00  0.00     0.200 A 
ATOM     81  F   UNL A   1      37.121  31.668  38.423  1.00  0.00    -0.200 F 
ATOM     82  F   UNL A   1      38.071  34.212  38.686  1.00  0.00    -0.200 F 
ENDBRANCH  48  72
BRANCH  60  83
ATOM     83  C   UNL A   1      44.824  27.539  34.712  1.00  0.00     0.064 A 
ATOM     84  C   UNL A   1      44.732  26.403  35.527  1.00  0.00     0.173 A 
ATOM     85  C   UNL A   1      46.015  28.281  34.745  1.00  0.00     0.173 A 
ATOM     86  F   UNL A   1      43.608  25.672  35.541  1.00  0.00    -0.203 F 
ATOM     87  C   UNL A   1      45.786  26.034  36.359  1.00  0.00     0.198 A 
ATOM     88  C   UNL A   1      47.075  27.896  35.561  1.00  0.00     0.198 A 
ATOM     89  F   UNL A   1      46.152  29.374  33.979  1.00  0.00    -0.203 F 
ATOM     90  F   UNL A   1      45.663  24.966  37.160  1.00  0.00    -0.200 F 
ATOM     91  C   UNL A   1      46.957  26.777  36.372  1.00  0.00     0.200 A 
ATOM     92  F   UNL A   1      48.208  28.611  35.567  1.00  0.00    -0.200 F 
ATOM     93  F   UNL A   1      47.970  26.419  37.173  1.00  0.00    -0.200 F 
ENDBRANCH  60  83
ENDBRANCH  34  35
ENDBRANCH  27  29
ENDBRANCH  26  27
ENDBRANCH  25  26
ENDBRANCH   1  25
TORSDOF 14
ENDMDL
MODEL 2
REMARK VINA RESULT:     -12.0      4.391      6.839
REMARK SMILES COc1ccc(Nc2c(C(=O)OCCOC(=O)c3ccc(-c4c5nc(c(-c6c(F)c(F)c(F)c(F)c6F)c6ccc([nH]6)c(-c6c(F)c(F)c(F)c(F)c6F)c6nc(c(-c7c(F)c(F)c(F)c(F)c7F)c7ccc4[nH]7)C=C6)C=C5)cc3)[nH]c(=O)[nH]c2=O)cc1
REMARK SMILES IDX 13 1 12 2 10 3 11 4 9 5 8 6 85 7 81 8 84 9 86 10 82 11 83 14
REMARK SMILES IDX 7 15 6 17 3 18 4 19 88 20 5 21 87 22 2 23 1 24 14 25 15 26
REMARK SMILES IDX 16 27 17 28 18 29 19 30 80 31 20 32 79 33 21 34 22 35 23 36
REMARK SMILES IDX 73 37 24 38 78 39 72 40 74 41 25 42 77 43 71 44 70 45 26 47
REMARK SMILES IDX 58 48 38 49 57 50 39 51 42 52 56 53 75 54 40 55 41 56 55 58
REMARK SMILES IDX 76 59 43 60 27 61 28 62 36 63 29 64 30 65 34 66 37 67 31 68
REMARK SMILES IDX 32 69 35 70 33 71 59 72 60 73 68 74 61 75 62 76 66 77 69 78
REMARK SMILES IDX 63 79 64 80 67 81 65 82 44 83 45 84 53 85 46 86 47 87 51 88
REMARK SMILES IDX 54 89 48 90 49 91 52 92 50 93
REMARK H PARENT 81 12 84 13 7 16 74 46 42 57
REMARK Flexibility Score: inf
ROOT
ATOM      1  C   UNL A   1      36.008  20.716  25.246  1.00  0.00     0.275 C 
ENDROOT
BRANCH   1   2
ATOM      2  O   UNL A   1      35.540  21.706  24.306  1.00  0.00    -0.457 OA
BRANCH   2   3
ATOM      3  C   UNL A   1      35.034  22.852  24.821  1.00  0.00     0.357 C 
ATOM      4  O   UNL A   1      35.493  23.468  25.775  1.00  0.00    -0.244 OA
BRANCH   3   5
ATOM      5  C   UNL A   1      33.878  23.397  24.035  1.00  0.00     0.158 A 
ATOM      6  C   UNL A   1      32.641  22.858  24.022  1.00  0.00     0.136 A 
ATOM      7  C   UNL A   1      31.633  23.603  23.160  1.00  0.00     0.278 A 
ATOM      8  N   UNL A   1      34.196  24.499  23.270  1.00  0.00    -0.299 N 
ATOM      9  N   UNL A   1      32.123  24.540  22.295  1.00  0.00    -0.272 N 
ATOM     10  O   UNL A   1      30.420  23.427  23.240  1.00  0.00    -0.267 OA
ATOM     11  C   UNL A   1      33.374  25.061  22.349  1.00  0.00     0.326 A 
ATOM     12  H   UNL A   1      35.082  24.909  23.402  1.00  0.00     0.172 HD
ATOM     13  H   UNL A   1      31.525  24.859  21.581  1.00  0.00     0.175 HD
ATOM     14  O   UNL A   1      33.742  25.982  21.631  1.00  0.00    -0.248 OA
BRANCH   6  15
ATOM     15  N   UNL A   1      32.213  21.790  24.795  1.00  0.00    -0.349 N 
ATOM     16  H   UNL A   1      31.679  22.031  25.586  1.00  0.00     0.167 HD
BRANCH  15  17
ATOM     17  C   UNL A   1      32.431  20.411  24.615  1.00  0.00     0.039 A 
ATOM     18  C   UNL A   1      32.858  17.672  24.101  1.00  0.00     0.119 A 
ATOM     19  C   UNL A   1      32.996  18.178  25.391  1.00  0.00     0.048 A 
ATOM     20  C   UNL A   1      32.489  18.524  23.065  1.00  0.00     0.048 A 
ATOM     21  C   UNL A   1      32.797  19.538  25.642  1.00  0.00     0.030 A 
ATOM     22  C   UNL A   1      32.288  19.884  23.321  1.00  0.00     0.030 A 
BRANCH  18  23
ATOM     23  O   UNL A   1      33.061  16.327  23.963  1.00  0.00    -0.497 OA
ATOM     24  C   UNL A   1      32.821  15.577  25.150  1.00  0.00     0.278 C 
ENDBRANCH  18  23
ENDBRANCH  15  17
ENDBRANCH   6  15
ENDBRANCH   3   5
ENDBRANCH   2   3
ENDBRANCH   1   2
BRANCH   1  25
ATOM     25  C   UNL A   1      37.472  20.336  24.997  1.00  0.00     0.275 C 
BRANCH  25  26
ATOM     26  O   UNL A   1      38.361  21.437  25.269  1.00  0.00    -0.458 OA
BRANCH  26  27
ATOM     27  C   UNL A   1      39.359  21.170  26.140  1.00  0.00     0.338 C 
ATOM     28  O   UNL A   1      39.919  20.098  26.317  1.00  0.00    -0.246 OA
BRANCH  27  29
ATOM     29  C   UNL A   1      39.843  22.417  26.748  1.00  0.00     0.060 A 
ATOM     30  C   UNL A   1      39.279  23.602  26.277  1.00  0.00     0.016 A 
ATOM     31  C   UNL A   1      40.896  22.452  27.662  1.00  0.00     0.016 A 
ATOM     32  C   UNL A   1      39.768  24.832  26.694  1.00  0.00     0.010 A 
ATOM     33  C   UNL A   1      41.384  23.694  28.093  1.00  0.00     0.010 A 
ATOM     34  C   UNL A   1      40.836  24.893  27.596  1.00  0.00    -0.014 A 
BRANCH  34  35
ATOM     35  C   UNL A   1      41.425  26.218  27.922  1.00  0.00     0.031 A 
ATOM     36  C   UNL A   1      42.805  26.557  27.433  1.00  0.00     0.074 A 
ATOM     37  C   UNL A   1      40.699  27.145  28.572  1.00  0.00     0.049 A 
ATOM     38  N   UNL A   1      43.532  27.620  27.669  1.00  0.00    -0.248 NA
ATOM     39  C   UNL A   1      43.453  25.566  26.561  1.00  0.00     0.031 C 
ATOM     40  C   UNL A   1      39.319  26.973  29.024  1.00  0.00     0.029 A 
ATOM     41  N   UNL A   1      41.013  28.429  28.941  1.00  0.00    -0.354 N 
ATOM     42  C   UNL A   1      44.736  27.406  27.011  1.00  0.00     0.074 A 
ATOM     43  C   UNL A   1      44.644  26.113  26.370  1.00  0.00     0.031 C 
ATOM     44  C   UNL A   1      38.891  28.120  29.574  1.00  0.00     0.029 A 
ATOM     45  C   UNL A   1      39.986  29.088  29.570  1.00  0.00     0.049 A 
ATOM     46  H   UNL A   1      41.892  28.839  28.771  1.00  0.00     0.167 HD
ATOM     47  C   UNL A   1      45.820  28.217  26.952  1.00  0.00     0.037 A 
ATOM     48  C   UNL A   1      39.939  30.325  30.100  1.00  0.00     0.037 A 
ATOM     49  C   UNL A   1      45.892  29.523  27.553  1.00  0.00     0.049 A 
ATOM     50  C   UNL A   1      41.168  31.190  30.056  1.00  0.00     0.074 A 
ATOM     51  C   UNL A   1      46.953  30.413  27.569  1.00  0.00     0.029 A 
ATOM     52  N   UNL A   1      44.848  30.136  28.232  1.00  0.00    -0.354 N 
ATOM     53  N   UNL A   1      42.332  30.949  29.505  1.00  0.00    -0.248 NA
ATOM     54  C   UNL A   1      41.081  32.495  30.728  1.00  0.00     0.031 C 
ATOM     55  C   UNL A   1      46.558  31.553  28.278  1.00  0.00     0.029 A 
ATOM     56  C   UNL A   1      45.240  31.388  28.673  1.00  0.00     0.049 A 
ATOM     57  H   UNL A   1      43.959  29.737  28.378  1.00  0.00     0.167 HD
ATOM     58  C   UNL A   1      43.111  32.071  29.748  1.00  0.00     0.074 A 
ATOM     59  C   UNL A   1      42.282  33.004  30.485  1.00  0.00     0.031 C 
ATOM     60  C   UNL A   1      44.400  32.306  29.399  1.00  0.00     0.037 A 
BRANCH  47  61
ATOM     61  C   UNL A   1      47.033  27.690  26.245  1.00  0.00     0.064 A 
ATOM     62  C   UNL A   1      47.168  27.759  24.851  1.00  0.00     0.173 A 
ATOM     63  C   UNL A   1      48.077  27.107  26.979  1.00  0.00     0.173 A 
ATOM     64  F   UNL A   1      46.189  28.289  24.103  1.00  0.00    -0.203 F 
ATOM     65  C   UNL A   1      48.293  27.237  24.215  1.00  0.00     0.198 A 
ATOM     66  C   UNL A   1      49.211  26.611  26.342  1.00  0.00     0.198 A 
ATOM     67  F   UNL A   1      47.997  27.018  28.315  1.00  0.00    -0.203 F 
ATOM     68  F   UNL A   1      48.378  27.266  22.878  1.00  0.00    -0.200 F 
ATOM     69  C   UNL A   1      49.314  26.668  24.961  1.00  0.00     0.200 A 
ATOM     70  F   UNL A   1      50.201  26.068  27.065  1.00  0.00    -0.200 F 
ATOM     71  F   UNL A   1      50.394  26.164  24.347  1.00  0.00    -0.200 F 
ENDBRANCH  47  61
BRANCH  48  72
ATOM     72  C   UNL A   1      38.686  30.812  30.732  1.00  0.00     0.064 A 
ATOM     73  C   UNL A   1      38.495  30.718  32.117  1.00  0.00     0.173 A 
ATOM     74  C   UNL A   1      37.661  31.388  29.968  1.00  0.00     0.173 A 
ATOM     75  F   UNL A   1      39.435  30.148  32.886  1.00  0.00    -0.203 F 
ATOM     76  C   UNL A   1      37.323  31.179  32.713  1.00  0.00     0.198 A 
ATOM     77  C   UNL A   1      36.501  31.872  30.568  1.00  0.00     0.198 A 
ATOM     78  F   UNL A   1      37.793  31.496  28.638  1.00  0.00    -0.203 F 
ATOM     79  F   UNL A   1      37.150  31.047  34.036  1.00  0.00    -0.200 F 
ATOM     80  C   UNL A   1      36.331  31.763  31.940  1.00  0.00     0.200 A 
ATOM     81  F   UNL A   1      35.550  32.444  29.818  1.00  0.00    -0.200 F 
ATOM     82  F   UNL A   1      35.209  32.215  32.515  1.00  0.00    -0.200 F 
ENDBRANCH  48  72
BRANCH  60  83
ATOM     83  C   UNL A   1      44.980  33.633  29.781  1.00  0.00     0.064 A 
ATOM     84  C   UNL A   1      44.840  34.759  28.958  1.00  0.00     0.173 A 
ATOM     85  C   UNL A   1      45.658  33.786  31.001  1.00  0.00     0.173 A 
ATOM     86  F   UNL A   1      44.214  34.657  27.777  1.00  0.00    -0.203 F 
ATOM     87  C   UNL A   1      45.376  35.988  29.333  1.00  0.00     0.198 A 
ATOM     88  C   UNL A   1      46.173  35.022  31.382  1.00  0.00     0.198 A 
ATOM     89  F   UNL A   1      45.813  32.739  31.824  1.00  0.00    -0.203 F 
ATOM     90  F   UNL A   1      45.265  37.043  28.513  1.00  0.00    -0.200 F 
ATOM     91  C   UNL A   1      46.036  36.120  30.545  1.00  0.00     0.200 A 
ATOM     92  F   UNL A   1      46.804  35.150  32.557  1.00  0.00    -0.200 F 
ATOM     93  F   UNL A   1      46.551  37.304  30.904  1.00  0.00    -0.200 F 
ENDBRANCH  60  83
ENDBRANCH  34  35
ENDBRANCH  27  29
ENDBRANCH  26  27
ENDBRANCH  25  26
ENDBRANCH   1  25
TORSDOF 14
ENDMDL
MODEL 3
REMARK VINA RESULT:     -12.0      1.667      3.880
REMARK SMILES COc1ccc(Nc2c(C(=O)OCCOC(=O)c3ccc(-c4c5nc(c(-c6c(F)c(F)c(F)c(F)c6F)c6ccc([nH]6)c(-c6c(F)c(F)c(F)c(F)c6F)c6nc(c(-c7c(F)c(F)c(F)c(F)c7F)c7ccc4[nH]7)C=C6)C=C5)cc3)[nH]c(=O)[nH]c2=O)cc1
REMARK SMILES IDX 13 1 12 2 10 3 11 4 9 5 8 6 85 7 81 8 84 9 86 10 82 11 83 14
REMARK SMILES IDX 7 15 6 17 3 18 4 19 88 20 5 21 87 22 2 23 1 24 14 25 15 26
REMARK SMILES IDX 16 27 17 28 18 29 19 30 80 31 20 32 79 33 21 34 22 35 23 36
REMARK SMILES IDX 73 37 24 38 78 39 72 40 74 41 25 42 77 43 71 44 70 45 26 47
REMARK SMILES IDX 58 48 38 49 57 50 39 51 42 52 56 53 75 54 40 55 41 56 55 58
REMARK SMILES IDX 76 59 43 60 27 61 28 62 36 63 29 64 30 65 34 66 37 67 31 68
REMARK SMILES IDX 32 69 35 70 33 71 59 72 60 73 68 74 61 75 62 76 66 77 69 78
REMARK SMILES IDX 63 79 64 80 67 81 65 82 44 83 45 84 53 85 46 86 47 87 51 88
REMARK SMILES IDX 54 89 48 90 49 91 52 92 50 93
REMARK H PARENT 81 12 84 13 7 16 74 46 42 57
REMARK Flexibility Score: inf
ROOT
ATOM      1  C   UNL A   1      31.421  29.430  25.682  1.00  0.00     0.275 C 
ENDROOT
BRANCH   1   2
ATOM      2  O   UNL A   1      31.169  28.166  26.332  1.00  0.00    -0.457 OA
BRANCH   2   3
ATOM      3  C   UNL A   1      32.121  27.211  26.206  1.00  0.00     0.357 C 
ATOM      4  O   UNL A   1      33.302  27.337  26.507  1.00  0.00    -0.244 OA
BRANCH   3   5
ATOM      5  C   UNL A   1      31.579  25.888  25.750  1.00  0.00     0.158 A 
ATOM      6  C   UNL A   1      31.141  25.633  24.499  1.00  0.00     0.136 A 
ATOM      7  C   UNL A   1      30.654  24.209  24.275  1.00  0.00     0.278 A 
ATOM      8  N   UNL A   1      31.520  24.937  26.746  1.00  0.00    -0.299 N 
ATOM      9  N   UNL A   1      30.447  23.439  25.384  1.00  0.00    -0.272 N 
ATOM     10  O   UNL A   1      30.481  23.725  23.160  1.00  0.00    -0.267 OA
ATOM     11  C   UNL A   1      30.912  23.731  26.624  1.00  0.00     0.326 A 
ATOM     12  H   UNL A   1      31.950  25.148  27.606  1.00  0.00     0.172 HD
ATOM     13  H   UNL A   1      29.922  22.613  25.276  1.00  0.00     0.175 HD
ATOM     14  O   UNL A   1      30.809  22.961  27.571  1.00  0.00    -0.248 OA
BRANCH   6  15
ATOM     15  N   UNL A   1      31.211  26.502  23.421  1.00  0.00    -0.349 N 
ATOM     16  H   UNL A   1      31.984  26.373  22.826  1.00  0.00     0.167 HD
BRANCH  15  17
ATOM     17  C   UNL A   1      30.337  27.543  23.054  1.00  0.00     0.039 A 
ATOM     18  C   UNL A   1      28.479  29.563  22.408  1.00  0.00     0.119 A 
ATOM     19  C   UNL A   1      29.807  29.668  21.999  1.00  0.00     0.048 A 
ATOM     20  C   UNL A   1      28.068  28.444  23.125  1.00  0.00     0.048 A 
ATOM     21  C   UNL A   1      30.729  28.672  22.332  1.00  0.00     0.030 A 
ATOM     22  C   UNL A   1      28.994  27.448  23.452  1.00  0.00     0.030 A 
BRANCH  18  23
ATOM     23  O   UNL A   1      27.654  30.582  22.022  1.00  0.00    -0.497 OA
ATOM     24  C   UNL A   1      28.154  31.357  20.937  1.00  0.00     0.278 C 
ENDBRANCH  18  23
ENDBRANCH  15  17
ENDBRANCH   6  15
ENDBRANCH   3   5
ENDBRANCH   2   3
ENDBRANCH   1   2
BRANCH   1  25
ATOM     25  C   UNL A   1      31.860  30.509  26.677  1.00  0.00     0.275 C 
BRANCH  25  26
ATOM     26  O   UNL A   1      33.226  30.911  26.458  1.00  0.00    -0.458 OA
BRANCH  26  27
ATOM     27  C   UNL A   1      33.677  31.890  27.272  1.00  0.00     0.338 C 
ATOM     28  O   UNL A   1      33.076  32.894  27.625  1.00  0.00    -0.246 OA
BRANCH  27  29
ATOM     29  C   UNL A   1      34.965  31.500  27.861  1.00  0.00     0.060 A 
ATOM     30  C   UNL A   1      35.089  30.173  28.273  1.00  0.00     0.016 A 
ATOM     31  C   UNL A   1      35.986  32.415  28.120  1.00  0.00     0.016 A 
ATOM     32  C   UNL A   1      36.217  29.748  28.961  1.00  0.00     0.010 A 
ATOM     33  C   UNL A   1      37.131  31.985  28.805  1.00  0.00     0.010 A 
ATOM     34  C   UNL A   1      37.245  30.653  29.248  1.00  0.00    -0.014 A 
BRANCH  34  35
ATOM     35  C   UNL A   1      38.378  30.205  30.099  1.00  0.00     0.031 A 
ATOM     36  C   UNL A   1      39.436  29.311  29.517  1.00  0.00     0.074 A 
ATOM     37  C   UNL A   1      38.509  30.666  31.356  1.00  0.00     0.049 A 
ATOM     38  N   UNL A   1      40.461  28.745  30.104  1.00  0.00    -0.248 NA
ATOM     39  C   UNL A   1      39.326  29.013  28.082  1.00  0.00     0.031 C 
ATOM     40  C   UNL A   1      37.599  31.606  32.010  1.00  0.00     0.029 A 
ATOM     41  N   UNL A   1      39.476  30.428  32.299  1.00  0.00    -0.354 N 
ATOM     42  C   UNL A   1      41.091  27.993  29.121  1.00  0.00     0.074 A 
ATOM     43  C   UNL A   1      40.333  28.171  27.902  1.00  0.00     0.031 C 
ATOM     44  C   UNL A   1      38.072  31.896  33.233  1.00  0.00     0.029 A 
ATOM     45  C   UNL A   1      39.284  31.115  33.472  1.00  0.00     0.049 A 
ATOM     46  H   UNL A   1      40.238  29.821  32.149  1.00  0.00     0.167 HD
ATOM     47  C   UNL A   1      42.200  27.223  29.230  1.00  0.00     0.037 A 
ATOM     48  C   UNL A   1      39.991  31.101  34.617  1.00  0.00     0.037 A 
ATOM     49  C   UNL A   1      42.979  27.084  30.432  1.00  0.00     0.049 A 
ATOM     50  C   UNL A   1      41.196  30.207  34.726  1.00  0.00     0.074 A 
ATOM     51  C   UNL A   1      44.106  26.310  30.651  1.00  0.00     0.029 A 
ATOM     52  N   UNL A   1      42.718  27.754  31.620  1.00  0.00    -0.354 N 
ATOM     53  N   UNL A   1      41.738  29.433  33.818  1.00  0.00    -0.248 NA
ATOM     54  C   UNL A   1      41.877  30.170  36.028  1.00  0.00     0.031 C 
ATOM     55  C   UNL A   1      44.512  26.493  31.977  1.00  0.00     0.029 A 
ATOM     56  C   UNL A   1      43.660  27.408  32.575  1.00  0.00     0.049 A 
ATOM     57  H   UNL A   1      41.973  28.382  31.762  1.00  0.00     0.167 HD
ATOM     58  C   UNL A   1      42.827  28.830  34.429  1.00  0.00     0.074 A 
ATOM     59  C   UNL A   1      42.881  29.339  35.785  1.00  0.00     0.031 C 
ATOM     60  C   UNL A   1      43.702  27.930  33.917  1.00  0.00     0.037 A 
BRANCH  47  61
ATOM     61  C   UNL A   1      42.609  26.436  28.021  1.00  0.00     0.064 A 
ATOM     62  C   UNL A   1      43.492  26.954  27.062  1.00  0.00     0.173 A 
ATOM     63  C   UNL A   1      42.109  25.140  27.822  1.00  0.00     0.173 A 
ATOM     64  F   UNL A   1      43.982  28.195  27.196  1.00  0.00    -0.203 F 
ATOM     65  C   UNL A   1      43.835  26.213  25.933  1.00  0.00     0.198 A 
ATOM     66  C   UNL A   1      42.475  24.393  26.706  1.00  0.00     0.198 A 
ATOM     67  F   UNL A   1      41.262  24.599  28.711  1.00  0.00    -0.203 F 
ATOM     68  F   UNL A   1      44.639  26.747  25.003  1.00  0.00    -0.200 F 
ATOM     69  C   UNL A   1      43.330  24.933  25.758  1.00  0.00     0.200 A 
ATOM     70  F   UNL A   1      41.992  23.154  26.543  1.00  0.00    -0.200 F 
ATOM     71  F   UNL A   1      43.660  24.223  24.670  1.00  0.00    -0.200 F 
ENDBRANCH  47  61
BRANCH  48  72
ATOM     72  C   UNL A   1      39.570  31.952  35.759  1.00  0.00     0.064 A 
ATOM     73  C   UNL A   1      38.549  31.538  36.626  1.00  0.00     0.173 A 
ATOM     74  C   UNL A   1      40.180  33.189  36.011  1.00  0.00     0.173 A 
ATOM     75  F   UNL A   1      37.915  30.376  36.409  1.00  0.00    -0.203 F 
ATOM     76  C   UNL A   1      38.155  32.332  37.701  1.00  0.00     0.198 A 
ATOM     77  C   UNL A   1      39.803  33.970  37.101  1.00  0.00     0.198 A 
ATOM     78  F   UNL A   1      41.157  33.632  35.206  1.00  0.00    -0.203 F 
ATOM     79  F   UNL A   1      37.153  31.929  38.497  1.00  0.00    -0.200 F 
ATOM     80  C   UNL A   1      38.787  33.542  37.943  1.00  0.00     0.200 A 
ATOM     81  F   UNL A   1      40.423  35.134  37.335  1.00  0.00    -0.200 F 
ATOM     82  F   UNL A   1      38.413  34.301  38.982  1.00  0.00    -0.200 F 
ENDBRANCH  48  72
BRANCH  60  83
ATOM     83  C   UNL A   1      44.806  27.463  34.815  1.00  0.00     0.064 A 
ATOM     84  C   UNL A   1      46.022  28.154  34.901  1.00  0.00     0.173 A 
ATOM     85  C   UNL A   1      44.633  26.327  35.621  1.00  0.00     0.173 A 
ATOM     86  F   UNL A   1      46.239  29.235  34.137  1.00  0.00    -0.203 F 
ATOM     87  C   UNL A   1      47.036  27.714  35.748  1.00  0.00     0.198 A 
ATOM     88  C   UNL A   1      45.640  25.903  36.484  1.00  0.00     0.198 A 
ATOM     89  F   UNL A   1      43.485  25.635  35.577  1.00  0.00    -0.203 F 
ATOM     90  F   UNL A   1      48.206  28.366  35.786  1.00  0.00    -0.200 F 
ATOM     91  C   UNL A   1      46.842  26.593  36.542  1.00  0.00     0.200 A 
ATOM     92  F   UNL A   1      45.449  24.825  37.256  1.00  0.00    -0.200 F 
ATOM     93  F   UNL A   1      47.818  26.172  37.358  1.00  0.00    -0.200 F 
ENDBRANCH  60  83
ENDBRANCH  34  35
ENDBRANCH  27  29
ENDBRANCH  26  27
ENDBRANCH  25  26
ENDBRANCH   1  25
TORSDOF 14
ENDMDL
