MODEL 1
REMARK VINA RESULT:     -12.8      0.000      0.000
REMARK SMILES Cc1cc(Cl)cc2c1O[C@H](C(F)(F)F)C(C(=O)OCCOC(=O)c1ccc(-c3c4nc(c(-c5c(F)c(F)c(F)c(F)c5F)c5ccc([nH]5)c(-c5c(F)c(F)c(F)c(F)c5F)c5nc(c(-c6c(F)c(F)c(F)c(F)c6F)c6ccc3[nH]6)C=C5)C=C4)cc1)=C2
REMARK SMILES IDX 20 1 19 2 18 3 16 4 17 5 15 6 1 7 2 8 3 9 8 10 4 11 7 12
REMARK SMILES IDX 9 13 5 14 6 15 87 16 10 17 11 18 12 19 13 20 14 21 21 22
REMARK SMILES IDX 22 23 23 24 24 25 25 26 86 27 26 28 85 29 27 30 28 31 29 32
REMARK SMILES IDX 79 33 30 34 84 35 78 36 80 37 31 38 83 39 77 40 76 41 32 43
REMARK SMILES IDX 64 44 44 45 63 46 45 47 48 48 62 49 81 50 46 51 47 52 61 54
REMARK SMILES IDX 82 55 49 56 33 57 34 58 42 59 35 60 36 61 40 62 43 63 37 64
REMARK SMILES IDX 38 65 41 66 39 67 65 68 66 69 74 70 67 71 68 72 72 73 75 74
REMARK SMILES IDX 69 75 70 76 73 77 71 78 50 79 51 80 59 81 52 82 53 83 57 84
REMARK SMILES IDX 60 85 54 86 55 87 58 88 56 89
REMARK H PARENT 80 42 48 53
REMARK Flexibility Score: inf
ROOT
ATOM      1  C   UNL A   1      31.650  30.466  25.716  1.00  0.00     0.275 C 
ENDROOT
BRANCH   1   2
ATOM      2  C   UNL A   1      31.572  29.091  25.054  1.00  0.00     0.275 C 
BRANCH   2   3
ATOM      3  O   UNL A   1      32.425  28.136  25.725  1.00  0.00    -0.459 OA
BRANCH   3   4
ATOM      4  C   UNL A   1      31.780  27.185  26.438  1.00  0.00     0.338 C 
ATOM      5  O   UNL A   1      30.955  27.364  27.319  1.00  0.00    -0.246 OA
BRANCH   4   6
ATOM      6  C   UNL A   1      32.189  25.839  25.996  1.00  0.00     0.087 C 
ATOM      7  C   UNL A   1      32.504  21.287  23.586  1.00  0.00     0.048 C 
ATOM      8  C   UNL A   1      33.451  22.268  24.216  1.00  0.00    -0.007 A 
ATOM      9  C   UNL A   1      34.831  22.005  24.140  1.00  0.00     0.027 A 
ATOM     10  C   UNL A   1      33.010  23.429  24.868  1.00  0.00     0.131 A 
ATOM     11  C   UNL A   1      35.751  22.885  24.705  1.00  0.00     0.042 A 
ATOM     12  C   UNL A   1      33.943  24.313  25.416  1.00  0.00     0.019 A 
ATOM     13  O   UNL A   1      31.659  23.637  24.957  1.00  0.00    -0.475 OA
ATOM     14  Cl  UNL A   1      37.435  22.555  24.598  1.00  0.00    -0.084 Cl
ATOM     15  C   UNL A   1      35.314  24.038  25.344  1.00  0.00     0.032 A 
ATOM     16  C   UNL A   1      33.493  25.550  26.021  1.00  0.00     0.027 C 
ATOM     17  C   UNL A   1      31.158  24.931  25.396  1.00  0.00     0.316 C 
BRANCH  17  18
ATOM     18  C   UNL A   1      30.426  25.603  24.224  1.00  0.00     0.430 C 
ATOM     19  F   UNL A   1      31.278  26.324  23.458  1.00  0.00    -0.167 F 
ATOM     20  F   UNL A   1      29.853  24.687  23.407  1.00  0.00    -0.167 F 
ATOM     21  F   UNL A   1      29.449  26.439  24.644  1.00  0.00    -0.167 F 
ENDBRANCH  17  18
ENDBRANCH   4   6
ENDBRANCH   3   4
ENDBRANCH   2   3
ENDBRANCH   1   2
BRANCH   1  22
ATOM     22  O   UNL A   1      32.443  30.396  26.915  1.00  0.00    -0.458 OA
BRANCH  22  23
ATOM     23  C   UNL A   1      33.122  31.522  27.228  1.00  0.00     0.338 C 
ATOM     24  O   UNL A   1      32.698  32.664  27.253  1.00  0.00    -0.246 OA
BRANCH  23  25
ATOM     25  C   UNL A   1      34.498  31.191  27.632  1.00  0.00     0.060 A 
ATOM     26  C   UNL A   1      34.813  29.866  27.910  1.00  0.00     0.016 A 
ATOM     27  C   UNL A   1      35.406  32.200  27.944  1.00  0.00     0.016 A 
ATOM     28  C   UNL A   1      35.944  29.563  28.660  1.00  0.00     0.010 A 
ATOM     29  C   UNL A   1      36.621  31.871  28.556  1.00  0.00     0.010 A 
ATOM     30  C   UNL A   1      36.881  30.554  28.980  1.00  0.00    -0.014 A 
BRANCH  30  31
ATOM     31  C   UNL A   1      38.095  30.216  29.784  1.00  0.00     0.031 A 
ATOM     32  C   UNL A   1      39.197  29.374  29.186  1.00  0.00     0.074 A 
ATOM     33  C   UNL A   1      38.240  30.689  31.039  1.00  0.00     0.049 A 
ATOM     34  N   UNL A   1      40.234  28.826  29.772  1.00  0.00    -0.248 NA
ATOM     35  C   UNL A   1      39.121  29.101  27.742  1.00  0.00     0.031 C 
ATOM     36  C   UNL A   1      37.290  31.561  31.732  1.00  0.00     0.029 A 
ATOM     37  N   UNL A   1      39.253  30.523  31.954  1.00  0.00    -0.354 N 
ATOM     38  C   UNL A   1      40.891  28.099  28.786  1.00  0.00     0.074 A 
ATOM     39  C   UNL A   1      40.135  28.265  27.565  1.00  0.00     0.031 C 
ATOM     40  C   UNL A   1      37.794  31.912  32.923  1.00  0.00     0.029 A 
ATOM     41  C   UNL A   1      39.044  31.194  33.136  1.00  0.00     0.049 A 
ATOM     42  H   UNL A   1      40.053  29.976  31.779  1.00  0.00     0.167 HD
ATOM     43  C   UNL A   1      42.027  27.366  28.892  1.00  0.00     0.037 A 
ATOM     44  C   UNL A   1      39.746  31.196  34.285  1.00  0.00     0.037 A 
ATOM     45  C   UNL A   1      42.815  27.262  30.093  1.00  0.00     0.049 A 
ATOM     46  C   UNL A   1      40.966  30.329  34.396  1.00  0.00     0.074 A 
ATOM     47  C   UNL A   1      43.988  26.554  30.295  1.00  0.00     0.029 A 
ATOM     48  N   UNL A   1      42.524  27.903  31.287  1.00  0.00    -0.354 N 
ATOM     49  N   UNL A   1      41.534  29.583  33.481  1.00  0.00    -0.248 NA
ATOM     50  C   UNL A   1      41.624  30.274  35.710  1.00  0.00     0.031 C 
ATOM     51  C   UNL A   1      44.383  26.734  31.624  1.00  0.00     0.029 A 
ATOM     52  C   UNL A   1      43.484  27.591  32.237  1.00  0.00     0.049 A 
ATOM     53  H   UNL A   1      41.751  28.494  31.438  1.00  0.00     0.167 HD
ATOM     54  C   UNL A   1      42.612  28.972  34.103  1.00  0.00     0.074 A 
ATOM     55  C   UNL A   1      42.639  29.456  35.468  1.00  0.00     0.031 C 
ATOM     56  C   UNL A   1      43.494  28.079  33.592  1.00  0.00     0.037 A 
BRANCH  43  57
ATOM     57  C   UNL A   1      42.485  26.596  27.685  1.00  0.00     0.064 A 
ATOM     58  C   UNL A   1      43.441  27.108  26.797  1.00  0.00     0.173 A 
ATOM     59  C   UNL A   1      42.007  25.296  27.456  1.00  0.00     0.173 A 
ATOM     60  F   UNL A   1      43.921  28.348  26.963  1.00  0.00    -0.203 F 
ATOM     61  C   UNL A   1      43.889  26.354  25.713  1.00  0.00     0.198 A 
ATOM     62  C   UNL A   1      42.479  24.534  26.389  1.00  0.00     0.198 A 
ATOM     63  F   UNL A   1      41.098  24.753  28.280  1.00  0.00    -0.203 F 
ATOM     64  F   UNL A   1      44.775  26.877  24.856  1.00  0.00    -0.200 F 
ATOM     65  C   UNL A   1      43.415  25.065  25.516  1.00  0.00     0.200 A 
ATOM     66  F   UNL A   1      42.031  23.283  26.211  1.00  0.00    -0.200 F 
ATOM     67  F   UNL A   1      43.858  24.336  24.483  1.00  0.00    -0.200 F 
ENDBRANCH  43  57
BRANCH  44  68
ATOM     68  C   UNL A   1      39.278  32.018  35.435  1.00  0.00     0.064 A 
ATOM     69  C   UNL A   1      38.449  31.466  36.421  1.00  0.00     0.173 A 
ATOM     70  C   UNL A   1      39.671  33.356  35.587  1.00  0.00     0.173 A 
ATOM     71  F   UNL A   1      38.023  30.200  36.306  1.00  0.00    -0.203 F 
ATOM     72  C   UNL A   1      38.035  32.222  37.517  1.00  0.00     0.198 A 
ATOM     73  C   UNL A   1      39.285  34.099  36.700  1.00  0.00     0.198 A 
ATOM     74  F   UNL A   1      40.461  33.935  34.670  1.00  0.00    -0.203 F 
ATOM     75  F   UNL A   1      37.217  31.680  38.429  1.00  0.00    -0.200 F 
ATOM     76  C   UNL A   1      38.464  33.533  37.662  1.00  0.00     0.200 A 
ATOM     77  F   UNL A   1      39.717  35.359  36.844  1.00  0.00    -0.200 F 
ATOM     78  F   UNL A   1      38.081  34.251  38.726  1.00  0.00    -0.200 F 
ENDBRANCH  44  68
BRANCH  56  79
ATOM     79  C   UNL A   1      44.566  27.566  34.506  1.00  0.00     0.064 A 
ATOM     80  C   UNL A   1      45.766  28.269  34.687  1.00  0.00     0.173 A 
ATOM     81  C   UNL A   1      44.364  26.400  35.261  1.00  0.00     0.173 A 
ATOM     82  F   UNL A   1      46.010  29.381  33.977  1.00  0.00    -0.203 F 
ATOM     83  C   UNL A   1      46.729  27.818  35.584  1.00  0.00     0.198 A 
ATOM     84  C   UNL A   1      45.318  25.968  36.176  1.00  0.00     0.198 A 
ATOM     85  F   UNL A   1      43.230  25.697  35.127  1.00  0.00    -0.203 F 
ATOM     86  F   UNL A   1      47.882  28.487  35.718  1.00  0.00    -0.200 F 
ATOM     87  C   UNL A   1      46.501  26.674  36.335  1.00  0.00     0.200 A 
ATOM     88  F   UNL A   1      45.090  24.870  36.911  1.00  0.00    -0.200 F 
ATOM     89  F   UNL A   1      47.423  26.251  37.210  1.00  0.00    -0.200 F 
ENDBRANCH  56  79
ENDBRANCH  30  31
ENDBRANCH  23  25
ENDBRANCH  22  23
ENDBRANCH   1  22
TORSDOF 12
ENDMDL
MODEL 2
REMARK VINA RESULT:     -12.8      0.101      1.213
REMARK SMILES Cc1cc(Cl)cc2c1O[C@H](C(F)(F)F)C(C(=O)OCCOC(=O)c1ccc(-c3c4nc(c(-c5c(F)c(F)c(F)c(F)c5F)c5ccc([nH]5)c(-c5c(F)c(F)c(F)c(F)c5F)c5nc(c(-c6c(F)c(F)c(F)c(F)c6F)c6ccc3[nH]6)C=C5)C=C4)cc1)=C2
REMARK SMILES IDX 20 1 19 2 18 3 16 4 17 5 15 6 1 7 2 8 3 9 8 10 4 11 7 12
REMARK SMILES IDX 9 13 5 14 6 15 87 16 10 17 11 18 12 19 13 20 14 21 21 22
REMARK SMILES IDX 22 23 23 24 24 25 25 26 86 27 26 28 85 29 27 30 28 31 29 32
REMARK SMILES IDX 79 33 30 34 84 35 78 36 80 37 31 38 83 39 77 40 76 41 32 43
REMARK SMILES IDX 64 44 44 45 63 46 45 47 48 48 62 49 81 50 46 51 47 52 61 54
REMARK SMILES IDX 82 55 49 56 33 57 34 58 42 59 35 60 36 61 40 62 43 63 37 64
REMARK SMILES IDX 38 65 41 66 39 67 65 68 66 69 74 70 67 71 68 72 72 73 75 74
REMARK SMILES IDX 69 75 70 76 73 77 71 78 50 79 51 80 59 81 52 82 53 83 57 84
REMARK SMILES IDX 60 85 54 86 55 87 58 88 56 89
REMARK H PARENT 80 42 48 53
REMARK Flexibility Score: inf
ROOT
ATOM      1  C   UNL A   1      31.663  30.459  25.689  1.00  0.00     0.275 C 
ENDROOT
BRANCH   1   2
ATOM      2  C   UNL A   1      31.639  29.075  25.042  1.00  0.00     0.275 C 
BRANCH   2   3
ATOM      3  O   UNL A   1      32.496  28.150  25.747  1.00  0.00    -0.459 OA
BRANCH   3   4
ATOM      4  C   UNL A   1      31.856  27.210  26.479  1.00  0.00     0.338 C 
ATOM      5  O   UNL A   1      31.040  27.403  27.367  1.00  0.00    -0.246 OA
BRANCH   4   6
ATOM      6  C   UNL A   1      32.255  25.858  26.049  1.00  0.00     0.087 C 
ATOM      7  C   UNL A   1      32.533  21.278  23.687  1.00  0.00     0.048 C 
ATOM      8  C   UNL A   1      33.488  22.261  24.301  1.00  0.00    -0.007 A 
ATOM      9  C   UNL A   1      34.867  21.990  24.220  1.00  0.00     0.027 A 
ATOM     10  C   UNL A   1      33.057  23.431  24.943  1.00  0.00     0.131 A 
ATOM     11  C   UNL A   1      35.794  22.871  24.770  1.00  0.00     0.042 A 
ATOM     12  C   UNL A   1      33.998  24.316  25.476  1.00  0.00     0.019 A 
ATOM     13  O   UNL A   1      31.708  23.648  25.037  1.00  0.00    -0.475 OA
ATOM     14  Cl  UNL A   1      37.476  22.531  24.657  1.00  0.00    -0.084 Cl
ATOM     15  C   UNL A   1      35.367  24.033  25.399  1.00  0.00     0.032 A 
ATOM     16  C   UNL A   1      33.558  25.562  26.070  1.00  0.00     0.027 C 
ATOM     17  C   UNL A   1      31.216  24.948  25.465  1.00  0.00     0.316 C 
BRANCH  17  18
ATOM     18  C   UNL A   1      30.480  25.612  24.290  1.00  0.00     0.430 C 
ATOM     19  F   UNL A   1      29.888  24.689  23.495  1.00  0.00    -0.167 F 
ATOM     20  F   UNL A   1      29.496  26.436  24.724  1.00  0.00    -0.167 F 
ATOM     21  F   UNL A   1      31.312  26.345  23.516  1.00  0.00    -0.167 F 
ENDBRANCH  17  18
ENDBRANCH   4   6
ENDBRANCH   3   4
ENDBRANCH   2   3
ENDBRANCH   1   2
BRANCH   1  22
ATOM     22  O   UNL A   1      32.407  30.418  26.921  1.00  0.00    -0.458 OA
BRANCH  22  23
ATOM     23  C   UNL A   1      33.086  31.547  27.225  1.00  0.00     0.338 C 
ATOM     24  O   UNL A   1      32.661  32.689  27.245  1.00  0.00    -0.246 OA
BRANCH  23  25
ATOM     25  C   UNL A   1      34.463  31.219  27.629  1.00  0.00     0.060 A 
ATOM     26  C   UNL A   1      34.786  29.892  27.884  1.00  0.00     0.016 A 
ATOM     27  C   UNL A   1      35.362  32.230  27.961  1.00  0.00     0.016 A 
ATOM     28  C   UNL A   1      35.917  29.585  28.634  1.00  0.00     0.010 A 
ATOM     29  C   UNL A   1      36.578  31.899  28.571  1.00  0.00     0.010 A 
ATOM     30  C   UNL A   1      36.846  30.577  28.974  1.00  0.00    -0.014 A 
BRANCH  30  31
ATOM     31  C   UNL A   1      38.060  30.234  29.776  1.00  0.00     0.031 A 
ATOM     32  C   UNL A   1      39.157  29.387  29.178  1.00  0.00     0.074 A 
ATOM     33  C   UNL A   1      38.209  30.709  31.031  1.00  0.00     0.049 A 
ATOM     34  N   UNL A   1      40.192  28.835  29.763  1.00  0.00    -0.248 NA
ATOM     35  C   UNL A   1      39.077  29.112  27.734  1.00  0.00     0.031 C 
ATOM     36  C   UNL A   1      37.264  31.586  31.724  1.00  0.00     0.029 A 
ATOM     37  N   UNL A   1      39.223  30.539  31.944  1.00  0.00    -0.354 N 
ATOM     38  C   UNL A   1      40.844  28.103  28.777  1.00  0.00     0.074 A 
ATOM     39  C   UNL A   1      40.086  28.271  27.557  1.00  0.00     0.031 C 
ATOM     40  C   UNL A   1      37.772  31.936  32.913  1.00  0.00     0.029 A 
ATOM     41  C   UNL A   1      39.019  31.212  33.125  1.00  0.00     0.049 A 
ATOM     42  H   UNL A   1      40.019  29.988  31.768  1.00  0.00     0.167 HD
ATOM     43  C   UNL A   1      41.976  27.365  28.881  1.00  0.00     0.037 A 
ATOM     44  C   UNL A   1      39.723  31.213  34.273  1.00  0.00     0.037 A 
ATOM     45  C   UNL A   1      42.766  27.259  30.081  1.00  0.00     0.049 A 
ATOM     46  C   UNL A   1      40.939  30.340  34.383  1.00  0.00     0.074 A 
ATOM     47  C   UNL A   1      43.936  26.546  30.282  1.00  0.00     0.029 A 
ATOM     48  N   UNL A   1      42.481  27.903  31.275  1.00  0.00    -0.354 N 
ATOM     49  N   UNL A   1      41.502  29.590  33.468  1.00  0.00    -0.248 NA
ATOM     50  C   UNL A   1      41.598  30.284  35.696  1.00  0.00     0.031 C 
ATOM     51  C   UNL A   1      44.334  26.725  31.610  1.00  0.00     0.029 A 
ATOM     52  C   UNL A   1      43.440  27.587  32.223  1.00  0.00     0.049 A 
ATOM     53  H   UNL A   1      41.710  28.498  31.426  1.00  0.00     0.167 HD
ATOM     54  C   UNL A   1      42.578  28.975  34.089  1.00  0.00     0.074 A 
ATOM     55  C   UNL A   1      42.609  29.461  35.454  1.00  0.00     0.031 C 
ATOM     56  C   UNL A   1      43.455  28.078  33.578  1.00  0.00     0.037 A 
BRANCH  43  57
ATOM     57  C   UNL A   1      42.429  26.592  27.675  1.00  0.00     0.064 A 
ATOM     58  C   UNL A   1      43.385  27.098  26.784  1.00  0.00     0.173 A 
ATOM     59  C   UNL A   1      41.945  25.293  27.449  1.00  0.00     0.173 A 
ATOM     60  F   UNL A   1      43.872  28.336  26.948  1.00  0.00    -0.203 F 
ATOM     61  C   UNL A   1      43.828  26.340  25.700  1.00  0.00     0.198 A 
ATOM     62  C   UNL A   1      42.411  24.527  26.382  1.00  0.00     0.198 A 
ATOM     63  F   UNL A   1      41.035  24.756  28.275  1.00  0.00    -0.203 F 
ATOM     64  F   UNL A   1      44.715  26.858  24.841  1.00  0.00    -0.200 F 
ATOM     65  C   UNL A   1      43.348  25.053  25.506  1.00  0.00     0.200 A 
ATOM     66  F   UNL A   1      41.958  23.278  26.206  1.00  0.00    -0.200 F 
ATOM     67  F   UNL A   1      43.786  24.321  24.473  1.00  0.00    -0.200 F 
ENDBRANCH  43  57
BRANCH  44  68
ATOM     68  C   UNL A   1      39.261  32.038  35.422  1.00  0.00     0.064 A 
ATOM     69  C   UNL A   1      38.435  31.490  36.413  1.00  0.00     0.173 A 
ATOM     70  C   UNL A   1      39.656  33.376  35.570  1.00  0.00     0.173 A 
ATOM     71  F   UNL A   1      38.007  30.224  36.304  1.00  0.00    -0.203 F 
ATOM     72  C   UNL A   1      38.026  32.250  37.509  1.00  0.00     0.198 A 
ATOM     73  C   UNL A   1      39.276  34.123  36.682  1.00  0.00     0.198 A 
ATOM     74  F   UNL A   1      40.442  33.952  34.647  1.00  0.00    -0.203 F 
ATOM     75  F   UNL A   1      37.212  31.712  38.427  1.00  0.00    -0.200 F 
ATOM     76  C   UNL A   1      38.458  33.561  37.649  1.00  0.00     0.200 A 
ATOM     77  F   UNL A   1      39.710  35.383  36.821  1.00  0.00    -0.200 F 
ATOM     78  F   UNL A   1      38.080  34.282  38.713  1.00  0.00    -0.200 F 
ENDBRANCH  44  68
BRANCH  56  79
ATOM     79  C   UNL A   1      44.526  27.561  34.491  1.00  0.00     0.064 A 
ATOM     80  C   UNL A   1      44.354  26.370  35.212  1.00  0.00     0.173 A 
ATOM     81  C   UNL A   1      45.759  28.221  34.593  1.00  0.00     0.173 A 
ATOM     82  F   UNL A   1      43.186  25.711  35.158  1.00  0.00    -0.203 F 
ATOM     83  C   UNL A   1      45.375  25.865  36.010  1.00  0.00     0.198 A 
ATOM     84  C   UNL A   1      46.787  27.698  35.371  1.00  0.00     0.198 A 
ATOM     85  F   UNL A   1      45.973  29.361  33.918  1.00  0.00    -0.203 F 
ATOM     86  F   UNL A   1      45.179  24.743  36.715  1.00  0.00    -0.200 F 
ATOM     87  C   UNL A   1      46.594  26.523  36.081  1.00  0.00     0.200 A 
ATOM     88  F   UNL A   1      47.970  28.328  35.427  1.00  0.00    -0.200 F 
ATOM     89  F   UNL A   1      47.583  26.026  36.837  1.00  0.00    -0.200 F 
ENDBRANCH  56  79
ENDBRANCH  30  31
ENDBRANCH  23  25
ENDBRANCH  22  23
ENDBRANCH   1  22
TORSDOF 12
ENDMDL
MODEL 3
REMARK VINA RESULT:     -12.7      0.187      1.621
REMARK SMILES Cc1cc(Cl)cc2c1O[C@H](C(F)(F)F)C(C(=O)OCCOC(=O)c1ccc(-c3c4nc(c(-c5c(F)c(F)c(F)c(F)c5F)c5ccc([nH]5)c(-c5c(F)c(F)c(F)c(F)c5F)c5nc(c(-c6c(F)c(F)c(F)c(F)c6F)c6ccc3[nH]6)C=C5)C=C4)cc1)=C2
REMARK SMILES IDX 20 1 19 2 18 3 16 4 17 5 15 6 1 7 2 8 3 9 8 10 4 11 7 12
REMARK SMILES IDX 9 13 5 14 6 15 87 16 10 17 11 18 12 19 13 20 14 21 21 22
REMARK SMILES IDX 22 23 23 24 24 25 25 26 86 27 26 28 85 29 27 30 28 31 29 32
REMARK SMILES IDX 79 33 30 34 84 35 78 36 80 37 31 38 83 39 77 40 76 41 32 43
REMARK SMILES IDX 64 44 44 45 63 46 45 47 48 48 62 49 81 50 46 51 47 52 61 54
REMARK SMILES IDX 82 55 49 56 33 57 34 58 42 59 35 60 36 61 40 62 43 63 37 64
REMARK SMILES IDX 38 65 41 66 39 67 65 68 66 69 74 70 67 71 68 72 72 73 75 74
REMARK SMILES IDX 69 75 70 76 73 77 71 78 50 79 51 80 59 81 52 82 53 83 57 84
REMARK SMILES IDX 60 85 54 86 55 87 58 88 56 89
REMARK H PARENT 80 42 48 53
REMARK Flexibility Score: inf
ROOT
ATOM      1  C   UNL A   1      31.726  30.410  25.763  1.00  0.00     0.275 C 
ENDROOT
BRANCH   1   2
ATOM      2  C   UNL A   1      31.749  29.064  25.040  1.00  0.00     0.275 C 
BRANCH   2   3
ATOM      3  O   UNL A   1      32.553  28.098  25.753  1.00  0.00    -0.459 OA
BRANCH   3   4
ATOM      4  C   UNL A   1      31.859  27.160  26.436  1.00  0.00     0.338 C 
ATOM      5  O   UNL A   1      31.012  27.355  27.294  1.00  0.00    -0.246 OA
BRANCH   4   6
ATOM      6  C   UNL A   1      32.241  25.807  25.993  1.00  0.00     0.087 C 
ATOM      7  C   UNL A   1      32.476  21.256  23.571  1.00  0.00     0.048 C 
ATOM      8  C   UNL A   1      33.440  22.214  24.212  1.00  0.00    -0.007 A 
ATOM      9  C   UNL A   1      34.814  21.921  24.146  1.00  0.00     0.027 A 
ATOM     10  C   UNL A   1      33.019  23.382  24.865  1.00  0.00     0.131 A 
ATOM     11  C   UNL A   1      35.749  22.779  24.721  1.00  0.00     0.042 A 
ATOM     12  C   UNL A   1      33.967  24.244  25.422  1.00  0.00     0.019 A 
ATOM     13  O   UNL A   1      31.672  23.620  24.943  1.00  0.00    -0.475 OA
ATOM     14  Cl  UNL A   1      37.426  22.413  24.626  1.00  0.00    -0.084 Cl
ATOM     15  C   UNL A   1      35.332  23.940  25.360  1.00  0.00     0.032 A 
ATOM     16  C   UNL A   1      33.539  25.489  26.028  1.00  0.00     0.027 C 
ATOM     17  C   UNL A   1      31.196  24.923  25.382  1.00  0.00     0.316 C 
BRANCH  17  18
ATOM     18  C   UNL A   1      30.488  25.615  24.207  1.00  0.00     0.430 C 
ATOM     19  F   UNL A   1      31.364  26.307  23.441  1.00  0.00    -0.167 F 
ATOM     20  F   UNL A   1      29.889  24.715  23.391  1.00  0.00    -0.167 F 
ATOM     21  F   UNL A   1      29.536  26.482  24.623  1.00  0.00    -0.167 F 
ENDBRANCH  17  18
ENDBRANCH   4   6
ENDBRANCH   3   4
ENDBRANCH   2   3
ENDBRANCH   1   2
BRANCH   1  22
ATOM     22  O   UNL A   1      32.531  30.347  26.955  1.00  0.00    -0.458 OA
BRANCH  22  23
ATOM     23  C   UNL A   1      33.218  31.472  27.251  1.00  0.00     0.338 C 
ATOM     24  O   UNL A   1      32.801  32.616  27.270  1.00  0.00    -0.246 OA
BRANCH  23  25
ATOM     25  C   UNL A   1      34.596  31.137  27.645  1.00  0.00     0.060 A 
ATOM     26  C   UNL A   1      34.909  29.811  27.921  1.00  0.00     0.016 A 
ATOM     27  C   UNL A   1      35.509  32.144  27.949  1.00  0.00     0.016 A 
ATOM     28  C   UNL A   1      36.045  29.505  28.663  1.00  0.00     0.010 A 
ATOM     29  C   UNL A   1      36.728  31.811  28.553  1.00  0.00     0.010 A 
ATOM     30  C   UNL A   1      36.987  30.494  28.976  1.00  0.00    -0.014 A 
BRANCH  30  31
ATOM     31  C   UNL A   1      38.206  30.153  29.771  1.00  0.00     0.031 A 
ATOM     32  C   UNL A   1      39.295  29.296  29.170  1.00  0.00     0.074 A 
ATOM     33  C   UNL A   1      38.368  30.637  31.020  1.00  0.00     0.049 A 
ATOM     34  N   UNL A   1      40.333  28.744  29.751  1.00  0.00    -0.248 NA
ATOM     35  C   UNL A   1      39.202  29.010  27.730  1.00  0.00     0.031 C 
ATOM     36  C   UNL A   1      37.433  31.523  31.714  1.00  0.00     0.029 A 
ATOM     37  N   UNL A   1      39.389  30.470  31.926  1.00  0.00    -0.354 N 
ATOM     38  C   UNL A   1      40.974  28.002  28.766  1.00  0.00     0.074 A 
ATOM     39  C   UNL A   1      40.207  28.163  27.551  1.00  0.00     0.031 C 
ATOM     40  C   UNL A   1      37.952  31.881  32.896  1.00  0.00     0.029 A 
ATOM     41  C   UNL A   1      39.198  31.154  33.104  1.00  0.00     0.049 A 
ATOM     42  H   UNL A   1      40.181  29.914  31.748  1.00  0.00     0.167 HD
ATOM     43  C   UNL A   1      42.104  27.260  28.867  1.00  0.00     0.037 A 
ATOM     44  C   UNL A   1      39.911  31.161  34.246  1.00  0.00     0.037 A 
ATOM     45  C   UNL A   1      42.903  27.160  30.061  1.00  0.00     0.049 A 
ATOM     46  C   UNL A   1      41.124  30.284  34.353  1.00  0.00     0.074 A 
ATOM     47  C   UNL A   1      44.071  26.444  30.259  1.00  0.00     0.029 A 
ATOM     48  N   UNL A   1      42.630  27.815  31.252  1.00  0.00    -0.354 N 
ATOM     49  N   UNL A   1      41.676  29.524  33.439  1.00  0.00    -0.248 NA
ATOM     50  C   UNL A   1      41.794  30.235  35.661  1.00  0.00     0.031 C 
ATOM     51  C   UNL A   1      44.482  26.633  31.581  1.00  0.00     0.029 A 
ATOM     52  C   UNL A   1      43.596  27.503  32.195  1.00  0.00     0.049 A 
ATOM     53  H   UNL A   1      41.864  28.414  31.405  1.00  0.00     0.167 HD
ATOM     54  C   UNL A   1      42.755  28.910  34.056  1.00  0.00     0.074 A 
ATOM     55  C   UNL A   1      42.800  29.406  35.417  1.00  0.00     0.031 C 
ATOM     56  C   UNL A   1      43.624  28.005  33.545  1.00  0.00     0.037 A 
BRANCH  43  57
ATOM     57  C   UNL A   1      42.544  26.475  27.663  1.00  0.00     0.064 A 
ATOM     58  C   UNL A   1      43.488  26.974  26.755  1.00  0.00     0.173 A 
ATOM     59  C   UNL A   1      42.059  25.173  27.456  1.00  0.00     0.173 A 
ATOM     60  F   UNL A   1      43.973  28.215  26.901  1.00  0.00    -0.203 F 
ATOM     61  C   UNL A   1      43.919  26.206  25.675  1.00  0.00     0.198 A 
ATOM     62  C   UNL A   1      42.514  24.398  26.392  1.00  0.00     0.198 A 
ATOM     63  F   UNL A   1      41.160  24.643  28.299  1.00  0.00    -0.203 F 
ATOM     64  F   UNL A   1      44.794  26.717  24.799  1.00  0.00    -0.200 F 
ATOM     65  C   UNL A   1      43.439  24.916  25.499  1.00  0.00     0.200 A 
ATOM     66  F   UNL A   1      42.061  23.145  26.235  1.00  0.00    -0.200 F 
ATOM     67  F   UNL A   1      43.866  24.174  24.469  1.00  0.00    -0.200 F 
ENDBRANCH  43  57
BRANCH  44  68
ATOM     68  C   UNL A   1      39.461  31.997  35.392  1.00  0.00     0.064 A 
ATOM     69  C   UNL A   1      39.877  33.329  35.516  1.00  0.00     0.173 A 
ATOM     70  C   UNL A   1      38.587  31.494  36.368  1.00  0.00     0.173 A 
ATOM     71  F   UNL A   1      40.735  33.849  34.625  1.00  0.00    -0.203 F 
ATOM     72  C   UNL A   1      39.432  34.127  36.570  1.00  0.00     0.198 A 
ATOM     73  C   UNL A   1      38.116  32.301  37.400  1.00  0.00     0.198 A 
ATOM     74  F   UNL A   1      38.161  30.223  36.300  1.00  0.00    -0.203 F 
ATOM     75  F   UNL A   1      39.869  35.388  36.682  1.00  0.00    -0.200 F 
ATOM     76  C   UNL A   1      38.542  33.615  37.503  1.00  0.00     0.200 A 
ATOM     77  F   UNL A   1      37.243  31.807  38.288  1.00  0.00    -0.200 F 
ATOM     78  F   UNL A   1      38.100  34.389  38.504  1.00  0.00    -0.200 F 
ENDBRANCH  44  68
BRANCH  56  79
ATOM     79  C   UNL A   1      44.700  27.490  34.454  1.00  0.00     0.064 A 
ATOM     80  C   UNL A   1      44.525  26.313  35.195  1.00  0.00     0.173 A 
ATOM     81  C   UNL A   1      45.942  28.140  34.531  1.00  0.00     0.173 A 
ATOM     82  F   UNL A   1      43.350  25.666  35.165  1.00  0.00    -0.203 F 
ATOM     83  C   UNL A   1      45.551  25.810  35.989  1.00  0.00     0.198 A 
ATOM     84  C   UNL A   1      46.974  27.618  35.304  1.00  0.00     0.198 A 
ATOM     85  F   UNL A   1      46.159  29.266  33.836  1.00  0.00    -0.203 F 
ATOM     86  F   UNL A   1      45.351  24.701  36.714  1.00  0.00    -0.200 F 
ATOM     87  C   UNL A   1      46.777  26.456  36.035  1.00  0.00     0.200 A 
ATOM     88  F   UNL A   1      48.163  28.236  35.337  1.00  0.00    -0.200 F 
ATOM     89  F   UNL A   1      47.769  25.961  36.787  1.00  0.00    -0.200 F 
ENDBRANCH  56  79
ENDBRANCH  30  31
ENDBRANCH  23  25
ENDBRANCH  22  23
ENDBRANCH   1  22
TORSDOF 12
ENDMDL
