MODEL 1
REMARK VINA RESULT:     -12.5      0.000      0.000
REMARK SMILES CCc1ccc(N2C(=O)C[C@@H](SC[C@@H](NC(C)=O)C(=O)OCCOC(=O)c3ccc(-c4c5nc(c(-c6c(F)c(F)c(F)c(F)c6F)c6ccc([nH]6)c(-c6c(F)c(F)c(F)c(F)c6F)c6nc(c(-c7c(F)c(F)c(F)c(F)c7F)c7ccc4[nH]7)C=C6)C=C5)cc3)C2=O)cc1
REMARK SMILES IDX 21 1 19 2 20 3 14 4 13 5 12 6 11 7 7 8 8 9 90 10 9 11 10 12
REMARK SMILES IDX 91 13 6 14 3 15 4 16 93 17 5 18 92 19 2 20 1 21 15 22 16 23
REMARK SMILES IDX 17 25 18 26 22 27 23 28 24 29 25 30 26 31 27 32 28 33 89 34
REMARK SMILES IDX 29 35 88 36 30 37 31 38 32 39 82 40 33 41 87 42 81 43 83 44
REMARK SMILES IDX 34 45 86 46 80 47 79 48 35 50 67 51 47 52 66 53 48 54 51 55
REMARK SMILES IDX 65 56 84 57 49 58 50 59 64 61 85 62 52 63 36 64 37 65 45 66
REMARK SMILES IDX 38 67 39 68 43 69 46 70 40 71 41 72 44 73 42 74 68 75 69 76
REMARK SMILES IDX 77 77 70 78 71 79 75 80 78 81 72 82 73 83 76 84 74 85 53 86
REMARK SMILES IDX 54 87 62 88 55 89 56 90 60 91 63 92 57 93 58 94 61 95 59 96
REMARK H PARENT 15 24 83 49 51 60
REMARK Flexibility Score: inf
ROOT
ATOM      1  O   UNL A   1      31.759  28.739  23.734  1.00  0.00    -0.461 OA
ENDROOT
BRANCH   1   2
ATOM      2  C   UNL A   1      30.943  28.047  22.895  1.00  0.00     0.329 C 
ATOM      3  O   UNL A   1      30.036  28.534  22.228  1.00  0.00    -0.250 OA
BRANCH   2   4
ATOM      4  C   UNL A   1      31.251  26.535  22.910  1.00  0.00     0.202 C 
BRANCH   4   5
ATOM      5  C   UNL A   1      30.290  25.750  23.820  1.00  0.00     0.107 C 
BRANCH   5   6
ATOM      6  S   UNL A   1      30.492  25.968  25.633  1.00  0.00    -0.145 SA
BRANCH   6   7
ATOM      7  C   UNL A   1      31.888  24.877  26.079  1.00  0.00     0.146 C 
ATOM      8  N   UNL A   1      32.650  22.951  24.967  1.00  0.00    -0.250 N 
ATOM      9  C   UNL A   1      33.602  23.906  24.735  1.00  0.00     0.235 C 
ATOM     10  C   UNL A   1      31.585  23.435  25.694  1.00  0.00     0.247 C 
ATOM     11  O   UNL A   1      34.613  23.843  24.048  1.00  0.00    -0.274 OA
ATOM     12  C   UNL A   1      33.233  25.145  25.451  1.00  0.00     0.125 C 
ATOM     13  O   UNL A   1      30.595  22.818  26.069  1.00  0.00    -0.273 OA
BRANCH   8  14
ATOM     14  C   UNL A   1      32.798  21.627  24.503  1.00  0.00     0.052 A 
ATOM     15  C   UNL A   1      32.885  18.968  23.558  1.00  0.00    -0.048 A 
ATOM     16  C   UNL A   1      33.470  19.320  24.787  1.00  0.00     0.006 A 
ATOM     17  C   UNL A   1      32.278  19.970  22.801  1.00  0.00     0.006 A 
ATOM     18  C   UNL A   1      33.452  20.645  25.246  1.00  0.00     0.027 A 
ATOM     19  C   UNL A   1      32.235  21.276  23.270  1.00  0.00     0.027 A 
BRANCH  15  20
ATOM     20  C   UNL A   1      32.859  17.521  23.129  1.00  0.00     0.032 C 
ATOM     21  C   UNL A   1      34.103  16.711  23.480  1.00  0.00     0.009 C 
ENDBRANCH  15  20
ENDBRANCH   8  14
ENDBRANCH   6   7
ENDBRANCH   5   6
ENDBRANCH   4   5
BRANCH   4  22
ATOM     22  N   UNL A   1      31.450  26.061  21.539  1.00  0.00    -0.342 N 
ATOM     23  C   UNL A   1      32.704  25.813  21.028  1.00  0.00     0.217 C 
ATOM     24  H   UNL A   1      30.663  25.912  20.966  1.00  0.00     0.164 HD
ATOM     25  C   UNL A   1      32.705  25.262  19.628  1.00  0.00     0.114 C 
ATOM     26  O   UNL A   1      33.734  26.024  21.655  1.00  0.00    -0.275 OA
ENDBRANCH   4  22
ENDBRANCH   2   4
ENDBRANCH   1   2
BRANCH   1  27
ATOM     27  C   UNL A   1      31.142  29.667  24.639  1.00  0.00     0.274 C 
BRANCH  27  28
ATOM     28  C   UNL A   1      31.809  29.608  26.015  1.00  0.00     0.275 C 
BRANCH  28  29
ATOM     29  O   UNL A   1      33.126  30.187  25.986  1.00  0.00    -0.458 OA
BRANCH  29  30
ATOM     30  C   UNL A   1      33.336  31.178  26.883  1.00  0.00     0.338 C 
ATOM     31  O   UNL A   1      32.559  32.056  27.215  1.00  0.00    -0.246 OA
BRANCH  30  32
ATOM     32  C   UNL A   1      34.605  30.939  27.585  1.00  0.00     0.060 A 
ATOM     33  C   UNL A   1      34.883  29.631  27.992  1.00  0.00     0.016 A 
ATOM     34  C   UNL A   1      35.484  31.978  27.884  1.00  0.00     0.016 A 
ATOM     35  C   UNL A   1      36.058  29.341  28.672  1.00  0.00     0.010 A 
ATOM     36  C   UNL A   1      36.655  31.693  28.592  1.00  0.00     0.010 A 
ATOM     37  C   UNL A   1      36.945  30.374  28.985  1.00  0.00    -0.014 A 
BRANCH  37  38
ATOM     38  C   UNL A   1      38.141  30.082  29.804  1.00  0.00     0.031 A 
ATOM     39  C   UNL A   1      39.211  29.196  29.246  1.00  0.00     0.074 A 
ATOM     40  C   UNL A   1      38.274  30.634  31.022  1.00  0.00     0.049 A 
ATOM     41  N   UNL A   1      40.281  28.719  29.827  1.00  0.00    -0.248 NA
ATOM     42  C   UNL A   1      39.053  28.794  27.840  1.00  0.00     0.031 C 
ATOM     43  C   UNL A   1      37.336  31.581  31.625  1.00  0.00     0.029 A 
ATOM     44  N   UNL A   1      39.251  30.475  31.969  1.00  0.00    -0.354 N 
ATOM     45  C   UNL A   1      40.913  27.942  28.866  1.00  0.00     0.074 A 
ATOM     46  C   UNL A   1      40.100  28.002  27.668  1.00  0.00     0.031 C 
ATOM     47  C   UNL A   1      37.786  31.920  32.844  1.00  0.00     0.029 A 
ATOM     48  C   UNL A   1      39.008  31.172  33.126  1.00  0.00     0.049 A 
ATOM     49  H   UNL A   1      40.049  29.917  31.833  1.00  0.00     0.167 HD
ATOM     50  C   UNL A   1      42.067  27.242  28.979  1.00  0.00     0.037 A 
ATOM     51  C   UNL A   1      39.682  31.174  34.291  1.00  0.00     0.037 A 
ATOM     52  C   UNL A   1      42.863  27.195  30.177  1.00  0.00     0.049 A 
ATOM     53  C   UNL A   1      40.900  30.302  34.429  1.00  0.00     0.074 A 
ATOM     54  C   UNL A   1      44.046  26.513  30.405  1.00  0.00     0.029 A 
ATOM     55  N   UNL A   1      42.549  27.855  31.357  1.00  0.00    -0.354 N 
ATOM     56  N   UNL A   1      41.481  29.542  33.532  1.00  0.00    -0.248 NA
ATOM     57  C   UNL A   1      41.546  30.273  35.748  1.00  0.00     0.031 C 
ATOM     58  C   UNL A   1      44.422  26.725  31.736  1.00  0.00     0.029 A 
ATOM     59  C   UNL A   1      43.501  27.577  32.325  1.00  0.00     0.049 A 
ATOM     60  H   UNL A   1      41.765  28.436  31.486  1.00  0.00     0.167 HD
ATOM     61  C   UNL A   1      42.571  28.963  34.167  1.00  0.00     0.074 A 
ATOM     62  C   UNL A   1      42.576  29.468  35.526  1.00  0.00     0.031 C 
ATOM     63  C   UNL A   1      43.485  28.093  33.672  1.00  0.00     0.037 A 
BRANCH  50  64
ATOM     64  C   UNL A   1      42.496  26.437  27.788  1.00  0.00     0.064 A 
ATOM     65  C   UNL A   1      43.414  26.931  26.849  1.00  0.00     0.173 A 
ATOM     66  C   UNL A   1      41.967  25.155  27.575  1.00  0.00     0.173 A 
ATOM     67  F   UNL A   1      43.935  28.158  26.996  1.00  0.00    -0.203 F 
ATOM     68  C   UNL A   1      43.755  26.188  25.722  1.00  0.00     0.198 A 
ATOM     69  C   UNL A   1      42.334  24.402  26.463  1.00  0.00     0.198 A 
ATOM     70  F   UNL A   1      41.087  24.634  28.444  1.00  0.00    -0.203 F 
ATOM     71  F   UNL A   1      44.585  26.706  24.806  1.00  0.00    -0.200 F 
ATOM     72  C   UNL A   1      43.218  24.924  25.531  1.00  0.00     0.200 A 
ATOM     73  F   UNL A   1      41.818  23.178  26.285  1.00  0.00    -0.200 F 
ATOM     74  F   UNL A   1      43.542  24.213  24.443  1.00  0.00    -0.200 F 
ENDBRANCH  50  64
BRANCH  51  75
ATOM     75  C   UNL A   1      39.208  32.015  35.418  1.00  0.00     0.064 A 
ATOM     76  C   UNL A   1      38.403  31.470  36.428  1.00  0.00     0.173 A 
ATOM     77  C   UNL A   1      39.558  33.369  35.520  1.00  0.00     0.173 A 
ATOM     78  F   UNL A   1      38.022  30.187  36.361  1.00  0.00    -0.203 F 
ATOM     79  C   UNL A   1      37.964  32.250  37.496  1.00  0.00     0.198 A 
ATOM     80  C   UNL A   1      39.139  34.142  36.602  1.00  0.00     0.198 A 
ATOM     81  F   UNL A   1      40.322  33.939  34.577  1.00  0.00    -0.203 F 
ATOM     82  F   UNL A   1      37.171  31.713  38.433  1.00  0.00    -0.200 F 
ATOM     83  C   UNL A   1      38.339  33.583  37.587  1.00  0.00     0.200 A 
ATOM     84  F   UNL A   1      39.513  35.425  36.691  1.00  0.00    -0.200 F 
ATOM     85  F   UNL A   1      37.926  34.328  38.620  1.00  0.00    -0.200 F 
ENDBRANCH  51  75
BRANCH  63  86
ATOM     86  C   UNL A   1      44.585  27.659  34.595  1.00  0.00     0.064 A 
ATOM     87  C   UNL A   1      44.478  26.496  35.370  1.00  0.00     0.173 A 
ATOM     88  C   UNL A   1      45.776  28.396  34.675  1.00  0.00     0.173 A 
ATOM     89  F   UNL A   1      43.352  25.767  35.341  1.00  0.00    -0.203 F 
ATOM     90  C   UNL A   1      45.516  26.097  36.208  1.00  0.00     0.198 A 
ATOM     91  C   UNL A   1      46.823  27.980  35.492  1.00  0.00     0.198 A 
ATOM     92  F   UNL A   1      45.930  29.515  33.950  1.00  0.00    -0.203 F 
ATOM     93  F   UNL A   1      45.376  25.005  36.973  1.00  0.00    -0.200 F 
ATOM     94  C   UNL A   1      46.690  26.835  36.262  1.00  0.00     0.200 A 
ATOM     95  F   UNL A   1      47.960  28.688  35.536  1.00  0.00    -0.200 F 
ATOM     96  F   UNL A   1      47.691  26.445  37.064  1.00  0.00    -0.200 F 
ENDBRANCH  63  86
ENDBRANCH  37  38
ENDBRANCH  30  32
ENDBRANCH  29  30
ENDBRANCH  28  29
ENDBRANCH  27  28
ENDBRANCH   1  27
TORSDOF 17
ENDMDL
MODEL 2
REMARK VINA RESULT:     -12.3      0.536      1.722
REMARK SMILES CCc1ccc(N2C(=O)C[C@@H](SC[C@@H](NC(C)=O)C(=O)OCCOC(=O)c3ccc(-c4c5nc(c(-c6c(F)c(F)c(F)c(F)c6F)c6ccc([nH]6)c(-c6c(F)c(F)c(F)c(F)c6F)c6nc(c(-c7c(F)c(F)c(F)c(F)c7F)c7ccc4[nH]7)C=C6)C=C5)cc3)C2=O)cc1
REMARK SMILES IDX 21 1 19 2 20 3 14 4 13 5 12 6 11 7 7 8 8 9 90 10 9 11 10 12
REMARK SMILES IDX 91 13 6 14 3 15 4 16 93 17 5 18 92 19 2 20 1 21 15 22 16 23
REMARK SMILES IDX 17 25 18 26 22 27 23 28 24 29 25 30 26 31 27 32 28 33 89 34
REMARK SMILES IDX 29 35 88 36 30 37 31 38 32 39 82 40 33 41 87 42 81 43 83 44
REMARK SMILES IDX 34 45 86 46 80 47 79 48 35 50 67 51 47 52 66 53 48 54 51 55
REMARK SMILES IDX 65 56 84 57 49 58 50 59 64 61 85 62 52 63 36 64 37 65 45 66
REMARK SMILES IDX 38 67 39 68 43 69 46 70 40 71 41 72 44 73 42 74 68 75 69 76
REMARK SMILES IDX 77 77 70 78 71 79 75 80 78 81 72 82 73 83 76 84 74 85 53 86
REMARK SMILES IDX 54 87 62 88 55 89 56 90 60 91 63 92 57 93 58 94 61 95 59 96
REMARK H PARENT 15 24 83 49 51 60
REMARK Flexibility Score: inf
ROOT
ATOM      1  O   UNL A   1      31.322  29.002  23.371  1.00  0.00    -0.461 OA
ENDROOT
BRANCH   1   2
ATOM      2  C   UNL A   1      30.570  27.910  23.069  1.00  0.00     0.329 C 
ATOM      3  O   UNL A   1      29.353  27.908  22.915  1.00  0.00    -0.250 OA
BRANCH   2   4
ATOM      4  C   UNL A   1      31.425  26.627  22.992  1.00  0.00     0.202 C 
BRANCH   4   5
ATOM      5  C   UNL A   1      31.055  25.610  24.086  1.00  0.00     0.107 C 
BRANCH   5   6
ATOM      6  S   UNL A   1      31.853  25.820  25.727  1.00  0.00    -0.145 SA
BRANCH   6   7
ATOM      7  C   UNL A   1      33.301  24.706  25.685  1.00  0.00     0.146 C 
ATOM      8  N   UNL A   1      33.483  22.585  24.690  1.00  0.00    -0.250 N 
ATOM      9  C   UNL A   1      34.231  23.420  23.905  1.00  0.00     0.235 C 
ATOM     10  C   UNL A   1      32.857  23.250  25.720  1.00  0.00     0.247 C 
ATOM     11  O   UNL A   1      34.827  23.180  22.863  1.00  0.00    -0.274 OA
ATOM     12  C   UNL A   1      34.222  24.777  24.493  1.00  0.00     0.125 C 
ATOM     13  O   UNL A   1      32.140  22.771  26.591  1.00  0.00    -0.273 OA
BRANCH   8  14
ATOM     14  C   UNL A   1      33.408  21.200  24.436  1.00  0.00     0.052 A 
ATOM     15  C   UNL A   1      33.449  18.440  23.839  1.00  0.00    -0.048 A 
ATOM     16  C   UNL A   1      32.410  19.266  23.375  1.00  0.00     0.006 A 
ATOM     17  C   UNL A   1      34.451  19.010  24.623  1.00  0.00     0.006 A 
ATOM     18  C   UNL A   1      32.373  20.632  23.693  1.00  0.00     0.027 A 
ATOM     19  C   UNL A   1      34.429  20.368  24.913  1.00  0.00     0.027 A 
BRANCH  15  20
ATOM     20  C   UNL A   1      33.496  16.991  23.418  1.00  0.00     0.032 C 
ATOM     21  C   UNL A   1      34.059  16.025  24.456  1.00  0.00     0.009 C 
ENDBRANCH  15  20
ENDBRANCH   8  14
ENDBRANCH   6   7
ENDBRANCH   5   6
ENDBRANCH   4   5
BRANCH   4  22
ATOM     22  N   UNL A   1      31.489  26.162  21.606  1.00  0.00    -0.342 N 
ATOM     23  C   UNL A   1      32.686  25.928  20.969  1.00  0.00     0.217 C 
ATOM     24  H   UNL A   1      30.649  26.010  21.114  1.00  0.00     0.164 HD
ATOM     25  C   UNL A   1      32.551  25.384  19.573  1.00  0.00     0.114 C 
ATOM     26  O   UNL A   1      33.773  26.145  21.491  1.00  0.00    -0.275 OA
ENDBRANCH   4  22
ENDBRANCH   2   4
ENDBRANCH   1   2
BRANCH   1  27
ATOM     27  C   UNL A   1      31.292  29.471  24.728  1.00  0.00     0.274 C 
BRANCH  27  28
ATOM     28  C   UNL A   1      32.710  29.705  25.252  1.00  0.00     0.275 C 
BRANCH  28  29
ATOM     29  O   UNL A   1      32.713  29.951  26.670  1.00  0.00    -0.458 OA
BRANCH  29  30
ATOM     30  C   UNL A   1      33.218  31.151  27.041  1.00  0.00     0.338 C 
ATOM     31  O   UNL A   1      32.665  32.236  26.997  1.00  0.00    -0.246 OA
BRANCH  30  32
ATOM     32  C   UNL A   1      34.507  30.947  27.718  1.00  0.00     0.060 A 
ATOM     33  C   UNL A   1      34.848  29.641  28.081  1.00  0.00     0.016 A 
ATOM     34  C   UNL A   1      35.343  32.014  28.038  1.00  0.00     0.016 A 
ATOM     35  C   UNL A   1      36.045  29.383  28.735  1.00  0.00     0.010 A 
ATOM     36  C   UNL A   1      36.536  31.760  28.721  1.00  0.00     0.010 A 
ATOM     37  C   UNL A   1      36.890  30.444  29.069  1.00  0.00    -0.014 A 
BRANCH  37  38
ATOM     38  C   UNL A   1      38.109  30.181  29.862  1.00  0.00     0.031 A 
ATOM     39  C   UNL A   1      39.192  29.328  29.277  1.00  0.00     0.074 A 
ATOM     40  C   UNL A   1      38.251  30.729  31.081  1.00  0.00     0.049 A 
ATOM     41  N   UNL A   1      40.286  28.878  29.834  1.00  0.00    -0.248 NA
ATOM     42  C   UNL A   1      39.018  28.931  27.873  1.00  0.00     0.031 C 
ATOM     43  C   UNL A   1      37.299  31.646  31.708  1.00  0.00     0.029 A 
ATOM     44  N   UNL A   1      39.250  30.592  32.008  1.00  0.00    -0.354 N 
ATOM     45  C   UNL A   1      40.920  28.125  28.857  1.00  0.00     0.074 A 
ATOM     46  C   UNL A   1      40.083  28.169  27.675  1.00  0.00     0.031 C 
ATOM     47  C   UNL A   1      37.763  31.990  32.921  1.00  0.00     0.029 A 
ATOM     48  C   UNL A   1      39.011  31.275  33.174  1.00  0.00     0.049 A 
ATOM     49  H   UNL A   1      40.061  30.057  31.853  1.00  0.00     0.167 HD
ATOM     50  C   UNL A   1      42.095  27.457  28.942  1.00  0.00     0.037 A 
ATOM     51  C   UNL A   1      39.708  31.289  34.326  1.00  0.00     0.037 A 
ATOM     52  C   UNL A   1      42.917  27.424  30.124  1.00  0.00     0.049 A 
ATOM     53  C   UNL A   1      40.952  30.450  34.434  1.00  0.00     0.074 A 
ATOM     54  C   UNL A   1      44.122  26.775  30.324  1.00  0.00     0.029 A 
ATOM     55  N   UNL A   1      42.607  28.069  31.314  1.00  0.00    -0.354 N 
ATOM     56  N   UNL A   1      41.536  29.712  33.521  1.00  0.00    -0.248 NA
ATOM     57  C   UNL A   1      41.624  30.431  35.740  1.00  0.00     0.031 C 
ATOM     58  C   UNL A   1      44.518  26.989  31.649  1.00  0.00     0.029 A 
ATOM     59  C   UNL A   1      43.586  27.812  32.262  1.00  0.00     0.049 A 
ATOM     60  H   UNL A   1      41.810  28.627  31.463  1.00  0.00     0.167 HD
ATOM     61  C   UNL A   1      42.653  29.160  34.131  1.00  0.00     0.074 A 
ATOM     62  C   UNL A   1      42.671  29.657  35.492  1.00  0.00     0.031 C 
ATOM     63  C   UNL A   1      43.582  28.319  33.612  1.00  0.00     0.037 A 
BRANCH  50  64
ATOM     64  C   UNL A   1      42.523  26.671  27.738  1.00  0.00     0.064 A 
ATOM     65  C   UNL A   1      42.051  25.373  27.492  1.00  0.00     0.173 A 
ATOM     66  C   UNL A   1      43.435  27.220  26.824  1.00  0.00     0.173 A 
ATOM     67  F   UNL A   1      41.192  24.795  28.346  1.00  0.00    -0.203 F 
ATOM     68  C   UNL A   1      42.505  24.641  26.398  1.00  0.00     0.198 A 
ATOM     69  C   UNL A   1      43.864  26.497  25.714  1.00  0.00     0.198 A 
ATOM     70  F   UNL A   1      43.917  28.459  27.011  1.00  0.00    -0.203 F 
ATOM     71  F   UNL A   1      42.087  23.381  26.218  1.00  0.00    -0.200 F 
ATOM     72  C   UNL A   1      43.408  25.204  25.509  1.00  0.00     0.200 A 
ATOM     73  F   UNL A   1      44.730  27.047  24.852  1.00  0.00    -0.200 F 
ATOM     74  F   UNL A   1      43.848  24.496  24.460  1.00  0.00    -0.200 F 
ENDBRANCH  50  64
BRANCH  51  75
ATOM     75  C   UNL A   1      39.232  32.109  35.467  1.00  0.00     0.064 A 
ATOM     76  C   UNL A   1      38.438  31.544  36.473  1.00  0.00     0.173 A 
ATOM     77  C   UNL A   1      39.571  33.465  35.587  1.00  0.00     0.173 A 
ATOM     78  F   UNL A   1      38.067  30.258  36.390  1.00  0.00    -0.203 F 
ATOM     79  C   UNL A   1      37.998  32.304  37.555  1.00  0.00     0.198 A 
ATOM     80  C   UNL A   1      39.152  34.218  36.682  1.00  0.00     0.198 A 
ATOM     81  F   UNL A   1      40.326  34.054  34.648  1.00  0.00    -0.203 F 
ATOM     82  F   UNL A   1      37.215  31.747  38.488  1.00  0.00    -0.200 F 
ATOM     83  C   UNL A   1      38.362  33.638  37.663  1.00  0.00     0.200 A 
ATOM     84  F   UNL A   1      39.516  35.503  36.787  1.00  0.00    -0.200 F 
ATOM     85  F   UNL A   1      37.949  34.365  38.709  1.00  0.00    -0.200 F 
ENDBRANCH  51  75
BRANCH  63  86
ATOM     86  C   UNL A   1      44.712  27.910  34.510  1.00  0.00     0.064 A 
ATOM     87  C   UNL A   1      45.846  28.716  34.678  1.00  0.00     0.173 A 
ATOM     88  C   UNL A   1      44.639  26.714  35.240  1.00  0.00     0.173 A 
ATOM     89  F   UNL A   1      45.970  29.860  33.988  1.00  0.00    -0.203 F 
ATOM     90  C   UNL A   1      46.877  28.329  35.531  1.00  0.00     0.198 A 
ATOM     91  C   UNL A   1      45.659  26.344  36.113  1.00  0.00     0.198 A 
ATOM     92  F   UNL A   1      43.572  25.910  35.118  1.00  0.00    -0.203 F 
ATOM     93  F   UNL A   1      47.973  29.094  35.645  1.00  0.00    -0.200 F 
ATOM     94  C   UNL A   1      46.779  27.148  36.252  1.00  0.00     0.200 A 
ATOM     95  F   UNL A   1      45.558  25.208  36.817  1.00  0.00    -0.200 F 
ATOM     96  F   UNL A   1      47.770  26.782  37.077  1.00  0.00    -0.200 F 
ENDBRANCH  63  86
ENDBRANCH  37  38
ENDBRANCH  30  32
ENDBRANCH  29  30
ENDBRANCH  28  29
ENDBRANCH  27  28
ENDBRANCH   1  27
TORSDOF 17
ENDMDL
MODEL 3
REMARK VINA RESULT:     -12.2      0.907      2.080
REMARK SMILES CCc1ccc(N2C(=O)C[C@@H](SC[C@@H](NC(C)=O)C(=O)OCCOC(=O)c3ccc(-c4c5nc(c(-c6c(F)c(F)c(F)c(F)c6F)c6ccc([nH]6)c(-c6c(F)c(F)c(F)c(F)c6F)c6nc(c(-c7c(F)c(F)c(F)c(F)c7F)c7ccc4[nH]7)C=C6)C=C5)cc3)C2=O)cc1
REMARK SMILES IDX 21 1 19 2 20 3 14 4 13 5 12 6 11 7 7 8 8 9 90 10 9 11 10 12
REMARK SMILES IDX 91 13 6 14 3 15 4 16 93 17 5 18 92 19 2 20 1 21 15 22 16 23
REMARK SMILES IDX 17 25 18 26 22 27 23 28 24 29 25 30 26 31 27 32 28 33 89 34
REMARK SMILES IDX 29 35 88 36 30 37 31 38 32 39 82 40 33 41 87 42 81 43 83 44
REMARK SMILES IDX 34 45 86 46 80 47 79 48 35 50 67 51 47 52 66 53 48 54 51 55
REMARK SMILES IDX 65 56 84 57 49 58 50 59 64 61 85 62 52 63 36 64 37 65 45 66
REMARK SMILES IDX 38 67 39 68 43 69 46 70 40 71 41 72 44 73 42 74 68 75 69 76
REMARK SMILES IDX 77 77 70 78 71 79 75 80 78 81 72 82 73 83 76 84 74 85 53 86
REMARK SMILES IDX 54 87 62 88 55 89 56 90 60 91 63 92 57 93 58 94 61 95 59 96
REMARK H PARENT 15 24 83 49 51 60
REMARK Flexibility Score: inf
ROOT
ATOM      1  O   UNL A   1      31.449  29.119  24.583  1.00  0.00    -0.461 OA
ENDROOT
BRANCH   1   2
ATOM      2  C   UNL A   1      31.896  28.440  23.493  1.00  0.00     0.329 C 
ATOM      3  O   UNL A   1      33.057  28.418  23.099  1.00  0.00    -0.250 OA
BRANCH   2   4
ATOM      4  C   UNL A   1      30.747  27.723  22.752  1.00  0.00     0.202 C 
BRANCH   4   5
ATOM      5  C   UNL A   1      30.857  26.191  22.843  1.00  0.00     0.107 C 
BRANCH   5   6
ATOM      6  S   UNL A   1      30.553  25.428  24.486  1.00  0.00    -0.145 SA
BRANCH   6   7
ATOM      7  C   UNL A   1      32.114  24.572  24.897  1.00  0.00     0.146 C 
ATOM      8  N   UNL A   1      32.872  22.477  24.147  1.00  0.00    -0.250 N 
ATOM      9  C   UNL A   1      33.662  23.398  23.514  1.00  0.00     0.235 C 
ATOM     10  C   UNL A   1      31.904  23.063  24.931  1.00  0.00     0.247 C 
ATOM     11  O   UNL A   1      34.539  23.225  22.678  1.00  0.00    -0.274 OA
ATOM     12  C   UNL A   1      33.293  24.753  23.974  1.00  0.00     0.125 C 
ATOM     13  O   UNL A   1      31.066  22.503  25.627  1.00  0.00    -0.273 OA
BRANCH   8  14
ATOM     14  C   UNL A   1      33.078  21.091  23.990  1.00  0.00     0.052 A 
ATOM     15  C   UNL A   1      33.287  18.287  23.725  1.00  0.00    -0.048 A 
ATOM     16  C   UNL A   1      34.129  18.998  24.599  1.00  0.00     0.006 A 
ATOM     17  C   UNL A   1      32.358  19.003  22.972  1.00  0.00     0.006 A 
ATOM     18  C   UNL A   1      34.046  20.393  24.712  1.00  0.00     0.027 A 
ATOM     19  C   UNL A   1      32.256  20.381  23.105  1.00  0.00     0.027 A 
BRANCH  15  20
ATOM     20  C   UNL A   1      33.355  16.780  23.683  1.00  0.00     0.032 C 
ATOM     21  C   UNL A   1      33.742  16.104  24.995  1.00  0.00     0.009 C 
ENDBRANCH  15  20
ENDBRANCH   8  14
ENDBRANCH   6   7
ENDBRANCH   5   6
ENDBRANCH   4   5
BRANCH   4  22
ATOM     22  N   UNL A   1      29.471  28.349  23.103  1.00  0.00    -0.342 N 
ATOM     23  C   UNL A   1      28.937  29.380  22.363  1.00  0.00     0.217 C 
ATOM     24  H   UNL A   1      28.979  28.022  23.891  1.00  0.00     0.164 HD
ATOM     25  C   UNL A   1      27.584  29.844  22.833  1.00  0.00     0.114 C 
ATOM     26  O   UNL A   1      29.510  29.880  21.404  1.00  0.00    -0.275 OA
ENDBRANCH   4  22
ENDBRANCH   2   4
ENDBRANCH   1   2
BRANCH   1  27
ATOM     27  C   UNL A   1      31.808  28.604  25.875  1.00  0.00     0.274 C 
BRANCH  27  28
ATOM     28  C   UNL A   1      32.130  29.745  26.843  1.00  0.00     0.275 C 
BRANCH  28  29
ATOM     29  O   UNL A   1      33.246  30.527  26.380  1.00  0.00    -0.458 OA
BRANCH  29  30
ATOM     30  C   UNL A   1      33.591  31.562  27.182  1.00  0.00     0.338 C 
ATOM     31  O   UNL A   1      32.923  32.541  27.460  1.00  0.00    -0.246 OA
BRANCH  30  32
ATOM     32  C   UNL A   1      34.856  31.248  27.862  1.00  0.00     0.060 A 
ATOM     33  C   UNL A   1      35.005  29.963  28.392  1.00  0.00     0.016 A 
ATOM     34  C   UNL A   1      35.857  32.203  28.024  1.00  0.00     0.016 A 
ATOM     35  C   UNL A   1      36.170  29.608  29.058  1.00  0.00     0.010 A 
ATOM     36  C   UNL A   1      37.020  31.857  28.718  1.00  0.00     0.010 A 
ATOM     37  C   UNL A   1      37.179  30.558  29.235  1.00  0.00    -0.014 A 
BRANCH  37  38
ATOM     38  C   UNL A   1      38.370  30.213  30.039  1.00  0.00     0.031 A 
ATOM     39  C   UNL A   1      39.415  29.316  29.451  1.00  0.00     0.074 A 
ATOM     40  C   UNL A   1      38.522  30.727  31.272  1.00  0.00     0.049 A 
ATOM     41  N   UNL A   1      40.474  28.796  30.014  1.00  0.00    -0.248 NA
ATOM     42  C   UNL A   1      39.241  28.959  28.036  1.00  0.00     0.031 C 
ATOM     43  C   UNL A   1      37.612  31.680  31.905  1.00  0.00     0.029 A 
ATOM     44  N   UNL A   1      39.498  30.516  32.209  1.00  0.00    -0.354 N 
ATOM     45  C   UNL A   1      41.082  28.030  29.029  1.00  0.00     0.074 A 
ATOM     46  C   UNL A   1      40.267  28.145  27.837  1.00  0.00     0.031 C 
ATOM     47  C   UNL A   1      38.074  31.972  33.132  1.00  0.00     0.029 A 
ATOM     48  C   UNL A   1      39.278  31.186  33.387  1.00  0.00     0.049 A 
ATOM     49  H   UNL A   1      40.282  29.941  32.054  1.00  0.00     0.167 HD
ATOM     50  C   UNL A   1      42.219  27.298  29.116  1.00  0.00     0.037 A 
ATOM     51  C   UNL A   1      39.957  31.138  34.548  1.00  0.00     0.037 A 
ATOM     52  C   UNL A   1      43.019  27.196  30.308  1.00  0.00     0.049 A 
ATOM     53  C   UNL A   1      41.153  30.231  34.656  1.00  0.00     0.074 A 
ATOM     54  C   UNL A   1      44.184  26.479  30.511  1.00  0.00     0.029 A 
ATOM     55  N   UNL A   1      42.726  27.831  31.508  1.00  0.00    -0.354 N 
ATOM     56  N   UNL A   1      41.711  29.483  33.735  1.00  0.00    -0.248 NA
ATOM     57  C   UNL A   1      41.803  30.149  35.970  1.00  0.00     0.031 C 
ATOM     58  C   UNL A   1      44.571  26.643  31.846  1.00  0.00     0.029 A 
ATOM     59  C   UNL A   1      43.675  27.502  32.463  1.00  0.00     0.049 A 
ATOM     60  H   UNL A   1      41.958  28.428  31.658  1.00  0.00     0.167 HD
ATOM     61  C   UNL A   1      42.787  28.858  34.348  1.00  0.00     0.074 A 
ATOM     62  C   UNL A   1      42.811  29.325  35.721  1.00  0.00     0.031 C 
ATOM     63  C   UNL A   1      43.677  27.980  33.824  1.00  0.00     0.037 A 
BRANCH  50  64
ATOM     64  C   UNL A   1      42.622  26.516  27.901  1.00  0.00     0.064 A 
ATOM     65  C   UNL A   1      43.516  27.031  26.950  1.00  0.00     0.173 A 
ATOM     66  C   UNL A   1      42.092  25.237  27.677  1.00  0.00     0.173 A 
ATOM     67  F   UNL A   1      44.036  28.257  27.107  1.00  0.00    -0.203 F 
ATOM     68  C   UNL A   1      43.833  26.310  25.801  1.00  0.00     0.198 A 
ATOM     69  C   UNL A   1      42.435  24.506  26.543  1.00  0.00     0.198 A 
ATOM     70  F   UNL A   1      41.235  24.697  28.557  1.00  0.00    -0.203 F 
ATOM     71  F   UNL A   1      44.639  26.847  24.876  1.00  0.00    -0.200 F 
ATOM     72  C   UNL A   1      43.295  25.047  25.600  1.00  0.00     0.200 A 
ATOM     73  F   UNL A   1      41.920  23.282  26.356  1.00  0.00    -0.200 F 
ATOM     74  F   UNL A   1      43.596  24.357  24.492  1.00  0.00    -0.200 F 
ENDBRANCH  50  64
BRANCH  51  75
ATOM     75  C   UNL A   1      39.509  31.958  35.701  1.00  0.00     0.064 A 
ATOM     76  C   UNL A   1      40.064  33.222  35.939  1.00  0.00     0.173 A 
ATOM     77  C   UNL A   1      38.510  31.507  36.576  1.00  0.00     0.173 A 
ATOM     78  F   UNL A   1      41.039  33.685  35.144  1.00  0.00    -0.203 F 
ATOM     79  C   UNL A   1      39.639  34.004  37.012  1.00  0.00     0.198 A 
ATOM     80  C   UNL A   1      38.068  32.300  37.634  1.00  0.00     0.198 A 
ATOM     81  F   UNL A   1      37.950  30.302  36.394  1.00  0.00    -0.203 F 
ATOM     82  F   UNL A   1      40.206  35.197  37.234  1.00  0.00    -0.200 F 
ATOM     83  C   UNL A   1      38.636  33.546  37.853  1.00  0.00     0.200 A 
ATOM     84  F   UNL A   1      37.091  31.858  38.437  1.00  0.00    -0.200 F 
ATOM     85  F   UNL A   1      38.220  34.303  38.877  1.00  0.00    -0.200 F 
ENDBRANCH  51  75
BRANCH  63  86
ATOM     86  C   UNL A   1      44.770  27.491  34.729  1.00  0.00     0.064 A 
ATOM     87  C   UNL A   1      45.975  28.193  34.872  1.00  0.00     0.173 A 
ATOM     88  C   UNL A   1      44.591  26.327  35.491  1.00  0.00     0.173 A 
ATOM     89  F   UNL A   1      46.200  29.302  34.151  1.00  0.00    -0.203 F 
ATOM     90  C   UNL A   1      46.971  27.735  35.731  1.00  0.00     0.198 A 
ATOM     91  C   UNL A   1      45.577  25.887  36.369  1.00  0.00     0.198 A 
ATOM     92  F   UNL A   1      43.454  25.622  35.393  1.00  0.00    -0.203 F 
ATOM     93  F   UNL A   1      48.133  28.397  35.821  1.00  0.00    -0.200 F 
ATOM     94  C   UNL A   1      46.768  26.587  36.484  1.00  0.00     0.200 A 
ATOM     95  F   UNL A   1      45.376  24.784  37.104  1.00  0.00    -0.200 F 
ATOM     96  F   UNL A   1      47.725  26.152  37.315  1.00  0.00    -0.200 F 
ENDBRANCH  63  86
ENDBRANCH  37  38
ENDBRANCH  30  32
ENDBRANCH  29  30
ENDBRANCH  28  29
ENDBRANCH  27  28
ENDBRANCH   1  27
TORSDOF 17
ENDMDL
