MODEL 1
REMARK VINA RESULT:     -10.7      0.000      0.000
REMARK SMILES CC[C@@H](COC)NC(=O)NC[C@@H]1CC[C@H](C(=O)OCCOC(=O)c2ccc(-c3c4nc(c(-c5c(F)c(F)c(F)c(F)c5F)c5ccc([nH]5)c(-c5c(F)c(F)c(F)c(F)c5F)c5nc(c(-c6c(F)c(F)c(F)c(F)c6F)c6ccc3[nH]6)C=C5)C=C4)cc2)O1
REMARK SMILES IDX 18 1 16 2 17 3 15 4 12 5 13 6 87 7 14 8 11 9 10 10 7 11 8 12
REMARK SMILES IDX 9 14 3 16 2 17 1 18 4 19 5 20 6 21 19 22 20 23 21 24 22 25
REMARK SMILES IDX 23 26 24 27 25 28 86 29 26 30 85 31 27 32 28 33 29 34 79 35
REMARK SMILES IDX 30 36 84 37 78 38 80 39 31 40 83 41 77 42 76 43 32 45 64 46
REMARK SMILES IDX 44 47 63 48 45 49 48 50 62 51 81 52 46 53 47 54 61 56 82 57
REMARK SMILES IDX 49 58 33 59 34 60 42 61 35 62 36 63 40 64 43 65 37 66 38 67
REMARK SMILES IDX 41 68 39 69 65 70 66 71 74 72 67 73 68 74 72 75 75 76 69 77
REMARK SMILES IDX 70 78 73 79 71 80 50 81 51 82 59 83 52 84 53 85 57 86 60 87
REMARK SMILES IDX 54 88 55 89 58 90 56 91
REMARK H PARENT 7 13 10 15 80 44 48 55
REMARK Flexibility Score: inf
ROOT
ATOM      1  O   UNL A   1      37.954  21.278  24.635  1.00  0.00    -0.460 OA
ENDROOT
BRANCH   1   2
ATOM      2  C   UNL A   1      36.818  22.000  24.435  1.00  0.00     0.335 C 
ATOM      3  O   UNL A   1      36.469  22.447  23.347  1.00  0.00    -0.249 OA
BRANCH   2   4
ATOM      4  C   UNL A   1      36.018  22.243  25.722  1.00  0.00     0.228 C 
ATOM      5  C   UNL A   1      33.757  22.684  26.092  1.00  0.00     0.138 C 
ATOM      6  C   UNL A   1      34.442  24.016  25.851  1.00  0.00     0.037 C 
ATOM      7  O   UNL A   1      34.690  21.701  25.604  1.00  0.00    -0.361 OA
ATOM      8  C   UNL A   1      35.876  23.686  26.193  1.00  0.00     0.047 C 
BRANCH   5   9
ATOM      9  C   UNL A   1      32.355  22.490  25.484  1.00  0.00     0.149 C 
BRANCH   9  10
ATOM     10  N   UNL A   1      31.262  22.475  26.443  1.00  0.00    -0.336 N 
ATOM     11  N   UNL A   1      30.186  24.577  26.356  1.00  0.00    -0.333 N 
ATOM     12  C   UNL A   1      30.292  23.323  26.796  1.00  0.00     0.315 C 
ATOM     13  H   UNL A   1      29.326  24.990  26.593  1.00  0.00     0.165 HD
ATOM     14  O   UNL A   1      29.441  22.907  27.586  1.00  0.00    -0.249 OA
ATOM     15  H   UNL A   1      31.229  21.636  26.957  1.00  0.00     0.165 HD
BRANCH  11  16
ATOM     16  C   UNL A   1      31.055  25.477  25.602  1.00  0.00     0.109 C 
BRANCH  16  17
ATOM     17  C   UNL A   1      30.564  25.584  24.157  1.00  0.00     0.024 C 
ATOM     18  C   UNL A   1      29.200  26.249  24.045  1.00  0.00     0.006 C 
ENDBRANCH  16  17
BRANCH  16  19
ATOM     19  C   UNL A   1      31.149  26.821  26.346  1.00  0.00     0.184 C 
BRANCH  19  20
ATOM     20  O   UNL A   1      32.131  27.708  25.806  1.00  0.00    -0.383 OA
ATOM     21  C   UNL A   1      31.597  28.945  25.355  1.00  0.00     0.194 C 
ENDBRANCH  19  20
ENDBRANCH  16  19
ENDBRANCH  11  16
ENDBRANCH   9  10
ENDBRANCH   5   9
ENDBRANCH   2   4
ENDBRANCH   1   2
BRANCH   1  22
ATOM     22  C   UNL A   1      37.798  19.891  25.003  1.00  0.00     0.274 C 
BRANCH  22  23
ATOM     23  C   UNL A   1      39.055  19.346  25.681  1.00  0.00     0.275 C 
BRANCH  23  24
ATOM     24  O   UNL A   1      40.037  20.382  25.848  1.00  0.00    -0.458 OA
BRANCH  24  25
ATOM     25  C   UNL A   1      40.533  20.493  27.098  1.00  0.00     0.338 C 
ATOM     26  O   UNL A   1      40.821  19.592  27.875  1.00  0.00    -0.246 OA
BRANCH  25  27
ATOM     27  C   UNL A   1      40.861  21.895  27.362  1.00  0.00     0.060 A 
ATOM     28  C   UNL A   1      40.275  22.865  26.542  1.00  0.00     0.016 A 
ATOM     29  C   UNL A   1      41.769  22.249  28.359  1.00  0.00     0.016 A 
ATOM     30  C   UNL A   1      40.598  24.204  26.713  1.00  0.00     0.010 A 
ATOM     31  C   UNL A   1      42.103  23.593  28.523  1.00  0.00     0.010 A 
ATOM     32  C   UNL A   1      41.528  24.571  27.691  1.00  0.00    -0.014 A 
BRANCH  32  33
ATOM     33  C   UNL A   1      41.967  25.977  27.792  1.00  0.00     0.031 A 
ATOM     34  C   UNL A   1      43.287  26.369  27.203  1.00  0.00     0.074 A 
ATOM     35  C   UNL A   1      41.183  26.877  28.409  1.00  0.00     0.049 A 
ATOM     36  N   UNL A   1      43.930  27.504  27.294  1.00  0.00    -0.248 NA
ATOM     37  C   UNL A   1      43.983  25.344  26.407  1.00  0.00     0.031 C 
ATOM     38  C   UNL A   1      39.861  26.600  28.971  1.00  0.00     0.029 A 
ATOM     39  N   UNL A   1      41.394  28.204  28.680  1.00  0.00    -0.354 N 
ATOM     40  C   UNL A   1      45.116  27.320  26.597  1.00  0.00     0.074 A 
ATOM     41  C   UNL A   1      45.108  25.966  26.087  1.00  0.00     0.031 C 
ATOM     42  C   UNL A   1      39.385  27.721  29.537  1.00  0.00     0.029 A 
ATOM     43  C   UNL A   1      40.388  28.776  29.420  1.00  0.00     0.049 A 
ATOM     44  H   UNL A   1      42.190  28.698  28.376  1.00  0.00     0.167 HD
ATOM     45  C   UNL A   1      46.118  28.209  26.408  1.00  0.00     0.037 A 
ATOM     46  C   UNL A   1      40.313  30.001  29.972  1.00  0.00     0.037 A 
ATOM     47  C   UNL A   1      46.095  29.561  26.900  1.00  0.00     0.049 A 
ATOM     48  C   UNL A   1      41.462  30.952  29.779  1.00  0.00     0.074 A 
ATOM     49  C   UNL A   1      47.041  30.556  26.736  1.00  0.00     0.029 A 
ATOM     50  N   UNL A   1      45.064  30.104  27.654  1.00  0.00    -0.354 N 
ATOM     51  N   UNL A   1      42.581  30.776  29.118  1.00  0.00    -0.248 NA
ATOM     52  C   UNL A   1      41.345  32.270  30.418  1.00  0.00     0.031 C 
ATOM     53  C   UNL A   1      46.599  31.692  27.424  1.00  0.00     0.029 A 
ATOM     54  C   UNL A   1      45.361  31.415  27.982  1.00  0.00     0.049 A 
ATOM     55  H   UNL A   1      44.244  29.627  27.915  1.00  0.00     0.167 HD
ATOM     56  C   UNL A   1      43.292  31.961  29.247  1.00  0.00     0.074 A 
ATOM     57  C   UNL A   1      42.468  32.857  30.033  1.00  0.00     0.031 C 
ATOM     58  C   UNL A   1      44.518  32.281  28.763  1.00  0.00     0.037 A 
BRANCH  45  59
ATOM     59  C   UNL A   1      47.336  27.744  25.670  1.00  0.00     0.064 A 
ATOM     60  C   UNL A   1      47.399  27.754  24.269  1.00  0.00     0.173 A 
ATOM     61  C   UNL A   1      48.476  27.335  26.377  1.00  0.00     0.173 A 
ATOM     62  F   UNL A   1      46.329  28.120  23.547  1.00  0.00    -0.203 F 
ATOM     63  C   UNL A   1      48.558  27.361  23.604  1.00  0.00     0.198 A 
ATOM     64  C   UNL A   1      49.640  26.964  25.709  1.00  0.00     0.198 A 
ATOM     65  F   UNL A   1      48.465  27.308  27.719  1.00  0.00    -0.203 F 
ATOM     66  F   UNL A   1      48.588  27.349  22.263  1.00  0.00    -0.200 F 
ATOM     67  C   UNL A   1      49.679  26.974  24.324  1.00  0.00     0.200 A 
ATOM     68  F   UNL A   1      50.723  26.598  26.407  1.00  0.00    -0.200 F 
ATOM     69  F   UNL A   1      50.797  26.609  23.681  1.00  0.00    -0.200 F 
ENDBRANCH  45  59
BRANCH  46  70
ATOM     70  C   UNL A   1      39.131  30.380  30.788  1.00  0.00     0.064 A 
ATOM     71  C   UNL A   1      38.037  31.042  30.215  1.00  0.00     0.173 A 
ATOM     72  C   UNL A   1      39.082  30.108  32.164  1.00  0.00     0.173 A 
ATOM     73  F   UNL A   1      38.049  31.346  28.909  1.00  0.00    -0.203 F 
ATOM     74  C   UNL A   1      36.947  31.433  30.990  1.00  0.00     0.198 A 
ATOM     75  C   UNL A   1      37.979  30.474  32.932  1.00  0.00     0.198 A 
ATOM     76  F   UNL A   1      40.105  29.479  32.762  1.00  0.00    -0.203 F 
ATOM     77  F   UNL A   1      35.935  32.106  30.426  1.00  0.00    -0.200 F 
ATOM     78  C   UNL A   1      36.917  31.144  32.345  1.00  0.00     0.200 A 
ATOM     79  F   UNL A   1      37.950  30.183  34.239  1.00  0.00    -0.200 F 
ATOM     80  F   UNL A   1      35.868  31.521  33.090  1.00  0.00    -0.200 F 
ENDBRANCH  46  70
BRANCH  58  81
ATOM     81  C   UNL A   1      45.023  33.660  29.056  1.00  0.00     0.064 A 
ATOM     82  C   UNL A   1      45.823  33.922  30.176  1.00  0.00     0.173 A 
ATOM     83  C   UNL A   1      44.736  34.722  28.185  1.00  0.00     0.173 A 
ATOM     84  F   UNL A   1      46.110  32.940  31.045  1.00  0.00    -0.203 F 
ATOM     85  C   UNL A   1      46.301  35.205  30.428  1.00  0.00     0.198 A 
ATOM     86  C   UNL A   1      45.236  35.998  28.425  1.00  0.00     0.198 A 
ATOM     87  F   UNL A   1      43.979  34.518  27.096  1.00  0.00    -0.203 F 
ATOM     88  F   UNL A   1      47.028  35.444  31.527  1.00  0.00    -0.200 F 
ATOM     89  C   UNL A   1      46.013  36.239  29.549  1.00  0.00     0.200 A 
ATOM     90  F   UNL A   1      44.966  36.993  27.571  1.00  0.00    -0.200 F 
ATOM     91  F   UNL A   1      46.477  37.472  29.790  1.00  0.00    -0.200 F 
ENDBRANCH  58  81
ENDBRANCH  32  33
ENDBRANCH  25  27
ENDBRANCH  24  25
ENDBRANCH  23  24
ENDBRANCH  22  23
ENDBRANCH   1  22
TORSDOF 17
ENDMDL
MODEL 2
REMARK VINA RESULT:     -10.5      1.569      7.800
REMARK SMILES CC[C@@H](COC)NC(=O)NC[C@@H]1CC[C@H](C(=O)OCCOC(=O)c2ccc(-c3c4nc(c(-c5c(F)c(F)c(F)c(F)c5F)c5ccc([nH]5)c(-c5c(F)c(F)c(F)c(F)c5F)c5nc(c(-c6c(F)c(F)c(F)c(F)c6F)c6ccc3[nH]6)C=C5)C=C4)cc2)O1
REMARK SMILES IDX 18 1 16 2 17 3 15 4 12 5 13 6 87 7 14 8 11 9 10 10 7 11 8 12
REMARK SMILES IDX 9 14 3 16 2 17 1 18 4 19 5 20 6 21 19 22 20 23 21 24 22 25
REMARK SMILES IDX 23 26 24 27 25 28 86 29 26 30 85 31 27 32 28 33 29 34 79 35
REMARK SMILES IDX 30 36 84 37 78 38 80 39 31 40 83 41 77 42 76 43 32 45 64 46
REMARK SMILES IDX 44 47 63 48 45 49 48 50 62 51 81 52 46 53 47 54 61 56 82 57
REMARK SMILES IDX 49 58 33 59 34 60 42 61 35 62 36 63 40 64 43 65 37 66 38 67
REMARK SMILES IDX 41 68 39 69 65 70 66 71 74 72 67 73 68 74 72 75 75 76 69 77
REMARK SMILES IDX 70 78 73 79 71 80 50 81 51 82 59 83 52 84 53 85 57 86 60 87
REMARK SMILES IDX 54 88 55 89 58 90 56 91
REMARK H PARENT 7 13 10 15 80 44 48 55
REMARK Flexibility Score: inf
ROOT
ATOM      1  O   UNL A   1      34.859  21.237  24.606  1.00  0.00    -0.460 OA
ENDROOT
BRANCH   1   2
ATOM      2  C   UNL A   1      33.649  21.156  25.224  1.00  0.00     0.335 C 
ATOM      3  O   UNL A   1      33.027  20.110  25.386  1.00  0.00    -0.249 OA
BRANCH   2   4
ATOM      4  C   UNL A   1      33.103  22.519  25.672  1.00  0.00     0.228 C 
ATOM      5  C   UNL A   1      32.016  24.222  24.505  1.00  0.00     0.138 C 
ATOM      6  C   UNL A   1      33.508  24.470  24.379  1.00  0.00     0.037 C 
ATOM      7  O   UNL A   1      31.910  22.852  24.938  1.00  0.00    -0.361 OA
ATOM      8  C   UNL A   1      34.043  23.714  25.572  1.00  0.00     0.047 C 
BRANCH   5   9
ATOM      9  C   UNL A   1      31.147  24.496  23.263  1.00  0.00     0.149 C 
BRANCH   9  10
ATOM     10  N   UNL A   1      31.884  24.755  22.038  1.00  0.00    -0.336 N 
ATOM     11  N   UNL A   1      32.293  27.079  21.909  1.00  0.00    -0.333 N 
ATOM     12  C   UNL A   1      32.432  25.830  21.464  1.00  0.00     0.315 C 
ATOM     13  H   UNL A   1      32.897  27.712  21.459  1.00  0.00     0.165 HD
ATOM     14  O   UNL A   1      33.110  25.643  20.451  1.00  0.00    -0.249 OA
ATOM     15  H   UNL A   1      32.012  23.940  21.500  1.00  0.00     0.165 HD
BRANCH  11  16
ATOM     16  C   UNL A   1      31.449  27.723  22.913  1.00  0.00     0.109 C 
BRANCH  16  17
ATOM     17  C   UNL A   1      32.255  27.966  24.191  1.00  0.00     0.024 C 
ATOM     18  C   UNL A   1      33.720  28.273  23.915  1.00  0.00     0.006 C 
ENDBRANCH  16  17
BRANCH  16  19
ATOM     19  C   UNL A   1      30.823  28.989  22.302  1.00  0.00     0.184 C 
BRANCH  19  20
ATOM     20  O   UNL A   1      29.432  28.851  22.001  1.00  0.00    -0.383 OA
ATOM     21  C   UNL A   1      28.589  29.655  22.815  1.00  0.00     0.194 C 
ENDBRANCH  19  20
ENDBRANCH  16  19
ENDBRANCH  11  16
ENDBRANCH   9  10
ENDBRANCH   5   9
ENDBRANCH   2   4
ENDBRANCH   1   2
BRANCH   1  22
ATOM     22  C   UNL A   1      35.899  20.352  25.076  1.00  0.00     0.274 C 
BRANCH  22  23
ATOM     23  C   UNL A   1      37.282  20.828  24.634  1.00  0.00     0.275 C 
BRANCH  23  24
ATOM     24  O   UNL A   1      37.811  21.793  25.558  1.00  0.00    -0.458 OA
BRANCH  24  25
ATOM     25  C   UNL A   1      38.989  21.449  26.120  1.00  0.00     0.338 C 
ATOM     26  O   UNL A   1      39.543  20.358  26.094  1.00  0.00    -0.246 OA
BRANCH  25  27
ATOM     27  C   UNL A   1      39.639  22.651  26.646  1.00  0.00     0.060 A 
ATOM     28  C   UNL A   1      39.214  23.888  26.154  1.00  0.00     0.016 A 
ATOM     29  C   UNL A   1      40.684  22.562  27.565  1.00  0.00     0.016 A 
ATOM     30  C   UNL A   1      39.837  25.054  26.577  1.00  0.00     0.010 A 
ATOM     31  C   UNL A   1      41.319  23.732  27.981  1.00  0.00     0.010 A 
ATOM     32  C   UNL A   1      40.905  24.979  27.477  1.00  0.00    -0.014 A 
BRANCH  32  33
ATOM     33  C   UNL A   1      41.650  26.203  27.832  1.00  0.00     0.031 A 
ATOM     34  C   UNL A   1      40.964  27.262  28.638  1.00  0.00     0.074 A 
ATOM     35  C   UNL A   1      42.924  26.348  27.427  1.00  0.00     0.049 A 
ATOM     36  N   UNL A   1      41.375  28.465  28.944  1.00  0.00    -0.248 NA
ATOM     37  C   UNL A   1      39.631  26.927  29.167  1.00  0.00     0.031 C 
ATOM     38  C   UNL A   1      43.691  25.351  26.681  1.00  0.00     0.029 A 
ATOM     39  N   UNL A   1      43.790  27.400  27.575  1.00  0.00    -0.354 N 
ATOM     40  C   UNL A   1      40.342  29.040  29.672  1.00  0.00     0.074 A 
ATOM     41  C   UNL A   1      39.284  28.057  29.765  1.00  0.00     0.031 C 
ATOM     42  C   UNL A   1      44.911  25.847  26.419  1.00  0.00     0.029 A 
ATOM     43  C   UNL A   1      44.990  27.211  26.936  1.00  0.00     0.049 A 
ATOM     44  H   UNL A   1      43.571  28.212  28.086  1.00  0.00     0.167 HD
ATOM     45  C   UNL A   1      40.291  30.281  30.209  1.00  0.00     0.037 A 
ATOM     46  C   UNL A   1      46.016  28.063  26.758  1.00  0.00     0.037 A 
ATOM     47  C   UNL A   1      41.365  31.234  30.130  1.00  0.00     0.049 A 
ATOM     48  C   UNL A   1      45.912  29.450  27.332  1.00  0.00     0.074 A 
ATOM     49  C   UNL A   1      41.432  32.506  30.668  1.00  0.00     0.029 A 
ATOM     50  N   UNL A   1      42.564  31.012  29.467  1.00  0.00    -0.354 N 
ATOM     51  N   UNL A   1      44.936  29.990  28.021  1.00  0.00    -0.248 NA
ATOM     52  C   UNL A   1      47.047  30.352  27.094  1.00  0.00     0.031 C 
ATOM     53  C   UNL A   1      42.659  33.069  30.299  1.00  0.00     0.029 A 
ATOM     54  C   UNL A   1      43.370  32.133  29.565  1.00  0.00     0.049 A 
ATOM     55  H   UNL A   1      42.805  30.181  28.999  1.00  0.00     0.167 HD
ATOM     56  C   UNL A   1      45.342  31.284  28.313  1.00  0.00     0.074 A 
ATOM     57  C   UNL A   1      46.664  31.442  27.742  1.00  0.00     0.031 C 
ATOM     58  C   UNL A   1      44.683  32.257  28.988  1.00  0.00     0.037 A 
BRANCH  45  59
ATOM     59  C   UNL A   1      39.026  30.693  30.898  1.00  0.00     0.064 A 
ATOM     60  C   UNL A   1      38.861  30.553  32.284  1.00  0.00     0.173 A 
ATOM     61  C   UNL A   1      37.986  31.287  30.168  1.00  0.00     0.173 A 
ATOM     62  F   UNL A   1      39.819  29.975  33.024  1.00  0.00    -0.203 F 
ATOM     63  C   UNL A   1      37.694  30.986  32.911  1.00  0.00     0.198 A 
ATOM     64  C   UNL A   1      36.831  31.738  30.801  1.00  0.00     0.198 A 
ATOM     65  F   UNL A   1      38.097  31.442  28.840  1.00  0.00    -0.203 F 
ATOM     66  F   UNL A   1      37.544  30.817  34.233  1.00  0.00    -0.200 F 
ATOM     67  C   UNL A   1      36.685  31.584  32.171  1.00  0.00     0.200 A 
ATOM     68  F   UNL A   1      35.862  32.322  30.085  1.00  0.00    -0.200 F 
ATOM     69  F   UNL A   1      35.569  32.011  32.778  1.00  0.00    -0.200 F 
ENDBRANCH  45  59
BRANCH  46  70
ATOM     70  C   UNL A   1      47.207  27.645  25.974  1.00  0.00     0.064 A 
ATOM     71  C   UNL A   1      48.370  27.191  26.609  1.00  0.00     0.173 A 
ATOM     72  C   UNL A   1      47.212  27.712  24.572  1.00  0.00     0.173 A 
ATOM     73  F   UNL A   1      48.422  27.133  27.948  1.00  0.00    -0.203 F 
ATOM     74  C   UNL A   1      49.499  26.838  25.873  1.00  0.00     0.198 A 
ATOM     75  C   UNL A   1      48.332  27.331  23.837  1.00  0.00     0.198 A 
ATOM     76  F   UNL A   1      46.124  28.143  23.915  1.00  0.00    -0.203 F 
ATOM     77  F   UNL A   1      50.615  26.452  26.507  1.00  0.00    -0.200 F 
ATOM     78  C   UNL A   1      49.477  26.902  24.489  1.00  0.00     0.200 A 
ATOM     79  F   UNL A   1      48.302  27.386  22.499  1.00  0.00    -0.200 F 
ATOM     80  F   UNL A   1      50.564  26.563  23.781  1.00  0.00    -0.200 F 
ENDBRANCH  46  70
BRANCH  58  81
ATOM     81  C   UNL A   1      45.393  33.565  29.159  1.00  0.00     0.064 A 
ATOM     82  C   UNL A   1      46.248  33.794  30.247  1.00  0.00     0.173 A 
ATOM     83  C   UNL A   1      45.247  34.584  28.207  1.00  0.00     0.173 A 
ATOM     84  F   UNL A   1      46.406  32.853  31.190  1.00  0.00    -0.203 F 
ATOM     85  C   UNL A   1      46.915  35.007  30.386  1.00  0.00     0.198 A 
ATOM     86  C   UNL A   1      45.935  35.786  28.336  1.00  0.00     0.198 A 
ATOM     87  F   UNL A   1      44.443  34.408  27.147  1.00  0.00    -0.203 F 
ATOM     88  F   UNL A   1      47.695  35.222  31.455  1.00  0.00    -0.200 F 
ATOM     89  C   UNL A   1      46.764  35.998  29.428  1.00  0.00     0.200 A 
ATOM     90  F   UNL A   1      45.796  36.738  27.404  1.00  0.00    -0.200 F 
ATOM     91  F   UNL A   1      47.411  37.164  29.561  1.00  0.00    -0.200 F 
ENDBRANCH  58  81
ENDBRANCH  32  33
ENDBRANCH  25  27
ENDBRANCH  24  25
ENDBRANCH  23  24
ENDBRANCH  22  23
ENDBRANCH   1  22
TORSDOF 17
ENDMDL
MODEL 3
REMARK VINA RESULT:     -10.5      4.423      7.736
REMARK SMILES CC[C@@H](COC)NC(=O)NC[C@@H]1CC[C@H](C(=O)OCCOC(=O)c2ccc(-c3c4nc(c(-c5c(F)c(F)c(F)c(F)c5F)c5ccc([nH]5)c(-c5c(F)c(F)c(F)c(F)c5F)c5nc(c(-c6c(F)c(F)c(F)c(F)c6F)c6ccc3[nH]6)C=C5)C=C4)cc2)O1
REMARK SMILES IDX 18 1 16 2 17 3 15 4 12 5 13 6 87 7 14 8 11 9 10 10 7 11 8 12
REMARK SMILES IDX 9 14 3 16 2 17 1 18 4 19 5 20 6 21 19 22 20 23 21 24 22 25
REMARK SMILES IDX 23 26 24 27 25 28 86 29 26 30 85 31 27 32 28 33 29 34 79 35
REMARK SMILES IDX 30 36 84 37 78 38 80 39 31 40 83 41 77 42 76 43 32 45 64 46
REMARK SMILES IDX 44 47 63 48 45 49 48 50 62 51 81 52 46 53 47 54 61 56 82 57
REMARK SMILES IDX 49 58 33 59 34 60 42 61 35 62 36 63 40 64 43 65 37 66 38 67
REMARK SMILES IDX 41 68 39 69 65 70 66 71 74 72 67 73 68 74 72 75 75 76 69 77
REMARK SMILES IDX 70 78 73 79 71 80 50 81 51 82 59 83 52 84 53 85 57 86 60 87
REMARK SMILES IDX 54 88 55 89 58 90 56 91
REMARK H PARENT 7 13 10 15 80 44 48 55
REMARK Flexibility Score: inf
ROOT
ATOM      1  O   UNL A   1      30.612  29.377  24.383  1.00  0.00    -0.460 OA
ENDROOT
BRANCH   1   2
ATOM      2  C   UNL A   1      30.598  28.911  23.105  1.00  0.00     0.335 C 
ATOM      3  O   UNL A   1      30.682  29.625  22.110  1.00  0.00    -0.249 OA
BRANCH   2   4
ATOM      4  C   UNL A   1      30.422  27.388  23.015  1.00  0.00     0.228 C 
ATOM      5  C   UNL A   1      31.154  25.650  24.389  1.00  0.00     0.138 C 
ATOM      6  C   UNL A   1      32.261  25.933  23.391  1.00  0.00     0.037 C 
ATOM      7  O   UNL A   1      30.305  26.813  24.329  1.00  0.00    -0.361 OA
ATOM      8  C   UNL A   1      31.499  26.605  22.274  1.00  0.00     0.047 C 
BRANCH   5   9
ATOM      9  C   UNL A   1      31.571  25.324  25.835  1.00  0.00     0.149 C 
BRANCH   9  10
ATOM     10  N   UNL A   1      30.669  24.441  26.555  1.00  0.00    -0.336 N 
ATOM     11  N   UNL A   1      31.577  22.260  26.492  1.00  0.00    -0.333 N 
ATOM     12  C   UNL A   1      30.671  23.150  26.897  1.00  0.00     0.315 C 
ATOM     13  H   UNL A   1      31.512  21.405  26.974  1.00  0.00     0.165 HD
ATOM     14  O   UNL A   1      29.765  22.763  27.640  1.00  0.00    -0.249 OA
ATOM     15  H   UNL A   1      29.859  24.907  26.865  1.00  0.00     0.165 HD
BRANCH  11  16
ATOM     16  C   UNL A   1      32.646  22.265  25.495  1.00  0.00     0.109 C 
BRANCH  16  17
ATOM     17  C   UNL A   1      33.998  22.454  26.185  1.00  0.00     0.024 C 
ATOM     18  C   UNL A   1      35.113  21.652  25.529  1.00  0.00     0.006 C 
ENDBRANCH  16  17
BRANCH  16  19
ATOM     19  C   UNL A   1      32.537  20.991  24.640  1.00  0.00     0.184 C 
BRANCH  19  20
ATOM     20  O   UNL A   1      31.902  19.901  25.313  1.00  0.00    -0.383 OA
ATOM     21  C   UNL A   1      32.721  18.745  25.425  1.00  0.00     0.194 C 
ENDBRANCH  19  20
ENDBRANCH  16  19
ENDBRANCH  11  16
ENDBRANCH   9  10
ENDBRANCH   5   9
ENDBRANCH   2   4
ENDBRANCH   1   2
BRANCH   1  22
ATOM     22  C   UNL A   1      31.876  29.352  25.080  1.00  0.00     0.274 C 
BRANCH  22  23
ATOM     23  C   UNL A   1      31.965  30.467  26.121  1.00  0.00     0.275 C 
BRANCH  23  24
ATOM     24  O   UNL A   1      33.288  31.025  26.164  1.00  0.00    -0.458 OA
BRANCH  24  25
ATOM     25  C   UNL A   1      33.525  31.836  27.216  1.00  0.00     0.338 C 
ATOM     26  O   UNL A   1      32.768  32.656  27.717  1.00  0.00    -0.246 OA
BRANCH  25  27
ATOM     27  C   UNL A   1      34.808  31.473  27.822  1.00  0.00     0.060 A 
ATOM     28  C   UNL A   1      34.965  30.159  28.271  1.00  0.00     0.016 A 
ATOM     29  C   UNL A   1      35.817  32.420  27.998  1.00  0.00     0.016 A 
ATOM     30  C   UNL A   1      36.139  29.780  28.907  1.00  0.00     0.010 A 
ATOM     31  C   UNL A   1      36.992  32.042  28.646  1.00  0.00     0.010 A 
ATOM     32  C   UNL A   1      37.149  30.725  29.114  1.00  0.00    -0.014 A 
BRANCH  32  33
ATOM     33  C   UNL A   1      38.345  30.358  29.898  1.00  0.00     0.031 A 
ATOM     34  C   UNL A   1      39.337  29.405  29.307  1.00  0.00     0.074 A 
ATOM     35  C   UNL A   1      38.523  30.880  31.124  1.00  0.00     0.049 A 
ATOM     36  N   UNL A   1      40.377  28.841  29.863  1.00  0.00    -0.248 NA
ATOM     37  C   UNL A   1      39.128  29.028  27.898  1.00  0.00     0.031 C 
ATOM     38  C   UNL A   1      37.638  31.852  31.764  1.00  0.00     0.029 A 
ATOM     39  N   UNL A   1      39.503  30.650  32.055  1.00  0.00    -0.354 N 
ATOM     40  C   UNL A   1      40.927  28.022  28.887  1.00  0.00     0.074 A 
ATOM     41  C   UNL A   1      40.109  28.159  27.702  1.00  0.00     0.031 C 
ATOM     42  C   UNL A   1      38.106  32.123  32.994  1.00  0.00     0.029 A 
ATOM     43  C   UNL A   1      39.292  31.308  33.241  1.00  0.00     0.049 A 
ATOM     44  H   UNL A   1      40.280  30.069  31.890  1.00  0.00     0.167 HD
ATOM     45  C   UNL A   1      42.017  27.226  28.983  1.00  0.00     0.037 A 
ATOM     46  C   UNL A   1      39.961  31.223  34.406  1.00  0.00     0.037 A 
ATOM     47  C   UNL A   1      42.835  27.125  30.163  1.00  0.00     0.049 A 
ATOM     48  C   UNL A   1      41.145  30.299  34.494  1.00  0.00     0.074 A 
ATOM     49  C   UNL A   1      43.982  26.377  30.357  1.00  0.00     0.029 A 
ATOM     50  N   UNL A   1      42.586  27.799  31.350  1.00  0.00    -0.354 N 
ATOM     51  N   UNL A   1      41.663  29.527  33.569  1.00  0.00    -0.248 NA
ATOM     52  C   UNL A   1      41.832  30.223  35.790  1.00  0.00     0.031 C 
ATOM     53  C   UNL A   1      44.406  26.569  31.676  1.00  0.00     0.029 A 
ATOM     54  C   UNL A   1      43.547  27.467  32.289  1.00  0.00     0.049 A 
ATOM     55  H   UNL A   1      41.838  28.421  31.500  1.00  0.00     0.167 HD
ATOM     56  C   UNL A   1      42.742  28.888  34.163  1.00  0.00     0.074 A 
ATOM     57  C   UNL A   1      42.816  29.378  35.524  1.00  0.00     0.031 C 
ATOM     58  C   UNL A   1      43.594  27.975  33.635  1.00  0.00     0.037 A 
BRANCH  45  59
ATOM     59  C   UNL A   1      42.372  26.380  27.799  1.00  0.00     0.064 A 
ATOM     60  C   UNL A   1      43.354  26.772  26.878  1.00  0.00     0.173 A 
ATOM     61  C   UNL A   1      41.759  25.131  27.616  1.00  0.00     0.173 A 
ATOM     62  F   UNL A   1      43.957  27.964  27.000  1.00  0.00    -0.203 F 
ATOM     63  C   UNL A   1      43.701  25.948  25.810  1.00  0.00     0.198 A 
ATOM     64  C   UNL A   1      42.124  24.301  26.560  1.00  0.00     0.198 A 
ATOM     65  F   UNL A   1      40.813  24.711  28.470  1.00  0.00    -0.203 F 
ATOM     66  F   UNL A   1      44.621  26.354  24.923  1.00  0.00    -0.200 F 
ATOM     67  C   UNL A   1      43.092  24.711  25.656  1.00  0.00     0.200 A 
ATOM     68  F   UNL A   1      41.540  23.104  26.419  1.00  0.00    -0.200 F 
ATOM     69  F   UNL A   1      43.437  23.914  24.635  1.00  0.00    -0.200 F 
ENDBRANCH  45  59
BRANCH  46  70
ATOM     70  C   UNL A   1      39.507  32.002  35.586  1.00  0.00     0.064 A 
ATOM     71  C   UNL A   1      40.050  33.260  35.878  1.00  0.00     0.173 A 
ATOM     72  C   UNL A   1      38.534  31.492  36.461  1.00  0.00     0.173 A 
ATOM     73  F   UNL A   1      41.000  33.777  35.086  1.00  0.00    -0.203 F 
ATOM     74  C   UNL A   1      39.651  33.970  37.008  1.00  0.00     0.198 A 
ATOM     75  C   UNL A   1      38.116  32.217  37.574  1.00  0.00     0.198 A 
ATOM     76  F   UNL A   1      37.984  30.291  36.229  1.00  0.00    -0.203 F 
ATOM     77  F   UNL A   1      40.221  35.151  37.289  1.00  0.00    -0.200 F 
ATOM     78  C   UNL A   1      38.681  33.451  37.852  1.00  0.00     0.200 A 
ATOM     79  F   UNL A   1      37.171  31.715  38.381  1.00  0.00    -0.200 F 
ATOM     80  F   UNL A   1      38.299  34.136  38.939  1.00  0.00    -0.200 F 
ENDBRANCH  46  70
BRANCH  58  81
ATOM     81  C   UNL A   1      44.686  27.470  34.528  1.00  0.00     0.064 A 
ATOM     82  C   UNL A   1      45.914  28.138  34.628  1.00  0.00     0.173 A 
ATOM     83  C   UNL A   1      44.487  26.329  35.319  1.00  0.00     0.173 A 
ATOM     84  F   UNL A   1      46.154  29.224  33.878  1.00  0.00    -0.203 F 
ATOM     85  C   UNL A   1      46.914  27.667  35.473  1.00  0.00     0.198 A 
ATOM     86  C   UNL A   1      45.479  25.876  36.182  1.00  0.00     0.198 A 
ATOM     87  F   UNL A   1      43.324  25.660  35.260  1.00  0.00    -0.203 F 
ATOM     88  F   UNL A   1      48.097  28.295  35.523  1.00  0.00    -0.200 F 
ATOM     89  C   UNL A   1      46.693  26.542  36.254  1.00  0.00     0.200 A 
ATOM     90  F   UNL A   1      45.260  24.796  36.943  1.00  0.00    -0.200 F 
ATOM     91  F   UNL A   1      47.656  26.094  37.071  1.00  0.00    -0.200 F 
ENDBRANCH  58  81
ENDBRANCH  32  33
ENDBRANCH  25  27
ENDBRANCH  24  25
ENDBRANCH  23  24
ENDBRANCH  22  23
ENDBRANCH   1  22
TORSDOF 17
ENDMDL
