MODEL 1
REMARK VINA RESULT:     -12.4      0.000      0.000
REMARK SMILES COc1ccc(NC(=O)[C@@H]2[C@@H](C(=O)OCCOC(=O)c3ccc(-c4c5nc(c(-c6c(F)c(F)c(F)c(F)c6F)c6ccc([nH]6)c(-c6c(F)c(F)c(F)c(F)c6F)c6nc(c(-c7c(F)c(F)c(F)c(F)c7F)c7ccc4[nH]7)C=C6)C=C5)cc3)[C@@H]3CC[C@H]2C3=C(C)C)cc1
REMARK SMILES IDX 15 1 14 2 12 3 13 4 11 5 10 6 86 7 83 8 85 9 87 10 84 11
REMARK SMILES IDX 88 12 89 13 90 14 8 15 7 16 9 18 6 19 3 20 4 21 92 22 5 23
REMARK SMILES IDX 91 24 2 25 1 26 16 27 17 28 18 29 19 30 20 31 21 32 82 33
REMARK SMILES IDX 22 34 81 35 23 36 24 37 25 38 75 39 26 40 80 41 74 42 76 43
REMARK SMILES IDX 27 44 79 45 73 46 72 47 28 49 60 50 40 51 59 52 41 53 44 54
REMARK SMILES IDX 58 55 77 56 42 57 43 58 57 60 78 61 45 62 29 63 30 64 38 65
REMARK SMILES IDX 31 66 32 67 36 68 39 69 33 70 34 71 37 72 35 73 61 74 62 75
REMARK SMILES IDX 70 76 63 77 64 78 68 79 71 80 65 81 66 82 69 83 67 84 46 85
REMARK SMILES IDX 47 86 55 87 48 88 49 89 53 90 56 91 50 92 51 93 54 94 52 95
REMARK H PARENT 7 17 76 48 44 59
REMARK Flexibility Score: inf
ROOT
ATOM      1  C   UNL A   1      31.635  28.603  27.572  1.00  0.00     0.274 C 
ENDROOT
BRANCH   1   2
ATOM      2  O   UNL A   1      31.172  27.390  26.932  1.00  0.00    -0.462 OA
BRANCH   2   3
ATOM      3  C   UNL A   1      32.194  26.666  26.398  1.00  0.00     0.310 C 
ATOM      4  O   UNL A   1      33.364  27.015  26.501  1.00  0.00    -0.252 OA
BRANCH   3   5
ATOM      5  C   UNL A   1      31.731  25.440  25.605  1.00  0.00     0.119 C 
ATOM      6  C   UNL A   1      32.906  24.662  24.965  1.00  0.00     0.101 C 
ATOM      7  C   UNL A   1      32.786  25.010  23.439  1.00  0.00     0.029 C 
ATOM      8  C   UNL A   1      30.960  25.971  24.376  1.00  0.00     0.030 C 
ATOM      9  C   UNL A   1      31.613  24.303  22.751  1.00  0.00     0.009 C 
ATOM     10  C   UNL A   1      32.122  26.364  23.492  1.00  0.00    -0.064 C 
ATOM     11  C   UNL A   1      30.388  24.821  23.531  1.00  0.00     0.009 C 
ATOM     12  C   UNL A   1      32.438  27.547  22.937  1.00  0.00    -0.077 C 
ATOM     13  C   UNL A   1      31.633  28.802  23.165  1.00  0.00     0.039 C 
ATOM     14  C   UNL A   1      33.654  27.731  22.074  1.00  0.00     0.039 C 
BRANCH   6  15
ATOM     15  C   UNL A   1      32.867  23.147  25.208  1.00  0.00     0.228 C 
ATOM     16  N   UNL A   1      33.865  22.399  24.635  1.00  0.00    -0.326 N 
ATOM     17  H   UNL A   1      33.601  21.768  23.926  1.00  0.00     0.169 HD
ATOM     18  O   UNL A   1      31.930  22.577  25.760  1.00  0.00    -0.274 OA
BRANCH  16  19
ATOM     19  C   UNL A   1      35.232  22.453  24.969  1.00  0.00     0.041 A 
ATOM     20  C   UNL A   1      37.920  22.397  25.736  1.00  0.00     0.119 A 
ATOM     21  C   UNL A   1      37.110  23.468  26.104  1.00  0.00     0.048 A 
ATOM     22  C   UNL A   1      37.378  21.319  25.040  1.00  0.00     0.048 A 
ATOM     23  C   UNL A   1      35.775  23.512  25.698  1.00  0.00     0.030 A 
ATOM     24  C   UNL A   1      36.030  21.341  24.672  1.00  0.00     0.030 A 
BRANCH  20  25
ATOM     25  O   UNL A   1      39.226  22.441  26.134  1.00  0.00    -0.497 OA
ATOM     26  C   UNL A   1      39.839  21.152  26.127  1.00  0.00     0.278 C 
ENDBRANCH  20  25
ENDBRANCH  16  19
ENDBRANCH   6  15
ENDBRANCH   3   5
ENDBRANCH   2   3
ENDBRANCH   1   2
BRANCH   1  27
ATOM     27  C   UNL A   1      31.533  29.854  26.694  1.00  0.00     0.275 C 
BRANCH  27  28
ATOM     28  O   UNL A   1      32.827  30.325  26.272  1.00  0.00    -0.458 OA
BRANCH  28  29
ATOM     29  C   UNL A   1      33.361  31.295  27.042  1.00  0.00     0.338 C 
ATOM     30  O   UNL A   1      32.868  32.400  27.251  1.00  0.00    -0.246 OA
BRANCH  29  31
ATOM     31  C   UNL A   1      34.659  30.919  27.642  1.00  0.00     0.060 A 
ATOM     32  C   UNL A   1      34.970  29.610  28.003  1.00  0.00     0.016 A 
ATOM     33  C   UNL A   1      35.531  31.951  27.998  1.00  0.00     0.016 A 
ATOM     34  C   UNL A   1      36.066  29.358  28.834  1.00  0.00     0.010 A 
ATOM     35  C   UNL A   1      36.692  31.682  28.728  1.00  0.00     0.010 A 
ATOM     36  C   UNL A   1      36.960  30.384  29.182  1.00  0.00    -0.014 A 
BRANCH  36  37
ATOM     37  C   UNL A   1      38.211  30.088  29.937  1.00  0.00     0.031 A 
ATOM     38  C   UNL A   1      39.297  29.215  29.363  1.00  0.00     0.074 A 
ATOM     39  C   UNL A   1      38.357  30.593  31.177  1.00  0.00     0.049 A 
ATOM     40  N   UNL A   1      40.364  28.731  29.950  1.00  0.00    -0.248 NA
ATOM     41  C   UNL A   1      39.172  28.835  27.948  1.00  0.00     0.031 C 
ATOM     42  C   UNL A   1      37.393  31.465  31.850  1.00  0.00     0.029 A 
ATOM     43  N   UNL A   1      39.369  30.449  32.095  1.00  0.00    -0.354 N 
ATOM     44  C   UNL A   1      41.019  27.965  28.993  1.00  0.00     0.074 A 
ATOM     45  C   UNL A   1      40.233  28.053  27.780  1.00  0.00     0.031 C 
ATOM     46  C   UNL A   1      37.876  31.815  33.048  1.00  0.00     0.029 A 
ATOM     47  C   UNL A   1      39.132  31.112  33.273  1.00  0.00     0.049 A 
ATOM     48  H   UNL A   1      40.183  29.923  31.924  1.00  0.00     0.167 HD
ATOM     49  C   UNL A   1      42.164  27.251  29.124  1.00  0.00     0.037 A 
ATOM     50  C   UNL A   1      39.812  31.115  34.434  1.00  0.00     0.037 A 
ATOM     51  C   UNL A   1      42.959  27.188  30.326  1.00  0.00     0.049 A 
ATOM     52  C   UNL A   1      41.043  30.276  34.568  1.00  0.00     0.074 A 
ATOM     53  C   UNL A   1      44.148  26.510  30.541  1.00  0.00     0.029 A 
ATOM     54  N   UNL A   1      42.647  27.827  31.517  1.00  0.00    -0.354 N 
ATOM     55  N   UNL A   1      41.621  29.514  33.673  1.00  0.00    -0.248 NA
ATOM     56  C   UNL A   1      41.700  30.273  35.882  1.00  0.00     0.031 C 
ATOM     57  C   UNL A   1      44.537  26.708  31.871  1.00  0.00     0.029 A 
ATOM     58  C   UNL A   1      43.610  27.541  32.475  1.00  0.00     0.049 A 
ATOM     59  H   UNL A   1      41.860  28.399  31.661  1.00  0.00     0.167 HD
ATOM     60  C   UNL A   1      42.702  28.931  34.314  1.00  0.00     0.074 A 
ATOM     61  C   UNL A   1      42.717  29.449  35.667  1.00  0.00     0.031 C 
ATOM     62  C   UNL A   1      43.596  28.038  33.824  1.00  0.00     0.037 A 
BRANCH  49  63
ATOM     63  C   UNL A   1      42.633  26.446  27.947  1.00  0.00     0.064 A 
ATOM     64  C   UNL A   1      43.493  26.982  26.980  1.00  0.00     0.173 A 
ATOM     65  C   UNL A   1      42.295  25.086  27.845  1.00  0.00     0.173 A 
ATOM     66  F   UNL A   1      43.839  28.277  27.029  1.00  0.00    -0.203 F 
ATOM     67  C   UNL A   1      43.996  26.189  25.950  1.00  0.00     0.198 A 
ATOM     68  C   UNL A   1      42.813  24.292  26.825  1.00  0.00     0.198 A 
ATOM     69  F   UNL A   1      41.480  24.523  28.750  1.00  0.00    -0.203 F 
ATOM     70  F   UNL A   1      44.805  26.726  25.026  1.00  0.00    -0.200 F 
ATOM     71  C   UNL A   1      43.663  24.844  25.879  1.00  0.00     0.200 A 
ATOM     72  F   UNL A   1      42.499  22.991  26.765  1.00  0.00    -0.200 F 
ATOM     73  F   UNL A   1      44.161  24.078  24.897  1.00  0.00    -0.200 F 
ENDBRANCH  49  63
BRANCH  50  74
ATOM     74  C   UNL A   1      39.285  31.907  35.573  1.00  0.00     0.064 A 
ATOM     75  C   UNL A   1      38.415  31.333  36.508  1.00  0.00     0.173 A 
ATOM     76  C   UNL A   1      39.698  33.231  35.784  1.00  0.00     0.173 A 
ATOM     77  F   UNL A   1      37.977  30.078  36.333  1.00  0.00    -0.203 F 
ATOM     78  C   UNL A   1      37.986  32.054  37.620  1.00  0.00     0.198 A 
ATOM     79  C   UNL A   1      39.291  33.939  36.911  1.00  0.00     0.198 A 
ATOM     80  F   UNL A   1      40.534  33.820  34.915  1.00  0.00    -0.203 F 
ATOM     81  F   UNL A   1      37.141  31.490  38.495  1.00  0.00    -0.200 F 
ATOM     82  C   UNL A   1      38.434  33.350  37.828  1.00  0.00     0.200 A 
ATOM     83  F   UNL A   1      39.744  35.184  37.116  1.00  0.00    -0.200 F 
ATOM     84  F   UNL A   1      38.042  34.031  38.912  1.00  0.00    -0.200 F 
ENDBRANCH  50  74
BRANCH  62  85
ATOM     85  C   UNL A   1      44.656  27.565  34.770  1.00  0.00     0.064 A 
ATOM     86  C   UNL A   1      44.475  26.408  35.542  1.00  0.00     0.173 A 
ATOM     87  C   UNL A   1      45.855  28.275  34.915  1.00  0.00     0.173 A 
ATOM     88  F   UNL A   1      43.334  25.708  35.453  1.00  0.00    -0.203 F 
ATOM     89  C   UNL A   1      45.450  25.992  36.445  1.00  0.00     0.198 A 
ATOM     90  C   UNL A   1      46.837  27.846  35.803  1.00  0.00     0.198 A 
ATOM     91  F   UNL A   1      46.072  29.388  34.198  1.00  0.00    -0.203 F 
ATOM     92  F   UNL A   1      45.238  24.911  37.207  1.00  0.00    -0.200 F 
ATOM     93  C   UNL A   1      46.630  26.710  36.573  1.00  0.00     0.200 A 
ATOM     94  F   UNL A   1      47.978  28.538  35.925  1.00  0.00    -0.200 F 
ATOM     95  F   UNL A   1      47.564  26.314  37.449  1.00  0.00    -0.200 F 
ENDBRANCH  62  85
ENDBRANCH  36  37
ENDBRANCH  29  31
ENDBRANCH  28  29
ENDBRANCH  27  28
ENDBRANCH   1  27
TORSDOF 14
ENDMDL
MODEL 2
REMARK VINA RESULT:     -12.3      0.588      1.688
REMARK SMILES COc1ccc(NC(=O)[C@@H]2[C@@H](C(=O)OCCOC(=O)c3ccc(-c4c5nc(c(-c6c(F)c(F)c(F)c(F)c6F)c6ccc([nH]6)c(-c6c(F)c(F)c(F)c(F)c6F)c6nc(c(-c7c(F)c(F)c(F)c(F)c7F)c7ccc4[nH]7)C=C6)C=C5)cc3)[C@@H]3CC[C@H]2C3=C(C)C)cc1
REMARK SMILES IDX 15 1 14 2 12 3 13 4 11 5 10 6 86 7 83 8 85 9 87 10 84 11
REMARK SMILES IDX 88 12 89 13 90 14 8 15 7 16 9 18 6 19 3 20 4 21 92 22 5 23
REMARK SMILES IDX 91 24 2 25 1 26 16 27 17 28 18 29 19 30 20 31 21 32 82 33
REMARK SMILES IDX 22 34 81 35 23 36 24 37 25 38 75 39 26 40 80 41 74 42 76 43
REMARK SMILES IDX 27 44 79 45 73 46 72 47 28 49 60 50 40 51 59 52 41 53 44 54
REMARK SMILES IDX 58 55 77 56 42 57 43 58 57 60 78 61 45 62 29 63 30 64 38 65
REMARK SMILES IDX 31 66 32 67 36 68 39 69 33 70 34 71 37 72 35 73 61 74 62 75
REMARK SMILES IDX 70 76 63 77 64 78 68 79 71 80 65 81 66 82 69 83 67 84 46 85
REMARK SMILES IDX 47 86 55 87 48 88 49 89 53 90 56 91 50 92 51 93 54 94 52 95
REMARK H PARENT 7 17 76 48 44 59
REMARK Flexibility Score: inf
ROOT
ATOM      1  C   UNL A   1      31.852  28.724  27.581  1.00  0.00     0.274 C 
ENDROOT
BRANCH   1   2
ATOM      2  O   UNL A   1      31.184  27.570  27.017  1.00  0.00    -0.462 OA
BRANCH   2   3
ATOM      3  C   UNL A   1      32.058  26.695  26.449  1.00  0.00     0.310 C 
ATOM      4  O   UNL A   1      33.271  26.830  26.543  1.00  0.00    -0.252 OA
BRANCH   3   5
ATOM      5  C   UNL A   1      31.379  25.591  25.631  1.00  0.00     0.119 C 
ATOM      6  C   UNL A   1      32.393  24.639  24.951  1.00  0.00     0.101 C 
ATOM      7  C   UNL A   1      32.317  25.047  23.438  1.00  0.00     0.029 C 
ATOM      8  C   UNL A   1      30.697  26.283  24.430  1.00  0.00     0.030 C 
ATOM      9  C   UNL A   1      31.031  24.575  22.751  1.00  0.00     0.009 C 
ATOM     10  C   UNL A   1      31.900  26.493  23.537  1.00  0.00    -0.064 C 
ATOM     11  C   UNL A   1      29.924  25.275  23.565  1.00  0.00     0.009 C 
ATOM     12  C   UNL A   1      32.410  27.620  23.008  1.00  0.00    -0.077 C 
ATOM     13  C   UNL A   1      31.839  28.988  23.283  1.00  0.00     0.039 C 
ATOM     14  C   UNL A   1      33.629  27.614  22.131  1.00  0.00     0.039 C 
BRANCH   6  15
ATOM     15  C   UNL A   1      32.094  23.148  25.155  1.00  0.00     0.228 C 
ATOM     16  N   UNL A   1      32.822  22.259  24.404  1.00  0.00    -0.326 N 
ATOM     17  H   UNL A   1      32.331  21.733  23.732  1.00  0.00     0.169 HD
ATOM     18  O   UNL A   1      31.160  22.734  25.838  1.00  0.00    -0.274 OA
BRANCH  16  19
ATOM     19  C   UNL A   1      34.208  22.032  24.509  1.00  0.00     0.041 A 
ATOM     20  C   UNL A   1      36.945  21.623  24.908  1.00  0.00     0.119 A 
ATOM     21  C   UNL A   1      36.506  22.623  24.045  1.00  0.00     0.048 A 
ATOM     22  C   UNL A   1      36.022  20.866  25.627  1.00  0.00     0.048 A 
ATOM     23  C   UNL A   1      35.140  22.810  23.822  1.00  0.00     0.030 A 
ATOM     24  C   UNL A   1      34.654  21.083  25.438  1.00  0.00     0.030 A 
BRANCH  20  25
ATOM     25  O   UNL A   1      38.296  21.470  25.046  1.00  0.00    -0.497 OA
ATOM     26  C   UNL A   1      38.822  22.249  26.119  1.00  0.00     0.278 C 
ENDBRANCH  20  25
ENDBRANCH  16  19
ENDBRANCH   6  15
ENDBRANCH   3   5
ENDBRANCH   2   3
ENDBRANCH   1   2
BRANCH   1  27
ATOM     27  C   UNL A   1      31.800  29.973  26.696  1.00  0.00     0.275 C 
BRANCH  27  28
ATOM     28  O   UNL A   1      33.116  30.457  26.365  1.00  0.00    -0.458 OA
BRANCH  28  29
ATOM     29  C   UNL A   1      33.635  31.345  27.237  1.00  0.00     0.338 C 
ATOM     30  O   UNL A   1      33.141  32.428  27.539  1.00  0.00    -0.246 OA
BRANCH  29  31
ATOM     31  C   UNL A   1      34.915  30.905  27.830  1.00  0.00     0.060 A 
ATOM     32  C   UNL A   1      35.111  29.619  28.329  1.00  0.00     0.016 A 
ATOM     33  C   UNL A   1      35.903  31.873  28.030  1.00  0.00     0.016 A 
ATOM     34  C   UNL A   1      36.216  29.349  29.144  1.00  0.00     0.010 A 
ATOM     35  C   UNL A   1      37.065  31.568  28.744  1.00  0.00     0.010 A 
ATOM     36  C   UNL A   1      37.223  30.308  29.337  1.00  0.00    -0.014 A 
BRANCH  36  37
ATOM     37  C   UNL A   1      38.473  29.969  30.075  1.00  0.00     0.031 A 
ATOM     38  C   UNL A   1      39.515  29.051  29.492  1.00  0.00     0.074 A 
ATOM     39  C   UNL A   1      38.658  30.477  31.309  1.00  0.00     0.049 A 
ATOM     40  N   UNL A   1      40.572  28.530  30.068  1.00  0.00    -0.248 NA
ATOM     41  C   UNL A   1      39.354  28.664  28.083  1.00  0.00     0.031 C 
ATOM     42  C   UNL A   1      37.739  31.391  31.989  1.00  0.00     0.029 A 
ATOM     43  N   UNL A   1      39.677  30.301  32.212  1.00  0.00    -0.354 N 
ATOM     44  C   UNL A   1      41.181  27.732  29.107  1.00  0.00     0.074 A 
ATOM     45  C   UNL A   1      40.381  27.840  27.905  1.00  0.00     0.031 C 
ATOM     46  C   UNL A   1      38.253  31.732  33.177  1.00  0.00     0.029 A 
ATOM     47  C   UNL A   1      39.484  30.982  33.389  1.00  0.00     0.049 A 
ATOM     48  H   UNL A   1      40.468  29.743  32.034  1.00  0.00     0.167 HD
ATOM     49  C   UNL A   1      42.300  26.974  29.227  1.00  0.00     0.037 A 
ATOM     50  C   UNL A   1      40.181  30.967  34.540  1.00  0.00     0.037 A 
ATOM     51  C   UNL A   1      43.110  26.889  30.417  1.00  0.00     0.049 A 
ATOM     52  C   UNL A   1      41.381  30.082  34.662  1.00  0.00     0.074 A 
ATOM     53  C   UNL A   1      44.275  26.167  30.620  1.00  0.00     0.029 A 
ATOM     54  N   UNL A   1      42.842  27.549  31.607  1.00  0.00    -0.354 N 
ATOM     55  N   UNL A   1      41.914  29.292  33.765  1.00  0.00    -0.248 NA
ATOM     56  C   UNL A   1      42.057  30.063  35.966  1.00  0.00     0.031 C 
ATOM     57  C   UNL A   1      44.691  26.360  31.943  1.00  0.00     0.029 A 
ATOM     58  C   UNL A   1      43.807  27.233  32.553  1.00  0.00     0.049 A 
ATOM     59  H   UNL A   1      42.080  28.153  31.758  1.00  0.00     0.167 HD
ATOM     60  C   UNL A   1      42.982  28.671  34.394  1.00  0.00     0.074 A 
ATOM     61  C   UNL A   1      43.038  29.199  35.742  1.00  0.00     0.031 C 
ATOM     62  C   UNL A   1      43.833  27.741  33.899  1.00  0.00     0.037 A 
BRANCH  49  63
ATOM     63  C   UNL A   1      42.720  26.142  28.050  1.00  0.00     0.064 A 
ATOM     64  C   UNL A   1      42.208  24.856  27.835  1.00  0.00     0.173 A 
ATOM     65  C   UNL A   1      43.570  26.683  27.072  1.00  0.00     0.173 A 
ATOM     66  F   UNL A   1      41.399  24.291  28.743  1.00  0.00    -0.203 F 
ATOM     67  C   UNL A   1      42.534  24.139  26.685  1.00  0.00     0.198 A 
ATOM     68  C   UNL A   1      43.879  25.972  25.915  1.00  0.00     0.198 A 
ATOM     69  F   UNL A   1      44.081  27.914  27.228  1.00  0.00    -0.203 F 
ATOM     70  F   UNL A   1      42.046  22.903  26.506  1.00  0.00    -0.200 F 
ATOM     71  C   UNL A   1      43.361  24.700  25.723  1.00  0.00     0.200 A 
ATOM     72  F   UNL A   1      44.669  26.521  24.984  1.00  0.00    -0.200 F 
ATOM     73  F   UNL A   1      43.660  24.016  24.609  1.00  0.00    -0.200 F 
ENDBRANCH  49  63
BRANCH  50  74
ATOM     74  C   UNL A   1      39.703  31.788  35.680  1.00  0.00     0.064 A 
ATOM     75  C   UNL A   1      40.224  33.065  35.916  1.00  0.00     0.173 A 
ATOM     76  C   UNL A   1      38.668  31.334  36.511  1.00  0.00     0.173 A 
ATOM     77  F   UNL A   1      41.229  33.529  35.161  1.00  0.00    -0.203 F 
ATOM     78  C   UNL A   1      39.716  33.866  36.937  1.00  0.00     0.198 A 
ATOM     79  C   UNL A   1      38.143  32.146  37.513  1.00  0.00     0.198 A 
ATOM     80  F   UNL A   1      38.137  30.117  36.320  1.00  0.00    -0.203 F 
ATOM     81  F   UNL A   1      40.240  35.080  37.156  1.00  0.00    -0.200 F 
ATOM     82  C   UNL A   1      38.669  33.411  37.726  1.00  0.00     0.200 A 
ATOM     83  F   UNL A   1      37.118  31.710  38.257  1.00  0.00    -0.200 F 
ATOM     84  F   UNL A   1      38.164  34.193  38.689  1.00  0.00    -0.200 F 
ENDBRANCH  50  74
BRANCH  62  85
ATOM     85  C   UNL A   1      44.888  27.233  34.832  1.00  0.00     0.064 A 
ATOM     86  C   UNL A   1      44.675  26.089  35.615  1.00  0.00     0.173 A 
ATOM     87  C   UNL A   1      46.115  27.899  34.955  1.00  0.00     0.173 A 
ATOM     88  F   UNL A   1      43.507  25.433  35.547  1.00  0.00    -0.203 F 
ATOM     89  C   UNL A   1      45.646  25.643  36.506  1.00  0.00     0.198 A 
ATOM     90  C   UNL A   1      47.093  27.438  35.832  1.00  0.00     0.198 A 
ATOM     91  F   UNL A   1      46.363  28.998  34.227  1.00  0.00    -0.203 F 
ATOM     92  F   UNL A   1      45.405  24.576  37.279  1.00  0.00    -0.200 F 
ATOM     93  C   UNL A   1      46.855  26.316  36.613  1.00  0.00     0.200 A 
ATOM     94  F   UNL A   1      48.261  28.087  35.932  1.00  0.00    -0.200 F 
ATOM     95  F   UNL A   1      47.786  25.891  37.478  1.00  0.00    -0.200 F 
ENDBRANCH  62  85
ENDBRANCH  36  37
ENDBRANCH  29  31
ENDBRANCH  28  29
ENDBRANCH  27  28
ENDBRANCH   1  27
TORSDOF 14
ENDMDL
MODEL 3
REMARK VINA RESULT:     -12.3      4.067      9.730
REMARK SMILES COc1ccc(NC(=O)[C@@H]2[C@@H](C(=O)OCCOC(=O)c3ccc(-c4c5nc(c(-c6c(F)c(F)c(F)c(F)c6F)c6ccc([nH]6)c(-c6c(F)c(F)c(F)c(F)c6F)c6nc(c(-c7c(F)c(F)c(F)c(F)c7F)c7ccc4[nH]7)C=C6)C=C5)cc3)[C@@H]3CC[C@H]2C3=C(C)C)cc1
REMARK SMILES IDX 15 1 14 2 12 3 13 4 11 5 10 6 86 7 83 8 85 9 87 10 84 11
REMARK SMILES IDX 88 12 89 13 90 14 8 15 7 16 9 18 6 19 3 20 4 21 92 22 5 23
REMARK SMILES IDX 91 24 2 25 1 26 16 27 17 28 18 29 19 30 20 31 21 32 82 33
REMARK SMILES IDX 22 34 81 35 23 36 24 37 25 38 75 39 26 40 80 41 74 42 76 43
REMARK SMILES IDX 27 44 79 45 73 46 72 47 28 49 60 50 40 51 59 52 41 53 44 54
REMARK SMILES IDX 58 55 77 56 42 57 43 58 57 60 78 61 45 62 29 63 30 64 38 65
REMARK SMILES IDX 31 66 32 67 36 68 39 69 33 70 34 71 37 72 35 73 61 74 62 75
REMARK SMILES IDX 70 76 63 77 64 78 68 79 71 80 65 81 66 82 69 83 67 84 46 85
REMARK SMILES IDX 47 86 55 87 48 88 49 89 53 90 56 91 50 92 51 93 54 94 52 95
REMARK H PARENT 7 17 76 48 44 59
REMARK Flexibility Score: inf
ROOT
ATOM      1  C   UNL A   1      36.739  22.230  23.784  1.00  0.00     0.274 C 
ENDROOT
BRANCH   1   2
ATOM      2  O   UNL A   1      35.412  22.641  23.376  1.00  0.00    -0.462 OA
BRANCH   2   3
ATOM      3  C   UNL A   1      35.018  23.793  23.986  1.00  0.00     0.310 C 
ATOM      4  O   UNL A   1      35.727  24.377  24.796  1.00  0.00    -0.252 OA
BRANCH   3   5
ATOM      5  C   UNL A   1      33.596  24.227  23.619  1.00  0.00     0.119 C 
ATOM      6  C   UNL A   1      33.040  25.318  24.567  1.00  0.00     0.101 C 
ATOM      7  C   UNL A   1      31.989  24.543  25.438  1.00  0.00     0.029 C 
ATOM      8  C   UNL A   1      32.674  23.021  23.904  1.00  0.00     0.030 C 
ATOM      9  C   UNL A   1      30.707  24.200  24.670  1.00  0.00     0.009 C 
ATOM     10  C   UNL A   1      32.549  23.142  25.406  1.00  0.00    -0.064 C 
ATOM     11  C   UNL A   1      31.218  23.320  23.512  1.00  0.00     0.009 C 
ATOM     12  C   UNL A   1      32.842  22.265  26.382  1.00  0.00    -0.077 C 
ATOM     13  C   UNL A   1      33.444  20.908  26.113  1.00  0.00     0.039 C 
ATOM     14  C   UNL A   1      32.638  22.582  27.836  1.00  0.00     0.039 C 
BRANCH   6  15
ATOM     15  C   UNL A   1      32.409  26.518  23.848  1.00  0.00     0.228 C 
ATOM     16  N   UNL A   1      31.801  27.464  24.634  1.00  0.00    -0.326 N 
ATOM     17  H   UNL A   1      30.824  27.560  24.545  1.00  0.00     0.169 HD
ATOM     18  O   UNL A   1      32.306  26.594  22.626  1.00  0.00    -0.274 OA
BRANCH  16  19
ATOM     19  C   UNL A   1      32.446  28.311  25.556  1.00  0.00     0.041 A 
ATOM     20  C   UNL A   1      33.713  30.136  27.254  1.00  0.00     0.119 A 
ATOM     21  C   UNL A   1      34.393  29.006  26.809  1.00  0.00     0.048 A 
ATOM     22  C   UNL A   1      32.420  30.395  26.803  1.00  0.00     0.048 A 
ATOM     23  C   UNL A   1      33.754  28.079  25.984  1.00  0.00     0.030 A 
ATOM     24  C   UNL A   1      31.795  29.489  25.940  1.00  0.00     0.030 A 
BRANCH  20  25
ATOM     25  O   UNL A   1      34.387  30.978  28.092  1.00  0.00    -0.497 OA
ATOM     26  C   UNL A   1      33.971  32.335  27.946  1.00  0.00     0.278 C 
ENDBRANCH  20  25
ENDBRANCH  16  19
ENDBRANCH   6  15
ENDBRANCH   3   5
ENDBRANCH   2   3
ENDBRANCH   1   2
BRANCH   1  27
ATOM     27  C   UNL A   1      36.754  21.121  24.841  1.00  0.00     0.275 C 
BRANCH  27  28
ATOM     28  O   UNL A   1      37.340  21.563  26.080  1.00  0.00    -0.458 OA
BRANCH  28  29
ATOM     29  C   UNL A   1      38.687  21.519  26.124  1.00  0.00     0.338 C 
ATOM     30  O   UNL A   1      39.385  20.558  25.809  1.00  0.00    -0.246 OA
BRANCH  29  31
ATOM     31  C   UNL A   1      39.299  22.772  26.613  1.00  0.00     0.060 A 
ATOM     32  C   UNL A   1      38.910  24.028  26.155  1.00  0.00     0.016 A 
ATOM     33  C   UNL A   1      40.414  22.665  27.449  1.00  0.00     0.016 A 
ATOM     34  C   UNL A   1      39.714  25.144  26.413  1.00  0.00     0.010 A 
ATOM     35  C   UNL A   1      41.149  23.799  27.805  1.00  0.00     0.010 A 
ATOM     36  C   UNL A   1      40.826  25.052  27.267  1.00  0.00    -0.014 A 
BRANCH  36  37
ATOM     37  C   UNL A   1      41.589  26.268  27.665  1.00  0.00     0.031 A 
ATOM     38  C   UNL A   1      40.975  27.345  28.522  1.00  0.00     0.074 A 
ATOM     39  C   UNL A   1      42.852  26.419  27.221  1.00  0.00     0.049 A 
ATOM     40  N   UNL A   1      41.446  28.532  28.819  1.00  0.00    -0.248 NA
ATOM     41  C   UNL A   1      39.665  27.057  29.123  1.00  0.00     0.031 C 
ATOM     42  C   UNL A   1      43.575  25.449  26.398  1.00  0.00     0.029 A 
ATOM     43  N   UNL A   1      43.753  27.439  27.397  1.00  0.00    -0.354 N 
ATOM     44  C   UNL A   1      40.481  29.144  29.611  1.00  0.00     0.074 A 
ATOM     45  C   UNL A   1      39.397  28.194  29.756  1.00  0.00     0.031 C 
ATOM     46  C   UNL A   1      44.817  25.895  26.178  1.00  0.00     0.029 A 
ATOM     47  C   UNL A   1      44.947  27.227  26.754  1.00  0.00     0.049 A 
ATOM     48  H   UNL A   1      43.561  28.244  27.931  1.00  0.00     0.167 HD
ATOM     49  C   UNL A   1      40.501  30.385  30.156  1.00  0.00     0.037 A 
ATOM     50  C   UNL A   1      46.014  28.030  26.590  1.00  0.00     0.037 A 
ATOM     51  C   UNL A   1      41.593  31.319  30.031  1.00  0.00     0.049 A 
ATOM     52  C   UNL A   1      45.988  29.415  27.156  1.00  0.00     0.074 A 
ATOM     53  C   UNL A   1      41.710  32.590  30.571  1.00  0.00     0.029 A 
ATOM     54  N   UNL A   1      42.759  31.084  29.318  1.00  0.00    -0.354 N 
ATOM     55  N   UNL A   1      45.047  29.999  27.856  1.00  0.00    -0.248 NA
ATOM     56  C   UNL A   1      47.156  30.262  26.883  1.00  0.00     0.031 C 
ATOM     57  C   UNL A   1      42.930  33.137  30.155  1.00  0.00     0.029 A 
ATOM     58  C   UNL A   1      43.590  32.193  29.387  1.00  0.00     0.049 A 
ATOM     59  H   UNL A   1      42.967  30.252  28.835  1.00  0.00     0.167 HD
ATOM     60  C   UNL A   1      45.502  31.285  28.099  1.00  0.00     0.074 A 
ATOM     61  C   UNL A   1      46.815  31.387  27.497  1.00  0.00     0.031 C 
ATOM     62  C   UNL A   1      44.879  32.292  28.757  1.00  0.00     0.037 A 
BRANCH  49  63
ATOM     63  C   UNL A   1      39.293  30.840  30.923  1.00  0.00     0.064 A 
ATOM     64  C   UNL A   1      38.226  31.498  30.299  1.00  0.00     0.173 A 
ATOM     65  C   UNL A   1      39.164  30.521  32.285  1.00  0.00     0.173 A 
ATOM     66  F   UNL A   1      38.304  31.832  29.003  1.00  0.00    -0.203 F 
ATOM     67  C   UNL A   1      37.071  31.823  31.010  1.00  0.00     0.198 A 
ATOM     68  C   UNL A   1      38.002  30.831  32.988  1.00  0.00     0.198 A 
ATOM     69  F   UNL A   1      40.155  29.885  32.927  1.00  0.00    -0.203 F 
ATOM     70  F   UNL A   1      36.067  32.466  30.397  1.00  0.00    -0.200 F 
ATOM     71  C   UNL A   1      36.957  31.482  32.350  1.00  0.00     0.200 A 
ATOM     72  F   UNL A   1      37.890  30.491  34.279  1.00  0.00    -0.200 F 
ATOM     73  F   UNL A   1      35.840  31.780  33.028  1.00  0.00    -0.200 F 
ENDBRANCH  49  63
BRANCH  50  74
ATOM     74  C   UNL A   1      47.167  27.539  25.796  1.00  0.00     0.064 A 
ATOM     75  C   UNL A   1      47.212  27.711  24.408  1.00  0.00     0.173 A 
ATOM     76  C   UNL A   1      48.276  26.949  26.423  1.00  0.00     0.173 A 
ATOM     77  F   UNL A   1      46.166  28.249  23.765  1.00  0.00    -0.203 F 
ATOM     78  C   UNL A   1      48.332  27.322  23.675  1.00  0.00     0.198 A 
ATOM     79  C   UNL A   1      49.405  26.587  25.693  1.00  0.00     0.198 A 
ATOM     80  F   UNL A   1      48.278  26.767  27.752  1.00  0.00    -0.203 F 
ATOM     81  F   UNL A   1      48.348  27.483  22.345  1.00  0.00    -0.200 F 
ATOM     82  C   UNL A   1      49.431  26.773  24.320  1.00  0.00     0.200 A 
ATOM     83  F   UNL A   1      50.471  26.076  26.324  1.00  0.00    -0.200 F 
ATOM     84  F   UNL A   1      50.517  26.425  23.617  1.00  0.00    -0.200 F 
ENDBRANCH  50  74
BRANCH  62  85
ATOM     85  C   UNL A   1      45.618  33.592  28.845  1.00  0.00     0.064 A 
ATOM     86  C   UNL A   1      46.508  33.852  29.897  1.00  0.00     0.173 A 
ATOM     87  C   UNL A   1      45.428  34.589  27.878  1.00  0.00     0.173 A 
ATOM     88  F   UNL A   1      46.704  32.935  30.857  1.00  0.00    -0.203 F 
ATOM     89  C   UNL A   1      47.165  35.075  29.992  1.00  0.00     0.198 A 
ATOM     90  C   UNL A   1      46.102  35.804  27.964  1.00  0.00     0.198 A 
ATOM     91  F   UNL A   1      44.586  34.386  26.855  1.00  0.00    -0.203 F 
ATOM     92  F   UNL A   1      47.975  35.321  31.030  1.00  0.00    -0.200 F 
ATOM     93  C   UNL A   1      46.963  36.050  29.024  1.00  0.00     0.200 A 
ATOM     94  F   UNL A   1      45.909  36.744  27.029  1.00  0.00    -0.200 F 
ATOM     95  F   UNL A   1      47.589  37.231  29.121  1.00  0.00    -0.200 F 
ENDBRANCH  62  85
ENDBRANCH  36  37
ENDBRANCH  29  31
ENDBRANCH  28  29
ENDBRANCH  27  28
ENDBRANCH   1  27
TORSDOF 14
ENDMDL
