MODEL 1
REMARK VINA RESULT:     -15.3      0.000      0.000
REMARK SMILES Cc1ccc(S(=O)(=O)N[C@@H](Cc2cccc(F)c2)C(=O)OCCOC(=O)c2ccc(-c3c4nc(c(-c5c(F)c(F)c(F)c(F)c5F)c5ccc([nH]5)c(-c5c(F)c(F)c(F)c(F)c5F)c5nc(c(-c6c(F)c(F)c(F)c(F)c6F)c6ccc3[nH]6)C=C5)C=C4)cc2)cc1
REMARK SMILES IDX 22 1 21 2 19 3 20 4 10 5 9 6 6 8 7 9 8 10 5 11 1 12 2 13
REMARK SMILES IDX 3 14 91 15 4 16 90 17 11 18 12 19 13 20 18 21 14 22 16 23
REMARK SMILES IDX 15 24 17 25 23 26 24 27 25 28 26 29 27 30 28 31 89 32 29 33
REMARK SMILES IDX 88 34 30 35 31 36 32 37 82 38 33 39 87 40 81 41 83 42 34 43
REMARK SMILES IDX 86 44 80 45 79 46 35 48 67 49 47 50 66 51 48 52 51 53 65 54
REMARK SMILES IDX 84 55 49 56 50 57 64 59 85 60 52 61 36 62 37 63 45 64 38 65
REMARK SMILES IDX 39 66 43 67 46 68 40 69 41 70 44 71 42 72 68 73 69 74 77 75
REMARK SMILES IDX 70 76 71 77 75 78 78 79 72 80 73 81 76 82 74 83 53 84 54 85
REMARK SMILES IDX 62 86 55 87 56 88 60 89 63 90 57 91 58 92 61 93 59 94
REMARK H PARENT 9 7 83 47 51 58
REMARK Flexibility Score: inf
ROOT
ATOM      1  C   UNL A   1      32.816  30.303  27.172  1.00  0.00     0.274 C 
ENDROOT
BRANCH   1   2
ATOM      2  O   UNL A   1      33.003  28.988  27.650  1.00  0.00    -0.461 OA
BRANCH   2   3
ATOM      3  C   UNL A   1      32.169  27.940  27.066  1.00  0.00     0.324 C 
ATOM      4  O   UNL A   1      31.236  27.768  27.915  1.00  0.00    -0.250 OA
BRANCH   3   5
ATOM      5  C   UNL A   1      32.676  26.906  25.213  1.00  0.00     0.184 C 
BRANCH   5   6
ATOM      6  N   UNL A   1      32.273  27.371  23.583  1.00  0.00    -0.197 NA
ATOM      7  H   UNL A   1      31.306  27.692  23.623  1.00  0.00     0.142 HD
BRANCH   6   8
ATOM      8  S   UNL A   1      32.355  26.333  22.202  1.00  0.00     0.241 S 
ATOM      9  O   UNL A   1      33.611  26.522  21.516  1.00  0.00    -0.207 OA
ATOM     10  O   UNL A   1      31.119  26.619  21.501  1.00  0.00    -0.207 OA
BRANCH   8  11
ATOM     11  C   UNL A   1      32.266  24.621  22.655  1.00  0.00     0.082 A 
ATOM     12  C   UNL A   1      32.271  20.477  23.864  1.00  0.00     0.044 C 
ATOM     13  C   UNL A   1      32.270  21.914  23.429  1.00  0.00    -0.051 A 
ATOM     14  C   UNL A   1      33.269  22.407  22.579  1.00  0.00     0.005 A 
ATOM     15  C   UNL A   1      31.270  22.784  23.869  1.00  0.00     0.005 A 
ATOM     16  C   UNL A   1      33.270  23.755  22.196  1.00  0.00     0.022 A 
ATOM     17  C   UNL A   1      31.265  24.122  23.472  1.00  0.00     0.022 A 
ENDBRANCH   8  11
ENDBRANCH   6   8
ENDBRANCH   5   6
BRANCH   5  18
ATOM     18  C   UNL A   1      34.297  26.132  24.816  1.00  0.00     0.067 C 
BRANCH  18  19
ATOM     19  C   UNL A   1      34.691  24.815  25.512  1.00  0.00    -0.043 A 
ATOM     20  C   UNL A   1      36.042  23.992  24.633  1.00  0.00     0.004 A 
ATOM     21  C   UNL A   1      33.551  23.785  26.603  1.00  0.00     0.043 A 
ATOM     22  C   UNL A   1      36.271  22.243  24.791  1.00  0.00     0.003 A 
ATOM     23  C   UNL A   1      33.883  22.039  26.831  1.00  0.00     0.123 A 
ATOM     24  C   UNL A   1      35.229  21.281  25.908  1.00  0.00     0.039 A 
ATOM     25  F   UNL A   1      33.029  21.290  27.542  1.00  0.00    -0.207 F 
ENDBRANCH  18  19
ENDBRANCH   5  18
ENDBRANCH   3   5
ENDBRANCH   2   3
ENDBRANCH   1   2
BRANCH   1  26
ATOM     26  C   UNL A   1      34.017  31.115  27.659  1.00  0.00     0.275 C 
BRANCH  26  27
ATOM     27  O   UNL A   1      33.898  32.588  27.583  1.00  0.00    -0.458 OA
BRANCH  27  28
ATOM     28  C   UNL A   1      33.657  33.489  28.597  1.00  0.00     0.338 C 
ATOM     29  O   UNL A   1      32.677  34.215  28.623  1.00  0.00    -0.246 OA
BRANCH  28  30
ATOM     30  C   UNL A   1      34.822  33.769  29.516  1.00  0.00     0.060 A 
ATOM     31  C   UNL A   1      36.349  34.272  28.730  1.00  0.00     0.016 A 
ATOM     32  C   UNL A   1      34.846  32.640  30.857  1.00  0.00     0.016 A 
ATOM     33  C   UNL A   1      37.917  33.415  29.090  1.00  0.00     0.010 A 
ATOM     34  C   UNL A   1      36.361  31.803  31.273  1.00  0.00     0.010 A 
ATOM     35  C   UNL A   1      37.913  32.064  30.274  1.00  0.00    -0.014 A 
BRANCH  35  36
ATOM     36  C   UNL A   1      39.314  31.109  30.534  1.00  0.00     0.031 A 
ATOM     37  C   UNL A   1      39.526  29.105  29.780  1.00  0.00     0.074 A 
ATOM     38  C   UNL A   1      40.159  32.211  31.011  1.00  0.00     0.049 A 
ATOM     39  N   UNL A   1      40.252  28.016  30.163  1.00  0.00    -0.248 NA
ATOM     40  C   UNL A   1      38.830  28.354  28.404  1.00  0.00     0.031 C 
ATOM     41  C   UNL A   1      41.653  32.471  30.929  1.00  0.00     0.029 A 
ATOM     42  N   UNL A   1      39.869  33.005  32.156  1.00  0.00    -0.354 N 
ATOM     43  C   UNL A   1      40.630  27.242  29.087  1.00  0.00     0.074 A 
ATOM     44  C   UNL A   1      39.594  27.320  28.120  1.00  0.00     0.031 C 
ATOM     45  C   UNL A   1      42.145  32.842  32.116  1.00  0.00     0.029 A 
ATOM     46  C   UNL A   1      41.030  32.977  32.989  1.00  0.00     0.049 A 
ATOM     47  H   UNL A   1      39.028  33.483  32.340  1.00  0.00     0.167 HD
ATOM     48  C   UNL A   1      41.924  26.817  28.965  1.00  0.00     0.037 A 
ATOM     49  C   UNL A   1      41.022  32.627  34.297  1.00  0.00     0.037 A 
ATOM     50  C   UNL A   1      42.815  27.414  29.995  1.00  0.00     0.049 A 
ATOM     51  C   UNL A   1      41.703  31.268  34.558  1.00  0.00     0.074 A 
ATOM     52  C   UNL A   1      43.872  28.317  29.967  1.00  0.00     0.029 A 
ATOM     53  N   UNL A   1      42.453  27.367  31.342  1.00  0.00    -0.354 N 
ATOM     54  N   UNL A   1      42.258  30.464  33.668  1.00  0.00    -0.248 NA
ATOM     55  C   UNL A   1      41.724  30.692  35.898  1.00  0.00     0.031 C 
ATOM     56  C   UNL A   1      44.192  28.715  31.309  1.00  0.00     0.029 A 
ATOM     57  C   UNL A   1      43.284  28.122  32.171  1.00  0.00     0.049 A 
ATOM     58  H   UNL A   1      41.685  26.848  31.676  1.00  0.00     0.167 HD
ATOM     59  C   UNL A   1      42.585  29.242  34.265  1.00  0.00     0.074 A 
ATOM     60  C   UNL A   1      42.207  29.462  35.662  1.00  0.00     0.031 C 
ATOM     61  C   UNL A   1      43.070  28.105  33.625  1.00  0.00     0.037 A 
BRANCH  48  62
ATOM     62  C   UNL A   1      42.390  26.104  27.697  1.00  0.00     0.064 A 
ATOM     63  C   UNL A   1      42.030  24.773  27.424  1.00  0.00     0.173 A 
ATOM     64  C   UNL A   1      43.189  26.700  26.688  1.00  0.00     0.173 A 
ATOM     65  F   UNL A   1      41.178  24.104  28.208  1.00  0.00    -0.203 F 
ATOM     66  C   UNL A   1      42.509  24.076  26.308  1.00  0.00     0.198 A 
ATOM     67  C   UNL A   1      43.748  25.979  25.628  1.00  0.00     0.198 A 
ATOM     68  F   UNL A   1      43.400  28.024  26.649  1.00  0.00    -0.203 F 
ATOM     69  F   UNL A   1      42.091  22.822  26.085  1.00  0.00    -0.200 F 
ATOM     70  C   UNL A   1      43.400  24.664  25.433  1.00  0.00     0.200 A 
ATOM     71  F   UNL A   1      44.606  26.578  24.788  1.00  0.00    -0.200 F 
ATOM     72  F   UNL A   1      43.875  23.983  24.381  1.00  0.00    -0.200 F 
ENDBRANCH  48  62
BRANCH  49  73
ATOM     73  C   UNL A   1      39.832  33.283  34.932  1.00  0.00     0.064 A 
ATOM     74  C   UNL A   1      38.811  32.386  35.368  1.00  0.00     0.173 A 
ATOM     75  C   UNL A   1      39.940  34.497  35.610  1.00  0.00     0.173 A 
ATOM     76  F   UNL A   1      38.636  31.214  34.733  1.00  0.00    -0.203 F 
ATOM     77  C   UNL A   1      38.161  32.566  36.587  1.00  0.00     0.198 A 
ATOM     78  C   UNL A   1      39.192  34.723  36.774  1.00  0.00     0.198 A 
ATOM     79  F   UNL A   1      40.896  35.373  35.275  1.00  0.00    -0.203 F 
ATOM     80  F   UNL A   1      37.460  31.559  37.128  1.00  0.00    -0.200 F 
ATOM     81  C   UNL A   1      38.370  33.729  37.299  1.00  0.00     0.200 A 
ATOM     82  F   UNL A   1      39.434  35.819  37.509  1.00  0.00    -0.200 F 
ATOM     83  F   UNL A   1      37.863  33.860  38.534  1.00  0.00    -0.200 F 
ENDBRANCH  49  73
BRANCH  61  84
ATOM     84  C   UNL A   1      43.372  26.763  34.325  1.00  0.00     0.064 A 
ATOM     85  C   UNL A   1      42.384  25.897  34.814  1.00  0.00     0.173 A 
ATOM     86  C   UNL A   1      44.699  26.327  34.611  1.00  0.00     0.173 A 
ATOM     87  F   UNL A   1      41.103  26.279  34.886  1.00  0.00    -0.203 F 
ATOM     88  C   UNL A   1      42.685  24.629  35.333  1.00  0.00     0.198 A 
ATOM     89  C   UNL A   1      45.001  25.097  35.191  1.00  0.00     0.198 A 
ATOM     90  F   UNL A   1      45.783  27.069  34.369  1.00  0.00    -0.203 F 
ATOM     91  F   UNL A   1      41.688  23.804  35.680  1.00  0.00    -0.200 F 
ATOM     92  C   UNL A   1      43.993  24.224  35.509  1.00  0.00     0.200 A 
ATOM     93  F   UNL A   1      46.279  24.779  35.437  1.00  0.00    -0.200 F 
ATOM     94  F   UNL A   1      44.280  23.020  36.020  1.00  0.00    -0.200 F 
ENDBRANCH  61  84
ENDBRANCH  35  36
ENDBRANCH  28  30
ENDBRANCH  27  28
ENDBRANCH  26  27
ENDBRANCH   1  26
TORSDOF 16
ENDMDL
MODEL 2
REMARK VINA RESULT:     -15.1      2.297      3.448
REMARK SMILES Cc1ccc(S(=O)(=O)N[C@@H](Cc2cccc(F)c2)C(=O)OCCOC(=O)c2ccc(-c3c4nc(c(-c5c(F)c(F)c(F)c(F)c5F)c5ccc([nH]5)c(-c5c(F)c(F)c(F)c(F)c5F)c5nc(c(-c6c(F)c(F)c(F)c(F)c6F)c6ccc3[nH]6)C=C5)C=C4)cc2)cc1
REMARK SMILES IDX 22 1 21 2 19 3 20 4 10 5 9 6 6 8 7 9 8 10 5 11 1 12 2 13
REMARK SMILES IDX 3 14 91 15 4 16 90 17 11 18 12 19 13 20 18 21 14 22 16 23
REMARK SMILES IDX 15 24 17 25 23 26 24 27 25 28 26 29 27 30 28 31 89 32 29 33
REMARK SMILES IDX 88 34 30 35 31 36 32 37 82 38 33 39 87 40 81 41 83 42 34 43
REMARK SMILES IDX 86 44 80 45 79 46 35 48 67 49 47 50 66 51 48 52 51 53 65 54
REMARK SMILES IDX 84 55 49 56 50 57 64 59 85 60 52 61 36 62 37 63 45 64 38 65
REMARK SMILES IDX 39 66 43 67 46 68 40 69 41 70 44 71 42 72 68 73 69 74 77 75
REMARK SMILES IDX 70 76 71 77 75 78 78 79 72 80 73 81 76 82 74 83 53 84 54 85
REMARK SMILES IDX 62 86 55 87 56 88 60 89 63 90 57 91 58 92 61 93 59 94
REMARK H PARENT 9 7 83 47 51 58
REMARK Flexibility Score: inf
ROOT
ATOM      1  C   UNL A   1      33.771  30.066  27.564  1.00  0.00     0.274 C 
ENDROOT
BRANCH   1   2
ATOM      2  O   UNL A   1      33.960  29.445  26.311  1.00  0.00    -0.461 OA
BRANCH   2   3
ATOM      3  C   UNL A   1      32.941  28.493  25.876  1.00  0.00     0.324 C 
ATOM      4  O   UNL A   1      33.001  27.553  26.731  1.00  0.00    -0.250 OA
BRANCH   3   5
ATOM      5  C   UNL A   1      31.788  28.735  24.039  1.00  0.00     0.184 C 
BRANCH   5   6
ATOM      6  N   UNL A   1      32.153  28.107  22.456  1.00  0.00    -0.197 NA
ATOM      7  H   UNL A   1      31.300  28.234  21.910  1.00  0.00     0.142 HD
BRANCH   6   8
ATOM      8  S   UNL A   1      32.675  26.493  22.121  1.00  0.00     0.241 S 
ATOM      9  O   UNL A   1      33.981  26.513  21.508  1.00  0.00    -0.207 OA
ATOM     10  O   UNL A   1      31.560  25.931  21.384  1.00  0.00    -0.207 OA
BRANCH   8  11
ATOM     11  C   UNL A   1      32.812  25.522  23.598  1.00  0.00     0.082 A 
ATOM     12  C   UNL A   1      33.046  22.968  27.071  1.00  0.00     0.044 C 
ATOM     13  C   UNL A   1      32.954  23.865  25.871  1.00  0.00    -0.051 A 
ATOM     14  C   UNL A   1      31.716  24.146  25.278  1.00  0.00     0.005 A 
ATOM     15  C   UNL A   1      34.107  24.432  25.323  1.00  0.00     0.005 A 
ATOM     16  C   UNL A   1      31.644  24.967  24.144  1.00  0.00     0.022 A 
ATOM     17  C   UNL A   1      34.030  25.263  24.205  1.00  0.00     0.022 A 
ENDBRANCH   8  11
ENDBRANCH   6   8
ENDBRANCH   5   6
BRANCH   5  18
ATOM     18  C   UNL A   1      29.958  28.631  23.890  1.00  0.00     0.067 C 
BRANCH  18  19
ATOM     19  C   UNL A   1      29.164  29.888  23.484  1.00  0.00    -0.043 A 
ATOM     20  C   UNL A   1      28.373  29.666  21.872  1.00  0.00     0.004 A 
ATOM     21  C   UNL A   1      29.520  31.636  24.093  1.00  0.00     0.043 A 
ATOM     22  C   UNL A   1      27.957  31.075  20.883  1.00  0.00     0.003 A 
ATOM     23  C   UNL A   1      28.981  33.039  23.119  1.00  0.00     0.123 A 
ATOM     24  C   UNL A   1      28.220  32.745  21.515  1.00  0.00     0.039 A 
ATOM     25  F   UNL A   1      29.302  34.280  23.511  1.00  0.00    -0.207 F 
ENDBRANCH  18  19
ENDBRANCH   5  18
ENDBRANCH   3   5
ENDBRANCH   2   3
ENDBRANCH   1   2
BRANCH   1  26
ATOM     26  C   UNL A   1      33.094  31.408  27.284  1.00  0.00     0.275 C 
BRANCH  26  27
ATOM     27  O   UNL A   1      33.848  32.625  27.661  1.00  0.00    -0.458 OA
BRANCH  27  28
ATOM     28  C   UNL A   1      33.608  33.505  28.692  1.00  0.00     0.338 C 
ATOM     29  O   UNL A   1      32.622  34.223  28.738  1.00  0.00    -0.246 OA
BRANCH  28  30
ATOM     30  C   UNL A   1      34.778  33.779  29.607  1.00  0.00     0.060 A 
ATOM     31  C   UNL A   1      36.300  34.288  28.816  1.00  0.00     0.016 A 
ATOM     32  C   UNL A   1      34.809  32.641  30.940  1.00  0.00     0.016 A 
ATOM     33  C   UNL A   1      37.871  33.430  29.162  1.00  0.00     0.010 A 
ATOM     34  C   UNL A   1      36.326  31.802  31.342  1.00  0.00     0.010 A 
ATOM     35  C   UNL A   1      37.873  32.070  30.337  1.00  0.00    -0.014 A 
BRANCH  35  36
ATOM     36  C   UNL A   1      39.276  31.114  30.583  1.00  0.00     0.031 A 
ATOM     37  C   UNL A   1      39.478  29.110  29.827  1.00  0.00     0.074 A 
ATOM     38  C   UNL A   1      40.126  32.215  31.051  1.00  0.00     0.049 A 
ATOM     39  N   UNL A   1      40.207  28.020  30.203  1.00  0.00    -0.248 NA
ATOM     40  C   UNL A   1      38.767  28.359  28.459  1.00  0.00     0.031 C 
ATOM     41  C   UNL A   1      41.620  32.473  30.955  1.00  0.00     0.029 A 
ATOM     42  N   UNL A   1      39.848  33.009  32.199  1.00  0.00    -0.354 N 
ATOM     43  C   UNL A   1      40.573  27.245  29.123  1.00  0.00     0.074 A 
ATOM     44  C   UNL A   1      39.528  27.324  28.166  1.00  0.00     0.031 C 
ATOM     45  C   UNL A   1      42.124  32.844  32.136  1.00  0.00     0.029 A 
ATOM     46  C   UNL A   1      41.018  32.981  33.021  1.00  0.00     0.049 A 
ATOM     47  H   UNL A   1      39.010  33.488  32.392  1.00  0.00     0.167 HD
ATOM     48  C   UNL A   1      41.866  26.819  28.989  1.00  0.00     0.037 A 
ATOM     49  C   UNL A   1      41.022  32.631  34.329  1.00  0.00     0.037 A 
ATOM     50  C   UNL A   1      42.767  27.415  30.009  1.00  0.00     0.049 A 
ATOM     51  C   UNL A   1      41.705  31.271  34.582  1.00  0.00     0.074 A 
ATOM     52  C   UNL A   1      43.825  28.317  29.971  1.00  0.00     0.029 A 
ATOM     53  N   UNL A   1      42.419  27.368  31.360  1.00  0.00    -0.354 N 
ATOM     54  N   UNL A   1      42.251  30.466  33.688  1.00  0.00    -0.248 NA
ATOM     55  C   UNL A   1      41.739  30.695  35.922  1.00  0.00     0.031 C 
ATOM     56  C   UNL A   1      44.159  28.715  31.310  1.00  0.00     0.029 A 
ATOM     57  C   UNL A   1      43.259  28.123  32.180  1.00  0.00     0.049 A 
ATOM     58  H   UNL A   1      41.654  26.851  31.701  1.00  0.00     0.167 HD
ATOM     59  C   UNL A   1      42.582  29.244  34.282  1.00  0.00     0.074 A 
ATOM     60  C   UNL A   1      42.218  29.465  35.681  1.00  0.00     0.031 C 
ATOM     61  C   UNL A   1      43.059  28.106  33.637  1.00  0.00     0.037 A 
BRANCH  48  62
ATOM     62  C   UNL A   1      42.318  26.105  27.716  1.00  0.00     0.064 A 
ATOM     63  C   UNL A   1      41.960  24.773  27.450  1.00  0.00     0.173 A 
ATOM     64  C   UNL A   1      43.102  26.703  26.695  1.00  0.00     0.173 A 
ATOM     65  F   UNL A   1      41.121  24.102  28.246  1.00  0.00    -0.203 F 
ATOM     66  C   UNL A   1      42.427  24.075  26.329  1.00  0.00     0.198 A 
ATOM     67  C   UNL A   1      43.650  25.982  25.630  1.00  0.00     0.198 A 
ATOM     68  F   UNL A   1      43.308  28.028  26.651  1.00  0.00    -0.203 F 
ATOM     69  F   UNL A   1      42.011  22.819  26.114  1.00  0.00    -0.200 F 
ATOM     70  C   UNL A   1      43.304  24.665  25.442  1.00  0.00     0.200 A 
ATOM     71  F   UNL A   1      44.495  26.583  24.778  1.00  0.00    -0.200 F 
ATOM     72  F   UNL A   1      43.769  23.984  24.385  1.00  0.00    -0.200 F 
ENDBRANCH  48  62
BRANCH  49  73
ATOM     73  C   UNL A   1      39.840  33.288  34.975  1.00  0.00     0.064 A 
ATOM     74  C   UNL A   1      38.834  32.390  35.444  1.00  0.00     0.173 A 
ATOM     75  C   UNL A   1      39.951  34.513  35.632  1.00  0.00     0.173 A 
ATOM     76  F   UNL A   1      38.656  31.208  34.831  1.00  0.00    -0.203 F 
ATOM     77  C   UNL A   1      38.206  32.585  36.672  1.00  0.00     0.198 A 
ATOM     78  C   UNL A   1      39.223  34.752  36.806  1.00  0.00     0.198 A 
ATOM     79  F   UNL A   1      40.894  35.391  35.265  1.00  0.00    -0.203 F 
ATOM     80  F   UNL A   1      37.522  31.582  37.242  1.00  0.00    -0.200 F 
ATOM     81  C   UNL A   1      38.419  33.760  37.362  1.00  0.00     0.200 A 
ATOM     82  F   UNL A   1      39.470  35.861  37.519  1.00  0.00    -0.200 F 
ATOM     83  F   UNL A   1      37.934  33.907  38.604  1.00  0.00    -0.200 F 
ENDBRANCH  49  73
BRANCH  61  84
ATOM     84  C   UNL A   1      43.367  26.764  34.334  1.00  0.00     0.064 A 
ATOM     85  C   UNL A   1      42.383  25.903  34.841  1.00  0.00     0.173 A 
ATOM     86  C   UNL A   1      44.697  26.323  34.598  1.00  0.00     0.173 A 
ATOM     87  F   UNL A   1      41.105  26.291  34.934  1.00  0.00    -0.203 F 
ATOM     88  C   UNL A   1      42.688  24.635  35.356  1.00  0.00     0.198 A 
ATOM     89  C   UNL A   1      45.002  25.092  35.175  1.00  0.00     0.198 A 
ATOM     90  F   UNL A   1      45.780  27.059  34.337  1.00  0.00    -0.203 F 
ATOM     91  F   UNL A   1      41.693  23.815  35.721  1.00  0.00    -0.200 F 
ATOM     92  C   UNL A   1      43.997  24.224  35.511  1.00  0.00     0.200 A 
ATOM     93  F   UNL A   1      46.284  24.768  35.400  1.00  0.00    -0.200 F 
ATOM     94  F   UNL A   1      44.287  23.020  36.019  1.00  0.00    -0.200 F 
ENDBRANCH  61  84
ENDBRANCH  35  36
ENDBRANCH  28  30
ENDBRANCH  27  28
ENDBRANCH  26  27
ENDBRANCH   1  26
TORSDOF 16
ENDMDL
MODEL 3
REMARK VINA RESULT:     -14.9      4.151     10.175
REMARK SMILES Cc1ccc(S(=O)(=O)N[C@@H](Cc2cccc(F)c2)C(=O)OCCOC(=O)c2ccc(-c3c4nc(c(-c5c(F)c(F)c(F)c(F)c5F)c5ccc([nH]5)c(-c5c(F)c(F)c(F)c(F)c5F)c5nc(c(-c6c(F)c(F)c(F)c(F)c6F)c6ccc3[nH]6)C=C5)C=C4)cc2)cc1
REMARK SMILES IDX 22 1 21 2 19 3 20 4 10 5 9 6 6 8 7 9 8 10 5 11 1 12 2 13
REMARK SMILES IDX 3 14 91 15 4 16 90 17 11 18 12 19 13 20 18 21 14 22 16 23
REMARK SMILES IDX 15 24 17 25 23 26 24 27 25 28 26 29 27 30 28 31 89 32 29 33
REMARK SMILES IDX 88 34 30 35 31 36 32 37 82 38 33 39 87 40 81 41 83 42 34 43
REMARK SMILES IDX 86 44 80 45 79 46 35 48 67 49 47 50 66 51 48 52 51 53 65 54
REMARK SMILES IDX 84 55 49 56 50 57 64 59 85 60 52 61 36 62 37 63 45 64 38 65
REMARK SMILES IDX 39 66 43 67 46 68 40 69 41 70 44 71 42 72 68 73 69 74 77 75
REMARK SMILES IDX 70 76 71 77 75 78 78 79 72 80 73 81 76 82 74 83 53 84 54 85
REMARK SMILES IDX 62 86 55 87 56 88 60 89 63 90 57 91 58 92 61 93 59 94
REMARK H PARENT 9 7 83 47 51 58
REMARK Flexibility Score: inf
ROOT
ATOM      1  C   UNL A   1      38.216  22.579  25.324  1.00  0.00     0.274 C 
ENDROOT
BRANCH   1   2
ATOM      2  O   UNL A   1      36.989  21.944  25.614  1.00  0.00    -0.461 OA
BRANCH   2   3
ATOM      3  C   UNL A   1      36.018  21.838  24.527  1.00  0.00     0.324 C 
ATOM      4  O   UNL A   1      36.615  22.338  23.521  1.00  0.00    -0.250 OA
BRANCH   3   5
ATOM      5  C   UNL A   1      33.983  21.104  24.813  1.00  0.00     0.184 C 
BRANCH   5   6
ATOM      6  N   UNL A   1      32.906  21.426  26.144  1.00  0.00    -0.197 NA
ATOM      7  H   UNL A   1      31.979  21.515  25.728  1.00  0.00     0.142 HD
BRANCH   6   8
ATOM      8  S   UNL A   1      33.047  22.756  27.240  1.00  0.00     0.241 S 
ATOM      9  O   UNL A   1      34.235  22.607  28.047  1.00  0.00    -0.207 OA
ATOM     10  O   UNL A   1      31.753  22.786  27.891  1.00  0.00    -0.207 OA
BRANCH   8  11
ATOM     11  C   UNL A   1      33.193  24.303  26.387  1.00  0.00     0.082 A 
ATOM     12  C   UNL A   1      33.561  28.183  24.532  1.00  0.00     0.044 C 
ATOM     13  C   UNL A   1      33.418  26.833  25.172  1.00  0.00    -0.051 A 
ATOM     14  C   UNL A   1      32.347  26.555  26.030  1.00  0.00     0.005 A 
ATOM     15  C   UNL A   1      34.358  25.831  24.921  1.00  0.00     0.005 A 
ATOM     16  C   UNL A   1      32.236  25.298  26.639  1.00  0.00     0.022 A 
ATOM     17  C   UNL A   1      34.235  24.574  25.516  1.00  0.00     0.022 A 
ENDBRANCH   8  11
ENDBRANCH   6   8
ENDBRANCH   5   6
BRANCH   5  18
ATOM     18  C   UNL A   1      32.684  20.987  23.515  1.00  0.00     0.067 C 
BRANCH  18  19
ATOM     19  C   UNL A   1      32.070  22.282  22.950  1.00  0.00    -0.043 A 
ATOM     20  C   UNL A   1      33.225  23.120  21.837  1.00  0.00     0.004 A 
ATOM     21  C   UNL A   1      30.714  23.291  23.784  1.00  0.00     0.043 A 
ATOM     22  C   UNL A   1      33.084  24.862  21.554  1.00  0.00     0.003 A 
ATOM     23  C   UNL A   1      30.529  25.027  23.385  1.00  0.00     0.123 A 
ATOM     24  C   UNL A   1      31.728  25.801  22.288  1.00  0.00     0.039 A 
ATOM     25  F   UNL A   1      29.618  25.764  24.035  1.00  0.00    -0.207 F 
ENDBRANCH  18  19
ENDBRANCH   5  18
ENDBRANCH   3   5
ENDBRANCH   2   3
ENDBRANCH   1   2
BRANCH   1  26
ATOM     26  C   UNL A   1      39.148  22.275  26.497  1.00  0.00     0.275 C 
BRANCH  26  27
ATOM     27  O   UNL A   1      39.763  20.929  26.526  1.00  0.00    -0.458 OA
BRANCH  27  28
ATOM     28  C   UNL A   1      40.987  20.528  26.039  1.00  0.00     0.338 C 
ATOM     29  O   UNL A   1      41.159  19.464  25.467  1.00  0.00    -0.246 OA
BRANCH  28  30
ATOM     30  C   UNL A   1      42.179  21.318  26.526  1.00  0.00     0.060 A 
ATOM     31  C   UNL A   1      42.302  21.558  28.295  1.00  0.00     0.016 A 
ATOM     32  C   UNL A   1      42.549  22.633  25.427  1.00  0.00     0.016 A 
ATOM     33  C   UNL A   1      42.517  23.222  29.005  1.00  0.00     0.010 A 
ATOM     34  C   UNL A   1      42.803  24.271  26.072  1.00  0.00     0.010 A 
ATOM     35  C   UNL A   1      42.630  24.629  27.893  1.00  0.00    -0.014 A 
BRANCH  35  36
ATOM     36  C   UNL A   1      42.664  26.235  28.496  1.00  0.00     0.031 A 
ATOM     37  C   UNL A   1      41.034  27.617  28.251  1.00  0.00     0.074 A 
ATOM     38  C   UNL A   1      43.840  26.046  29.354  1.00  0.00     0.049 A 
ATOM     39  N   UNL A   1      40.936  28.977  28.212  1.00  0.00    -0.248 NA
ATOM     40  C   UNL A   1      39.351  27.333  28.080  1.00  0.00     0.031 C 
ATOM     41  C   UNL A   1      44.268  26.680  30.666  1.00  0.00     0.029 A 
ATOM     42  N   UNL A   1      45.125  25.657  28.879  1.00  0.00    -0.354 N 
ATOM     43  C   UNL A   1      39.740  29.424  28.730  1.00  0.00     0.074 A 
ATOM     44  C   UNL A   1      38.750  28.456  28.416  1.00  0.00     0.031 C 
ATOM     45  C   UNL A   1      45.546  27.070  30.621  1.00  0.00     0.029 A 
ATOM     46  C   UNL A   1      46.062  26.615  29.376  1.00  0.00     0.049 A 
ATOM     47  H   UNL A   1      45.329  24.875  28.316  1.00  0.00     0.167 HD
ATOM     48  C   UNL A   1      39.722  30.445  29.639  1.00  0.00     0.037 A 
ATOM     49  C   UNL A   1      46.935  27.300  28.600  1.00  0.00     0.037 A 
ATOM     50  C   UNL A   1      41.088  30.843  30.070  1.00  0.00     0.049 A 
ATOM     51  C   UNL A   1      46.583  28.797  28.481  1.00  0.00     0.074 A 
ATOM     52  C   UNL A   1      41.799  30.761  31.263  1.00  0.00     0.029 A 
ATOM     53  N   UNL A   1      42.071  31.111  29.115  1.00  0.00    -0.354 N 
ATOM     54  N   UNL A   1      45.565  29.430  29.036  1.00  0.00    -0.248 NA
ATOM     55  C   UNL A   1      47.369  29.679  27.625  1.00  0.00     0.031 C 
ATOM     56  C   UNL A   1      43.176  31.083  31.017  1.00  0.00     0.029 A 
ATOM     57  C   UNL A   1      43.343  31.290  29.658  1.00  0.00     0.049 A 
ATOM     58  H   UNL A   1      41.882  31.169  28.151  1.00  0.00     0.167 HD
ATOM     59  C   UNL A   1      45.475  30.730  28.529  1.00  0.00     0.074 A 
ATOM     60  C   UNL A   1      46.636  30.804  27.642  1.00  0.00     0.031 C 
ATOM     61  C   UNL A   1      44.464  31.654  28.779  1.00  0.00     0.037 A 
BRANCH  48  62
ATOM     62  C   UNL A   1      38.423  30.835  30.342  1.00  0.00     0.064 A 
ATOM     63  C   UNL A   1      37.439  31.606  29.701  1.00  0.00     0.173 A 
ATOM     64  C   UNL A   1      38.079  30.451  31.665  1.00  0.00     0.173 A 
ATOM     65  F   UNL A   1      37.547  31.946  28.412  1.00  0.00    -0.203 F 
ATOM     66  C   UNL A   1      36.277  32.040  30.352  1.00  0.00     0.198 A 
ATOM     67  C   UNL A   1      36.971  30.963  32.346  1.00  0.00     0.198 A 
ATOM     68  F   UNL A   1      38.765  29.505  32.323  1.00  0.00    -0.203 F 
ATOM     69  F   UNL A   1      35.359  32.737  29.667  1.00  0.00    -0.200 F 
ATOM     70  C   UNL A   1      36.062  31.754  31.684  1.00  0.00     0.200 A 
ATOM     71  F   UNL A   1      36.783  30.664  33.641  1.00  0.00    -0.200 F 
ATOM     72  F   UNL A   1      34.962  32.194  32.309  1.00  0.00    -0.200 F 
ENDBRANCH  48  62
BRANCH  49  73
ATOM     73  C   UNL A   1      47.517  26.332  27.614  1.00  0.00     0.064 A 
ATOM     74  C   UNL A   1      47.088  26.515  26.265  1.00  0.00     0.173 A 
ATOM     75  C   UNL A   1      48.774  25.757  27.806  1.00  0.00     0.173 A 
ATOM     76  F   UNL A   1      45.874  27.034  26.016  1.00  0.00    -0.203 F 
ATOM     77  C   UNL A   1      47.982  26.417  25.201  1.00  0.00     0.198 A 
ATOM     78  C   UNL A   1      49.627  25.548  26.714  1.00  0.00     0.198 A 
ATOM     79  F   UNL A   1      49.253  25.584  29.045  1.00  0.00    -0.203 F 
ATOM     80  F   UNL A   1      47.650  26.908  23.998  1.00  0.00    -0.200 F 
ATOM     81  C   UNL A   1      49.260  25.952  25.433  1.00  0.00     0.200 A 
ATOM     82  F   UNL A   1      50.892  25.158  26.933  1.00  0.00    -0.200 F 
ATOM     83  F   UNL A   1      50.173  25.980  24.451  1.00  0.00    -0.200 F 
ENDBRANCH  49  73
BRANCH  61  84
ATOM     84  C   UNL A   1      44.388  33.064  28.157  1.00  0.00     0.064 A 
ATOM     85  C   UNL A   1      44.020  33.313  26.827  1.00  0.00     0.173 A 
ATOM     86  C   UNL A   1      44.772  34.239  28.867  1.00  0.00     0.173 A 
ATOM     87  F   UNL A   1      43.905  32.314  25.943  1.00  0.00    -0.203 F 
ATOM     88  C   UNL A   1      43.840  34.611  26.327  1.00  0.00     0.198 A 
ATOM     89  C   UNL A   1      44.661  35.527  28.348  1.00  0.00     0.198 A 
ATOM     90  F   UNL A   1      45.297  34.216  30.095  1.00  0.00    -0.203 F 
ATOM     91  F   UNL A   1      43.379  34.779  25.080  1.00  0.00    -0.200 F 
ATOM     92  C   UNL A   1      44.148  35.718  27.092  1.00  0.00     0.200 A 
ATOM     93  F   UNL A   1      45.061  36.573  29.085  1.00  0.00    -0.200 F 
ATOM     94  F   UNL A   1      43.992  36.956  26.608  1.00  0.00    -0.200 F 
ENDBRANCH  61  84
ENDBRANCH  35  36
ENDBRANCH  28  30
ENDBRANCH  27  28
ENDBRANCH  26  27
ENDBRANCH   1  26
TORSDOF 16
ENDMDL
