MODEL 1
REMARK VINA RESULT:     -11.1      0.000      0.000
REMARK SMILES O=C(OCCOC(=O)c1cc(-c2ccc(C(F)(F)F)cc2)cc([N+](=O)[O-])c1)c1ccc(-c2c3nc(c(-c4c(F)c(F)c(F)c(F)c4F)c4ccc([nH]4)c(-c4c(F)c(F)c(F)c(F)c4F)c4nc(c(-c5c(F)c(F)c(F)c(F)c5F)c5ccc2[nH]5)C=C4)C=C3)cc1
REMARK SMILES IDX 4 1 3 2 2 3 1 4 28 5 29 6 90 7 30 8 89 9 31 10 32 11 33 12
REMARK SMILES IDX 83 13 34 14 88 15 82 16 84 17 35 18 87 19 81 20 80 21 36 23
REMARK SMILES IDX 68 24 48 25 67 26 49 27 52 28 66 29 85 30 50 31 51 32 65 34
REMARK SMILES IDX 86 35 53 36 37 37 38 38 46 39 39 40 40 41 44 42 47 43 41 44
REMARK SMILES IDX 42 45 45 46 43 47 69 48 70 49 78 50 71 51 72 52 76 53 79 54
REMARK SMILES IDX 73 55 74 56 77 57 75 58 54 59 55 60 63 61 56 62 57 63 61 64
REMARK SMILES IDX 64 65 58 66 59 67 62 68 60 69 5 70 6 71 7 72 8 73 9 74 10 75
REMARK SMILES IDX 27 76 11 77 23 78 22 79 12 80 13 81 21 82 14 83 20 84 15 85
REMARK SMILES IDX 16 86 17 87 18 88 19 89 24 90 25 91 26 92
REMARK H PARENT 84 22 52 33
REMARK Flexibility Score: inf
ROOT
ATOM      1  C   UNL A   1      40.753  21.353  26.912  1.00  0.00     0.275 C 
ENDROOT
BRANCH   1   2
ATOM      2  O   UNL A   1      39.626  21.764  26.116  1.00  0.00    -0.458 OA
BRANCH   2   3
ATOM      3  C   UNL A   1      38.865  22.881  26.164  1.00  0.00     0.338 C 
ATOM      4  O   UNL A   1      37.776  22.883  25.589  1.00  0.00    -0.246 OA
BRANCH   3   5
ATOM      5  C   UNL A   1      39.314  24.174  26.769  1.00  0.00     0.060 A 
ATOM      6  C   UNL A   1      40.027  25.176  26.113  1.00  0.00     0.016 A 
ATOM      7  C   UNL A   1      38.980  24.387  28.124  1.00  0.00     0.016 A 
ATOM      8  C   UNL A   1      40.329  26.378  26.750  1.00  0.00     0.010 A 
ATOM      9  C   UNL A   1      39.273  25.592  28.768  1.00  0.00     0.010 A 
ATOM     10  C   UNL A   1      39.947  26.600  28.074  1.00  0.00    -0.014 A 
BRANCH  10  11
ATOM     11  C   UNL A   1      40.368  27.860  28.717  1.00  0.00     0.031 A 
ATOM     12  C   UNL A   1      41.801  28.029  29.109  1.00  0.00     0.074 A 
ATOM     13  C   UNL A   1      39.506  28.889  28.804  1.00  0.00     0.049 A 
ATOM     14  N   UNL A   1      42.413  29.099  29.539  1.00  0.00    -0.248 NA
ATOM     15  C   UNL A   1      42.673  26.855  28.942  1.00  0.00     0.031 C 
ATOM     16  C   UNL A   1      38.124  28.863  28.331  1.00  0.00     0.029 A 
ATOM     17  N   UNL A   1      39.660  30.156  29.300  1.00  0.00    -0.354 N 
ATOM     18  C   UNL A   1      43.751  28.750  29.630  1.00  0.00     0.074 A 
ATOM     19  C   UNL A   1      43.853  27.347  29.289  1.00  0.00     0.031 C 
ATOM     20  C   UNL A   1      37.539  30.039  28.609  1.00  0.00     0.029 A 
ATOM     21  C   UNL A   1      38.504  30.898  29.277  1.00  0.00     0.049 A 
ATOM     22  H   UNL A   1      40.517  30.503  29.640  1.00  0.00     0.167 HD
ATOM     23  C   UNL A   1      44.802  29.546  29.927  1.00  0.00     0.037 A 
ATOM     24  C   UNL A   1      38.254  32.134  29.745  1.00  0.00     0.037 A 
ATOM     25  C   UNL A   1      44.676  30.927  30.312  1.00  0.00     0.049 A 
ATOM     26  C   UNL A   1      39.413  32.942  30.251  1.00  0.00     0.074 A 
ATOM     27  C   UNL A   1      45.667  31.812  30.694  1.00  0.00     0.029 A 
ATOM     28  N   UNL A   1      43.472  31.617  30.379  1.00  0.00    -0.354 N 
ATOM     29  N   UNL A   1      40.680  32.612  30.314  1.00  0.00    -0.248 NA
ATOM     30  C   UNL A   1      39.122  34.307  30.703  1.00  0.00     0.031 C 
ATOM     31  C   UNL A   1      45.057  33.023  31.042  1.00  0.00     0.029 A 
ATOM     32  C   UNL A   1      43.692  32.911  30.824  1.00  0.00     0.049 A 
ATOM     33  H   UNL A   1      42.593  31.242  30.146  1.00  0.00     0.167 HD
ATOM     34  C   UNL A   1      41.345  33.737  30.771  1.00  0.00     0.074 A 
ATOM     35  C   UNL A   1      40.339  34.765  30.958  1.00  0.00     0.031 C 
ATOM     36  C   UNL A   1      42.669  33.912  31.007  1.00  0.00     0.037 A 
BRANCH  23  37
ATOM     37  C   UNL A   1      46.164  28.923  29.860  1.00  0.00     0.064 A 
ATOM     38  C   UNL A   1      46.919  28.949  28.677  1.00  0.00     0.173 A 
ATOM     39  C   UNL A   1      46.715  28.285  30.978  1.00  0.00     0.173 A 
ATOM     40  F   UNL A   1      46.423  29.525  27.570  1.00  0.00    -0.203 F 
ATOM     41  C   UNL A   1      48.167  28.335  28.609  1.00  0.00     0.198 A 
ATOM     42  C   UNL A   1      47.975  27.695  30.915  1.00  0.00     0.198 A 
ATOM     43  F   UNL A   1      46.030  28.226  32.129  1.00  0.00    -0.203 F 
ATOM     44  F   UNL A   1      48.848  28.327  27.455  1.00  0.00    -0.200 F 
ATOM     45  C   UNL A   1      48.696  27.714  29.730  1.00  0.00     0.200 A 
ATOM     46  F   UNL A   1      48.487  27.096  31.999  1.00  0.00    -0.200 F 
ATOM     47  F   UNL A   1      49.897  27.121  29.665  1.00  0.00    -0.200 F 
ENDBRANCH  23  37
BRANCH  24  48
ATOM     48  C   UNL A   1      36.865  32.667  29.761  1.00  0.00     0.064 A 
ATOM     49  C   UNL A   1      36.314  33.338  28.663  1.00  0.00     0.173 A 
ATOM     50  C   UNL A   1      36.072  32.544  30.914  1.00  0.00     0.173 A 
ATOM     51  F   UNL A   1      37.038  33.502  27.546  1.00  0.00    -0.203 F 
ATOM     52  C   UNL A   1      35.036  33.894  28.725  1.00  0.00     0.198 A 
ATOM     53  C   UNL A   1      34.784  33.073  30.966  1.00  0.00     0.198 A 
ATOM     54  F   UNL A   1      36.560  31.927  31.998  1.00  0.00    -0.203 F 
ATOM     55  F   UNL A   1      34.557  34.585  27.683  1.00  0.00    -0.200 F 
ATOM     56  C   UNL A   1      34.271  33.757  29.875  1.00  0.00     0.200 A 
ATOM     57  F   UNL A   1      34.049  32.942  32.078  1.00  0.00    -0.200 F 
ATOM     58  F   UNL A   1      33.049  34.305  29.937  1.00  0.00    -0.200 F 
ENDBRANCH  24  48
BRANCH  36  59
ATOM     59  C   UNL A   1      43.097  35.274  31.463  1.00  0.00     0.064 A 
ATOM     60  C   UNL A   1      43.554  36.244  30.559  1.00  0.00     0.173 A 
ATOM     61  C   UNL A   1      43.042  35.615  32.823  1.00  0.00     0.173 A 
ATOM     62  F   UNL A   1      43.641  35.959  29.251  1.00  0.00    -0.203 F 
ATOM     63  C   UNL A   1      43.977  37.492  31.004  1.00  0.00     0.198 A 
ATOM     64  C   UNL A   1      43.431  36.876  33.260  1.00  0.00     0.198 A 
ATOM     65  F   UNL A   1      42.607  34.723  33.727  1.00  0.00    -0.203 F 
ATOM     66  F   UNL A   1      44.472  38.380  30.132  1.00  0.00    -0.200 F 
ATOM     67  C   UNL A   1      43.909  37.810  32.353  1.00  0.00     0.200 A 
ATOM     68  F   UNL A   1      43.350  37.187  34.561  1.00  0.00    -0.200 F 
ATOM     69  F   UNL A   1      44.316  39.013  32.780  1.00  0.00    -0.200 F 
ENDBRANCH  36  59
ENDBRANCH  10  11
ENDBRANCH   3   5
ENDBRANCH   2   3
ENDBRANCH   1   2
BRANCH   1  70
ATOM     70  C   UNL A   1      42.118  21.466  26.224  1.00  0.00     0.275 C 
BRANCH  70  71
ATOM     71  O   UNL A   1      42.445  22.796  25.790  1.00  0.00    -0.458 OA
BRANCH  71  72
ATOM     72  C   UNL A   1      43.474  22.860  24.911  1.00  0.00     0.338 C 
ATOM     73  O   UNL A   1      43.779  22.019  24.076  1.00  0.00    -0.246 OA
BRANCH  72  74
ATOM     74  C   UNL A   1      44.143  24.170  25.004  1.00  0.00     0.067 A 
ATOM     75  C   UNL A   1      45.533  24.182  25.189  1.00  0.00     0.025 A 
ATOM     76  C   UNL A   1      43.417  25.363  25.010  1.00  0.00     0.101 A 
ATOM     77  C   UNL A   1      46.223  25.392  25.356  1.00  0.00    -0.011 A 
ATOM     78  C   UNL A   1      44.109  26.570  25.177  1.00  0.00     0.270 A 
ATOM     79  C   UNL A   1      45.502  26.592  25.313  1.00  0.00     0.094 A 
BRANCH  77  80
ATOM     80  C   UNL A   1      47.627  25.391  25.768  1.00  0.00    -0.018 A 
ATOM     81  C   UNL A   1      48.069  24.856  26.982  1.00  0.00     0.009 A 
ATOM     82  C   UNL A   1      48.565  26.002  24.920  1.00  0.00     0.009 A 
ATOM     83  C   UNL A   1      49.419  24.950  27.345  1.00  0.00     0.014 A 
ATOM     84  C   UNL A   1      49.906  26.101  25.281  1.00  0.00     0.014 A 
ATOM     85  C   UNL A   1      50.347  25.585  26.504  1.00  0.00     0.056 A 
BRANCH  85  86
ATOM     86  C   UNL A   1      51.790  25.734  26.920  1.00  0.00     0.416 C 
ATOM     87  F   UNL A   1      52.296  26.959  26.611  1.00  0.00    -0.166 F 
ATOM     88  F   UNL A   1      51.965  25.580  28.261  1.00  0.00    -0.166 F 
ATOM     89  F   UNL A   1      52.620  24.828  26.329  1.00  0.00    -0.166 F 
ENDBRANCH  85  86
ENDBRANCH  77  80
BRANCH  78  90
ATOM     90  N   UNL A   1      43.366  27.827  25.317  1.00  0.00     0.062 N 
ATOM     91  O   UNL A   1      43.792  28.660  26.126  1.00  0.00    -0.258 OA
ATOM     92  O   UNL A   1      42.346  27.967  24.626  1.00  0.00    -0.258 OA
ENDBRANCH  78  90
ENDBRANCH  72  74
ENDBRANCH  71  72
ENDBRANCH  70  71
ENDBRANCH   1  70
TORSDOF 14
ENDMDL
MODEL 2
REMARK VINA RESULT:     -10.9      4.963     10.384
REMARK SMILES O=C(OCCOC(=O)c1cc(-c2ccc(C(F)(F)F)cc2)cc([N+](=O)[O-])c1)c1ccc(-c2c3nc(c(-c4c(F)c(F)c(F)c(F)c4F)c4ccc([nH]4)c(-c4c(F)c(F)c(F)c(F)c4F)c4nc(c(-c5c(F)c(F)c(F)c(F)c5F)c5ccc2[nH]5)C=C4)C=C3)cc1
REMARK SMILES IDX 4 1 3 2 2 3 1 4 28 5 29 6 90 7 30 8 89 9 31 10 32 11 33 12
REMARK SMILES IDX 83 13 34 14 88 15 82 16 84 17 35 18 87 19 81 20 80 21 36 23
REMARK SMILES IDX 68 24 48 25 67 26 49 27 52 28 66 29 85 30 50 31 51 32 65 34
REMARK SMILES IDX 86 35 53 36 37 37 38 38 46 39 39 40 40 41 44 42 47 43 41 44
REMARK SMILES IDX 42 45 45 46 43 47 69 48 70 49 78 50 71 51 72 52 76 53 79 54
REMARK SMILES IDX 73 55 74 56 77 57 75 58 54 59 55 60 63 61 56 62 57 63 61 64
REMARK SMILES IDX 64 65 58 66 59 67 62 68 60 69 5 70 6 71 7 72 8 73 9 74 10 75
REMARK SMILES IDX 27 76 11 77 23 78 22 79 12 80 13 81 21 82 14 83 20 84 15 85
REMARK SMILES IDX 16 86 17 87 18 88 19 89 24 90 25 91 26 92
REMARK H PARENT 84 22 52 33
REMARK Flexibility Score: inf
ROOT
ATOM      1  C   UNL A   1      31.914  29.788  26.263  1.00  0.00     0.275 C 
ENDROOT
BRANCH   1   2
ATOM      2  O   UNL A   1      33.188  30.459  26.295  1.00  0.00    -0.458 OA
BRANCH   2   3
ATOM      3  C   UNL A   1      33.770  31.216  27.253  1.00  0.00     0.338 C 
ATOM      4  O   UNL A   1      33.331  32.347  27.463  1.00  0.00    -0.246 OA
BRANCH   3   5
ATOM      5  C   UNL A   1      35.006  30.819  27.997  1.00  0.00     0.060 A 
ATOM      6  C   UNL A   1      35.183  29.634  28.709  1.00  0.00     0.016 A 
ATOM      7  C   UNL A   1      36.082  31.733  27.967  1.00  0.00     0.016 A 
ATOM      8  C   UNL A   1      36.406  29.328  29.302  1.00  0.00     0.010 A 
ATOM      9  C   UNL A   1      37.314  31.431  28.554  1.00  0.00     0.010 A 
ATOM     10  C   UNL A   1      37.480  30.215  29.222  1.00  0.00    -0.014 A 
BRANCH  10  11
ATOM     11  C   UNL A   1      38.722  29.869  29.942  1.00  0.00     0.031 A 
ATOM     12  C   UNL A   1      38.982  30.489  31.277  1.00  0.00     0.074 A 
ATOM     13  C   UNL A   1      39.524  28.899  29.467  1.00  0.00     0.049 A 
ATOM     14  N   UNL A   1      39.920  30.213  32.142  1.00  0.00    -0.248 NA
ATOM     15  C   UNL A   1      38.027  31.516  31.724  1.00  0.00     0.031 C 
ATOM     16  C   UNL A   1      39.285  28.145  28.238  1.00  0.00     0.029 A 
ATOM     17  N   UNL A   1      40.684  28.364  29.961  1.00  0.00    -0.354 N 
ATOM     18  C   UNL A   1      39.632  30.979  33.260  1.00  0.00     0.074 A 
ATOM     19  C   UNL A   1      38.480  31.792  32.937  1.00  0.00     0.031 C 
ATOM     20  C   UNL A   1      40.298  27.285  28.043  1.00  0.00     0.029 A 
ATOM     21  C   UNL A   1      41.251  27.426  29.133  1.00  0.00     0.049 A 
ATOM     22  H   UNL A   1      41.075  28.628  30.825  1.00  0.00     0.167 HD
ATOM     23  C   UNL A   1      40.251  30.965  34.462  1.00  0.00     0.037 A 
ATOM     24  C   UNL A   1      42.412  26.757  29.243  1.00  0.00     0.037 A 
ATOM     25  C   UNL A   1      41.425  30.185  34.748  1.00  0.00     0.049 A 
ATOM     26  C   UNL A   1      43.189  26.902  30.520  1.00  0.00     0.074 A 
ATOM     27  C   UNL A   1      42.172  30.140  35.911  1.00  0.00     0.029 A 
ATOM     28  N   UNL A   1      42.035  29.323  33.845  1.00  0.00    -0.354 N 
ATOM     29  N   UNL A   1      42.898  27.613  31.582  1.00  0.00    -0.248 NA
ATOM     30  C   UNL A   1      44.423  26.117  30.637  1.00  0.00     0.031 C 
ATOM     31  C   UNL A   1      43.262  29.290  35.694  1.00  0.00     0.029 A 
ATOM     32  C   UNL A   1      43.166  28.760  34.416  1.00  0.00     0.049 A 
ATOM     33  H   UNL A   1      41.711  29.138  32.934  1.00  0.00     0.167 HD
ATOM     34  C   UNL A   1      43.887  27.332  32.510  1.00  0.00     0.074 A 
ATOM     35  C   UNL A   1      44.780  26.374  31.887  1.00  0.00     0.031 C 
ATOM     36  C   UNL A   1      44.040  27.813  33.769  1.00  0.00     0.037 A 
BRANCH  23  37
ATOM     37  C   UNL A   1      39.667  31.835  35.533  1.00  0.00     0.064 A 
ATOM     38  C   UNL A   1      40.096  33.160  35.710  1.00  0.00     0.173 A 
ATOM     39  C   UNL A   1      38.681  31.342  36.398  1.00  0.00     0.173 A 
ATOM     40  F   UNL A   1      41.058  33.670  34.924  1.00  0.00    -0.203 F 
ATOM     41  C   UNL A   1      39.577  33.951  36.732  1.00  0.00     0.198 A 
ATOM     42  C   UNL A   1      38.145  32.144  37.402  1.00  0.00     0.198 A 
ATOM     43  F   UNL A   1      38.243  30.081  36.275  1.00  0.00    -0.203 F 
ATOM     44  F   UNL A   1      40.039  35.195  36.915  1.00  0.00    -0.200 F 
ATOM     45  C   UNL A   1      38.598  33.444  37.573  1.00  0.00     0.200 A 
ATOM     46  F   UNL A   1      37.198  31.655  38.213  1.00  0.00    -0.200 F 
ATOM     47  F   UNL A   1      38.100  34.205  38.558  1.00  0.00    -0.200 F 
ENDBRANCH  23  37
BRANCH  24  48
ATOM     48  C   UNL A   1      42.903  25.910  28.123  1.00  0.00     0.064 A 
ATOM     49  C   UNL A   1      42.728  24.521  28.110  1.00  0.00     0.173 A 
ATOM     50  C   UNL A   1      43.604  26.487  27.051  1.00  0.00     0.173 A 
ATOM     51  F   UNL A   1      42.087  23.918  29.122  1.00  0.00    -0.203 F 
ATOM     52  C   UNL A   1      43.261  23.737  27.086  1.00  0.00     0.198 A 
ATOM     53  C   UNL A   1      44.109  25.708  26.013  1.00  0.00     0.198 A 
ATOM     54  F   UNL A   1      43.814  27.810  27.026  1.00  0.00    -0.203 F 
ATOM     55  F   UNL A   1      43.133  22.404  27.131  1.00  0.00    -0.200 F 
ATOM     56  C   UNL A   1      43.947  24.331  26.037  1.00  0.00     0.200 A 
ATOM     57  F   UNL A   1      44.773  26.285  25.003  1.00  0.00    -0.200 F 
ATOM     58  F   UNL A   1      44.470  23.575  25.063  1.00  0.00    -0.200 F 
ENDBRANCH  24  48
BRANCH  36  59
ATOM     59  C   UNL A   1      45.201  27.283  34.555  1.00  0.00     0.064 A 
ATOM     60  C   UNL A   1      45.100  26.110  35.318  1.00  0.00     0.173 A 
ATOM     61  C   UNL A   1      46.434  27.953  34.538  1.00  0.00     0.173 A 
ATOM     62  F   UNL A   1      43.937  25.443  35.379  1.00  0.00    -0.203 F 
ATOM     63  C   UNL A   1      46.178  25.650  36.067  1.00  0.00     0.198 A 
ATOM     64  C   UNL A   1      47.520  27.470  35.259  1.00  0.00     0.198 A 
ATOM     65  F   UNL A   1      46.583  29.077  33.819  1.00  0.00    -0.203 F 
ATOM     66  F   UNL A   1      46.039  24.565  36.840  1.00  0.00    -0.200 F 
ATOM     67  C   UNL A   1      47.389  26.326  36.031  1.00  0.00     0.200 A 
ATOM     68  F   UNL A   1      48.694  28.116  35.211  1.00  0.00    -0.200 F 
ATOM     69  F   UNL A   1      48.427  25.881  36.752  1.00  0.00    -0.200 F 
ENDBRANCH  36  59
ENDBRANCH  10  11
ENDBRANCH   3   5
ENDBRANCH   2   3
ENDBRANCH   1   2
BRANCH   1  70
ATOM     70  C   UNL A   1      31.867  28.437  26.986  1.00  0.00     0.275 C 
BRANCH  70  71
ATOM     71  O   UNL A   1      32.812  27.476  26.489  1.00  0.00    -0.458 OA
BRANCH  71  72
ATOM     72  C   UNL A   1      32.314  26.224  26.348  1.00  0.00     0.338 C 
ATOM     73  O   UNL A   1      31.309  25.770  26.879  1.00  0.00    -0.246 OA
BRANCH  72  74
ATOM     74  C   UNL A   1      33.094  25.474  25.348  1.00  0.00     0.067 A 
ATOM     75  C   UNL A   1      34.171  24.701  25.804  1.00  0.00     0.025 A 
ATOM     76  C   UNL A   1      32.844  25.601  23.980  1.00  0.00     0.101 A 
ATOM     77  C   UNL A   1      34.998  24.019  24.900  1.00  0.00    -0.011 A 
ATOM     78  C   UNL A   1      33.672  24.919  23.078  1.00  0.00     0.270 A 
ATOM     79  C   UNL A   1      34.718  24.106  23.530  1.00  0.00     0.094 A 
BRANCH  77  80
ATOM     80  C   UNL A   1      36.243  23.400  25.358  1.00  0.00    -0.018 A 
ATOM     81  C   UNL A   1      37.219  24.088  26.086  1.00  0.00     0.009 A 
ATOM     82  C   UNL A   1      36.484  22.062  25.006  1.00  0.00     0.009 A 
ATOM     83  C   UNL A   1      38.418  23.453  26.435  1.00  0.00     0.014 A 
ATOM     84  C   UNL A   1      37.677  21.431  25.346  1.00  0.00     0.014 A 
ATOM     85  C   UNL A   1      38.664  22.123  26.056  1.00  0.00     0.056 A 
BRANCH  85  86
ATOM     86  C   UNL A   1      39.977  21.458  26.384  1.00  0.00     0.416 C 
ATOM     87  F   UNL A   1      39.920  20.104  26.257  1.00  0.00    -0.166 F 
ATOM     88  F   UNL A   1      40.990  21.871  25.573  1.00  0.00    -0.166 F 
ATOM     89  F   UNL A   1      40.400  21.694  27.659  1.00  0.00    -0.166 F 
ENDBRANCH  85  86
ENDBRANCH  77  80
BRANCH  78  90
ATOM     90  N   UNL A   1      33.517  25.133  21.635  1.00  0.00     0.062 N 
ATOM     91  O   UNL A   1      33.279  24.145  20.929  1.00  0.00    -0.258 OA
ATOM     92  O   UNL A   1      33.650  26.291  21.212  1.00  0.00    -0.258 OA
ENDBRANCH  78  90
ENDBRANCH  72  74
ENDBRANCH  71  72
ENDBRANCH  70  71
ENDBRANCH   1  70
TORSDOF 14
ENDMDL
MODEL 3
REMARK VINA RESULT:     -10.8      4.895     10.245
REMARK SMILES O=C(OCCOC(=O)c1cc(-c2ccc(C(F)(F)F)cc2)cc([N+](=O)[O-])c1)c1ccc(-c2c3nc(c(-c4c(F)c(F)c(F)c(F)c4F)c4ccc([nH]4)c(-c4c(F)c(F)c(F)c(F)c4F)c4nc(c(-c5c(F)c(F)c(F)c(F)c5F)c5ccc2[nH]5)C=C4)C=C3)cc1
REMARK SMILES IDX 4 1 3 2 2 3 1 4 28 5 29 6 90 7 30 8 89 9 31 10 32 11 33 12
REMARK SMILES IDX 83 13 34 14 88 15 82 16 84 17 35 18 87 19 81 20 80 21 36 23
REMARK SMILES IDX 68 24 48 25 67 26 49 27 52 28 66 29 85 30 50 31 51 32 65 34
REMARK SMILES IDX 86 35 53 36 37 37 38 38 46 39 39 40 40 41 44 42 47 43 41 44
REMARK SMILES IDX 42 45 45 46 43 47 69 48 70 49 78 50 71 51 72 52 76 53 79 54
REMARK SMILES IDX 73 55 74 56 77 57 75 58 54 59 55 60 63 61 56 62 57 63 61 64
REMARK SMILES IDX 64 65 58 66 59 67 62 68 60 69 5 70 6 71 7 72 8 73 9 74 10 75
REMARK SMILES IDX 27 76 11 77 23 78 22 79 12 80 13 81 21 82 14 83 20 84 15 85
REMARK SMILES IDX 16 86 17 87 18 88 19 89 24 90 25 91 26 92
REMARK H PARENT 84 22 52 33
REMARK Flexibility Score: inf
ROOT
ATOM      1  C   UNL A   1      31.990  29.622  26.080  1.00  0.00     0.275 C 
ENDROOT
BRANCH   1   2
ATOM      2  O   UNL A   1      33.193  30.411  26.147  1.00  0.00    -0.458 OA
BRANCH   2   3
ATOM      3  C   UNL A   1      33.696  31.182  27.138  1.00  0.00     0.338 C 
ATOM      4  O   UNL A   1      33.104  32.218  27.442  1.00  0.00    -0.246 OA
BRANCH   3   5
ATOM      5  C   UNL A   1      35.005  30.925  27.814  1.00  0.00     0.060 A 
ATOM      6  C   UNL A   1      36.063  31.828  27.911  1.00  0.00     0.016 A 
ATOM      7  C   UNL A   1      35.173  29.654  28.405  1.00  0.00     0.016 A 
ATOM      8  C   UNL A   1      37.213  31.513  28.633  1.00  0.00     0.010 A 
ATOM      9  C   UNL A   1      36.320  29.333  29.136  1.00  0.00     0.010 A 
ATOM     10  C   UNL A   1      37.347  30.273  29.257  1.00  0.00    -0.014 A 
BRANCH  10  11
ATOM     11  C   UNL A   1      38.622  29.970  29.936  1.00  0.00     0.031 A 
ATOM     12  C   UNL A   1      38.916  30.623  31.249  1.00  0.00     0.074 A 
ATOM     13  C   UNL A   1      39.428  29.009  29.451  1.00  0.00     0.049 A 
ATOM     14  N   UNL A   1      39.893  30.386  32.082  1.00  0.00    -0.248 NA
ATOM     15  C   UNL A   1      37.955  31.638  31.710  1.00  0.00     0.031 C 
ATOM     16  C   UNL A   1      39.162  28.225  28.247  1.00  0.00     0.029 A 
ATOM     17  N   UNL A   1      40.618  28.511  29.911  1.00  0.00    -0.354 N 
ATOM     18  C   UNL A   1      39.629  31.169  33.195  1.00  0.00     0.074 A 
ATOM     19  C   UNL A   1      38.447  31.949  32.900  1.00  0.00     0.031 C 
ATOM     20  C   UNL A   1      40.187  27.384  28.031  1.00  0.00     0.029 A 
ATOM     21  C   UNL A   1      41.176  27.569  29.081  1.00  0.00     0.049 A 
ATOM     22  H   UNL A   1      41.035  28.801  30.755  1.00  0.00     0.167 HD
ATOM     23  C   UNL A   1      40.292  31.194  34.373  1.00  0.00     0.037 A 
ATOM     24  C   UNL A   1      42.356  26.930  29.161  1.00  0.00     0.037 A 
ATOM     25  C   UNL A   1      41.494  30.448  34.630  1.00  0.00     0.049 A 
ATOM     26  C   UNL A   1      43.176  27.118  30.404  1.00  0.00     0.074 A 
ATOM     27  C   UNL A   1      42.285  30.444  35.764  1.00  0.00     0.029 A 
ATOM     28  N   UNL A   1      42.090  29.581  33.722  1.00  0.00    -0.354 N 
ATOM     29  N   UNL A   1      42.909  27.844  31.462  1.00  0.00    -0.248 NA
ATOM     30  C   UNL A   1      44.432  26.364  30.490  1.00  0.00     0.031 C 
ATOM     31  C   UNL A   1      43.386  29.614  35.524  1.00  0.00     0.029 A 
ATOM     32  C   UNL A   1      43.255  29.056  34.261  1.00  0.00     0.049 A 
ATOM     33  H   UNL A   1      41.737  29.370  32.828  1.00  0.00     0.167 HD
ATOM     34  C   UNL A   1      43.938  27.605  32.358  1.00  0.00     0.074 A 
ATOM     35  C   UNL A   1      44.829  26.655  31.721  1.00  0.00     0.031 C 
ATOM     36  C   UNL A   1      44.126  28.116  33.600  1.00  0.00     0.037 A 
BRANCH  23  37
ATOM     37  C   UNL A   1      39.728  32.072  35.448  1.00  0.00     0.064 A 
ATOM     38  C   UNL A   1      40.145  33.405  35.593  1.00  0.00     0.173 A 
ATOM     39  C   UNL A   1      38.775  31.581  36.348  1.00  0.00     0.173 A 
ATOM     40  F   UNL A   1      41.076  33.916  34.772  1.00  0.00    -0.203 F 
ATOM     41  C   UNL A   1      39.645  34.205  36.618  1.00  0.00     0.198 A 
ATOM     42  C   UNL A   1      38.258  32.390  37.356  1.00  0.00     0.198 A 
ATOM     43  F   UNL A   1      38.350  30.312  36.257  1.00  0.00    -0.203 F 
ATOM     44  F   UNL A   1      40.096  35.458  36.770  1.00  0.00    -0.200 F 
ATOM     45  C   UNL A   1      38.698  33.699  37.495  1.00  0.00     0.200 A 
ATOM     46  F   UNL A   1      37.341  31.901  38.202  1.00  0.00    -0.200 F 
ATOM     47  F   UNL A   1      38.219  34.467  38.482  1.00  0.00    -0.200 F 
ENDBRANCH  23  37
BRANCH  24  48
ATOM     48  C   UNL A   1      42.825  26.071  28.041  1.00  0.00     0.064 A 
ATOM     49  C   UNL A   1      42.666  24.679  28.054  1.00  0.00     0.173 A 
ATOM     50  C   UNL A   1      43.487  26.639  26.940  1.00  0.00     0.173 A 
ATOM     51  F   UNL A   1      42.061  24.085  29.092  1.00  0.00    -0.203 F 
ATOM     52  C   UNL A   1      43.178  23.886  27.027  1.00  0.00     0.198 A 
ATOM     53  C   UNL A   1      43.972  25.849  25.900  1.00  0.00     0.198 A 
ATOM     54  F   UNL A   1      43.682  27.964  26.889  1.00  0.00    -0.203 F 
ATOM     55  F   UNL A   1      43.067  22.553  27.096  1.00  0.00    -0.200 F 
ATOM     56  C   UNL A   1      43.827  24.472  25.949  1.00  0.00     0.200 A 
ATOM     57  F   UNL A   1      44.600  26.418  24.862  1.00  0.00    -0.200 F 
ATOM     58  F   UNL A   1      44.330  23.706  24.972  1.00  0.00    -0.200 F 
ENDBRANCH  24  48
BRANCH  36  59
ATOM     59  C   UNL A   1      45.328  27.629  34.352  1.00  0.00     0.064 A 
ATOM     60  C   UNL A   1      46.562  28.292  34.280  1.00  0.00     0.173 A 
ATOM     61  C   UNL A   1      45.242  26.486  35.162  1.00  0.00     0.173 A 
ATOM     62  F   UNL A   1      46.698  29.379  33.504  1.00  0.00    -0.203 F 
ATOM     63  C   UNL A   1      47.674  27.807  34.958  1.00  0.00     0.198 A 
ATOM     64  C   UNL A   1      46.347  26.025  35.868  1.00  0.00     0.198 A 
ATOM     65  F   UNL A   1      44.082  25.819  35.269  1.00  0.00    -0.203 F 
ATOM     66  F   UNL A   1      48.859  28.418  34.822  1.00  0.00    -0.200 F 
ATOM     67  C   UNL A   1      47.565  26.679  35.758  1.00  0.00     0.200 A 
ATOM     68  F   UNL A   1      46.235  24.943  36.652  1.00  0.00    -0.200 F 
ATOM     69  F   UNL A   1      48.638  26.213  36.412  1.00  0.00    -0.200 F 
ENDBRANCH  36  59
ENDBRANCH  10  11
ENDBRANCH   3   5
ENDBRANCH   2   3
ENDBRANCH   1   2
BRANCH   1  70
ATOM     70  C   UNL A   1      31.980  28.367  26.959  1.00  0.00     0.275 C 
BRANCH  70  71
ATOM     71  O   UNL A   1      32.889  27.343  26.525  1.00  0.00    -0.458 OA
BRANCH  71  72
ATOM     72  C   UNL A   1      32.314  26.133  26.322  1.00  0.00     0.338 C 
ATOM     73  O   UNL A   1      31.264  25.730  26.804  1.00  0.00    -0.246 OA
BRANCH  72  74
ATOM     74  C   UNL A   1      33.077  25.368  25.320  1.00  0.00     0.067 A 
ATOM     75  C   UNL A   1      34.162  24.602  25.769  1.00  0.00     0.025 A 
ATOM     76  C   UNL A   1      32.801  25.473  23.955  1.00  0.00     0.101 A 
ATOM     77  C   UNL A   1      34.973  23.905  24.861  1.00  0.00    -0.011 A 
ATOM     78  C   UNL A   1      33.613  24.776  23.050  1.00  0.00     0.270 A 
ATOM     79  C   UNL A   1      34.667  23.970  23.496  1.00  0.00     0.094 A 
BRANCH  77  80
ATOM     80  C   UNL A   1      36.226  23.294  25.306  1.00  0.00    -0.018 A 
ATOM     81  C   UNL A   1      37.162  23.959  26.105  1.00  0.00     0.009 A 
ATOM     82  C   UNL A   1      36.518  21.992  24.868  1.00  0.00     0.009 A 
ATOM     83  C   UNL A   1      38.373  23.338  26.439  1.00  0.00     0.014 A 
ATOM     84  C   UNL A   1      37.723  21.375  25.193  1.00  0.00     0.014 A 
ATOM     85  C   UNL A   1      38.670  22.046  25.974  1.00  0.00     0.056 A 
BRANCH  85  86
ATOM     86  C   UNL A   1      39.996  21.400  26.289  1.00  0.00     0.416 C 
ATOM     87  F   UNL A   1      40.993  21.833  25.470  1.00  0.00    -0.166 F 
ATOM     88  F   UNL A   1      40.414  21.656  27.560  1.00  0.00    -0.166 F 
ATOM     89  F   UNL A   1      39.980  20.042  26.168  1.00  0.00    -0.166 F 
ENDBRANCH  85  86
ENDBRANCH  77  80
BRANCH  78  90
ATOM     90  N   UNL A   1      33.431  24.966  21.607  1.00  0.00     0.062 N 
ATOM     91  O   UNL A   1      33.329  23.955  20.901  1.00  0.00    -0.258 OA
ATOM     92  O   UNL A   1      33.407  26.131  21.183  1.00  0.00    -0.258 OA
ENDBRANCH  78  90
ENDBRANCH  72  74
ENDBRANCH  71  72
ENDBRANCH  70  71
ENDBRANCH   1  70
TORSDOF 14
ENDMDL
