MODEL 1
REMARK VINA RESULT:     -12.9      0.000      0.000
REMARK SMILES CC(C)=C1[C@H]2CC[C@@H]1[C@H](C(=O)NNC(=O)c1ccoc1C)[C@H]2C(=O)OCCOC(=O)c1ccc(-c2c3nc(c(-c4c(F)c(F)c(F)c(F)c4F)c4ccc([nH]4)c(-c4c(F)c(F)c(F)c(F)c4F)c4nc(c(-c5c(F)c(F)c(F)c(F)c5F)c5ccc2[nH]5)C=C4)C=C3)cc1
REMARK SMILES IDX 26 1 25 2 23 3 24 4 22 5 1 6 2 7 3 8 4 9 5 10 8 11 6 12 7 13
REMARK SMILES IDX 9 14 10 15 11 16 12 17 13 19 14 20 15 22 16 23 17 24 20 25
REMARK SMILES IDX 18 26 19 27 21 28 27 29 28 30 29 31 30 32 31 33 32 34 93 35
REMARK SMILES IDX 33 36 92 37 34 38 35 39 36 40 86 41 37 42 91 43 85 44 87 45
REMARK SMILES IDX 38 46 90 47 84 48 83 49 39 51 71 52 51 53 70 54 52 55 55 56
REMARK SMILES IDX 69 57 88 58 53 59 54 60 68 62 89 63 56 64 40 65 41 66 49 67
REMARK SMILES IDX 42 68 43 69 47 70 50 71 44 72 45 73 48 74 46 75 72 76 73 77
REMARK SMILES IDX 81 78 74 79 75 80 79 81 82 82 76 83 77 84 80 85 78 86 57 87
REMARK SMILES IDX 58 88 66 89 59 90 60 91 64 92 67 93 61 94 62 95 65 96 63 97
REMARK H PARENT 12 18 13 21 87 50 55 61
REMARK Flexibility Score: inf
ROOT
ATOM      1  C   UNL A   1      36.834  22.201  23.863  1.00  0.00     0.274 C 
ENDROOT
BRANCH   1   2
ATOM      2  O   UNL A   1      35.476  22.491  24.246  1.00  0.00    -0.462 OA
BRANCH   2   3
ATOM      3  C   UNL A   1      35.290  23.456  25.171  1.00  0.00     0.310 C 
ATOM      4  O   UNL A   1      36.034  24.419  25.339  1.00  0.00    -0.252 OA
BRANCH   3   5
ATOM      5  C   UNL A   1      34.043  23.274  26.010  1.00  0.00     0.119 C 
ATOM      6  C   UNL A   1      31.130  24.385  22.625  1.00  0.00     0.039 C 
ATOM      7  C   UNL A   1      31.955  24.882  23.775  1.00  0.00    -0.077 C 
ATOM      8  C   UNL A   1      32.449  26.303  23.690  1.00  0.00     0.039 C 
ATOM      9  C   UNL A   1      32.224  24.121  24.847  1.00  0.00    -0.064 C 
ATOM     10  C   UNL A   1      33.054  24.450  26.053  1.00  0.00     0.030 C 
ATOM     11  C   UNL A   1      31.811  22.722  25.254  1.00  0.00     0.029 C 
ATOM     12  C   UNL A   1      32.009  24.205  27.155  1.00  0.00     0.009 C 
ATOM     13  C   UNL A   1      31.105  23.111  26.559  1.00  0.00     0.009 C 
ATOM     14  C   UNL A   1      33.212  22.096  25.441  1.00  0.00     0.102 C 
BRANCH  14  15
ATOM     15  C   UNL A   1      33.354  20.920  26.407  1.00  0.00     0.243 C 
ATOM     16  O   UNL A   1      33.756  21.043  27.563  1.00  0.00    -0.273 OA
ATOM     17  N   UNL A   1      33.166  19.645  25.932  1.00  0.00    -0.267 N 
ATOM     18  H   UNL A   1      33.506  18.899  26.478  1.00  0.00     0.191 HD
BRANCH  17  19
ATOM     19  N   UNL A   1      32.528  19.330  24.738  1.00  0.00    -0.263 N 
ATOM     20  C   UNL A   1      32.685  18.141  24.046  1.00  0.00     0.273 C 
ATOM     21  H   UNL A   1      31.920  20.003  24.355  1.00  0.00     0.191 HD
ATOM     22  O   UNL A   1      32.153  18.013  22.944  1.00  0.00    -0.267 OA
BRANCH  20  23
ATOM     23  C   UNL A   1      33.577  17.115  24.571  1.00  0.00     0.082 A 
ATOM     24  C   UNL A   1      35.004  17.143  24.458  1.00  0.00     0.056 A 
ATOM     25  C   UNL A   1      33.289  15.921  25.215  1.00  0.00     0.113 A 
ATOM     26  C   UNL A   1      35.477  16.029  25.103  1.00  0.00     0.196 A 
ATOM     27  O   UNL A   1      34.445  15.285  25.566  1.00  0.00    -0.469 OA
ATOM     28  C   UNL A   1      32.055  15.194  25.582  1.00  0.00     0.088 C 
ENDBRANCH  20  23
ENDBRANCH  17  19
ENDBRANCH  14  15
ENDBRANCH   3   5
ENDBRANCH   2   3
ENDBRANCH   1   2
BRANCH   1  29
ATOM     29  C   UNL A   1      37.387  21.073  24.734  1.00  0.00     0.275 C 
BRANCH  29  30
ATOM     30  O   UNL A   1      37.855  21.578  26.000  1.00  0.00    -0.458 OA
BRANCH  30  31
ATOM     31  C   UNL A   1      39.171  21.372  26.243  1.00  0.00     0.338 C 
ATOM     32  O   UNL A   1      39.830  20.375  26.006  1.00  0.00    -0.246 OA
BRANCH  31  33
ATOM     33  C   UNL A   1      39.771  22.605  26.763  1.00  0.00     0.060 A 
ATOM     34  C   UNL A   1      39.353  23.822  26.223  1.00  0.00     0.016 A 
ATOM     35  C   UNL A   1      40.817  22.556  27.683  1.00  0.00     0.016 A 
ATOM     36  C   UNL A   1      39.993  25.003  26.578  1.00  0.00     0.010 A 
ATOM     37  C   UNL A   1      41.448  23.746  28.055  1.00  0.00     0.010 A 
ATOM     38  C   UNL A   1      41.050  24.973  27.492  1.00  0.00    -0.014 A 
BRANCH  38  39
ATOM     39  C   UNL A   1      41.774  26.220  27.830  1.00  0.00     0.031 A 
ATOM     40  C   UNL A   1      41.091  27.277  28.645  1.00  0.00     0.074 A 
ATOM     41  C   UNL A   1      43.038  26.397  27.405  1.00  0.00     0.049 A 
ATOM     42  N   UNL A   1      41.476  28.499  28.908  1.00  0.00    -0.248 NA
ATOM     43  C   UNL A   1      39.796  26.911  29.242  1.00  0.00     0.031 C 
ATOM     44  C   UNL A   1      43.823  25.413  26.660  1.00  0.00     0.029 A 
ATOM     45  N   UNL A   1      43.878  27.473  27.532  1.00  0.00    -0.354 N 
ATOM     46  C   UNL A   1      40.459  29.060  29.668  1.00  0.00     0.074 A 
ATOM     47  C   UNL A   1      39.437  28.047  29.823  1.00  0.00     0.031 C 
ATOM     48  C   UNL A   1      45.031  25.933  26.390  1.00  0.00     0.029 A 
ATOM     49  C   UNL A   1      45.079  27.304  26.889  1.00  0.00     0.049 A 
ATOM     50  H   UNL A   1      43.643  28.287  28.032  1.00  0.00     0.167 HD
ATOM     51  C   UNL A   1      40.389  30.310  30.182  1.00  0.00     0.037 A 
ATOM     52  C   UNL A   1      46.086  28.174  26.688  1.00  0.00     0.037 A 
ATOM     53  C   UNL A   1      41.424  31.301  30.043  1.00  0.00     0.049 A 
ATOM     54  C   UNL A   1      45.963  29.573  27.227  1.00  0.00     0.074 A 
ATOM     55  C   UNL A   1      41.453  32.597  30.528  1.00  0.00     0.029 A 
ATOM     56  N   UNL A   1      42.622  31.097  29.373  1.00  0.00    -0.354 N 
ATOM     57  N   UNL A   1      44.982  30.112  27.910  1.00  0.00    -0.248 NA
ATOM     58  C   UNL A   1      47.080  30.488  26.957  1.00  0.00     0.031 C 
ATOM     59  C   UNL A   1      42.655  33.188  30.122  1.00  0.00     0.029 A 
ATOM     60  C   UNL A   1      43.392  32.247  29.420  1.00  0.00     0.049 A 
ATOM     61  H   UNL A   1      42.886  30.259  28.929  1.00  0.00     0.167 HD
ATOM     62  C   UNL A   1      45.370  31.418  28.169  1.00  0.00     0.074 A 
ATOM     63  C   UNL A   1      46.682  31.589  27.578  1.00  0.00     0.031 C 
ATOM     64  C   UNL A   1      44.700  32.390  28.834  1.00  0.00     0.037 A 
BRANCH  51  65
ATOM     65  C   UNL A   1      39.135  30.691  30.910  1.00  0.00     0.064 A 
ATOM     66  C   UNL A   1      39.008  30.534  32.298  1.00  0.00     0.173 A 
ATOM     67  C   UNL A   1      38.055  31.252  30.210  1.00  0.00     0.173 A 
ATOM     68  F   UNL A   1      40.006  29.987  33.009  1.00  0.00    -0.203 F 
ATOM     69  C   UNL A   1      37.837  30.905  32.955  1.00  0.00     0.198 A 
ATOM     70  C   UNL A   1      36.896  31.643  30.874  1.00  0.00     0.198 A 
ATOM     71  F   UNL A   1      38.127  31.424  28.882  1.00  0.00    -0.203 F 
ATOM     72  F   UNL A   1      37.722  30.709  34.276  1.00  0.00    -0.200 F 
ATOM     73  C   UNL A   1      36.786  31.465  32.245  1.00  0.00     0.200 A 
ATOM     74  F   UNL A   1      35.885  32.192  30.187  1.00  0.00    -0.200 F 
ATOM     75  F   UNL A   1      35.663  31.826  32.879  1.00  0.00    -0.200 F 
ENDBRANCH  51  65
BRANCH  52  76
ATOM     76  C   UNL A   1      47.281  27.752  25.915  1.00  0.00     0.064 A 
ATOM     77  C   UNL A   1      48.446  27.323  26.565  1.00  0.00     0.173 A 
ATOM     78  C   UNL A   1      47.279  27.759  24.512  1.00  0.00     0.173 A 
ATOM     79  F   UNL A   1      48.502  27.321  27.905  1.00  0.00    -0.203 F 
ATOM     80  C   UNL A   1      49.566  26.922  25.840  1.00  0.00     0.198 A 
ATOM     81  C   UNL A   1      48.390  27.334  23.789  1.00  0.00     0.198 A 
ATOM     82  F   UNL A   1      46.188  28.162  23.844  1.00  0.00    -0.203 F 
ATOM     83  F   UNL A   1      50.679  26.548  26.485  1.00  0.00    -0.200 F 
ATOM     84  C   UNL A   1      49.535  26.922  24.454  1.00  0.00     0.200 A 
ATOM     85  F   UNL A   1      48.352  27.322  22.450  1.00  0.00    -0.200 F 
ATOM     86  F   UNL A   1      50.611  26.527  23.757  1.00  0.00    -0.200 F 
ENDBRANCH  52  76
BRANCH  64  87
ATOM     87  C   UNL A   1      45.391  33.711  28.991  1.00  0.00     0.064 A 
ATOM     88  C   UNL A   1      45.216  34.745  28.062  1.00  0.00     0.173 A 
ATOM     89  C   UNL A   1      46.203  33.955  30.109  1.00  0.00     0.173 A 
ATOM     90  F   UNL A   1      44.461  34.551  26.970  1.00  0.00    -0.203 F 
ATOM     91  C   UNL A   1      45.847  35.974  28.235  1.00  0.00     0.198 A 
ATOM     92  C   UNL A   1      46.813  35.192  30.292  1.00  0.00     0.198 A 
ATOM     93  F   UNL A   1      46.396  32.996  31.027  1.00  0.00    -0.203 F 
ATOM     94  F   UNL A   1      45.698  36.937  27.316  1.00  0.00    -0.200 F 
ATOM     95  C   UNL A   1      46.638  36.199  29.353  1.00  0.00     0.200 A 
ATOM     96  F   UNL A   1      47.571  35.411  31.375  1.00  0.00    -0.200 F 
ATOM     97  F   UNL A   1      47.240  37.384  29.521  1.00  0.00    -0.200 F 
ENDBRANCH  64  87
ENDBRANCH  38  39
ENDBRANCH  31  33
ENDBRANCH  30  31
ENDBRANCH  29  30
ENDBRANCH   1  29
TORSDOF 14
ENDMDL
MODEL 2
REMARK VINA RESULT:     -12.9      0.155      1.109
REMARK SMILES CC(C)=C1[C@H]2CC[C@@H]1[C@H](C(=O)NNC(=O)c1ccoc1C)[C@H]2C(=O)OCCOC(=O)c1ccc(-c2c3nc(c(-c4c(F)c(F)c(F)c(F)c4F)c4ccc([nH]4)c(-c4c(F)c(F)c(F)c(F)c4F)c4nc(c(-c5c(F)c(F)c(F)c(F)c5F)c5ccc2[nH]5)C=C4)C=C3)cc1
REMARK SMILES IDX 26 1 25 2 23 3 24 4 22 5 1 6 2 7 3 8 4 9 5 10 8 11 6 12 7 13
REMARK SMILES IDX 9 14 10 15 11 16 12 17 13 19 14 20 15 22 16 23 17 24 20 25
REMARK SMILES IDX 18 26 19 27 21 28 27 29 28 30 29 31 30 32 31 33 32 34 93 35
REMARK SMILES IDX 33 36 92 37 34 38 35 39 36 40 86 41 37 42 91 43 85 44 87 45
REMARK SMILES IDX 38 46 90 47 84 48 83 49 39 51 71 52 51 53 70 54 52 55 55 56
REMARK SMILES IDX 69 57 88 58 53 59 54 60 68 62 89 63 56 64 40 65 41 66 49 67
REMARK SMILES IDX 42 68 43 69 47 70 50 71 44 72 45 73 48 74 46 75 72 76 73 77
REMARK SMILES IDX 81 78 74 79 75 80 79 81 82 82 76 83 77 84 80 85 78 86 57 87
REMARK SMILES IDX 58 88 66 89 59 90 60 91 64 92 67 93 61 94 62 95 65 96 63 97
REMARK H PARENT 12 18 13 21 87 50 55 61
REMARK Flexibility Score: inf
ROOT
ATOM      1  C   UNL A   1      36.651  22.222  23.833  1.00  0.00     0.274 C 
ENDROOT
BRANCH   1   2
ATOM      2  O   UNL A   1      35.312  22.658  24.134  1.00  0.00    -0.462 OA
BRANCH   2   3
ATOM      3  C   UNL A   1      35.166  23.550  25.137  1.00  0.00     0.310 C 
ATOM      4  O   UNL A   1      35.924  24.492  25.353  1.00  0.00    -0.252 OA
BRANCH   3   5
ATOM      5  C   UNL A   1      33.947  23.311  26.002  1.00  0.00     0.119 C 
ATOM      6  C   UNL A   1      30.916  24.346  22.697  1.00  0.00     0.039 C 
ATOM      7  C   UNL A   1      31.748  24.861  23.833  1.00  0.00    -0.077 C 
ATOM      8  C   UNL A   1      32.186  26.302  23.753  1.00  0.00     0.039 C 
ATOM      9  C   UNL A   1      32.070  24.100  24.890  1.00  0.00    -0.064 C 
ATOM     10  C   UNL A   1      32.915  24.448  26.081  1.00  0.00     0.030 C 
ATOM     11  C   UNL A   1      31.720  22.683  25.290  1.00  0.00     0.029 C 
ATOM     12  C   UNL A   1      31.905  24.151  27.204  1.00  0.00     0.009 C 
ATOM     13  C   UNL A   1      31.030  23.030  26.616  1.00  0.00     0.009 C 
ATOM     14  C   UNL A   1      33.148  22.108  25.438  1.00  0.00     0.102 C 
BRANCH  14  15
ATOM     15  C   UNL A   1      33.357  20.929  26.388  1.00  0.00     0.243 C 
ATOM     16  O   UNL A   1      33.780  21.054  27.535  1.00  0.00    -0.273 OA
ATOM     17  N   UNL A   1      33.207  19.653  25.902  1.00  0.00    -0.267 N 
ATOM     18  H   UNL A   1      33.588  18.915  26.432  1.00  0.00     0.191 HD
BRANCH  17  19
ATOM     19  N   UNL A   1      32.554  19.326  24.719  1.00  0.00    -0.263 N 
ATOM     20  C   UNL A   1      32.702  18.129  24.038  1.00  0.00     0.273 C 
ATOM     21  H   UNL A   1      31.943  19.995  24.337  1.00  0.00     0.191 HD
ATOM     22  O   UNL A   1      32.156  17.990  22.944  1.00  0.00    -0.267 OA
BRANCH  20  23
ATOM     23  C   UNL A   1      33.599  17.108  24.563  1.00  0.00     0.082 A 
ATOM     24  C   UNL A   1      35.026  17.151  24.466  1.00  0.00     0.056 A 
ATOM     25  C   UNL A   1      33.317  15.905  25.192  1.00  0.00     0.113 A 
ATOM     26  C   UNL A   1      35.505  16.036  25.105  1.00  0.00     0.196 A 
ATOM     27  O   UNL A   1      34.476  15.278  25.550  1.00  0.00    -0.469 OA
ATOM     28  C   UNL A   1      32.086  15.162  25.540  1.00  0.00     0.088 C 
ENDBRANCH  20  23
ENDBRANCH  17  19
ENDBRANCH  14  15
ENDBRANCH   3   5
ENDBRANCH   2   3
ENDBRANCH   1   2
BRANCH   1  29
ATOM     29  C   UNL A   1      37.052  21.091  24.780  1.00  0.00     0.275 C 
BRANCH  29  30
ATOM     30  O   UNL A   1      37.615  21.613  26.000  1.00  0.00    -0.458 OA
BRANCH  30  31
ATOM     31  C   UNL A   1      38.944  21.405  26.146  1.00  0.00     0.338 C 
ATOM     32  O   UNL A   1      39.590  20.424  25.822  1.00  0.00    -0.246 OA
BRANCH  31  33
ATOM     33  C   UNL A   1      39.574  22.618  26.681  1.00  0.00     0.060 A 
ATOM     34  C   UNL A   1      39.167  23.852  26.171  1.00  0.00     0.016 A 
ATOM     35  C   UNL A   1      40.633  22.534  27.581  1.00  0.00     0.016 A 
ATOM     36  C   UNL A   1      39.832  25.015  26.538  1.00  0.00     0.010 A 
ATOM     37  C   UNL A   1      41.290  23.706  27.967  1.00  0.00     0.010 A 
ATOM     38  C   UNL A   1      40.903  24.950  27.435  1.00  0.00    -0.014 A 
BRANCH  38  39
ATOM     39  C   UNL A   1      41.652  26.179  27.785  1.00  0.00     0.031 A 
ATOM     40  C   UNL A   1      40.992  27.240  28.612  1.00  0.00     0.074 A 
ATOM     41  C   UNL A   1      42.919  26.334  27.361  1.00  0.00     0.049 A 
ATOM     42  N   UNL A   1      41.402  28.452  28.887  1.00  0.00    -0.248 NA
ATOM     43  C   UNL A   1      39.690  26.895  29.206  1.00  0.00     0.031 C 
ATOM     44  C   UNL A   1      43.684  25.342  26.605  1.00  0.00     0.029 A 
ATOM     45  N   UNL A   1      43.781  27.391  27.497  1.00  0.00    -0.354 N 
ATOM     46  C   UNL A   1      40.397  29.025  29.654  1.00  0.00     0.074 A 
ATOM     47  C   UNL A   1      39.355  28.032  29.799  1.00  0.00     0.031 C 
ATOM     48  C   UNL A   1      44.901  25.840  26.338  1.00  0.00     0.029 A 
ATOM     49  C   UNL A   1      44.978  27.204  26.851  1.00  0.00     0.049 A 
ATOM     50  H   UNL A   1      43.563  28.204  28.007  1.00  0.00     0.167 HD
ATOM     51  C   UNL A   1      40.353  30.271  30.181  1.00  0.00     0.037 A 
ATOM     52  C   UNL A   1      46.003  28.056  26.659  1.00  0.00     0.037 A 
ATOM     53  C   UNL A   1      41.409  31.242  30.052  1.00  0.00     0.049 A 
ATOM     54  C   UNL A   1      45.909  29.450  27.213  1.00  0.00     0.074 A 
ATOM     55  C   UNL A   1      41.465  32.531  30.550  1.00  0.00     0.029 A 
ATOM     56  N   UNL A   1      42.602  31.020  29.378  1.00  0.00    -0.354 N 
ATOM     57  N   UNL A   1      44.939  30.002  27.902  1.00  0.00    -0.248 NA
ATOM     58  C   UNL A   1      47.044  30.345  26.951  1.00  0.00     0.031 C 
ATOM     59  C   UNL A   1      42.678  33.102  30.149  1.00  0.00     0.029 A 
ATOM     60  C   UNL A   1      43.395  32.154  29.437  1.00  0.00     0.049 A 
ATOM     61  H   UNL A   1      42.848  30.182  28.925  1.00  0.00     0.167 HD
ATOM     62  C   UNL A   1      45.354  31.298  28.174  1.00  0.00     0.074 A 
ATOM     63  C   UNL A   1      46.669  31.448  27.584  1.00  0.00     0.031 C 
ATOM     64  C   UNL A   1      44.705  32.276  28.851  1.00  0.00     0.037 A 
BRANCH  51  65
ATOM     65  C   UNL A   1      39.108  30.670  30.915  1.00  0.00     0.064 A 
ATOM     66  C   UNL A   1      38.973  30.488  32.298  1.00  0.00     0.173 A 
ATOM     67  C   UNL A   1      38.045  31.273  30.224  1.00  0.00     0.173 A 
ATOM     68  F   UNL A   1      39.955  29.901  33.000  1.00  0.00    -0.203 F 
ATOM     69  C   UNL A   1      37.811  30.876  32.961  1.00  0.00     0.198 A 
ATOM     70  C   UNL A   1      36.895  31.681  30.893  1.00  0.00     0.198 A 
ATOM     71  F   UNL A   1      38.125  31.471  28.900  1.00  0.00    -0.203 F 
ATOM     72  F   UNL A   1      37.688  30.657  34.277  1.00  0.00    -0.200 F 
ATOM     73  C   UNL A   1      36.777  31.479  32.260  1.00  0.00     0.200 A 
ATOM     74  F   UNL A   1      35.901  32.271  30.216  1.00  0.00    -0.200 F 
ATOM     75  F   UNL A   1      35.662  31.856  32.900  1.00  0.00    -0.200 F 
ENDBRANCH  51  65
BRANCH  52  76
ATOM     76  C   UNL A   1      47.188  27.617  25.880  1.00  0.00     0.064 A 
ATOM     77  C   UNL A   1      47.219  27.738  24.485  1.00  0.00     0.173 A 
ATOM     78  C   UNL A   1      48.317  27.079  26.516  1.00  0.00     0.173 A 
ATOM     79  F   UNL A   1      46.154  28.226  23.832  1.00  0.00    -0.203 F 
ATOM     80  C   UNL A   1      48.333  27.331  23.754  1.00  0.00     0.198 A 
ATOM     81  C   UNL A   1      49.440  26.697  25.786  1.00  0.00     0.198 A 
ATOM     82  F   UNL A   1      48.336  26.943  27.850  1.00  0.00    -0.203 F 
ATOM     83  F   UNL A   1      48.324  27.426  22.417  1.00  0.00    -0.200 F 
ATOM     84  C   UNL A   1      49.444  26.817  24.405  1.00  0.00     0.200 A 
ATOM     85  F   UNL A   1      50.516  26.214  26.420  1.00  0.00    -0.200 F 
ATOM     86  F   UNL A   1      50.519  26.435  23.701  1.00  0.00    -0.200 F 
ENDBRANCH  52  76
BRANCH  64  87
ATOM     87  C   UNL A   1      45.423  33.581  29.021  1.00  0.00     0.064 A 
ATOM     88  C   UNL A   1      45.267  34.629  28.104  1.00  0.00     0.173 A 
ATOM     89  C   UNL A   1      46.244  33.795  30.138  1.00  0.00     0.173 A 
ATOM     90  F   UNL A   1      44.505  34.463  27.013  1.00  0.00    -0.203 F 
ATOM     91  C   UNL A   1      45.922  35.843  28.290  1.00  0.00     0.198 A 
ATOM     92  C   UNL A   1      46.879  35.018  30.334  1.00  0.00     0.198 A 
ATOM     93  F   UNL A   1      46.420  32.822  31.045  1.00  0.00    -0.203 F 
ATOM     94  F   UNL A   1      45.790  36.820  27.383  1.00  0.00    -0.200 F 
ATOM     95  C   UNL A   1      46.721  36.038  29.407  1.00  0.00     0.200 A 
ATOM     96  F   UNL A   1      47.644  35.209  31.417  1.00  0.00    -0.200 F 
ATOM     97  F   UNL A   1      47.347  37.210  29.587  1.00  0.00    -0.200 F 
ENDBRANCH  64  87
ENDBRANCH  38  39
ENDBRANCH  31  33
ENDBRANCH  30  31
ENDBRANCH  29  30
ENDBRANCH   1  29
TORSDOF 14
ENDMDL
MODEL 3
REMARK VINA RESULT:     -12.9      5.196     10.555
REMARK SMILES CC(C)=C1[C@H]2CC[C@@H]1[C@H](C(=O)NNC(=O)c1ccoc1C)[C@H]2C(=O)OCCOC(=O)c1ccc(-c2c3nc(c(-c4c(F)c(F)c(F)c(F)c4F)c4ccc([nH]4)c(-c4c(F)c(F)c(F)c(F)c4F)c4nc(c(-c5c(F)c(F)c(F)c(F)c5F)c5ccc2[nH]5)C=C4)C=C3)cc1
REMARK SMILES IDX 26 1 25 2 23 3 24 4 22 5 1 6 2 7 3 8 4 9 5 10 8 11 6 12 7 13
REMARK SMILES IDX 9 14 10 15 11 16 12 17 13 19 14 20 15 22 16 23 17 24 20 25
REMARK SMILES IDX 18 26 19 27 21 28 27 29 28 30 29 31 30 32 31 33 32 34 93 35
REMARK SMILES IDX 33 36 92 37 34 38 35 39 36 40 86 41 37 42 91 43 85 44 87 45
REMARK SMILES IDX 38 46 90 47 84 48 83 49 39 51 71 52 51 53 70 54 52 55 55 56
REMARK SMILES IDX 69 57 88 58 53 59 54 60 68 62 89 63 56 64 40 65 41 66 49 67
REMARK SMILES IDX 42 68 43 69 47 70 50 71 44 72 45 73 48 74 46 75 72 76 73 77
REMARK SMILES IDX 81 78 74 79 75 80 79 81 82 82 76 83 77 84 80 85 78 86 57 87
REMARK SMILES IDX 58 88 66 89 59 90 60 91 64 92 67 93 61 94 62 95 65 96 63 97
REMARK H PARENT 12 18 13 21 87 50 55 61
REMARK Flexibility Score: inf
ROOT
ATOM      1  C   UNL A   1      31.780  28.996  27.196  1.00  0.00     0.274 C 
ENDROOT
BRANCH   1   2
ATOM      2  O   UNL A   1      31.897  27.936  26.229  1.00  0.00    -0.462 OA
BRANCH   2   3
ATOM      3  C   UNL A   1      33.145  27.571  25.864  1.00  0.00     0.310 C 
ATOM      4  O   UNL A   1      34.130  27.611  26.598  1.00  0.00    -0.252 OA
BRANCH   3   5
ATOM      5  C   UNL A   1      33.251  27.074  24.438  1.00  0.00     0.119 C 
ATOM      6  C   UNL A   1      30.652  23.340  25.135  1.00  0.00     0.039 C 
ATOM      7  C   UNL A   1      32.037  23.917  25.145  1.00  0.00    -0.077 C 
ATOM      8  C   UNL A   1      33.024  23.293  26.099  1.00  0.00     0.039 C 
ATOM      9  C   UNL A   1      32.403  24.917  24.330  1.00  0.00    -0.064 C 
ATOM     10  C   UNL A   1      33.723  25.625  24.238  1.00  0.00     0.030 C 
ATOM     11  C   UNL A   1      31.685  25.675  23.233  1.00  0.00     0.029 C 
ATOM     12  C   UNL A   1      34.038  25.384  22.751  1.00  0.00     0.009 C 
ATOM     13  C   UNL A   1      32.648  25.310  22.096  1.00  0.00     0.009 C 
ATOM     14  C   UNL A   1      31.848  27.112  23.778  1.00  0.00     0.102 C 
BRANCH  14  15
ATOM     15  C   UNL A   1      31.839  28.269  22.779  1.00  0.00     0.243 C 
ATOM     16  O   UNL A   1      32.860  28.734  22.277  1.00  0.00    -0.273 OA
ATOM     17  N   UNL A   1      30.656  28.923  22.534  1.00  0.00    -0.267 N 
ATOM     18  H   UNL A   1      30.704  29.808  22.104  1.00  0.00     0.191 HD
BRANCH  17  19
ATOM     19  N   UNL A   1      29.395  28.427  22.846  1.00  0.00    -0.263 N 
ATOM     20  C   UNL A   1      28.212  29.134  22.719  1.00  0.00     0.273 C 
ATOM     21  H   UNL A   1      29.341  27.504  23.185  1.00  0.00     0.191 HD
ATOM     22  O   UNL A   1      27.165  28.631  23.126  1.00  0.00    -0.267 OA
BRANCH  20  23
ATOM     23  C   UNL A   1      28.242  30.505  22.226  1.00  0.00     0.082 A 
ATOM     24  C   UNL A   1      27.914  30.896  20.889  1.00  0.00     0.056 A 
ATOM     25  C   UNL A   1      28.616  31.678  22.863  1.00  0.00     0.113 A 
ATOM     26  C   UNL A   1      28.029  32.262  20.833  1.00  0.00     0.196 A 
ATOM     27  O   UNL A   1      28.451  32.743  22.025  1.00  0.00    -0.469 OA
ATOM     28  C   UNL A   1      29.153  32.027  24.197  1.00  0.00     0.088 C 
ENDBRANCH  20  23
ENDBRANCH  17  19
ENDBRANCH  14  15
ENDBRANCH   3   5
ENDBRANCH   2   3
ENDBRANCH   1   2
BRANCH   1  29
ATOM     29  C   UNL A   1      31.820  30.350  26.488  1.00  0.00     0.275 C 
BRANCH  29  30
ATOM     30  O   UNL A   1      33.175  30.821  26.349  1.00  0.00    -0.458 OA
BRANCH  30  31
ATOM     31  C   UNL A   1      33.544  31.761  27.251  1.00  0.00     0.338 C 
ATOM     32  O   UNL A   1      32.913  32.735  27.621  1.00  0.00    -0.246 OA
BRANCH  31  33
ATOM     33  C   UNL A   1      34.833  31.388  27.846  1.00  0.00     0.060 A 
ATOM     34  C   UNL A   1      34.974  30.098  28.360  1.00  0.00     0.016 A 
ATOM     35  C   UNL A   1      35.846  32.331  28.004  1.00  0.00     0.016 A 
ATOM     36  C   UNL A   1      36.121  29.744  29.060  1.00  0.00     0.010 A 
ATOM     37  C   UNL A   1      37.008  31.971  28.690  1.00  0.00     0.010 A 
ATOM     38  C   UNL A   1      37.144  30.680  29.236  1.00  0.00    -0.014 A 
BRANCH  38  39
ATOM     39  C   UNL A   1      38.343  30.327  30.031  1.00  0.00     0.031 A 
ATOM     40  C   UNL A   1      39.369  29.399  29.454  1.00  0.00     0.074 A 
ATOM     41  C   UNL A   1      38.505  30.842  31.263  1.00  0.00     0.049 A 
ATOM     42  N   UNL A   1      40.395  28.833  30.036  1.00  0.00    -0.248 NA
ATOM     43  C   UNL A   1      39.217  29.056  28.031  1.00  0.00     0.031 C 
ATOM     44  C   UNL A   1      37.605  31.803  31.901  1.00  0.00     0.029 A 
ATOM     45  N   UNL A   1      39.479  30.618  32.201  1.00  0.00    -0.354 N 
ATOM     46  C   UNL A   1      40.990  28.041  29.064  1.00  0.00     0.074 A 
ATOM     47  C   UNL A   1      40.210  28.196  27.854  1.00  0.00     0.031 C 
ATOM     48  C   UNL A   1      38.066  32.083  33.130  1.00  0.00     0.029 A 
ATOM     49  C   UNL A   1      39.255  31.276  33.385  1.00  0.00     0.049 A 
ATOM     50  H   UNL A   1      40.260  30.042  32.042  1.00  0.00     0.167 HD
ATOM     51  C   UNL A   1      42.085  27.254  29.179  1.00  0.00     0.037 A 
ATOM     52  C   UNL A   1      39.914  31.202  34.557  1.00  0.00     0.037 A 
ATOM     53  C   UNL A   1      42.869  27.129  30.380  1.00  0.00     0.049 A 
ATOM     54  C   UNL A   1      41.098  30.283  34.674  1.00  0.00     0.074 A 
ATOM     55  C   UNL A   1      43.997  26.360  30.602  1.00  0.00     0.029 A 
ATOM     56  N   UNL A   1      42.603  27.802  31.565  1.00  0.00    -0.354 N 
ATOM     57  N   UNL A   1      41.633  29.504  33.765  1.00  0.00    -0.248 NA
ATOM     58  C   UNL A   1      41.762  30.221  35.983  1.00  0.00     0.031 C 
ATOM     59  C   UNL A   1      44.397  26.543  31.930  1.00  0.00     0.029 A 
ATOM     60  C   UNL A   1      43.540  27.456  32.524  1.00  0.00     0.049 A 
ATOM     61  H   UNL A   1      41.859  28.431  31.703  1.00  0.00     0.167 HD
ATOM     62  C   UNL A   1      42.706  28.878  34.382  1.00  0.00     0.074 A 
ATOM     63  C   UNL A   1      42.753  29.374  35.742  1.00  0.00     0.031 C 
ATOM     64  C   UNL A   1      43.573  27.972  33.869  1.00  0.00     0.037 A 
BRANCH  51  65
ATOM     65  C   UNL A   1      42.480  26.437  27.985  1.00  0.00     0.064 A 
ATOM     66  C   UNL A   1      41.960  25.154  27.760  1.00  0.00     0.173 A 
ATOM     67  C   UNL A   1      43.371  26.962  27.035  1.00  0.00     0.173 A 
ATOM     68  F   UNL A   1      41.119  24.602  28.648  1.00  0.00    -0.203 F 
ATOM     69  C   UNL A   1      42.333  24.418  26.638  1.00  0.00     0.198 A 
ATOM     70  C   UNL A   1      43.722  26.233  25.903  1.00  0.00     0.198 A 
ATOM     71  F   UNL A   1      43.894  28.185  27.204  1.00  0.00    -0.203 F 
ATOM     72  F   UNL A   1      41.855  23.179  26.463  1.00  0.00    -0.200 F 
ATOM     73  C   UNL A   1      43.207  24.960  25.707  1.00  0.00     0.200 A 
ATOM     74  F   UNL A   1      44.560  26.762  25.001  1.00  0.00    -0.200 F 
ATOM     75  F   UNL A   1      43.561  24.253  24.626  1.00  0.00    -0.200 F 
ENDBRANCH  51  65
BRANCH  52  76
ATOM     76  C   UNL A   1      39.443  31.998  35.718  1.00  0.00     0.064 A 
ATOM     77  C   UNL A   1      38.464  31.498  36.586  1.00  0.00     0.173 A 
ATOM     78  C   UNL A   1      39.970  33.270  35.989  1.00  0.00     0.173 A 
ATOM     79  F   UNL A   1      37.915  30.297  36.354  1.00  0.00    -0.203 F 
ATOM     80  C   UNL A   1      38.024  32.243  37.678  1.00  0.00     0.198 A 
ATOM     81  C   UNL A   1      39.548  34.003  37.095  1.00  0.00     0.198 A 
ATOM     82  F   UNL A   1      40.909  33.792  35.187  1.00  0.00    -0.203 F 
ATOM     83  F   UNL A   1      37.062  31.757  38.474  1.00  0.00    -0.200 F 
ATOM     84  C   UNL A   1      38.571  33.491  37.936  1.00  0.00     0.200 A 
ATOM     85  F   UNL A   1      40.089  35.202  37.348  1.00  0.00    -0.200 F 
ATOM     86  F   UNL A   1      38.154  34.203  38.992  1.00  0.00    -0.200 F 
ENDBRANCH  52  76
BRANCH  64  87
ATOM     87  C   UNL A   1      44.668  27.489  34.771  1.00  0.00     0.064 A 
ATOM     88  C   UNL A   1      44.520  26.334  35.552  1.00  0.00     0.173 A 
ATOM     89  C   UNL A   1      45.895  28.169  34.821  1.00  0.00     0.173 A 
ATOM     90  F   UNL A   1      43.360  25.662  35.548  1.00  0.00    -0.203 F 
ATOM     91  C   UNL A   1      45.556  25.886  36.366  1.00  0.00     0.198 A 
ATOM     92  C   UNL A   1      46.937  27.705  35.618  1.00  0.00     0.198 A 
ATOM     93  F   UNL A   1      46.084  29.276  34.088  1.00  0.00    -0.203 F 
ATOM     94  F   UNL A   1      45.382  24.802  37.133  1.00  0.00    -0.200 F 
ATOM     95  C   UNL A   1      46.765  26.567  36.393  1.00  0.00     0.200 A 
ATOM     96  F   UNL A   1      48.106  28.359  35.637  1.00  0.00    -0.200 F 
ATOM     97  F   UNL A   1      47.763  26.131  37.173  1.00  0.00    -0.200 F 
ENDBRANCH  64  87
ENDBRANCH  38  39
ENDBRANCH  31  33
ENDBRANCH  30  31
ENDBRANCH  29  30
ENDBRANCH   1  29
TORSDOF 14
ENDMDL
