MODEL 1
REMARK VINA RESULT:     -11.1      0.000      0.000
REMARK SMILES C[C@H](NC(=O)N(CC(=O)OCCOC(=O)c1ccc(-c2c3nc(c(-c4c(F)c(F)c(F)c(F)c4F)c4ccc([nH]4)c(-c4c(F)c(F)c(F)c(F)c4F)c4nc(c(-c5c(F)c(F)c(F)c(F)c5F)c5ccc2[nH]5)C=C4)C=C3)cc1)CC(F)(F)F)[C@@H]1CCCO1
REMARK SMILES IDX 11 1 10 2 8 3 9 4 7 5 6 6 4 7 3 8 5 10 2 11 1 12 84 13 85 14
REMARK SMILES IDX 88 15 86 16 87 17 79 18 80 19 81 20 82 21 83 22 12 23 13 24
REMARK SMILES IDX 14 25 15 26 16 27 17 28 78 29 18 30 77 31 19 32 20 33 21 34
REMARK SMILES IDX 71 35 22 36 76 37 70 38 72 39 23 40 75 41 69 42 68 43 24 45
REMARK SMILES IDX 56 46 36 47 55 48 37 49 40 50 54 51 73 52 38 53 39 54 53 56
REMARK SMILES IDX 74 57 41 58 25 59 26 60 34 61 27 62 28 63 32 64 35 65 29 66
REMARK SMILES IDX 30 67 33 68 31 69 57 70 58 71 66 72 59 73 60 74 64 75 67 76
REMARK SMILES IDX 61 77 62 78 65 79 63 80 42 81 43 82 51 83 44 84 45 85 49 86
REMARK SMILES IDX 52 87 46 88 47 89 50 90 48 91
REMARK H PARENT 3 9 72 44 40 55
REMARK Flexibility Score: inf
ROOT
ATOM      1  C   UNL A   1      31.303  29.310  24.338  1.00  0.00     0.274 C 
ENDROOT
BRANCH   1   2
ATOM      2  O   UNL A   1      30.602  28.053  24.306  1.00  0.00    -0.461 OA
BRANCH   2   3
ATOM      3  C   UNL A   1      30.584  27.406  23.117  1.00  0.00     0.325 C 
ATOM      4  O   UNL A   1      30.741  27.945  22.025  1.00  0.00    -0.250 OA
BRANCH   3   5
ATOM      5  C   UNL A   1      30.568  25.886  23.281  1.00  0.00     0.244 C 
BRANCH   5   6
ATOM      6  N   UNL A   1      31.851  25.234  23.477  1.00  0.00    -0.305 N 
BRANCH   6   7
ATOM      7  C   UNL A   1      32.566  24.578  22.522  1.00  0.00     0.318 C 
ATOM      8  N   UNL A   1      32.647  23.240  22.449  1.00  0.00    -0.333 N 
ATOM      9  H   UNL A   1      33.364  22.973  21.830  1.00  0.00     0.165 HD
ATOM     10  O   UNL A   1      33.190  25.203  21.662  1.00  0.00    -0.249 OA
BRANCH   8  11
ATOM     11  C   UNL A   1      31.988  22.053  23.017  1.00  0.00     0.109 C 
ATOM     12  C   UNL A   1      31.945  20.952  21.957  1.00  0.00     0.034 C 
BRANCH  11  13
ATOM     13  C   UNL A   1      32.736  21.575  24.279  1.00  0.00     0.140 C 
ATOM     14  C   UNL A   1      34.230  21.875  24.242  1.00  0.00     0.036 C 
ATOM     15  O   UNL A   1      32.606  20.146  24.438  1.00  0.00    -0.376 OA
ATOM     16  C   UNL A   1      34.787  20.772  25.106  1.00  0.00     0.031 C 
ATOM     17  C   UNL A   1      33.908  19.605  24.714  1.00  0.00     0.160 C 
ENDBRANCH  11  13
ENDBRANCH   8  11
ENDBRANCH   6   7
BRANCH   6  18
ATOM     18  C   UNL A   1      32.450  25.324  24.834  1.00  0.00     0.237 C 
BRANCH  18  19
ATOM     19  C   UNL A   1      33.721  26.169  25.015  1.00  0.00     0.406 C 
ATOM     20  F   UNL A   1      33.856  27.142  24.093  1.00  0.00    -0.169 F 
ATOM     21  F   UNL A   1      33.676  26.787  26.226  1.00  0.00    -0.169 F 
ATOM     22  F   UNL A   1      34.847  25.424  25.000  1.00  0.00    -0.169 F 
ENDBRANCH  18  19
ENDBRANCH   6  18
ENDBRANCH   5   6
ENDBRANCH   3   5
ENDBRANCH   2   3
ENDBRANCH   1   2
BRANCH   1  23
ATOM     23  C   UNL A   1      31.690  29.672  25.774  1.00  0.00     0.275 C 
BRANCH  23  24
ATOM     24  O   UNL A   1      33.051  30.145  25.845  1.00  0.00    -0.458 OA
BRANCH  24  25
ATOM     25  C   UNL A   1      33.308  31.048  26.818  1.00  0.00     0.338 C 
ATOM     26  O   UNL A   1      32.574  31.926  27.242  1.00  0.00    -0.246 OA
BRANCH  25  27
ATOM     27  C   UNL A   1      34.621  30.779  27.421  1.00  0.00     0.060 A 
ATOM     28  C   UNL A   1      34.942  29.468  27.773  1.00  0.00     0.016 A 
ATOM     29  C   UNL A   1      35.459  31.831  27.785  1.00  0.00     0.016 A 
ATOM     30  C   UNL A   1      36.062  29.207  28.549  1.00  0.00     0.010 A 
ATOM     31  C   UNL A   1      36.635  31.558  28.494  1.00  0.00     0.010 A 
ATOM     32  C   UNL A   1      36.933  30.246  28.901  1.00  0.00    -0.014 A 
BRANCH  32  33
ATOM     33  C   UNL A   1      38.145  29.937  29.698  1.00  0.00     0.031 A 
ATOM     34  C   UNL A   1      39.246  29.097  29.118  1.00  0.00     0.074 A 
ATOM     35  C   UNL A   1      38.276  30.455  30.934  1.00  0.00     0.049 A 
ATOM     36  N   UNL A   1      40.318  28.625  29.702  1.00  0.00    -0.248 NA
ATOM     37  C   UNL A   1      39.128  28.738  27.696  1.00  0.00     0.031 C 
ATOM     38  C   UNL A   1      37.305  31.332  31.591  1.00  0.00     0.029 A 
ATOM     39  N   UNL A   1      39.289  30.338  31.851  1.00  0.00    -0.354 N 
ATOM     40  C   UNL A   1      40.971  27.868  28.738  1.00  0.00     0.074 A 
ATOM     41  C   UNL A   1      40.187  27.958  27.525  1.00  0.00     0.031 C 
ATOM     42  C   UNL A   1      37.790  31.713  32.782  1.00  0.00     0.029 A 
ATOM     43  C   UNL A   1      39.067  31.044  33.006  1.00  0.00     0.049 A 
ATOM     44  H   UNL A   1      40.098  29.798  31.696  1.00  0.00     0.167 HD
ATOM     45  C   UNL A   1      42.117  27.159  28.863  1.00  0.00     0.037 A 
ATOM     46  C   UNL A   1      39.792  31.121  34.136  1.00  0.00     0.037 A 
ATOM     47  C   UNL A   1      42.925  27.119  30.053  1.00  0.00     0.049 A 
ATOM     48  C   UNL A   1      41.042  30.301  34.260  1.00  0.00     0.074 A 
ATOM     49  C   UNL A   1      44.119  26.450  30.266  1.00  0.00     0.029 A 
ATOM     50  N   UNL A   1      42.626  27.790  31.228  1.00  0.00    -0.354 N 
ATOM     51  N   UNL A   1      41.612  29.528  33.368  1.00  0.00    -0.248 NA
ATOM     52  C   UNL A   1      41.726  30.331  35.560  1.00  0.00     0.031 C 
ATOM     53  C   UNL A   1      44.531  26.701  31.581  1.00  0.00     0.029 A 
ATOM     54  C   UNL A   1      43.604  27.539  32.178  1.00  0.00     0.049 A 
ATOM     55  H   UNL A   1      41.836  28.360  31.368  1.00  0.00     0.167 HD
ATOM     56  C   UNL A   1      42.710  28.966  34.001  1.00  0.00     0.074 A 
ATOM     57  C   UNL A   1      42.744  29.508  35.344  1.00  0.00     0.031 C 
ATOM     58  C   UNL A   1      43.602  28.071  33.515  1.00  0.00     0.037 A 
BRANCH  45  59
ATOM     59  C   UNL A   1      42.545  26.333  27.690  1.00  0.00     0.064 A 
ATOM     60  C   UNL A   1      43.492  26.794  26.767  1.00  0.00     0.173 A 
ATOM     61  C   UNL A   1      42.014  25.047  27.508  1.00  0.00     0.173 A 
ATOM     62  F   UNL A   1      44.014  28.024  26.892  1.00  0.00    -0.203 F 
ATOM     63  C   UNL A   1      43.885  25.999  25.693  1.00  0.00     0.198 A 
ATOM     64  C   UNL A   1      42.420  24.250  26.442  1.00  0.00     0.198 A 
ATOM     65  F   UNL A   1      41.102  24.565  28.366  1.00  0.00    -0.203 F 
ATOM     66  F   UNL A   1      44.772  26.468  24.804  1.00  0.00    -0.200 F 
ATOM     67  C   UNL A   1      43.353  24.727  25.534  1.00  0.00     0.200 A 
ATOM     68  F   UNL A   1      41.906  23.022  26.291  1.00  0.00    -0.200 F 
ATOM     69  F   UNL A   1      43.734  23.965  24.499  1.00  0.00    -0.200 F 
ENDBRANCH  45  59
BRANCH  46  70
ATOM     70  C   UNL A   1      39.319  31.973  35.252  1.00  0.00     0.064 A 
ATOM     71  C   UNL A   1      39.619  33.341  35.286  1.00  0.00     0.173 A 
ATOM     72  C   UNL A   1      38.525  31.447  36.281  1.00  0.00     0.173 A 
ATOM     73  F   UNL A   1      40.392  33.880  34.332  1.00  0.00    -0.203 F 
ATOM     74  C   UNL A   1      39.136  34.155  36.307  1.00  0.00     0.198 A 
ATOM     75  C   UNL A   1      38.027  32.266  37.291  1.00  0.00     0.198 A 
ATOM     76  F   UNL A   1      38.213  30.143  36.289  1.00  0.00    -0.203 F 
ATOM     77  F   UNL A   1      39.447  35.457  36.327  1.00  0.00    -0.200 F 
ATOM     78  C   UNL A   1      38.333  33.619  37.304  1.00  0.00     0.200 A 
ATOM     79  F   UNL A   1      37.241  31.747  38.245  1.00  0.00    -0.200 F 
ATOM     80  F   UNL A   1      37.855  34.406  38.277  1.00  0.00    -0.200 F 
ENDBRANCH  46  70
BRANCH  58  81
ATOM     81  C   UNL A   1      44.669  27.608  34.453  1.00  0.00     0.064 A 
ATOM     82  C   UNL A   1      45.869  28.322  34.586  1.00  0.00     0.173 A 
ATOM     83  C   UNL A   1      44.488  26.463  35.240  1.00  0.00     0.173 A 
ATOM     84  F   UNL A   1      46.091  29.414  33.839  1.00  0.00    -0.203 F 
ATOM     85  C   UNL A   1      46.858  27.895  35.467  1.00  0.00     0.198 A 
ATOM     86  C   UNL A   1      45.473  26.046  36.130  1.00  0.00     0.198 A 
ATOM     87  F   UNL A   1      43.356  25.749  35.142  1.00  0.00    -0.203 F 
ATOM     88  F   UNL A   1      48.010  28.572  35.559  1.00  0.00    -0.200 F 
ATOM     89  C   UNL A   1      46.658  26.760  36.240  1.00  0.00     0.200 A 
ATOM     90  F   UNL A   1      45.280  24.950  36.876  1.00  0.00    -0.200 F 
ATOM     91  F   UNL A   1      47.612  26.348  37.086  1.00  0.00    -0.200 F 
ENDBRANCH  58  81
ENDBRANCH  32  33
ENDBRANCH  25  27
ENDBRANCH  24  25
ENDBRANCH  23  24
ENDBRANCH   1  23
TORSDOF 17
ENDMDL
MODEL 2
REMARK VINA RESULT:     -10.9      1.265      2.641
REMARK SMILES C[C@H](NC(=O)N(CC(=O)OCCOC(=O)c1ccc(-c2c3nc(c(-c4c(F)c(F)c(F)c(F)c4F)c4ccc([nH]4)c(-c4c(F)c(F)c(F)c(F)c4F)c4nc(c(-c5c(F)c(F)c(F)c(F)c5F)c5ccc2[nH]5)C=C4)C=C3)cc1)CC(F)(F)F)[C@@H]1CCCO1
REMARK SMILES IDX 11 1 10 2 8 3 9 4 7 5 6 6 4 7 3 8 5 10 2 11 1 12 84 13 85 14
REMARK SMILES IDX 88 15 86 16 87 17 79 18 80 19 81 20 82 21 83 22 12 23 13 24
REMARK SMILES IDX 14 25 15 26 16 27 17 28 78 29 18 30 77 31 19 32 20 33 21 34
REMARK SMILES IDX 71 35 22 36 76 37 70 38 72 39 23 40 75 41 69 42 68 43 24 45
REMARK SMILES IDX 56 46 36 47 55 48 37 49 40 50 54 51 73 52 38 53 39 54 53 56
REMARK SMILES IDX 74 57 41 58 25 59 26 60 34 61 27 62 28 63 32 64 35 65 29 66
REMARK SMILES IDX 30 67 33 68 31 69 57 70 58 71 66 72 59 73 60 74 64 75 67 76
REMARK SMILES IDX 61 77 62 78 65 79 63 80 42 81 43 82 51 83 44 84 45 85 49 86
REMARK SMILES IDX 52 87 46 88 47 89 50 90 48 91
REMARK H PARENT 3 9 72 44 40 55
REMARK Flexibility Score: inf
ROOT
ATOM      1  C   UNL A   1      31.293  29.051  25.002  1.00  0.00     0.274 C 
ENDROOT
BRANCH   1   2
ATOM      2  O   UNL A   1      32.189  27.948  25.231  1.00  0.00    -0.461 OA
BRANCH   2   3
ATOM      3  C   UNL A   1      31.722  26.947  26.014  1.00  0.00     0.325 C 
ATOM      4  O   UNL A   1      30.654  26.974  26.620  1.00  0.00    -0.250 OA
BRANCH   3   5
ATOM      5  C   UNL A   1      32.560  25.674  25.896  1.00  0.00     0.244 C 
BRANCH   5   6
ATOM      6  N   UNL A   1      31.847  24.446  25.589  1.00  0.00    -0.305 N 
BRANCH   6   7
ATOM      7  C   UNL A   1      31.503  23.479  26.484  1.00  0.00     0.318 C 
ATOM      8  N   UNL A   1      32.153  22.310  26.594  1.00  0.00    -0.333 N 
ATOM      9  H   UNL A   1      31.633  21.679  27.142  1.00  0.00     0.165 HD
ATOM     10  O   UNL A   1      30.551  23.641  27.251  1.00  0.00    -0.249 OA
BRANCH   8  11
ATOM     11  C   UNL A   1      33.407  21.688  26.141  1.00  0.00     0.109 C 
ATOM     12  C   UNL A   1      34.451  21.805  27.253  1.00  0.00     0.034 C 
BRANCH  11  13
ATOM     13  C   UNL A   1      33.169  20.213  25.761  1.00  0.00     0.140 C 
ATOM     14  C   UNL A   1      34.309  19.609  24.949  1.00  0.00     0.036 C 
ATOM     15  O   UNL A   1      31.976  20.079  24.959  1.00  0.00    -0.376 OA
ATOM     16  C   UNL A   1      33.591  18.554  24.146  1.00  0.00     0.031 C 
ATOM     17  C   UNL A   1      32.286  19.250  23.828  1.00  0.00     0.160 C 
ENDBRANCH  11  13
ENDBRANCH   8  11
ENDBRANCH   6   7
BRANCH   6  18
ATOM     18  C   UNL A   1      31.425  24.248  24.178  1.00  0.00     0.237 C 
BRANCH  18  19
ATOM     19  C   UNL A   1      32.455  23.697  23.180  1.00  0.00     0.406 C 
ATOM     20  F   UNL A   1      32.209  22.429  22.796  1.00  0.00    -0.169 F 
ATOM     21  F   UNL A   1      32.432  24.455  22.051  1.00  0.00    -0.169 F 
ATOM     22  F   UNL A   1      33.718  23.748  23.656  1.00  0.00    -0.169 F 
ENDBRANCH  18  19
ENDBRANCH   6  18
ENDBRANCH   5   6
ENDBRANCH   3   5
ENDBRANCH   2   3
ENDBRANCH   1   2
BRANCH   1  23
ATOM     23  C   UNL A   1      31.631  30.218  25.933  1.00  0.00     0.275 C 
BRANCH  23  24
ATOM     24  O   UNL A   1      33.041  30.254  26.235  1.00  0.00    -0.458 OA
BRANCH  24  25
ATOM     25  C   UNL A   1      33.450  31.290  27.000  1.00  0.00     0.338 C 
ATOM     26  O   UNL A   1      32.851  32.323  27.251  1.00  0.00    -0.246 OA
BRANCH  25  27
ATOM     27  C   UNL A   1      34.745  30.977  27.621  1.00  0.00     0.060 A 
ATOM     28  C   UNL A   1      35.014  29.657  27.984  1.00  0.00     0.016 A 
ATOM     29  C   UNL A   1      35.617  32.000  27.990  1.00  0.00     0.016 A 
ATOM     30  C   UNL A   1      36.114  29.360  28.776  1.00  0.00     0.010 A 
ATOM     31  C   UNL A   1      36.773  31.688  28.716  1.00  0.00     0.010 A 
ATOM     32  C   UNL A   1      37.018  30.368  29.133  1.00  0.00    -0.014 A 
BRANCH  32  33
ATOM     33  C   UNL A   1      38.208  30.020  29.947  1.00  0.00     0.031 A 
ATOM     34  C   UNL A   1      39.303  29.171  29.372  1.00  0.00     0.074 A 
ATOM     35  C   UNL A   1      38.324  30.510  31.196  1.00  0.00     0.049 A 
ATOM     36  N   UNL A   1      40.355  28.666  29.966  1.00  0.00    -0.248 NA
ATOM     37  C   UNL A   1      39.207  28.843  27.941  1.00  0.00     0.031 C 
ATOM     38  C   UNL A   1      37.356  31.393  31.851  1.00  0.00     0.029 A 
ATOM     39  N   UNL A   1      39.316  30.355  32.130  1.00  0.00    -0.354 N 
ATOM     40  C   UNL A   1      41.012  27.917  29.001  1.00  0.00     0.074 A 
ATOM     41  C   UNL A   1      40.254  28.046  27.774  1.00  0.00     0.031 C 
ATOM     42  C   UNL A   1      37.825  31.740  33.059  1.00  0.00     0.029 A 
ATOM     43  C   UNL A   1      39.084  31.043  33.295  1.00  0.00     0.049 A 
ATOM     44  H   UNL A   1      40.117  29.803  31.979  1.00  0.00     0.167 HD
ATOM     45  C   UNL A   1      42.142  27.183  29.133  1.00  0.00     0.037 A 
ATOM     46  C   UNL A   1      39.788  31.082  34.440  1.00  0.00     0.037 A 
ATOM     47  C   UNL A   1      42.925  27.103  30.337  1.00  0.00     0.049 A 
ATOM     48  C   UNL A   1      41.019  30.236  34.571  1.00  0.00     0.074 A 
ATOM     49  C   UNL A   1      44.102  26.408  30.560  1.00  0.00     0.029 A 
ATOM     50  N   UNL A   1      42.616  27.756  31.520  1.00  0.00    -0.354 N 
ATOM     51  N   UNL A   1      41.592  29.471  33.675  1.00  0.00    -0.248 NA
ATOM     52  C   UNL A   1      41.678  30.227  35.885  1.00  0.00     0.031 C 
ATOM     53  C   UNL A   1      44.492  26.624  31.888  1.00  0.00     0.029 A 
ATOM     54  C   UNL A   1      43.569  27.468  32.483  1.00  0.00     0.049 A 
ATOM     55  H   UNL A   1      41.834  28.338  31.656  1.00  0.00     0.167 HD
ATOM     56  C   UNL A   1      42.666  28.874  34.317  1.00  0.00     0.074 A 
ATOM     57  C   UNL A   1      42.684  29.389  35.672  1.00  0.00     0.031 C 
ATOM     58  C   UNL A   1      43.551  27.972  33.831  1.00  0.00     0.037 A 
BRANCH  45  59
ATOM     59  C   UNL A   1      42.577  26.372  27.951  1.00  0.00     0.064 A 
ATOM     60  C   UNL A   1      42.045  25.104  27.690  1.00  0.00     0.173 A 
ATOM     61  C   UNL A   1      43.523  26.892  27.055  1.00  0.00     0.173 A 
ATOM     62  F   UNL A   1      41.151  24.560  28.530  1.00  0.00    -0.203 F 
ATOM     63  C   UNL A   1      42.455  24.376  26.576  1.00  0.00     0.198 A 
ATOM     64  C   UNL A   1      43.918  26.169  25.934  1.00  0.00     0.198 A 
ATOM     65  F   UNL A   1      44.061  28.103  27.266  1.00  0.00    -0.203 F 
ATOM     66  F   UNL A   1      41.957  23.151  26.357  1.00  0.00    -0.200 F 
ATOM     67  C   UNL A   1      43.387  24.910  25.697  1.00  0.00     0.200 A 
ATOM     68  F   UNL A   1      44.817  26.687  25.086  1.00  0.00    -0.200 F 
ATOM     69  F   UNL A   1      43.779  24.207  24.625  1.00  0.00    -0.200 F 
ENDBRANCH  45  59
BRANCH  46  70
ATOM     70  C   UNL A   1      39.309  31.921  35.564  1.00  0.00     0.064 A 
ATOM     71  C   UNL A   1      38.452  31.393  36.537  1.00  0.00     0.173 A 
ATOM     72  C   UNL A   1      39.732  33.250  35.709  1.00  0.00     0.173 A 
ATOM     73  F   UNL A   1      38.008  30.133  36.425  1.00  0.00    -0.203 F 
ATOM     74  C   UNL A   1      38.039  32.164  37.621  1.00  0.00     0.198 A 
ATOM     75  C   UNL A   1      39.334  34.013  36.804  1.00  0.00     0.198 A 
ATOM     76  F   UNL A   1      40.555  33.796  34.801  1.00  0.00    -0.203 F 
ATOM     77  F   UNL A   1      37.207  31.644  38.532  1.00  0.00    -0.200 F 
ATOM     78  C   UNL A   1      38.487  33.470  37.758  1.00  0.00     0.200 A 
ATOM     79  F   UNL A   1      39.779  35.269  36.939  1.00  0.00    -0.200 F 
ATOM     80  F   UNL A   1      38.102  34.205  38.810  1.00  0.00    -0.200 F 
ENDBRANCH  46  70
BRANCH  58  81
ATOM     81  C   UNL A   1      44.591  27.470  34.780  1.00  0.00     0.064 A 
ATOM     82  C   UNL A   1      44.376  26.308  35.533  1.00  0.00     0.173 A 
ATOM     83  C   UNL A   1      45.814  28.139  34.924  1.00  0.00     0.173 A 
ATOM     84  F   UNL A   1      43.212  25.648  35.439  1.00  0.00    -0.203 F 
ATOM     85  C   UNL A   1      45.349  25.837  36.411  1.00  0.00     0.198 A 
ATOM     86  C   UNL A   1      46.790  27.658  35.792  1.00  0.00     0.198 A 
ATOM     87  F   UNL A   1      46.059  29.256  34.224  1.00  0.00    -0.203 F 
ATOM     88  F   UNL A   1      45.114  24.742  37.145  1.00  0.00    -0.200 F 
ATOM     89  C   UNL A   1      46.555  26.510  36.537  1.00  0.00     0.200 A 
ATOM     90  F   UNL A   1      47.954  28.308  35.914  1.00  0.00    -0.200 F 
ATOM     91  F   UNL A   1      47.490  26.059  37.384  1.00  0.00    -0.200 F 
ENDBRANCH  58  81
ENDBRANCH  32  33
ENDBRANCH  25  27
ENDBRANCH  24  25
ENDBRANCH  23  24
ENDBRANCH   1  23
TORSDOF 17
ENDMDL
MODEL 3
REMARK VINA RESULT:     -10.8      1.190      2.167
REMARK SMILES C[C@H](NC(=O)N(CC(=O)OCCOC(=O)c1ccc(-c2c3nc(c(-c4c(F)c(F)c(F)c(F)c4F)c4ccc([nH]4)c(-c4c(F)c(F)c(F)c(F)c4F)c4nc(c(-c5c(F)c(F)c(F)c(F)c5F)c5ccc2[nH]5)C=C4)C=C3)cc1)CC(F)(F)F)[C@@H]1CCCO1
REMARK SMILES IDX 11 1 10 2 8 3 9 4 7 5 6 6 4 7 3 8 5 10 2 11 1 12 84 13 85 14
REMARK SMILES IDX 88 15 86 16 87 17 79 18 80 19 81 20 82 21 83 22 12 23 13 24
REMARK SMILES IDX 14 25 15 26 16 27 17 28 78 29 18 30 77 31 19 32 20 33 21 34
REMARK SMILES IDX 71 35 22 36 76 37 70 38 72 39 23 40 75 41 69 42 68 43 24 45
REMARK SMILES IDX 56 46 36 47 55 48 37 49 40 50 54 51 73 52 38 53 39 54 53 56
REMARK SMILES IDX 74 57 41 58 25 59 26 60 34 61 27 62 28 63 32 64 35 65 29 66
REMARK SMILES IDX 30 67 33 68 31 69 57 70 58 71 66 72 59 73 60 74 64 75 67 76
REMARK SMILES IDX 61 77 62 78 65 79 63 80 42 81 43 82 51 83 44 84 45 85 49 86
REMARK SMILES IDX 52 87 46 88 47 89 50 90 48 91
REMARK H PARENT 3 9 72 44 40 55
REMARK Flexibility Score: inf
ROOT
ATOM      1  C   UNL A   1      31.937  28.228  25.940  1.00  0.00     0.274 C 
ENDROOT
BRANCH   1   2
ATOM      2  O   UNL A   1      33.212  27.839  25.398  1.00  0.00    -0.461 OA
BRANCH   2   3
ATOM      3  C   UNL A   1      33.224  27.472  24.095  1.00  0.00     0.325 C 
ATOM      4  O   UNL A   1      32.975  28.222  23.155  1.00  0.00    -0.250 OA
BRANCH   3   5
ATOM      5  C   UNL A   1      33.797  26.070  23.889  1.00  0.00     0.244 C 
BRANCH   5   6
ATOM      6  N   UNL A   1      32.884  25.055  23.392  1.00  0.00    -0.305 N 
BRANCH   6   7
ATOM      7  C   UNL A   1      33.227  23.972  22.642  1.00  0.00     0.318 C 
ATOM      8  N   UNL A   1      33.597  22.795  23.169  1.00  0.00    -0.333 N 
ATOM      9  H   UNL A   1      33.997  22.219  22.478  1.00  0.00     0.165 HD
ATOM     10  O   UNL A   1      33.215  24.030  21.410  1.00  0.00    -0.249 OA
BRANCH   8  11
ATOM     11  C   UNL A   1      33.586  22.107  24.470  1.00  0.00     0.109 C 
ATOM     12  C   UNL A   1      33.143  20.658  24.263  1.00  0.00     0.034 C 
BRANCH  11  13
ATOM     13  C   UNL A   1      34.982  22.170  25.124  1.00  0.00     0.140 C 
ATOM     14  C   UNL A   1      35.167  23.380  26.032  1.00  0.00     0.036 C 
ATOM     15  O   UNL A   1      36.013  22.249  24.116  1.00  0.00    -0.376 OA
ATOM     16  C   UNL A   1      36.654  23.607  25.943  1.00  0.00     0.031 C 
ATOM     17  C   UNL A   1      36.924  23.296  24.488  1.00  0.00     0.160 C 
ENDBRANCH  11  13
ENDBRANCH   8  11
ENDBRANCH   6   7
BRANCH   6  18
ATOM     18  C   UNL A   1      31.453  25.194  23.770  1.00  0.00     0.237 C 
BRANCH  18  19
ATOM     19  C   UNL A   1      30.995  24.616  25.118  1.00  0.00     0.406 C 
ATOM     20  F   UNL A   1      29.944  25.266  25.653  1.00  0.00    -0.169 F 
ATOM     21  F   UNL A   1      30.604  23.325  24.939  1.00  0.00    -0.169 F 
ATOM     22  F   UNL A   1      31.983  24.599  26.037  1.00  0.00    -0.169 F 
ENDBRANCH  18  19
ENDBRANCH   6  18
ENDBRANCH   5   6
ENDBRANCH   3   5
ENDBRANCH   2   3
ENDBRANCH   1   2
BRANCH   1  23
ATOM     23  C   UNL A   1      31.747  29.743  25.831  1.00  0.00     0.275 C 
BRANCH  23  24
ATOM     24  O   UNL A   1      33.016  30.429  25.830  1.00  0.00    -0.458 OA
BRANCH  24  25
ATOM     25  C   UNL A   1      33.231  31.266  26.869  1.00  0.00     0.338 C 
ATOM     26  O   UNL A   1      32.467  32.094  27.339  1.00  0.00    -0.246 OA
BRANCH  25  27
ATOM     27  C   UNL A   1      34.539  30.988  27.478  1.00  0.00     0.060 A 
ATOM     28  C   UNL A   1      34.841  29.678  27.850  1.00  0.00     0.016 A 
ATOM     29  C   UNL A   1      35.391  32.033  27.829  1.00  0.00     0.016 A 
ATOM     30  C   UNL A   1      35.956  29.412  28.632  1.00  0.00     0.010 A 
ATOM     31  C   UNL A   1      36.561  31.754  28.545  1.00  0.00     0.010 A 
ATOM     32  C   UNL A   1      36.841  30.443  28.971  1.00  0.00    -0.014 A 
BRANCH  32  33
ATOM     33  C   UNL A   1      38.047  30.129  29.774  1.00  0.00     0.031 A 
ATOM     34  C   UNL A   1      39.159  29.307  29.192  1.00  0.00     0.074 A 
ATOM     35  C   UNL A   1      38.162  30.627  31.021  1.00  0.00     0.049 A 
ATOM     36  N   UNL A   1      40.228  28.832  29.778  1.00  0.00    -0.248 NA
ATOM     37  C   UNL A   1      39.057  28.971  27.763  1.00  0.00     0.031 C 
ATOM     38  C   UNL A   1      37.178  31.487  31.682  1.00  0.00     0.029 A 
ATOM     39  N   UNL A   1      39.166  30.501  31.946  1.00  0.00    -0.354 N 
ATOM     40  C   UNL A   1      40.896  28.096  28.809  1.00  0.00     0.074 A 
ATOM     41  C   UNL A   1      40.124  28.201  27.589  1.00  0.00     0.031 C 
ATOM     42  C   UNL A   1      37.649  31.850  32.884  1.00  0.00     0.029 A 
ATOM     43  C   UNL A   1      38.928  31.186  33.110  1.00  0.00     0.049 A 
ATOM     44  H   UNL A   1      39.980  29.969  31.790  1.00  0.00     0.167 HD
ATOM     45  C   UNL A   1      42.046  27.393  28.933  1.00  0.00     0.037 A 
ATOM     46  C   UNL A   1      39.641  31.248  34.249  1.00  0.00     0.037 A 
ATOM     47  C   UNL A   1      42.842  27.338  30.130  1.00  0.00     0.049 A 
ATOM     48  C   UNL A   1      40.895  30.435  34.371  1.00  0.00     0.074 A 
ATOM     49  C   UNL A   1      44.038  26.673  30.344  1.00  0.00     0.029 A 
ATOM     50  N   UNL A   1      42.527  27.986  31.314  1.00  0.00    -0.354 N 
ATOM     51  N   UNL A   1      41.479  29.681  33.472  1.00  0.00    -0.248 NA
ATOM     52  C   UNL A   1      41.566  30.447  35.679  1.00  0.00     0.031 C 
ATOM     53  C   UNL A   1      44.435  26.904  31.667  1.00  0.00     0.029 A 
ATOM     54  C   UNL A   1      43.497  27.726  32.268  1.00  0.00     0.049 A 
ATOM     55  H   UNL A   1      41.731  28.549  31.455  1.00  0.00     0.167 HD
ATOM     56  C   UNL A   1      42.574  29.116  34.107  1.00  0.00     0.074 A 
ATOM     57  C   UNL A   1      42.591  29.635  35.459  1.00  0.00     0.031 C 
ATOM     58  C   UNL A   1      43.478  28.234  33.614  1.00  0.00     0.037 A 
BRANCH  45  59
ATOM     59  C   UNL A   1      42.491  26.589  27.750  1.00  0.00     0.064 A 
ATOM     60  C   UNL A   1      43.409  27.091  26.820  1.00  0.00     0.173 A 
ATOM     61  C   UNL A   1      42.007  25.285  27.567  1.00  0.00     0.173 A 
ATOM     62  F   UNL A   1      43.885  28.339  26.945  1.00  0.00    -0.203 F 
ATOM     63  C   UNL A   1      43.819  26.318  25.736  1.00  0.00     0.198 A 
ATOM     64  C   UNL A   1      42.431  24.510  26.493  1.00  0.00     0.198 A 
ATOM     65  F   UNL A   1      41.124  24.764  28.433  1.00  0.00    -0.203 F 
ATOM     66  F   UNL A   1      44.677  26.824  24.840  1.00  0.00    -0.200 F 
ATOM     67  C   UNL A   1      43.334  25.027  25.576  1.00  0.00     0.200 A 
ATOM     68  F   UNL A   1      41.962  23.264  26.340  1.00  0.00    -0.200 F 
ATOM     69  F   UNL A   1      43.732  24.285  24.533  1.00  0.00    -0.200 F 
ENDBRANCH  45  59
BRANCH  46  70
ATOM     70  C   UNL A   1      39.151  32.079  35.375  1.00  0.00     0.064 A 
ATOM     71  C   UNL A   1      38.371  31.517  36.392  1.00  0.00     0.173 A 
ATOM     72  C   UNL A   1      39.488  33.436  35.475  1.00  0.00     0.173 A 
ATOM     73  F   UNL A   1      38.009  30.227  36.323  1.00  0.00    -0.203 F 
ATOM     74  C   UNL A   1      37.949  32.283  37.476  1.00  0.00     0.198 A 
ATOM     75  C   UNL A   1      39.083  34.195  36.570  1.00  0.00     0.198 A 
ATOM     76  F   UNL A   1      40.235  34.015  34.524  1.00  0.00    -0.203 F 
ATOM     77  F   UNL A   1      37.191  31.728  38.431  1.00  0.00    -0.200 F 
ATOM     78  C   UNL A   1      38.313  33.619  37.569  1.00  0.00     0.200 A 
ATOM     79  F   UNL A   1      39.446  35.481  36.662  1.00  0.00    -0.200 F 
ATOM     80  F   UNL A   1      37.920  34.350  38.621  1.00  0.00    -0.200 F 
ENDBRANCH  46  70
BRANCH  58  81
ATOM     81  C   UNL A   1      44.539  27.764  34.556  1.00  0.00     0.064 A 
ATOM     82  C   UNL A   1      44.354  26.608  35.328  1.00  0.00     0.173 A 
ATOM     83  C   UNL A   1      45.753  28.454  34.673  1.00  0.00     0.173 A 
ATOM     84  F   UNL A   1      43.200  25.928  35.259  1.00  0.00    -0.203 F 
ATOM     85  C   UNL A   1      45.347  26.166  36.198  1.00  0.00     0.198 A 
ATOM     86  C   UNL A   1      46.748  28.002  35.534  1.00  0.00     0.198 A 
ATOM     87  F   UNL A   1      45.969  29.566  33.955  1.00  0.00    -0.203 F 
ATOM     88  F   UNL A   1      45.141  25.077  36.950  1.00  0.00    -0.200 F 
ATOM     89  C   UNL A   1      46.544  26.861  36.297  1.00  0.00     0.200 A 
ATOM     90  F   UNL A   1      47.904  28.673  35.630  1.00  0.00    -0.200 F 
ATOM     91  F   UNL A   1      47.497  26.437  37.137  1.00  0.00    -0.200 F 
ENDBRANCH  58  81
ENDBRANCH  32  33
ENDBRANCH  25  27
ENDBRANCH  24  25
ENDBRANCH  23  24
ENDBRANCH   1  23
TORSDOF 17
ENDMDL
