MODEL 1
REMARK VINA RESULT:     -12.1      0.000      0.000
REMARK SMILES CC(C)(C)C[N@H+]1[C@@H](C(=O)OCCOC(=O)c2ccc(-c3c4nc(c(-c5c(F)c(F)c(F)c(F)c5F)c5ccc([nH]5)c(-c5c(F)c(F)c(F)c(F)c5F)c5nc(c(-c6c(F)c(F)c(F)c(F)c6F)c6ccc3[nH]6)C=C5)C=C4)cc2)CC[C@H]2CCCC[C@@H]21
REMARK SMILES IDX 11 1 10 2 8 3 9 4 7 5 6 6 86 7 79 9 81 10 85 11 80 12 82 13
REMARK SMILES IDX 84 14 83 15 5 16 2 17 1 18 3 19 4 20 12 21 13 22 14 23 15 24
REMARK SMILES IDX 16 25 17 26 78 27 18 28 77 29 19 30 20 31 21 32 71 33 22 34
REMARK SMILES IDX 76 35 70 36 72 37 23 38 75 39 69 40 68 41 24 43 56 44 36 45
REMARK SMILES IDX 55 46 37 47 40 48 54 49 73 50 38 51 39 52 53 54 74 55 41 56
REMARK SMILES IDX 25 57 26 58 34 59 27 60 28 61 32 62 35 63 29 64 30 65 33 66
REMARK SMILES IDX 31 67 57 68 58 69 66 70 59 71 60 72 64 73 67 74 61 75 62 76
REMARK SMILES IDX 65 77 63 78 42 79 43 80 51 81 44 82 45 83 49 84 52 85 46 86
REMARK SMILES IDX 47 87 50 88 48 89
REMARK H PARENT 6 8 72 42 40 53
REMARK Flexibility Score: inf
ROOT
ATOM      1  C   UNL A   1      31.404  28.973  25.091  1.00  0.00     0.274 C 
ENDROOT
BRANCH   1   2
ATOM      2  O   UNL A   1      32.327  27.976  25.586  1.00  0.00    -0.458 OA
BRANCH   2   3
ATOM      3  C   UNL A   1      31.778  26.960  26.287  1.00  0.00     0.365 C 
ATOM      4  O   UNL A   1      31.029  27.136  27.251  1.00  0.00    -0.245 OA
BRANCH   3   5
ATOM      5  C   UNL A   1      32.201  25.545  25.888  1.00  0.00     0.295 C 
ATOM      6  N   UNL A   1      33.075  25.307  24.706  1.00  0.00    -0.320 N 
ATOM      7  C   UNL A   1      33.776  23.981  24.940  1.00  0.00     0.187 C 
ATOM      8  H   UNL A   1      33.636  26.159  24.674  1.00  0.00     0.349 HD
ATOM      9  C   UNL A   1      31.077  24.503  26.062  1.00  0.00     0.078 C 
ATOM     10  C   UNL A   1      33.066  23.026  25.949  1.00  0.00     0.048 C 
ATOM     11  C   UNL A   1      35.229  24.147  25.407  1.00  0.00     0.065 C 
ATOM     12  C   UNL A   1      31.554  23.075  25.770  1.00  0.00     0.016 C 
ATOM     13  C   UNL A   1      33.670  21.630  25.834  1.00  0.00     0.010 C 
ATOM     14  C   UNL A   1      35.926  22.776  25.442  1.00  0.00     0.006 C 
ATOM     15  C   UNL A   1      35.152  21.699  26.212  1.00  0.00     0.001 C 
BRANCH   6  16
ATOM     16  C   UNL A   1      32.494  25.210  23.333  1.00  0.00     0.269 C 
BRANCH  16  17
ATOM     17  C   UNL A   1      32.403  26.301  22.223  1.00  0.00     0.011 C 
ATOM     18  C   UNL A   1      31.028  26.974  22.220  1.00  0.00     0.017 C 
ATOM     19  C   UNL A   1      32.529  25.577  20.852  1.00  0.00     0.017 C 
ATOM     20  C   UNL A   1      33.539  27.331  22.290  1.00  0.00     0.017 C 
ENDBRANCH  16  17
ENDBRANCH   6  16
ENDBRANCH   3   5
ENDBRANCH   2   3
ENDBRANCH   1   2
BRANCH   1  21
ATOM     21  C   UNL A   1      31.625  30.336  25.750  1.00  0.00     0.275 C 
BRANCH  21  22
ATOM     22  O   UNL A   1      32.996  30.452  26.164  1.00  0.00    -0.458 OA
BRANCH  22  23
ATOM     23  C   UNL A   1      33.277  31.441  27.043  1.00  0.00     0.338 C 
ATOM     24  O   UNL A   1      32.584  32.410  27.300  1.00  0.00    -0.246 OA
BRANCH  23  25
ATOM     25  C   UNL A   1      34.581  31.171  27.695  1.00  0.00     0.060 A 
ATOM     26  C   UNL A   1      35.491  32.199  27.958  1.00  0.00     0.016 A 
ATOM     27  C   UNL A   1      34.928  29.855  28.002  1.00  0.00     0.016 A 
ATOM     28  C   UNL A   1      36.743  31.924  28.502  1.00  0.00     0.010 A 
ATOM     29  C   UNL A   1      36.147  29.587  28.630  1.00  0.00     0.010 A 
ATOM     30  C   UNL A   1      37.062  30.622  28.896  1.00  0.00    -0.014 A 
BRANCH  30  31
ATOM     31  C   UNL A   1      38.305  30.338  29.656  1.00  0.00     0.031 A 
ATOM     32  C   UNL A   1      39.343  29.411  29.096  1.00  0.00     0.074 A 
ATOM     33  C   UNL A   1      38.459  30.864  30.887  1.00  0.00     0.049 A 
ATOM     34  N   UNL A   1      40.348  28.832  29.702  1.00  0.00    -0.248 NA
ATOM     35  C   UNL A   1      39.231  29.083  27.667  1.00  0.00     0.031 C 
ATOM     36  C   UNL A   1      37.538  31.806  31.530  1.00  0.00     0.029 A 
ATOM     37  N   UNL A   1      39.434  30.661  31.833  1.00  0.00    -0.354 N 
ATOM     38  C   UNL A   1      40.963  28.039  28.743  1.00  0.00     0.074 A 
ATOM     39  C   UNL A   1      40.219  28.212  27.511  1.00  0.00     0.031 C 
ATOM     40  C   UNL A   1      37.988  32.096  32.758  1.00  0.00     0.029 A 
ATOM     41  C   UNL A   1      39.176  31.297  33.025  1.00  0.00     0.049 A 
ATOM     42  H   UNL A   1      40.237  30.114  31.674  1.00  0.00     0.167 HD
ATOM     43  C   UNL A   1      42.046  27.238  28.886  1.00  0.00     0.037 A 
ATOM     44  C   UNL A   1      39.787  31.199  34.219  1.00  0.00     0.037 A 
ATOM     45  C   UNL A   1      42.785  27.091  30.115  1.00  0.00     0.049 A 
ATOM     46  C   UNL A   1      40.957  30.270  34.364  1.00  0.00     0.074 A 
ATOM     47  C   UNL A   1      43.889  26.296  30.371  1.00  0.00     0.029 A 
ATOM     48  N   UNL A   1      42.498  27.766  31.293  1.00  0.00    -0.354 N 
ATOM     49  N   UNL A   1      41.503  29.486  33.466  1.00  0.00    -0.248 NA
ATOM     50  C   UNL A   1      41.587  30.201  35.688  1.00  0.00     0.031 C 
ATOM     51  C   UNL A   1      44.252  26.467  31.711  1.00  0.00     0.029 A 
ATOM     52  C   UNL A   1      43.402  27.402  32.279  1.00  0.00     0.049 A 
ATOM     53  H   UNL A   1      41.762  28.409  31.412  1.00  0.00     0.167 HD
ATOM     54  C   UNL A   1      42.550  28.845  34.110  1.00  0.00     0.074 A 
ATOM     55  C   UNL A   1      42.574  29.345  35.469  1.00  0.00     0.031 C 
ATOM     56  C   UNL A   1      43.414  27.922  33.621  1.00  0.00     0.037 A 
BRANCH  43  57
ATOM     57  C   UNL A   1      42.489  26.436  27.699  1.00  0.00     0.064 A 
ATOM     58  C   UNL A   1      43.503  26.887  26.843  1.00  0.00     0.173 A 
ATOM     59  C   UNL A   1      41.939  25.168  27.454  1.00  0.00     0.173 A 
ATOM     60  F   UNL A   1      44.053  28.097  27.027  1.00  0.00    -0.203 F 
ATOM     61  C   UNL A   1      43.944  26.103  25.778  1.00  0.00     0.198 A 
ATOM     62  C   UNL A   1      42.397  24.378  26.404  1.00  0.00     0.198 A 
ATOM     63  F   UNL A   1      40.968  24.688  28.245  1.00  0.00    -0.203 F 
ATOM     64  F   UNL A   1      44.895  26.566  24.956  1.00  0.00    -0.200 F 
ATOM     65  C   UNL A   1      43.397  24.846  25.565  1.00  0.00     0.200 A 
ATOM     66  F   UNL A   1      41.876  23.158  26.208  1.00  0.00    -0.200 F 
ATOM     67  F   UNL A   1      43.833  24.088  24.550  1.00  0.00    -0.200 F 
ENDBRANCH  43  57
BRANCH  44  68
ATOM     68  C   UNL A   1      39.267  31.967  35.381  1.00  0.00     0.064 A 
ATOM     69  C   UNL A   1      38.439  31.361  36.334  1.00  0.00     0.173 A 
ATOM     70  C   UNL A   1      39.597  33.319  35.566  1.00  0.00     0.173 A 
ATOM     71  F   UNL A   1      38.077  30.079  36.187  1.00  0.00    -0.203 F 
ATOM     72  C   UNL A   1      37.947  32.081  37.421  1.00  0.00     0.198 A 
ATOM     73  C   UNL A   1      39.132  34.029  36.670  1.00  0.00     0.198 A 
ATOM     74  F   UNL A   1      40.389  33.945  34.683  1.00  0.00    -0.203 F 
ATOM     75  F   UNL A   1      37.122  31.490  38.294  1.00  0.00    -0.200 F 
ATOM     76  C   UNL A   1      38.301  33.412  37.592  1.00  0.00     0.200 A 
ATOM     77  F   UNL A   1      39.489  35.308  36.841  1.00  0.00    -0.200 F 
ATOM     78  F   UNL A   1      37.835  34.100  38.643  1.00  0.00    -0.200 F 
ENDBRANCH  44  68
BRANCH  56  79
ATOM     79  C   UNL A   1      44.481  27.432  34.552  1.00  0.00     0.064 A 
ATOM     80  C   UNL A   1      44.303  26.283  35.334  1.00  0.00     0.173 A 
ATOM     81  C   UNL A   1      45.704  28.113  34.644  1.00  0.00     0.173 A 
ATOM     82  F   UNL A   1      43.143  25.611  35.292  1.00  0.00    -0.203 F 
ATOM     83  C   UNL A   1      45.305  25.845  36.195  1.00  0.00     0.198 A 
ATOM     84  C   UNL A   1      46.713  27.656  35.487  1.00  0.00     0.198 A 
ATOM     85  F   UNL A   1      45.922  29.216  33.913  1.00  0.00    -0.203 F 
ATOM     86  F   UNL A   1      45.098  24.770  36.969  1.00  0.00    -0.200 F 
ATOM     87  C   UNL A   1      46.510  26.528  36.266  1.00  0.00     0.200 A 
ATOM     88  F   UNL A   1      47.880  28.313  35.549  1.00  0.00    -0.200 F 
ATOM     89  F   UNL A   1      47.474  26.104  37.095  1.00  0.00    -0.200 F 
ENDBRANCH  56  79
ENDBRANCH  30  31
ENDBRANCH  23  25
ENDBRANCH  22  23
ENDBRANCH  21  22
ENDBRANCH   1  21
TORSDOF 13
ENDMDL
MODEL 2
REMARK VINA RESULT:     -12.0      0.293      2.002
REMARK SMILES CC(C)(C)C[N@H+]1[C@@H](C(=O)OCCOC(=O)c2ccc(-c3c4nc(c(-c5c(F)c(F)c(F)c(F)c5F)c5ccc([nH]5)c(-c5c(F)c(F)c(F)c(F)c5F)c5nc(c(-c6c(F)c(F)c(F)c(F)c6F)c6ccc3[nH]6)C=C5)C=C4)cc2)CC[C@H]2CCCC[C@@H]21
REMARK SMILES IDX 11 1 10 2 8 3 9 4 7 5 6 6 86 7 79 9 81 10 85 11 80 12 82 13
REMARK SMILES IDX 84 14 83 15 5 16 2 17 1 18 3 19 4 20 12 21 13 22 14 23 15 24
REMARK SMILES IDX 16 25 17 26 78 27 18 28 77 29 19 30 20 31 21 32 71 33 22 34
REMARK SMILES IDX 76 35 70 36 72 37 23 38 75 39 69 40 68 41 24 43 56 44 36 45
REMARK SMILES IDX 55 46 37 47 40 48 54 49 73 50 38 51 39 52 53 54 74 55 41 56
REMARK SMILES IDX 25 57 26 58 34 59 27 60 28 61 32 62 35 63 29 64 30 65 33 66
REMARK SMILES IDX 31 67 57 68 58 69 66 70 59 71 60 72 64 73 67 74 61 75 62 76
REMARK SMILES IDX 65 77 63 78 42 79 43 80 51 81 44 82 45 83 49 84 52 85 46 86
REMARK SMILES IDX 47 87 50 88 48 89
REMARK H PARENT 6 8 72 42 40 53
REMARK Flexibility Score: inf
ROOT
ATOM      1  C   UNL A   1      31.522  29.208  25.162  1.00  0.00     0.274 C 
ENDROOT
BRANCH   1   2
ATOM      2  O   UNL A   1      32.373  28.104  25.545  1.00  0.00    -0.458 OA
BRANCH   2   3
ATOM      3  C   UNL A   1      31.786  27.136  26.283  1.00  0.00     0.365 C 
ATOM      4  O   UNL A   1      31.041  27.376  27.236  1.00  0.00    -0.245 OA
BRANCH   3   5
ATOM      5  C   UNL A   1      32.160  25.692  25.942  1.00  0.00     0.295 C 
ATOM      6  N   UNL A   1      33.078  25.382  24.811  1.00  0.00    -0.320 N 
ATOM      7  C   UNL A   1      33.702  24.031  25.113  1.00  0.00     0.187 C 
ATOM      8  H   UNL A   1      33.680  26.205  24.787  1.00  0.00     0.349 HD
ATOM      9  C   UNL A   1      30.980  24.710  26.084  1.00  0.00     0.078 C 
ATOM     10  C   UNL A   1      32.898  23.139  26.109  1.00  0.00     0.048 C 
ATOM     11  C   UNL A   1      35.137  24.141  25.649  1.00  0.00     0.065 C 
ATOM     12  C   UNL A   1      31.401  23.254  25.853  1.00  0.00     0.016 C 
ATOM     13  C   UNL A   1      33.439  21.713  26.059  1.00  0.00     0.010 C 
ATOM     14  C   UNL A   1      35.764  22.741  25.753  1.00  0.00     0.006 C 
ATOM     15  C   UNL A   1      34.902  21.722  26.510  1.00  0.00     0.001 C 
BRANCH   6  16
ATOM     16  C   UNL A   1      32.561  25.275  23.413  1.00  0.00     0.269 C 
BRANCH  16  17
ATOM     17  C   UNL A   1      32.463  26.375  22.313  1.00  0.00     0.011 C 
ATOM     18  C   UNL A   1      31.084  27.040  22.318  1.00  0.00     0.017 C 
ATOM     19  C   UNL A   1      32.591  25.664  20.936  1.00  0.00     0.017 C 
ATOM     20  C   UNL A   1      33.593  27.410  22.388  1.00  0.00     0.017 C 
ENDBRANCH  16  17
ENDBRANCH   6  16
ENDBRANCH   3   5
ENDBRANCH   2   3
ENDBRANCH   1   2
BRANCH   1  21
ATOM     21  C   UNL A   1      31.761  30.444  26.033  1.00  0.00     0.275 C 
BRANCH  21  22
ATOM     22  O   UNL A   1      33.130  30.468  26.466  1.00  0.00    -0.458 OA
BRANCH  22  23
ATOM     23  C   UNL A   1      33.494  31.507  27.253  1.00  0.00     0.338 C 
ATOM     24  O   UNL A   1      32.863  32.531  27.450  1.00  0.00    -0.246 OA
BRANCH  23  25
ATOM     25  C   UNL A   1      34.803  31.218  27.886  1.00  0.00     0.060 A 
ATOM     26  C   UNL A   1      35.792  32.199  27.996  1.00  0.00     0.016 A 
ATOM     27  C   UNL A   1      35.072  29.923  28.329  1.00  0.00     0.016 A 
ATOM     28  C   UNL A   1      37.045  31.897  28.524  1.00  0.00     0.010 A 
ATOM     29  C   UNL A   1      36.296  29.639  28.942  1.00  0.00     0.010 A 
ATOM     30  C   UNL A   1      37.290  30.627  29.054  1.00  0.00    -0.014 A 
BRANCH  30  31
ATOM     31  C   UNL A   1      38.543  30.341  29.797  1.00  0.00     0.031 A 
ATOM     32  C   UNL A   1      39.563  29.397  29.233  1.00  0.00     0.074 A 
ATOM     33  C   UNL A   1      38.722  30.881  31.019  1.00  0.00     0.049 A 
ATOM     34  N   UNL A   1      40.571  28.815  29.830  1.00  0.00    -0.248 NA
ATOM     35  C   UNL A   1      39.424  29.052  27.810  1.00  0.00     0.031 C 
ATOM     36  C   UNL A   1      37.820  31.840  31.664  1.00  0.00     0.029 A 
ATOM     37  N   UNL A   1      39.710  30.680  31.952  1.00  0.00    -0.354 N 
ATOM     38  C   UNL A   1      41.163  28.005  28.871  1.00  0.00     0.074 A 
ATOM     39  C   UNL A   1      40.401  28.169  27.650  1.00  0.00     0.031 C 
ATOM     40  C   UNL A   1      38.292  32.141  32.882  1.00  0.00     0.029 A 
ATOM     41  C   UNL A   1      39.477  31.333  33.139  1.00  0.00     0.049 A 
ATOM     42  H   UNL A   1      40.505  30.124  31.787  1.00  0.00     0.167 HD
ATOM     43  C   UNL A   1      42.240  27.195  29.007  1.00  0.00     0.037 A 
ATOM     44  C   UNL A   1      40.107  31.245  34.325  1.00  0.00     0.037 A 
ATOM     45  C   UNL A   1      42.998  27.056  30.226  1.00  0.00     0.049 A 
ATOM     46  C   UNL A   1      41.269  30.306  34.462  1.00  0.00     0.074 A 
ATOM     47  C   UNL A   1      44.098  26.254  30.474  1.00  0.00     0.029 A 
ATOM     48  N   UNL A   1      42.737  27.749  31.400  1.00  0.00    -0.354 N 
ATOM     49  N   UNL A   1      41.794  29.506  33.566  1.00  0.00    -0.248 NA
ATOM     50  C   UNL A   1      41.920  30.248  35.777  1.00  0.00     0.031 C 
ATOM     51  C   UNL A   1      44.484  26.438  31.806  1.00  0.00     0.029 A 
ATOM     52  C   UNL A   1      43.652  27.388  32.376  1.00  0.00     0.049 A 
ATOM     53  H   UNL A   1      42.009  28.400  31.522  1.00  0.00     0.167 HD
ATOM     54  C   UNL A   1      42.845  28.862  34.202  1.00  0.00     0.074 A 
ATOM     55  C   UNL A   1      42.895  29.379  35.554  1.00  0.00     0.031 C 
ATOM     56  C   UNL A   1      43.691  27.925  33.711  1.00  0.00     0.037 A 
BRANCH  43  57
ATOM     57  C   UNL A   1      42.657  26.373  27.823  1.00  0.00     0.064 A 
ATOM     58  C   UNL A   1      42.065  25.134  27.543  1.00  0.00     0.173 A 
ATOM     59  C   UNL A   1      43.614  26.863  26.921  1.00  0.00     0.173 A 
ATOM     60  F   UNL A   1      41.153  24.616  28.381  1.00  0.00    -0.203 F 
ATOM     61  C   UNL A   1      42.422  24.410  26.407  1.00  0.00     0.198 A 
ATOM     62  C   UNL A   1      43.952  26.148  25.775  1.00  0.00     0.198 A 
ATOM     63  F   UNL A   1      44.209  28.045  27.142  1.00  0.00    -0.203 F 
ATOM     64  F   UNL A   1      41.863  23.215  26.173  1.00  0.00    -0.200 F 
ATOM     65  C   UNL A   1      43.358  24.921  25.520  1.00  0.00     0.200 A 
ATOM     66  F   UNL A   1      44.847  26.651  24.913  1.00  0.00    -0.200 F 
ATOM     67  F   UNL A   1      43.689  24.230  24.421  1.00  0.00    -0.200 F 
ENDBRANCH  43  57
BRANCH  44  68
ATOM     68  C   UNL A   1      39.613  32.033  35.484  1.00  0.00     0.064 A 
ATOM     69  C   UNL A   1      40.086  33.328  35.731  1.00  0.00     0.173 A 
ATOM     70  C   UNL A   1      38.649  31.511  36.362  1.00  0.00     0.173 A 
ATOM     71  F   UNL A   1      41.023  33.860  34.934  1.00  0.00    -0.203 F 
ATOM     72  C   UNL A   1      39.627  34.066  36.819  1.00  0.00     0.198 A 
ATOM     73  C   UNL A   1      38.167  32.262  37.431  1.00  0.00     0.198 A 
ATOM     74  F   UNL A   1      38.162  30.277  36.169  1.00  0.00    -0.203 F 
ATOM     75  F   UNL A   1      40.128  35.285  37.058  1.00  0.00    -0.200 F 
ATOM     76  C   UNL A   1      38.662  33.536  37.663  1.00  0.00     0.200 A 
ATOM     77  F   UNL A   1      37.223  31.753  38.233  1.00  0.00    -0.200 F 
ATOM     78  F   UNL A   1      38.214  34.251  38.704  1.00  0.00    -0.200 F 
ENDBRANCH  44  68
BRANCH  56  79
ATOM     79  C   UNL A   1      44.769  27.436  34.630  1.00  0.00     0.064 A 
ATOM     80  C   UNL A   1      46.007  28.086  34.722  1.00  0.00     0.173 A 
ATOM     81  C   UNL A   1      44.549  26.314  35.443  1.00  0.00     0.173 A 
ATOM     82  F   UNL A   1      46.269  29.152  33.950  1.00  0.00    -0.203 F 
ATOM     83  C   UNL A   1      46.997  27.616  35.580  1.00  0.00     0.198 A 
ATOM     84  C   UNL A   1      45.532  25.862  36.318  1.00  0.00     0.198 A 
ATOM     85  F   UNL A   1      43.378  25.661  35.391  1.00  0.00    -0.203 F 
ATOM     86  F   UNL A   1      48.191  28.223  35.619  1.00  0.00    -0.200 F 
ATOM     87  C   UNL A   1      46.757  26.508  36.380  1.00  0.00     0.200 A 
ATOM     88  F   UNL A   1      45.295  24.798  37.096  1.00  0.00    -0.200 F 
ATOM     89  F   UNL A   1      47.711  26.057  37.206  1.00  0.00    -0.200 F 
ENDBRANCH  56  79
ENDBRANCH  30  31
ENDBRANCH  23  25
ENDBRANCH  22  23
ENDBRANCH  21  22
ENDBRANCH   1  21
TORSDOF 13
ENDMDL
MODEL 3
REMARK VINA RESULT:     -11.9      4.383      9.677
REMARK SMILES CC(C)(C)C[N@H+]1[C@@H](C(=O)OCCOC(=O)c2ccc(-c3c4nc(c(-c5c(F)c(F)c(F)c(F)c5F)c5ccc([nH]5)c(-c5c(F)c(F)c(F)c(F)c5F)c5nc(c(-c6c(F)c(F)c(F)c(F)c6F)c6ccc3[nH]6)C=C5)C=C4)cc2)CC[C@H]2CCCC[C@@H]21
REMARK SMILES IDX 11 1 10 2 8 3 9 4 7 5 6 6 86 7 79 9 81 10 85 11 80 12 82 13
REMARK SMILES IDX 84 14 83 15 5 16 2 17 1 18 3 19 4 20 12 21 13 22 14 23 15 24
REMARK SMILES IDX 16 25 17 26 78 27 18 28 77 29 19 30 20 31 21 32 71 33 22 34
REMARK SMILES IDX 76 35 70 36 72 37 23 38 75 39 69 40 68 41 24 43 56 44 36 45
REMARK SMILES IDX 55 46 37 47 40 48 54 49 73 50 38 51 39 52 53 54 74 55 41 56
REMARK SMILES IDX 25 57 26 58 34 59 27 60 28 61 32 62 35 63 29 64 30 65 33 66
REMARK SMILES IDX 31 67 57 68 58 69 66 70 59 71 60 72 64 73 67 74 61 75 62 76
REMARK SMILES IDX 65 77 63 78 42 79 43 80 51 81 44 82 45 83 49 84 52 85 46 86
REMARK SMILES IDX 47 87 50 88 48 89
REMARK H PARENT 6 8 72 42 40 53
REMARK Flexibility Score: inf
ROOT
ATOM      1  C   UNL A   1      35.266  21.433  24.637  1.00  0.00     0.274 C 
ENDROOT
BRANCH   1   2
ATOM      2  O   UNL A   1      35.210  22.870  24.779  1.00  0.00    -0.458 OA
BRANCH   2   3
ATOM      3  C   UNL A   1      34.893  23.562  23.662  1.00  0.00     0.365 C 
ATOM      4  O   UNL A   1      35.399  23.329  22.561  1.00  0.00    -0.245 OA
BRANCH   3   5
ATOM      5  C   UNL A   1      33.926  24.735  23.833  1.00  0.00     0.295 C 
ATOM      6  N   UNL A   1      33.182  24.940  25.107  1.00  0.00    -0.320 N 
ATOM      7  C   UNL A   1      32.834  26.416  25.177  1.00  0.00     0.187 C 
ATOM      8  H   UNL A   1      33.825  24.554  25.799  1.00  0.00     0.349 HD
ATOM      9  C   UNL A   1      33.099  25.030  22.565  1.00  0.00     0.078 C 
ATOM     10  C   UNL A   1      32.823  27.159  23.805  1.00  0.00     0.048 C 
ATOM     11  C   UNL A   1      33.755  27.203  26.120  1.00  0.00     0.065 C 
ATOM     12  C   UNL A   1      32.223  26.279  22.716  1.00  0.00     0.016 C 
ATOM     13  C   UNL A   1      32.140  28.513  23.970  1.00  0.00     0.010 C 
ATOM     14  C   UNL A   1      33.230  28.640  26.284  1.00  0.00     0.006 C 
ATOM     15  C   UNL A   1      32.948  29.359  24.959  1.00  0.00     0.001 C 
BRANCH   6  16
ATOM     16  C   UNL A   1      31.900  24.218  25.368  1.00  0.00     0.269 C 
BRANCH  16  17
ATOM     17  C   UNL A   1      31.646  22.943  26.228  1.00  0.00     0.011 C 
ATOM     18  C   UNL A   1      32.756  22.745  27.263  1.00  0.00     0.017 C 
ATOM     19  C   UNL A   1      31.726  21.718  25.273  1.00  0.00     0.017 C 
ATOM     20  C   UNL A   1      30.255  22.915  26.875  1.00  0.00     0.017 C 
ENDBRANCH  16  17
ENDBRANCH   6  16
ENDBRANCH   3   5
ENDBRANCH   2   3
ENDBRANCH   1   2
BRANCH   1  21
ATOM     21  C   UNL A   1      36.531  20.844  25.265  1.00  0.00     0.275 C 
BRANCH  21  22
ATOM     22  O   UNL A   1      37.354  21.907  25.772  1.00  0.00    -0.458 OA
BRANCH  22  23
ATOM     23  C   UNL A   1      38.658  21.611  25.978  1.00  0.00     0.338 C 
ATOM     24  O   UNL A   1      39.213  20.549  25.751  1.00  0.00    -0.246 OA
BRANCH  23  25
ATOM     25  C   UNL A   1      39.359  22.801  26.516  1.00  0.00     0.060 A 
ATOM     26  C   UNL A   1      40.391  22.679  27.451  1.00  0.00     0.016 A 
ATOM     27  C   UNL A   1      38.941  24.073  26.122  1.00  0.00     0.016 A 
ATOM     28  C   UNL A   1      40.991  23.806  28.007  1.00  0.00     0.010 A 
ATOM     29  C   UNL A   1      39.602  25.203  26.610  1.00  0.00     0.010 A 
ATOM     30  C   UNL A   1      40.641  25.079  27.550  1.00  0.00    -0.014 A 
BRANCH  30  31
ATOM     31  C   UNL A   1      41.401  26.279  27.980  1.00  0.00     0.031 A 
ATOM     32  C   UNL A   1      40.720  27.379  28.738  1.00  0.00     0.074 A 
ATOM     33  C   UNL A   1      42.694  26.404  27.619  1.00  0.00     0.049 A 
ATOM     34  N   UNL A   1      41.126  28.603  28.964  1.00  0.00    -0.248 NA
ATOM     35  C   UNL A   1      39.401  27.066  29.310  1.00  0.00     0.031 C 
ATOM     36  C   UNL A   1      43.480  25.391  26.910  1.00  0.00     0.029 A 
ATOM     37  N   UNL A   1      43.571  27.450  27.773  1.00  0.00    -0.354 N 
ATOM     38  C   UNL A   1      40.099  29.219  29.666  1.00  0.00     0.074 A 
ATOM     39  C   UNL A   1      39.049  28.235  29.831  1.00  0.00     0.031 C 
ATOM     40  C   UNL A   1      44.715  25.862  26.689  1.00  0.00     0.029 A 
ATOM     41  C   UNL A   1      44.783  27.239  27.160  1.00  0.00     0.049 A 
ATOM     42  H   UNL A   1      43.352  28.270  28.272  1.00  0.00     0.167 HD
ATOM     43  C   UNL A   1      40.043  30.493  30.123  1.00  0.00     0.037 A 
ATOM     44  C   UNL A   1      45.812  28.078  26.941  1.00  0.00     0.037 A 
ATOM     45  C   UNL A   1      41.104  31.455  29.965  1.00  0.00     0.049 A 
ATOM     46  C   UNL A   1      45.706  29.497  27.417  1.00  0.00     0.074 A 
ATOM     47  C   UNL A   1      41.144  32.776  30.378  1.00  0.00     0.029 A 
ATOM     48  N   UNL A   1      42.322  31.193  29.351  1.00  0.00    -0.354 N 
ATOM     49  N   UNL A   1      44.713  30.088  28.037  1.00  0.00    -0.248 NA
ATOM     50  C   UNL A   1      46.856  30.371  27.153  1.00  0.00     0.031 C 
ATOM     51  C   UNL A   1      42.372  33.322  29.989  1.00  0.00     0.029 A 
ATOM     52  C   UNL A   1      43.116  32.329  29.372  1.00  0.00     0.049 A 
ATOM     53  H   UNL A   1      42.583  30.329  28.959  1.00  0.00     0.167 HD
ATOM     54  C   UNL A   1      45.124  31.394  28.252  1.00  0.00     0.074 A 
ATOM     55  C   UNL A   1      46.464  31.505  27.713  1.00  0.00     0.031 C 
ATOM     56  C   UNL A   1      44.451  32.413  28.841  1.00  0.00     0.037 A 
BRANCH  43  57
ATOM     57  C   UNL A   1      38.788  30.938  30.814  1.00  0.00     0.064 A 
ATOM     58  C   UNL A   1      37.670  31.384  30.096  1.00  0.00     0.173 A 
ATOM     59  C   UNL A   1      38.680  30.854  32.211  1.00  0.00     0.173 A 
ATOM     60  F   UNL A   1      37.727  31.494  28.759  1.00  0.00    -0.203 F 
ATOM     61  C   UNL A   1      36.493  31.738  30.750  1.00  0.00     0.198 A 
ATOM     62  C   UNL A   1      37.494  31.186  32.860  1.00  0.00     0.198 A 
ATOM     63  F   UNL A   1      39.720  30.430  32.946  1.00  0.00    -0.203 F 
ATOM     64  F   UNL A   1      35.446  32.189  30.046  1.00  0.00    -0.200 F 
ATOM     65  C   UNL A   1      36.403  31.631  32.130  1.00  0.00     0.200 A 
ATOM     66  F   UNL A   1      37.406  31.069  34.193  1.00  0.00    -0.200 F 
ATOM     67  F   UNL A   1      35.264  31.958  32.757  1.00  0.00    -0.200 F 
ENDBRANCH  43  57
BRANCH  44  68
ATOM     68  C   UNL A   1      47.006  27.604  26.193  1.00  0.00     0.064 A 
ATOM     69  C   UNL A   1      47.069  27.704  24.798  1.00  0.00     0.173 A 
ATOM     70  C   UNL A   1      48.111  27.053  26.860  1.00  0.00     0.173 A 
ATOM     71  F   UNL A   1      46.028  28.203  24.115  1.00  0.00    -0.203 F 
ATOM     72  C   UNL A   1      48.186  27.257  24.095  1.00  0.00     0.198 A 
ATOM     73  C   UNL A   1      49.240  26.636  26.160  1.00  0.00     0.198 A 
ATOM     74  F   UNL A   1      48.102  26.937  28.196  1.00  0.00    -0.203 F 
ATOM     75  F   UNL A   1      48.202  27.324  22.757  1.00  0.00    -0.200 F 
ATOM     76  C   UNL A   1      49.273  26.731  24.777  1.00  0.00     0.200 A 
ATOM     77  F   UNL A   1      50.295  26.144  26.823  1.00  0.00    -0.200 F 
ATOM     78  F   UNL A   1      50.351  26.311  24.100  1.00  0.00    -0.200 F 
ENDBRANCH  44  68
BRANCH  56  79
ATOM     79  C   UNL A   1      45.175  33.718  28.971  1.00  0.00     0.064 A 
ATOM     80  C   UNL A   1      45.984  34.003  30.079  1.00  0.00     0.173 A 
ATOM     81  C   UNL A   1      45.072  34.687  27.961  1.00  0.00     0.173 A 
ATOM     82  F   UNL A   1      46.097  33.114  31.079  1.00  0.00    -0.203 F 
ATOM     83  C   UNL A   1      46.646  35.222  30.184  1.00  0.00     0.198 A 
ATOM     84  C   UNL A   1      45.756  35.894  28.058  1.00  0.00     0.198 A 
ATOM     85  F   UNL A   1      44.312  34.458  26.879  1.00  0.00    -0.203 F 
ATOM     86  F   UNL A   1      47.377  35.494  31.275  1.00  0.00    -0.200 F 
ATOM     87  C   UNL A   1      46.537  36.164  29.172  1.00  0.00     0.200 A 
ATOM     88  F   UNL A   1      45.656  36.799  27.074  1.00  0.00    -0.200 F 
ATOM     89  F   UNL A   1      47.176  37.337  29.274  1.00  0.00    -0.200 F 
ENDBRANCH  56  79
ENDBRANCH  30  31
ENDBRANCH  23  25
ENDBRANCH  22  23
ENDBRANCH  21  22
ENDBRANCH   1  21
TORSDOF 13
ENDMDL
