MODEL 1
REMARK VINA RESULT:     -11.7      0.000      0.000
REMARK SMILES O=C(OCCOC(=O)c1cnc2c(ccn2C2CCCCC2)c1)c1ccc(-c2c3nc(c(-c4c(F)c(F)c(F)c(F)c4F)c4ccc([nH]4)c(-c4c(F)c(F)c(F)c(F)c4F)c4nc(c(-c5c(F)c(F)c(F)c(F)c5F)c5ccc2[nH]5)C=C4)C=C3)cc1
REMARK SMILES IDX 4 1 3 2 2 3 1 4 24 5 25 6 86 7 26 8 85 9 27 10 28 11 29 12
REMARK SMILES IDX 79 13 30 14 84 15 78 16 80 17 31 18 83 19 77 20 76 21 32 23
REMARK SMILES IDX 64 24 44 25 63 26 45 27 48 28 62 29 81 30 46 31 47 32 61 34
REMARK SMILES IDX 82 35 49 36 33 37 34 38 42 39 35 40 36 41 40 42 43 43 37 44
REMARK SMILES IDX 38 45 41 46 39 47 65 48 66 49 74 50 67 51 68 52 72 53 75 54
REMARK SMILES IDX 69 55 70 56 73 57 71 58 50 59 51 60 59 61 52 62 53 63 57 64
REMARK SMILES IDX 60 65 54 66 55 67 58 68 56 69 5 70 6 71 7 72 8 73 9 74 10 75
REMARK SMILES IDX 23 76 11 77 13 78 12 79 14 80 16 81 15 82 17 83 18 84 22 85
REMARK SMILES IDX 19 86 21 87 20 88
REMARK H PARENT 80 22 48 33
REMARK Flexibility Score: inf
ROOT
ATOM      1  C   UNL A   1      34.092  34.510  28.026  1.00  0.00     0.275 C 
ENDROOT
BRANCH   1   2
ATOM      2  O   UNL A   1      35.205  33.643  28.331  1.00  0.00    -0.458 OA
BRANCH   2   3
ATOM      3  C   UNL A   1      35.125  32.309  28.137  1.00  0.00     0.338 C 
ATOM      4  O   UNL A   1      34.236  31.780  27.481  1.00  0.00    -0.246 OA
BRANCH   3   5
ATOM      5  C   UNL A   1      36.343  31.553  28.528  1.00  0.00     0.060 A 
ATOM      6  C   UNL A   1      37.486  32.160  29.055  1.00  0.00     0.016 A 
ATOM      7  C   UNL A   1      36.317  30.160  28.353  1.00  0.00     0.016 A 
ATOM      8  C   UNL A   1      38.612  31.403  29.335  1.00  0.00     0.010 A 
ATOM      9  C   UNL A   1      37.440  29.397  28.645  1.00  0.00     0.010 A 
ATOM     10  C   UNL A   1      38.595  30.031  29.097  1.00  0.00    -0.014 A 
BRANCH  10  11
ATOM     11  C   UNL A   1      39.832  29.303  29.327  1.00  0.00     0.031 A 
ATOM     12  C   UNL A   1      40.208  29.038  30.744  1.00  0.00     0.074 A 
ATOM     13  C   UNL A   1      40.563  28.821  28.304  1.00  0.00     0.049 A 
ATOM     14  N   UNL A   1      41.295  29.372  31.364  1.00  0.00    -0.248 NA
ATOM     15  C   UNL A   1      39.226  28.339  31.586  1.00  0.00     0.031 C 
ATOM     16  C   UNL A   1      40.196  28.745  26.888  1.00  0.00     0.029 A 
ATOM     17  N   UNL A   1      41.774  28.201  28.349  1.00  0.00    -0.354 N 
ATOM     18  C   UNL A   1      41.205  28.808  32.636  1.00  0.00     0.074 A 
ATOM     19  C   UNL A   1      39.878  28.256  32.747  1.00  0.00     0.031 C 
ATOM     20  C   UNL A   1      41.064  27.929  26.251  1.00  0.00     0.029 A 
ATOM     21  C   UNL A   1      42.113  27.543  27.180  1.00  0.00     0.049 A 
ATOM     22  H   UNL A   1      42.356  28.219  29.142  1.00  0.00     0.167 HD
ATOM     23  C   UNL A   1      42.282  28.684  33.460  1.00  0.00     0.037 A 
ATOM     24  C   UNL A   1      43.142  26.680  27.019  1.00  0.00     0.037 A 
ATOM     25  C   UNL A   1      43.352  29.568  33.093  1.00  0.00     0.049 A 
ATOM     26  C   UNL A   1      44.118  26.931  28.108  1.00  0.00     0.074 A 
ATOM     27  C   UNL A   1      43.496  30.940  33.031  1.00  0.00     0.029 A 
ATOM     28  N   UNL A   1      44.427  29.058  32.413  1.00  0.00    -0.354 N 
ATOM     29  N   UNL A   1      44.842  28.009  28.212  1.00  0.00    -0.248 NA
ATOM     30  C   UNL A   1      44.003  26.135  29.321  1.00  0.00     0.031 C 
ATOM     31  C   UNL A   1      44.350  31.173  31.913  1.00  0.00     0.029 A 
ATOM     32  C   UNL A   1      44.692  29.926  31.386  1.00  0.00     0.049 A 
ATOM     33  H   UNL A   1      44.914  28.228  32.622  1.00  0.00     0.167 HD
ATOM     34  C   UNL A   1      44.931  28.246  29.576  1.00  0.00     0.074 A 
ATOM     35  C   UNL A   1      44.490  27.007  30.207  1.00  0.00     0.031 C 
ATOM     36  C   UNL A   1      45.090  29.510  30.064  1.00  0.00     0.037 A 
BRANCH  23  37
ATOM     37  C   UNL A   1      42.473  27.556  34.438  1.00  0.00     0.064 A 
ATOM     38  C   UNL A   1      43.052  26.342  34.015  1.00  0.00     0.173 A 
ATOM     39  C   UNL A   1      41.850  27.529  35.703  1.00  0.00     0.173 A 
ATOM     40  F   UNL A   1      43.636  26.246  32.812  1.00  0.00    -0.203 F 
ATOM     41  C   UNL A   1      42.969  25.179  34.787  1.00  0.00     0.198 A 
ATOM     42  C   UNL A   1      41.815  26.381  36.492  1.00  0.00     0.198 A 
ATOM     43  F   UNL A   1      41.161  28.580  36.169  1.00  0.00    -0.203 F 
ATOM     44  F   UNL A   1      43.439  24.022  34.299  1.00  0.00    -0.200 F 
ATOM     45  C   UNL A   1      42.351  25.199  36.024  1.00  0.00     0.200 A 
ATOM     46  F   UNL A   1      41.190  26.414  37.679  1.00  0.00    -0.200 F 
ATOM     47  F   UNL A   1      42.227  24.076  36.742  1.00  0.00    -0.200 F 
ENDBRANCH  23  37
BRANCH  24  48
ATOM     48  C   UNL A   1      43.164  25.450  26.196  1.00  0.00     0.064 A 
ATOM     49  C   UNL A   1      44.227  25.189  25.317  1.00  0.00     0.173 A 
ATOM     50  C   UNL A   1      42.291  24.376  26.462  1.00  0.00     0.173 A 
ATOM     51  F   UNL A   1      45.129  26.146  25.049  1.00  0.00    -0.203 F 
ATOM     52  C   UNL A   1      44.420  23.922  24.759  1.00  0.00     0.198 A 
ATOM     53  C   UNL A   1      42.479  23.116  25.896  1.00  0.00     0.198 A 
ATOM     54  F   UNL A   1      41.295  24.500  27.351  1.00  0.00    -0.203 F 
ATOM     55  F   UNL A   1      45.484  23.692  23.978  1.00  0.00    -0.200 F 
ATOM     56  C   UNL A   1      43.552  22.884  25.058  1.00  0.00     0.200 A 
ATOM     57  F   UNL A   1      41.651  22.113  26.221  1.00  0.00    -0.200 F 
ATOM     58  F   UNL A   1      43.773  21.654  24.574  1.00  0.00    -0.200 F 
ENDBRANCH  24  48
BRANCH  36  59
ATOM     59  C   UNL A   1      45.430  30.599  29.088  1.00  0.00     0.064 A 
ATOM     60  C   UNL A   1      46.746  30.913  28.704  1.00  0.00     0.173 A 
ATOM     61  C   UNL A   1      44.389  31.233  28.399  1.00  0.00     0.173 A 
ATOM     62  F   UNL A   1      47.792  30.272  29.240  1.00  0.00    -0.203 F 
ATOM     63  C   UNL A   1      47.003  31.852  27.708  1.00  0.00     0.198 A 
ATOM     64  C   UNL A   1      44.648  32.144  27.377  1.00  0.00     0.198 A 
ATOM     65  F   UNL A   1      43.112  30.925  28.679  1.00  0.00    -0.203 F 
ATOM     66  F   UNL A   1      48.268  32.139  27.364  1.00  0.00    -0.200 F 
ATOM     67  C   UNL A   1      45.953  32.461  27.039  1.00  0.00     0.200 A 
ATOM     68  F   UNL A   1      43.630  32.689  26.698  1.00  0.00    -0.200 F 
ATOM     69  F   UNL A   1      46.201  33.328  26.047  1.00  0.00    -0.200 F 
ENDBRANCH  36  59
ENDBRANCH  10  11
ENDBRANCH   3   5
ENDBRANCH   2   3
ENDBRANCH   1   2
BRANCH   1  70
ATOM     70  C   UNL A   1      33.674  35.531  29.087  1.00  0.00     0.275 C 
BRANCH  70  71
ATOM     71  O   UNL A   1      32.905  34.940  30.151  1.00  0.00    -0.458 OA
BRANCH  71  72
ATOM     72  C   UNL A   1      33.328  35.242  31.400  1.00  0.00     0.339 C 
ATOM     73  O   UNL A   1      32.845  36.070  32.172  1.00  0.00    -0.246 OA
BRANCH  72  74
ATOM     74  C   UNL A   1      34.480  34.422  31.755  1.00  0.00     0.079 A 
ATOM     75  C   UNL A   1      35.579  35.019  32.351  1.00  0.00     0.129 A 
ATOM     76  C   UNL A   1      34.436  33.033  31.614  1.00  0.00     0.029 A 
ATOM     77  N   UNL A   1      36.649  34.358  32.851  1.00  0.00    -0.237 NA
ATOM     78  C   UNL A   1      35.541  32.306  32.086  1.00  0.00     0.020 A 
ATOM     79  C   UNL A   1      36.565  33.018  32.712  1.00  0.00     0.140 A 
ATOM     80  C   UNL A   1      35.905  30.935  32.122  1.00  0.00     0.030 A 
ATOM     81  N   UNL A   1      37.450  32.100  33.232  1.00  0.00    -0.329 N 
ATOM     82  C   UNL A   1      37.094  30.837  32.813  1.00  0.00     0.088 A 
BRANCH  81  83
ATOM     83  C   UNL A   1      38.515  32.381  34.194  1.00  0.00     0.088 C 
ATOM     84  C   UNL A   1      38.595  31.335  35.314  1.00  0.00     0.025 C 
ATOM     85  C   UNL A   1      39.871  32.600  33.498  1.00  0.00     0.025 C 
ATOM     86  C   UNL A   1      39.726  31.650  36.292  1.00  0.00     0.002 C 
ATOM     87  C   UNL A   1      40.986  32.892  34.497  1.00  0.00     0.002 C 
ATOM     88  C   UNL A   1      41.063  31.815  35.575  1.00  0.00     0.000 C 
ENDBRANCH  81  83
ENDBRANCH  72  74
ENDBRANCH  71  72
ENDBRANCH  70  71
ENDBRANCH   1  70
TORSDOF 12
ENDMDL
MODEL 2
REMARK VINA RESULT:     -11.6      4.192     11.154
REMARK SMILES O=C(OCCOC(=O)c1cnc2c(ccn2C2CCCCC2)c1)c1ccc(-c2c3nc(c(-c4c(F)c(F)c(F)c(F)c4F)c4ccc([nH]4)c(-c4c(F)c(F)c(F)c(F)c4F)c4nc(c(-c5c(F)c(F)c(F)c(F)c5F)c5ccc2[nH]5)C=C4)C=C3)cc1
REMARK SMILES IDX 4 1 3 2 2 3 1 4 24 5 25 6 86 7 26 8 85 9 27 10 28 11 29 12
REMARK SMILES IDX 79 13 30 14 84 15 78 16 80 17 31 18 83 19 77 20 76 21 32 23
REMARK SMILES IDX 64 24 44 25 63 26 45 27 48 28 62 29 81 30 46 31 47 32 61 34
REMARK SMILES IDX 82 35 49 36 33 37 34 38 42 39 35 40 36 41 40 42 43 43 37 44
REMARK SMILES IDX 38 45 41 46 39 47 65 48 66 49 74 50 67 51 68 52 72 53 75 54
REMARK SMILES IDX 69 55 70 56 73 57 71 58 50 59 51 60 59 61 52 62 53 63 57 64
REMARK SMILES IDX 60 65 54 66 55 67 58 68 56 69 5 70 6 71 7 72 8 73 9 74 10 75
REMARK SMILES IDX 23 76 11 77 13 78 12 79 14 80 16 81 15 82 17 83 18 84 22 85
REMARK SMILES IDX 19 86 21 87 20 88
REMARK H PARENT 80 22 48 33
REMARK Flexibility Score: inf
ROOT
ATOM      1  C   UNL A   1      41.425  19.672  27.071  1.00  0.00     0.275 C 
ENDROOT
BRANCH   1   2
ATOM      2  O   UNL A   1      41.562  21.098  27.255  1.00  0.00    -0.458 OA
BRANCH   2   3
ATOM      3  C   UNL A   1      40.588  21.949  26.870  1.00  0.00     0.338 C 
ATOM      4  O   UNL A   1      39.513  21.576  26.415  1.00  0.00    -0.246 OA
BRANCH   3   5
ATOM      5  C   UNL A   1      40.791  23.357  27.300  1.00  0.00     0.060 A 
ATOM      6  C   UNL A   1      41.788  23.748  28.197  1.00  0.00     0.016 A 
ATOM      7  C   UNL A   1      39.927  24.324  26.762  1.00  0.00     0.016 A 
ATOM      8  C   UNL A   1      41.879  25.068  28.609  1.00  0.00     0.010 A 
ATOM      9  C   UNL A   1      40.022  25.650  27.162  1.00  0.00     0.010 A 
ATOM     10  C   UNL A   1      40.974  26.005  28.116  1.00  0.00    -0.014 A 
BRANCH  10  11
ATOM     11  C   UNL A   1      41.062  27.355  28.648  1.00  0.00     0.031 A 
ATOM     12  C   UNL A   1      42.200  28.195  28.181  1.00  0.00     0.074 A 
ATOM     13  C   UNL A   1      40.113  27.850  29.465  1.00  0.00     0.049 A 
ATOM     14  N   UNL A   1      43.115  28.778  28.890  1.00  0.00    -0.248 NA
ATOM     15  C   UNL A   1      42.357  28.378  26.731  1.00  0.00     0.031 C 
ATOM     16  C   UNL A   1      38.807  27.270  29.788  1.00  0.00     0.029 A 
ATOM     17  N   UNL A   1      40.093  29.048  30.109  1.00  0.00    -0.354 N 
ATOM     18  C   UNL A   1      43.885  29.519  27.995  1.00  0.00     0.074 A 
ATOM     19  C   UNL A   1      43.428  29.171  26.673  1.00  0.00     0.031 C 
ATOM     20  C   UNL A   1      38.044  28.210  30.389  1.00  0.00     0.029 A 
ATOM     21  C   UNL A   1      38.852  29.398  30.610  1.00  0.00     0.049 A 
ATOM     22  H   UNL A   1      40.891  29.616  30.208  1.00  0.00     0.167 HD
ATOM     23  C   UNL A   1      44.741  30.497  28.402  1.00  0.00     0.037 A 
ATOM     24  C   UNL A   1      38.500  30.609  31.100  1.00  0.00     0.037 A 
ATOM     25  C   UNL A   1      45.095  30.368  29.786  1.00  0.00     0.049 A 
ATOM     26  C   UNL A   1      39.744  31.325  31.473  1.00  0.00     0.074 A 
ATOM     27  C   UNL A   1      45.757  29.413  30.532  1.00  0.00     0.029 A 
ATOM     28  N   UNL A   1      44.492  31.191  30.702  1.00  0.00    -0.354 N 
ATOM     29  N   UNL A   1      40.520  30.984  32.463  1.00  0.00    -0.248 NA
ATOM     30  C   UNL A   1      40.344  32.208  30.484  1.00  0.00     0.031 C 
ATOM     31  C   UNL A   1      45.110  29.420  31.802  1.00  0.00     0.029 A 
ATOM     32  C   UNL A   1      44.116  30.399  31.756  1.00  0.00     0.049 A 
ATOM     33  H   UNL A   1      44.355  32.163  30.619  1.00  0.00     0.167 HD
ATOM     34  C   UNL A   1      41.804  31.262  32.019  1.00  0.00     0.074 A 
ATOM     35  C   UNL A   1      41.626  32.109  30.844  1.00  0.00     0.031 C 
ATOM     36  C   UNL A   1      42.878  30.558  32.479  1.00  0.00     0.037 A 
BRANCH  23  37
ATOM     37  C   UNL A   1      45.041  31.741  27.609  1.00  0.00     0.064 A 
ATOM     38  C   UNL A   1      46.315  31.926  27.036  1.00  0.00     0.173 A 
ATOM     39  C   UNL A   1      44.209  32.881  27.634  1.00  0.00     0.173 A 
ATOM     40  F   UNL A   1      47.199  30.919  26.996  1.00  0.00    -0.203 F 
ATOM     41  C   UNL A   1      46.737  33.173  26.565  1.00  0.00     0.198 A 
ATOM     42  C   UNL A   1      44.614  34.110  27.117  1.00  0.00     0.198 A 
ATOM     43  F   UNL A   1      43.023  32.871  28.257  1.00  0.00    -0.203 F 
ATOM     44  F   UNL A   1      47.994  33.329  26.127  1.00  0.00    -0.200 F 
ATOM     45  C   UNL A   1      45.887  34.264  26.606  1.00  0.00     0.200 A 
ATOM     46  F   UNL A   1      43.785  35.161  27.187  1.00  0.00    -0.200 F 
ATOM     47  F   UNL A   1      46.306  35.470  26.202  1.00  0.00    -0.200 F 
ENDBRANCH  23  37
BRANCH  24  48
ATOM     48  C   UNL A   1      37.199  31.298  30.946  1.00  0.00     0.064 A 
ATOM     49  C   UNL A   1      36.389  31.564  32.061  1.00  0.00     0.173 A 
ATOM     50  C   UNL A   1      36.856  31.956  29.748  1.00  0.00     0.173 A 
ATOM     51  F   UNL A   1      36.676  31.013  33.250  1.00  0.00    -0.203 F 
ATOM     52  C   UNL A   1      35.316  32.458  31.988  1.00  0.00     0.198 A 
ATOM     53  C   UNL A   1      35.779  32.838  29.674  1.00  0.00     0.198 A 
ATOM     54  F   UNL A   1      37.616  31.832  28.650  1.00  0.00    -0.203 F 
ATOM     55  F   UNL A   1      34.606  32.740  33.089  1.00  0.00    -0.200 F 
ATOM     56  C   UNL A   1      35.019  33.102  30.797  1.00  0.00     0.200 A 
ATOM     57  F   UNL A   1      35.526  33.481  28.525  1.00  0.00    -0.200 F 
ATOM     58  F   UNL A   1      34.031  34.006  30.743  1.00  0.00    -0.200 F 
ENDBRANCH  24  48
BRANCH  36  59
ATOM     59  C   UNL A   1      42.670  29.661  33.665  1.00  0.00     0.064 A 
ATOM     60  C   UNL A   1      42.174  28.349  33.568  1.00  0.00     0.173 A 
ATOM     61  C   UNL A   1      43.138  30.082  34.916  1.00  0.00     0.173 A 
ATOM     62  F   UNL A   1      41.807  27.837  32.386  1.00  0.00    -0.203 F 
ATOM     63  C   UNL A   1      42.109  27.517  34.683  1.00  0.00     0.198 A 
ATOM     64  C   UNL A   1      43.107  29.236  36.022  1.00  0.00     0.198 A 
ATOM     65  F   UNL A   1      43.681  31.303  35.055  1.00  0.00    -0.203 F 
ATOM     66  F   UNL A   1      41.626  26.271  34.565  1.00  0.00    -0.200 F 
ATOM     67  C   UNL A   1      42.583  27.958  35.908  1.00  0.00     0.200 A 
ATOM     68  F   UNL A   1      43.616  29.647  37.191  1.00  0.00    -0.200 F 
ATOM     69  F   UNL A   1      42.566  27.140  36.969  1.00  0.00    -0.200 F 
ENDBRANCH  36  59
ENDBRANCH  10  11
ENDBRANCH   3   5
ENDBRANCH   2   3
ENDBRANCH   1   2
BRANCH   1  70
ATOM     70  C   UNL A   1      42.531  18.944  26.305  1.00  0.00     0.275 C 
BRANCH  70  71
ATOM     71  O   UNL A   1      42.807  19.544  25.025  1.00  0.00    -0.458 OA
BRANCH  71  72
ATOM     72  C   UNL A   1      44.111  19.812  24.787  1.00  0.00     0.339 C 
ATOM     73  O   UNL A   1      44.956  19.050  24.315  1.00  0.00    -0.246 OA
BRANCH  72  74
ATOM     74  C   UNL A   1      44.421  21.186  25.162  1.00  0.00     0.079 A 
ATOM     75  C   UNL A   1      45.652  21.472  25.730  1.00  0.00     0.129 A 
ATOM     76  C   UNL A   1      43.545  22.226  24.843  1.00  0.00     0.029 A 
ATOM     77  N   UNL A   1      46.117  22.715  25.996  1.00  0.00    -0.237 NA
ATOM     78  C   UNL A   1      43.969  23.532  25.135  1.00  0.00     0.020 A 
ATOM     79  C   UNL A   1      45.251  23.695  25.661  1.00  0.00     0.140 A 
ATOM     80  C   UNL A   1      43.407  24.829  25.000  1.00  0.00     0.030 A 
ATOM     81  N   UNL A   1      45.509  25.046  25.712  1.00  0.00    -0.329 N 
ATOM     82  C   UNL A   1      44.367  25.742  25.382  1.00  0.00     0.088 A 
BRANCH  81  83
ATOM     83  C   UNL A   1      46.817  25.664  25.934  1.00  0.00     0.088 C 
ATOM     84  C   UNL A   1      47.701  25.650  24.680  1.00  0.00     0.025 C 
ATOM     85  C   UNL A   1      46.686  27.073  26.543  1.00  0.00     0.025 C 
ATOM     86  C   UNL A   1      49.051  26.316  24.942  1.00  0.00     0.002 C 
ATOM     87  C   UNL A   1      48.047  27.724  26.775  1.00  0.00     0.002 C 
ATOM     88  C   UNL A   1      48.886  27.726  25.501  1.00  0.00     0.000 C 
ENDBRANCH  81  83
ENDBRANCH  72  74
ENDBRANCH  71  72
ENDBRANCH  70  71
ENDBRANCH   1  70
TORSDOF 12
ENDMDL
MODEL 3
REMARK VINA RESULT:     -11.6      0.283      1.173
REMARK SMILES O=C(OCCOC(=O)c1cnc2c(ccn2C2CCCCC2)c1)c1ccc(-c2c3nc(c(-c4c(F)c(F)c(F)c(F)c4F)c4ccc([nH]4)c(-c4c(F)c(F)c(F)c(F)c4F)c4nc(c(-c5c(F)c(F)c(F)c(F)c5F)c5ccc2[nH]5)C=C4)C=C3)cc1
REMARK SMILES IDX 4 1 3 2 2 3 1 4 24 5 25 6 86 7 26 8 85 9 27 10 28 11 29 12
REMARK SMILES IDX 79 13 30 14 84 15 78 16 80 17 31 18 83 19 77 20 76 21 32 23
REMARK SMILES IDX 64 24 44 25 63 26 45 27 48 28 62 29 81 30 46 31 47 32 61 34
REMARK SMILES IDX 82 35 49 36 33 37 34 38 42 39 35 40 36 41 40 42 43 43 37 44
REMARK SMILES IDX 38 45 41 46 39 47 65 48 66 49 74 50 67 51 68 52 72 53 75 54
REMARK SMILES IDX 69 55 70 56 73 57 71 58 50 59 51 60 59 61 52 62 53 63 57 64
REMARK SMILES IDX 60 65 54 66 55 67 58 68 56 69 5 70 6 71 7 72 8 73 9 74 10 75
REMARK SMILES IDX 23 76 11 77 13 78 12 79 14 80 16 81 15 82 17 83 18 84 22 85
REMARK SMILES IDX 19 86 21 87 20 88
REMARK H PARENT 80 22 48 33
REMARK Flexibility Score: inf
ROOT
ATOM      1  C   UNL A   1      33.875  34.103  27.982  1.00  0.00     0.275 C 
ENDROOT
BRANCH   1   2
ATOM      2  O   UNL A   1      35.032  33.283  28.255  1.00  0.00    -0.458 OA
BRANCH   2   3
ATOM      3  C   UNL A   1      35.023  31.956  28.006  1.00  0.00     0.338 C 
ATOM      4  O   UNL A   1      34.183  31.413  27.300  1.00  0.00    -0.246 OA
BRANCH   3   5
ATOM      5  C   UNL A   1      36.263  31.243  28.409  1.00  0.00     0.060 A 
ATOM      6  C   UNL A   1      37.418  31.899  28.843  1.00  0.00     0.016 A 
ATOM      7  C   UNL A   1      36.247  29.841  28.342  1.00  0.00     0.016 A 
ATOM      8  C   UNL A   1      38.562  31.176  29.139  1.00  0.00     0.010 A 
ATOM      9  C   UNL A   1      37.388  29.112  28.650  1.00  0.00     0.010 A 
ATOM     10  C   UNL A   1      38.552  29.789  29.007  1.00  0.00    -0.014 A 
BRANCH  10  11
ATOM     11  C   UNL A   1      39.804  29.091  29.247  1.00  0.00     0.031 A 
ATOM     12  C   UNL A   1      40.193  28.864  30.667  1.00  0.00     0.074 A 
ATOM     13  C   UNL A   1      40.540  28.603  28.230  1.00  0.00     0.049 A 
ATOM     14  N   UNL A   1      41.276  29.233  31.275  1.00  0.00    -0.248 NA
ATOM     15  C   UNL A   1      39.229  28.163  31.528  1.00  0.00     0.031 C 
ATOM     16  C   UNL A   1      40.168  28.490  26.818  1.00  0.00     0.029 A 
ATOM     17  N   UNL A   1      41.764  28.009  28.282  1.00  0.00    -0.354 N 
ATOM     18  C   UNL A   1      41.203  28.694  32.558  1.00  0.00     0.074 A 
ATOM     19  C   UNL A   1      39.888  28.118  32.687  1.00  0.00     0.031 C 
ATOM     20  C   UNL A   1      41.050  27.678  26.194  1.00  0.00     0.029 A 
ATOM     21  C   UNL A   1      42.111  27.333  27.125  1.00  0.00     0.049 A 
ATOM     22  H   UNL A   1      42.349  28.056  29.072  1.00  0.00     0.167 HD
ATOM     23  C   UNL A   1      42.286  28.610  33.379  1.00  0.00     0.037 A 
ATOM     24  C   UNL A   1      43.157  26.488  26.978  1.00  0.00     0.037 A 
ATOM     25  C   UNL A   1      43.335  29.508  32.988  1.00  0.00     0.049 A 
ATOM     26  C   UNL A   1      44.132  26.782  28.056  1.00  0.00     0.074 A 
ATOM     27  C   UNL A   1      43.452  30.881  32.897  1.00  0.00     0.029 A 
ATOM     28  N   UNL A   1      44.418  29.005  32.314  1.00  0.00    -0.354 N 
ATOM     29  N   UNL A   1      44.835  27.877  28.133  1.00  0.00    -0.248 NA
ATOM     30  C   UNL A   1      44.040  26.010  29.286  1.00  0.00     0.031 C 
ATOM     31  C   UNL A   1      44.295  31.107  31.770  1.00  0.00     0.029 A 
ATOM     32  C   UNL A   1      44.660  29.857  31.267  1.00  0.00     0.049 A 
ATOM     33  H   UNL A   1      44.923  28.190  32.537  1.00  0.00     0.167 HD
ATOM     34  C   UNL A   1      44.925  28.144  29.491  1.00  0.00     0.074 A 
ATOM     35  C   UNL A   1      44.513  26.911  30.151  1.00  0.00     0.031 C 
ATOM     36  C   UNL A   1      45.061  29.421  29.952  1.00  0.00     0.037 A 
BRANCH  23  37
ATOM     37  C   UNL A   1      42.505  27.507  34.379  1.00  0.00     0.064 A 
ATOM     38  C   UNL A   1      43.089  26.289  33.975  1.00  0.00     0.173 A 
ATOM     39  C   UNL A   1      41.903  27.504  35.655  1.00  0.00     0.173 A 
ATOM     40  F   UNL A   1      43.654  26.170  32.765  1.00  0.00    -0.203 F 
ATOM     41  C   UNL A   1      43.031  25.144  34.775  1.00  0.00     0.198 A 
ATOM     42  C   UNL A   1      41.893  26.374  36.471  1.00  0.00     0.198 A 
ATOM     43  F   UNL A   1      41.211  28.558  36.108  1.00  0.00    -0.203 F 
ATOM     44  F   UNL A   1      43.504  23.980  34.307  1.00  0.00    -0.200 F 
ATOM     45  C   UNL A   1      42.434  25.187  36.021  1.00  0.00     0.200 A 
ATOM     46  F   UNL A   1      41.288  26.429  37.667  1.00  0.00    -0.200 F 
ATOM     47  F   UNL A   1      42.333  24.079  36.768  1.00  0.00    -0.200 F 
ENDBRANCH  23  37
BRANCH  24  48
ATOM     48  C   UNL A   1      43.201  25.242  26.181  1.00  0.00     0.064 A 
ATOM     49  C   UNL A   1      44.259  24.990  25.294  1.00  0.00     0.173 A 
ATOM     50  C   UNL A   1      42.358  24.152  26.480  1.00  0.00     0.173 A 
ATOM     51  F   UNL A   1      45.132  25.963  24.994  1.00  0.00    -0.203 F 
ATOM     52  C   UNL A   1      44.477  23.717  24.760  1.00  0.00     0.198 A 
ATOM     53  C   UNL A   1      42.571  22.886  25.938  1.00  0.00     0.198 A 
ATOM     54  F   UNL A   1      41.370  24.270  27.379  1.00  0.00    -0.203 F 
ATOM     55  F   UNL A   1      45.537  23.497  23.970  1.00  0.00    -0.200 F 
ATOM     56  C   UNL A   1      43.640  22.663  25.091  1.00  0.00     0.200 A 
ATOM     57  F   UNL A   1      41.774  21.869  26.295  1.00  0.00    -0.200 F 
ATOM     58  F   UNL A   1      43.887  21.429  24.630  1.00  0.00    -0.200 F 
ENDBRANCH  24  48
BRANCH  36  59
ATOM     59  C   UNL A   1      45.374  30.496  28.951  1.00  0.00     0.064 A 
ATOM     60  C   UNL A   1      44.391  31.174  28.208  1.00  0.00     0.173 A 
ATOM     61  C   UNL A   1      46.690  30.966  28.860  1.00  0.00     0.173 A 
ATOM     62  F   UNL A   1      43.096  30.853  28.325  1.00  0.00    -0.203 F 
ATOM     63  C   UNL A   1      44.722  32.243  27.379  1.00  0.00     0.198 A 
ATOM     64  C   UNL A   1      47.013  32.059  28.058  1.00  0.00     0.198 A 
ATOM     65  F   UNL A   1      47.659  30.398  29.595  1.00  0.00    -0.203 F 
ATOM     66  F   UNL A   1      43.767  32.870  26.676  1.00  0.00    -0.200 F 
ATOM     67  C   UNL A   1      46.031  32.690  27.311  1.00  0.00     0.200 A 
ATOM     68  F   UNL A   1      48.270  32.521  28.037  1.00  0.00    -0.200 F 
ATOM     69  F   UNL A   1      46.341  33.750  26.551  1.00  0.00    -0.200 F 
ENDBRANCH  36  59
ENDBRANCH  10  11
ENDBRANCH   3   5
ENDBRANCH   2   3
ENDBRANCH   1   2
BRANCH   1  70
ATOM     70  C   UNL A   1      33.492  35.161  29.019  1.00  0.00     0.275 C 
BRANCH  70  71
ATOM     71  O   UNL A   1      33.053  34.585  30.263  1.00  0.00    -0.458 OA
BRANCH  71  72
ATOM     72  C   UNL A   1      33.627  35.108  31.371  1.00  0.00     0.339 C 
ATOM     73  O   UNL A   1      33.262  36.100  32.004  1.00  0.00    -0.246 OA
BRANCH  72  74
ATOM     74  C   UNL A   1      34.785  34.314  31.763  1.00  0.00     0.079 A 
ATOM     75  C   UNL A   1      35.850  34.935  32.395  1.00  0.00     0.129 A 
ATOM     76  C   UNL A   1      34.778  32.925  31.619  1.00  0.00     0.029 A 
ATOM     77  N   UNL A   1      36.917  34.298  32.930  1.00  0.00    -0.237 NA
ATOM     78  C   UNL A   1      35.884  32.223  32.126  1.00  0.00     0.020 A 
ATOM     79  C   UNL A   1      36.870  32.957  32.786  1.00  0.00     0.140 A 
ATOM     80  C   UNL A   1      36.278  30.860  32.172  1.00  0.00     0.030 A 
ATOM     81  N   UNL A   1      37.757  32.059  33.334  1.00  0.00    -0.329 N 
ATOM     82  C   UNL A   1      37.445  30.788  32.903  1.00  0.00     0.088 A 
BRANCH  81  83
ATOM     83  C   UNL A   1      38.783  32.363  34.332  1.00  0.00     0.088 C 
ATOM     84  C   UNL A   1      38.969  31.234  35.355  1.00  0.00     0.025 C 
ATOM     85  C   UNL A   1      40.112  32.783  33.675  1.00  0.00     0.025 C 
ATOM     86  C   UNL A   1      40.057  31.577  36.372  1.00  0.00     0.002 C 
ATOM     87  C   UNL A   1      41.186  33.100  34.711  1.00  0.00     0.002 C 
ATOM     88  C   UNL A   1      41.372  31.945  35.690  1.00  0.00     0.000 C 
ENDBRANCH  81  83
ENDBRANCH  72  74
ENDBRANCH  71  72
ENDBRANCH  70  71
ENDBRANCH   1  70
TORSDOF 12
ENDMDL
