MODEL 1
REMARK VINA RESULT:     -13.0      0.000      0.000
REMARK SMILES O=C(OCCOC(=O)c1ccc(-c2c3nc(c(-c4c(F)c(F)c(F)c(F)c4F)c4ccc([nH]4)c(-c4c(F)c(F)c(F)c(F)c4F)c4nc(c(-c5c(F)c(F)c(F)c(F)c5F)c5ccc2[nH]5)C=C4)C=C3)cc1)c1ccc(C[C@H]2CCN(C(=O)Cc3cccc(O)c3)C2)cc1
REMARK SMILES IDX 1 1 2 2 3 3 4 4 5 5 6 6 7 7 8 8 9 9 10 10 71 11 11 12 70 13
REMARK SMILES IDX 12 14 13 15 14 16 64 17 15 18 69 19 63 20 65 21 16 22 68 23
REMARK SMILES IDX 62 24 61 25 17 27 49 28 29 29 48 30 30 31 33 32 47 33 66 34
REMARK SMILES IDX 31 35 32 36 46 38 67 39 34 40 18 41 19 42 27 43 20 44 21 45
REMARK SMILES IDX 25 46 28 47 22 48 23 49 26 50 24 51 50 52 51 53 59 54 52 55
REMARK SMILES IDX 53 56 57 57 60 58 54 59 55 60 58 61 56 62 35 63 36 64 44 65
REMARK SMILES IDX 37 66 38 67 42 68 45 69 39 70 40 71 43 72 41 73 72 74 73 75
REMARK SMILES IDX 93 76 74 77 92 78 75 79 76 80 77 81 78 82 91 83 79 84 80 85
REMARK SMILES IDX 81 86 82 87 83 88 84 89 85 90 90 91 86 92 88 93 87 94 89 95
REMARK H PARENT 65 26 33 37 89 96
REMARK Flexibility Score: inf
ROOT
ATOM      1  O   UNL A   1      30.379  29.566  23.485  1.00  0.00    -0.246 OA
ATOM      2  C   UNL A   1      30.996  29.341  24.524  1.00  0.00     0.338 C 
ENDROOT
BRANCH   2   3
ATOM      3  O   UNL A   1      31.491  30.391  25.229  1.00  0.00    -0.458 OA
BRANCH   3   4
ATOM      4  C   UNL A   1      30.860  31.642  25.585  1.00  0.00     0.275 C 
BRANCH   4   5
ATOM      5  C   UNL A   1      31.393  32.219  26.914  1.00  0.00     0.275 C 
BRANCH   5   6
ATOM      6  O   UNL A   1      32.762  31.843  27.175  1.00  0.00    -0.458 OA
BRANCH   6   7
ATOM      7  C   UNL A   1      33.528  32.811  27.738  1.00  0.00     0.338 C 
ATOM      8  O   UNL A   1      33.147  33.927  28.052  1.00  0.00    -0.246 OA
BRANCH   7   9
ATOM      9  C   UNL A   1      34.886  32.300  28.072  1.00  0.00     0.060 A 
ATOM     10  C   UNL A   1      35.001  30.933  28.352  1.00  0.00     0.016 A 
ATOM     11  C   UNL A   1      36.029  33.106  28.126  1.00  0.00     0.016 A 
ATOM     12  C   UNL A   1      36.222  30.390  28.760  1.00  0.00     0.010 A 
ATOM     13  C   UNL A   1      37.266  32.551  28.502  1.00  0.00     0.010 A 
ATOM     14  C   UNL A   1      37.359  31.200  28.883  1.00  0.00    -0.014 A 
BRANCH  14  15
ATOM     15  C   UNL A   1      38.557  30.661  29.591  1.00  0.00     0.031 A 
ATOM     16  C   UNL A   1      38.792  31.052  31.031  1.00  0.00     0.074 A 
ATOM     17  C   UNL A   1      39.383  29.764  29.020  1.00  0.00     0.049 A 
ATOM     18  N   UNL A   1      39.668  30.588  31.890  1.00  0.00    -0.248 NA
ATOM     19  C   UNL A   1      37.927  32.110  31.574  1.00  0.00     0.031 C 
ATOM     20  C   UNL A   1      39.295  29.283  27.643  1.00  0.00     0.029 A 
ATOM     21  N   UNL A   1      40.457  29.081  29.545  1.00  0.00    -0.354 N 
ATOM     22  C   UNL A   1      39.447  31.286  33.070  1.00  0.00     0.074 A 
ATOM     23  C   UNL A   1      38.403  32.250  32.801  1.00  0.00     0.031 C 
ATOM     24  C   UNL A   1      40.262  28.369  27.438  1.00  0.00     0.029 A 
ATOM     25  C   UNL A   1      41.041  28.202  28.666  1.00  0.00     0.049 A 
ATOM     26  H   UNL A   1      40.778  29.212  30.467  1.00  0.00     0.167 HD
ATOM     27  C   UNL A   1      40.029  31.123  34.283  1.00  0.00     0.037 A 
ATOM     28  C   UNL A   1      42.070  27.346  28.835  1.00  0.00     0.037 A 
ATOM     29  C   UNL A   1      41.062  30.167  34.578  1.00  0.00     0.049 A 
ATOM     30  C   UNL A   1      42.738  27.217  30.185  1.00  0.00     0.074 A 
ATOM     31  C   UNL A   1      41.677  29.911  35.792  1.00  0.00     0.029 A 
ATOM     32  N   UNL A   1      41.640  29.318  33.650  1.00  0.00    -0.354 N 
ATOM     33  N   UNL A   1      42.454  27.813  31.316  1.00  0.00    -0.248 NA
ATOM     34  C   UNL A   1      43.862  26.270  30.280  1.00  0.00     0.031 C 
ATOM     35  C   UNL A   1      42.665  28.942  35.587  1.00  0.00     0.029 A 
ATOM     36  C   UNL A   1      42.625  28.555  34.258  1.00  0.00     0.049 A 
ATOM     37  H   UNL A   1      41.389  29.264  32.699  1.00  0.00     0.167 HD
ATOM     38  C   UNL A   1      43.324  27.278  32.261  1.00  0.00     0.074 A 
ATOM     39  C   UNL A   1      44.145  26.308  31.573  1.00  0.00     0.031 C 
ATOM     40  C   UNL A   1      43.424  27.565  33.582  1.00  0.00     0.037 A 
BRANCH  27  41
ATOM     41  C   UNL A   1      39.556  32.013  35.394  1.00  0.00     0.064 A 
ATOM     42  C   UNL A   1      40.091  33.297  35.583  1.00  0.00     0.173 A 
ATOM     43  C   UNL A   1      38.542  31.589  36.263  1.00  0.00     0.173 A 
ATOM     44  F   UNL A   1      41.074  33.744  34.784  1.00  0.00    -0.203 F 
ATOM     45  C   UNL A   1      39.648  34.112  36.620  1.00  0.00     0.198 A 
ATOM     46  C   UNL A   1      38.080  32.417  37.283  1.00  0.00     0.198 A 
ATOM     47  F   UNL A   1      37.995  30.372  36.123  1.00  0.00    -0.203 F 
ATOM     48  F   UNL A   1      40.209  35.313  36.815  1.00  0.00    -0.200 F 
ATOM     49  C   UNL A   1      38.638  33.673  37.466  1.00  0.00     0.200 A 
ATOM     50  F   UNL A   1      37.097  31.998  38.091  1.00  0.00    -0.200 F 
ATOM     51  F   UNL A   1      38.211  34.459  38.463  1.00  0.00    -0.200 F 
ENDBRANCH  27  41
BRANCH  28  52
ATOM     52  C   UNL A   1      42.533  26.497  27.704  1.00  0.00     0.064 A 
ATOM     53  C   UNL A   1      43.545  26.936  26.838  1.00  0.00     0.173 A 
ATOM     54  C   UNL A   1      41.927  25.264  27.428  1.00  0.00     0.173 A 
ATOM     55  F   UNL A   1      44.132  28.124  27.043  1.00  0.00    -0.203 F 
ATOM     56  C   UNL A   1      43.912  26.188  25.722  1.00  0.00     0.198 A 
ATOM     57  C   UNL A   1      42.313  24.503  26.327  1.00  0.00     0.198 A 
ATOM     58  F   UNL A   1      40.950  24.802  28.222  1.00  0.00    -0.203 F 
ATOM     59  F   UNL A   1      44.837  26.660  24.875  1.00  0.00    -0.200 F 
ATOM     60  C   UNL A   1      43.298  24.971  25.467  1.00  0.00     0.200 A 
ATOM     61  F   UNL A   1      41.721  23.326  26.086  1.00  0.00    -0.200 F 
ATOM     62  F   UNL A   1      43.642  24.256  24.387  1.00  0.00    -0.200 F 
ENDBRANCH  28  52
BRANCH  40  63
ATOM     63  C   UNL A   1      44.411  26.779  34.401  1.00  0.00     0.064 A 
ATOM     64  C   UNL A   1      45.718  27.234  34.631  1.00  0.00     0.173 A 
ATOM     65  C   UNL A   1      44.026  25.569  35.000  1.00  0.00     0.173 A 
ATOM     66  F   UNL A   1      46.142  28.378  34.075  1.00  0.00    -0.203 F 
ATOM     67  C   UNL A   1      46.611  26.491  35.402  1.00  0.00     0.198 A 
ATOM     68  C   UNL A   1      44.911  24.845  35.797  1.00  0.00     0.198 A 
ATOM     69  F   UNL A   1      42.785  25.091  34.823  1.00  0.00    -0.203 F 
ATOM     70  F   UNL A   1      47.870  26.921  35.565  1.00  0.00    -0.200 F 
ATOM     71  C   UNL A   1      46.205  25.303  35.991  1.00  0.00     0.200 A 
ATOM     72  F   UNL A   1      44.510  23.706  36.378  1.00  0.00    -0.200 F 
ATOM     73  F   UNL A   1      47.063  24.595  36.737  1.00  0.00    -0.200 F 
ENDBRANCH  40  63
ENDBRANCH  14  15
ENDBRANCH   7   9
ENDBRANCH   6   7
ENDBRANCH   5   6
ENDBRANCH   4   5
ENDBRANCH   3   4
ENDBRANCH   2   3
BRANCH   2  74
ATOM     74  C   UNL A   1      31.041  27.921  25.009  1.00  0.00     0.060 A 
ATOM     75  C   UNL A   1      30.693  26.823  24.244  1.00  0.00     0.016 A 
ATOM     76  C   UNL A   1      31.565  27.656  26.290  1.00  0.00     0.016 A 
ATOM     77  C   UNL A   1      30.943  25.530  24.672  1.00  0.00     0.004 A 
ATOM     78  C   UNL A   1      31.687  26.339  26.781  1.00  0.00     0.004 A 
ATOM     79  C   UNL A   1      31.346  25.255  25.972  1.00  0.00    -0.048 A 
BRANCH  79  80
ATOM     80  C   UNL A   1      31.360  23.816  26.433  1.00  0.00     0.041 C 
BRANCH  80  81
ATOM     81  C   UNL A   1      32.789  23.273  26.671  1.00  0.00     0.015 C 
ATOM     82  C   UNL A   1      32.920  22.194  27.760  1.00  0.00     0.027 C 
ATOM     83  C   UNL A   1      33.374  22.550  25.446  1.00  0.00     0.123 C 
ATOM     84  C   UNL A   1      34.215  21.506  27.439  1.00  0.00     0.120 C 
ATOM     85  N   UNL A   1      34.219  21.491  25.992  1.00  0.00    -0.342 N 
BRANCH  85  86
ATOM     86  C   UNL A   1      34.889  20.596  25.186  1.00  0.00     0.227 C 
ATOM     87  O   UNL A   1      36.117  20.512  25.204  1.00  0.00    -0.275 OA
BRANCH  86  88
ATOM     88  C   UNL A   1      34.062  19.737  24.230  1.00  0.00     0.135 C 
BRANCH  88  89
ATOM     89  C   UNL A   1      33.817  18.309  24.678  1.00  0.00    -0.035 A 
ATOM     90  C   UNL A   1      32.585  17.963  25.257  1.00  0.00     0.004 A 
ATOM     91  C   UNL A   1      34.806  17.321  24.550  1.00  0.00     0.050 A 
ATOM     92  C   UNL A   1      32.370  16.675  25.751  1.00  0.00     0.004 A 
ATOM     93  C   UNL A   1      34.593  16.052  25.077  1.00  0.00     0.115 A 
ATOM     94  C   UNL A   1      33.384  15.721  25.674  1.00  0.00     0.046 A 
BRANCH  93  95
ATOM     95  O   UNL A   1      35.572  15.105  25.052  1.00  0.00    -0.508 OA
ATOM     96  H   UNL A   1      35.732  14.616  24.269  1.00  0.00     0.293 HD
ENDBRANCH  93  95
ENDBRANCH  88  89
ENDBRANCH  86  88
ENDBRANCH  85  86
ENDBRANCH  80  81
ENDBRANCH  79  80
ENDBRANCH   2  74
TORSDOF 17
ENDMDL
MODEL 2
REMARK VINA RESULT:     -12.9      3.051      9.115
REMARK SMILES O=C(OCCOC(=O)c1ccc(-c2c3nc(c(-c4c(F)c(F)c(F)c(F)c4F)c4ccc([nH]4)c(-c4c(F)c(F)c(F)c(F)c4F)c4nc(c(-c5c(F)c(F)c(F)c(F)c5F)c5ccc2[nH]5)C=C4)C=C3)cc1)c1ccc(C[C@H]2CCN(C(=O)Cc3cccc(O)c3)C2)cc1
REMARK SMILES IDX 1 1 2 2 3 3 4 4 5 5 6 6 7 7 8 8 9 9 10 10 71 11 11 12 70 13
REMARK SMILES IDX 12 14 13 15 14 16 64 17 15 18 69 19 63 20 65 21 16 22 68 23
REMARK SMILES IDX 62 24 61 25 17 27 49 28 29 29 48 30 30 31 33 32 47 33 66 34
REMARK SMILES IDX 31 35 32 36 46 38 67 39 34 40 18 41 19 42 27 43 20 44 21 45
REMARK SMILES IDX 25 46 28 47 22 48 23 49 26 50 24 51 50 52 51 53 59 54 52 55
REMARK SMILES IDX 53 56 57 57 60 58 54 59 55 60 58 61 56 62 35 63 36 64 44 65
REMARK SMILES IDX 37 66 38 67 42 68 45 69 39 70 40 71 43 72 41 73 72 74 73 75
REMARK SMILES IDX 93 76 74 77 92 78 75 79 76 80 77 81 78 82 91 83 79 84 80 85
REMARK SMILES IDX 81 86 82 87 83 88 84 89 85 90 90 91 86 92 88 93 87 94 89 95
REMARK H PARENT 65 26 33 37 89 96
REMARK Flexibility Score: inf
ROOT
ATOM      1  O   UNL A   1      40.777  20.353  27.611  1.00  0.00    -0.246 OA
ATOM      2  C   UNL A   1      40.897  21.442  27.052  1.00  0.00     0.338 C 
ENDROOT
BRANCH   2   3
ATOM      3  O   UNL A   1      42.142  21.869  26.717  1.00  0.00    -0.458 OA
BRANCH   3   4
ATOM      4  C   UNL A   1      43.001  21.448  25.633  1.00  0.00     0.275 C 
BRANCH   4   5
ATOM      5  C   UNL A   1      44.194  22.404  25.416  1.00  0.00     0.275 C 
BRANCH   5   6
ATOM      6  O   UNL A   1      43.833  23.585  24.668  1.00  0.00    -0.458 OA
BRANCH   6   7
ATOM      7  C   UNL A   1      44.474  24.722  25.040  1.00  0.00     0.338 C 
ATOM      8  O   UNL A   1      45.545  25.111  24.602  1.00  0.00    -0.246 OA
BRANCH   7   9
ATOM      9  C   UNL A   1      43.636  25.537  25.962  1.00  0.00     0.060 A 
ATOM     10  C   UNL A   1      44.268  26.594  26.629  1.00  0.00     0.016 A 
ATOM     11  C   UNL A   1      42.277  25.297  26.195  1.00  0.00     0.016 A 
ATOM     12  C   UNL A   1      43.575  27.351  27.578  1.00  0.00     0.010 A 
ATOM     13  C   UNL A   1      41.572  26.084  27.123  1.00  0.00     0.010 A 
ATOM     14  C   UNL A   1      42.232  27.078  27.868  1.00  0.00    -0.014 A 
BRANCH  14  15
ATOM     15  C   UNL A   1      41.613  27.700  29.076  1.00  0.00     0.031 A 
ATOM     16  C   UNL A   1      42.282  27.517  30.417  1.00  0.00     0.074 A 
ATOM     17  C   UNL A   1      40.530  28.498  28.994  1.00  0.00     0.049 A 
ATOM     18  N   UNL A   1      42.019  28.090  31.567  1.00  0.00    -0.248 NA
ATOM     19  C   UNL A   1      43.395  26.557  30.470  1.00  0.00     0.031 C 
ATOM     20  C   UNL A   1      39.769  28.777  27.780  1.00  0.00     0.029 A 
ATOM     21  N   UNL A   1      39.894  29.237  29.967  1.00  0.00    -0.354 N 
ATOM     22  C   UNL A   1      42.940  27.571  32.468  1.00  0.00     0.074 A 
ATOM     23  C   UNL A   1      43.724  26.590  31.752  1.00  0.00     0.031 C 
ATOM     24  C   UNL A   1      38.779  29.641  28.074  1.00  0.00     0.029 A 
ATOM     25  C   UNL A   1      38.834  29.975  29.499  1.00  0.00     0.049 A 
ATOM     26  H   UNL A   1      40.173  29.236  30.911  1.00  0.00     0.167 HD
ATOM     27  C   UNL A   1      43.145  27.900  33.767  1.00  0.00     0.037 A 
ATOM     28  C   UNL A   1      38.014  30.835  30.138  1.00  0.00     0.037 A 
ATOM     29  C   UNL A   1      42.385  28.877  34.498  1.00  0.00     0.049 A 
ATOM     30  C   UNL A   1      38.232  31.149  31.600  1.00  0.00     0.074 A 
ATOM     31  C   UNL A   1      42.557  29.298  35.807  1.00  0.00     0.029 A 
ATOM     32  N   UNL A   1      41.305  29.578  33.991  1.00  0.00    -0.354 N 
ATOM     33  N   UNL A   1      39.166  30.724  32.414  1.00  0.00    -0.248 NA
ATOM     34  C   UNL A   1      37.284  32.087  32.224  1.00  0.00     0.031 C 
ATOM     35  C   UNL A   1      41.546  30.217  36.107  1.00  0.00     0.029 A 
ATOM     36  C   UNL A   1      40.781  30.410  34.969  1.00  0.00     0.049 A 
ATOM     37  H   UNL A   1      40.959  29.498  33.072  1.00  0.00     0.167 HD
ATOM     38  C   UNL A   1      38.951  31.379  33.622  1.00  0.00     0.074 A 
ATOM     39  C   UNL A   1      37.799  32.232  33.436  1.00  0.00     0.031 C 
ATOM     40  C   UNL A   1      39.652  31.284  34.778  1.00  0.00     0.037 A 
BRANCH  27  41
ATOM     41  C   UNL A   1      44.249  27.183  34.487  1.00  0.00     0.064 A 
ATOM     42  C   UNL A   1      45.550  27.706  34.541  1.00  0.00     0.173 A 
ATOM     43  C   UNL A   1      43.998  25.973  35.150  1.00  0.00     0.173 A 
ATOM     44  F   UNL A   1      45.843  28.854  33.910  1.00  0.00    -0.203 F 
ATOM     45  C   UNL A   1      46.566  27.029  35.208  1.00  0.00     0.198 A 
ATOM     46  C   UNL A   1      45.010  25.313  35.841  1.00  0.00     0.198 A 
ATOM     47  F   UNL A   1      42.770  25.433  35.131  1.00  0.00    -0.203 F 
ATOM     48  F   UNL A   1      47.814  27.520  35.202  1.00  0.00    -0.200 F 
ATOM     49  C   UNL A   1      46.294  25.836  35.862  1.00  0.00     0.200 A 
ATOM     50  F   UNL A   1      44.744  24.167  36.482  1.00  0.00    -0.200 F 
ATOM     51  F   UNL A   1      47.273  25.186  36.505  1.00  0.00    -0.200 F 
ENDBRANCH  27  41
BRANCH  28  52
ATOM     52  C   UNL A   1      36.911  31.508  29.400  1.00  0.00     0.064 A 
ATOM     53  C   UNL A   1      36.950  32.887  29.145  1.00  0.00     0.173 A 
ATOM     54  C   UNL A   1      35.771  30.801  28.998  1.00  0.00     0.173 A 
ATOM     55  F   UNL A   1      38.006  33.612  29.541  1.00  0.00    -0.203 F 
ATOM     56  C   UNL A   1      35.875  33.538  28.542  1.00  0.00     0.198 A 
ATOM     57  C   UNL A   1      34.708  31.448  28.370  1.00  0.00     0.198 A 
ATOM     58  F   UNL A   1      35.682  29.482  29.224  1.00  0.00    -0.203 F 
ATOM     59  F   UNL A   1      35.910  34.866  28.367  1.00  0.00    -0.200 F 
ATOM     60  C   UNL A   1      34.755  32.817  28.153  1.00  0.00     0.200 A 
ATOM     61  F   UNL A   1      33.630  30.748  27.991  1.00  0.00    -0.200 F 
ATOM     62  F   UNL A   1      33.717  33.444  27.584  1.00  0.00    -0.200 F 
ENDBRANCH  28  52
BRANCH  40  63
ATOM     63  C   UNL A   1      39.245  32.168  35.924  1.00  0.00     0.064 A 
ATOM     64  C   UNL A   1      39.750  33.468  36.078  1.00  0.00     0.173 A 
ATOM     65  C   UNL A   1      38.301  31.719  36.862  1.00  0.00     0.173 A 
ATOM     66  F   UNL A   1      40.661  33.944  35.217  1.00  0.00    -0.203 F 
ATOM     67  C   UNL A   1      39.349  34.272  37.143  1.00  0.00     0.198 A 
ATOM     68  C   UNL A   1      37.878  32.537  37.907  1.00  0.00     0.198 A 
ATOM     69  F   UNL A   1      37.777  30.489  36.758  1.00  0.00    -0.203 F 
ATOM     70  F   UNL A   1      39.883  35.491  37.297  1.00  0.00    -0.200 F 
ATOM     71  C   UNL A   1      38.409  33.810  38.052  1.00  0.00     0.200 A 
ATOM     72  F   UNL A   1      36.957  32.094  38.775  1.00  0.00    -0.200 F 
ATOM     73  F   UNL A   1      38.020  34.588  39.071  1.00  0.00    -0.200 F 
ENDBRANCH  40  63
ENDBRANCH  14  15
ENDBRANCH   7   9
ENDBRANCH   6   7
ENDBRANCH   5   6
ENDBRANCH   4   5
ENDBRANCH   3   4
ENDBRANCH   2   3
BRANCH   2  74
ATOM     74  C   UNL A   1      39.640  22.161  26.659  1.00  0.00     0.060 A 
ATOM     75  C   UNL A   1      39.322  23.448  27.052  1.00  0.00     0.016 A 
ATOM     76  C   UNL A   1      38.760  21.544  25.748  1.00  0.00     0.016 A 
ATOM     77  C   UNL A   1      38.251  24.133  26.502  1.00  0.00     0.004 A 
ATOM     78  C   UNL A   1      37.591  22.192  25.297  1.00  0.00     0.004 A 
ATOM     79  C   UNL A   1      37.313  23.499  25.698  1.00  0.00    -0.048 A 
BRANCH  79  80
ATOM     80  C   UNL A   1      36.049  24.246  25.338  1.00  0.00     0.041 C 
BRANCH  80  81
ATOM     81  C   UNL A   1      34.777  23.377  25.475  1.00  0.00     0.015 C 
ATOM     82  C   UNL A   1      34.148  23.333  26.878  1.00  0.00     0.027 C 
ATOM     83  C   UNL A   1      33.601  23.887  24.625  1.00  0.00     0.123 C 
ATOM     84  C   UNL A   1      32.733  22.892  26.631  1.00  0.00     0.120 C 
ATOM     85  N   UNL A   1      32.402  23.563  25.393  1.00  0.00    -0.342 N 
BRANCH  85  86
ATOM     86  C   UNL A   1      31.138  23.907  24.963  1.00  0.00     0.227 C 
ATOM     87  O   UNL A   1      30.659  23.427  23.935  1.00  0.00    -0.275 OA
BRANCH  86  88
ATOM     88  C   UNL A   1      30.362  24.941  25.778  1.00  0.00     0.135 C 
BRANCH  88  89
ATOM     89  C   UNL A   1      30.902  26.357  25.722  1.00  0.00    -0.035 A 
ATOM     90  C   UNL A   1      31.554  26.898  26.842  1.00  0.00     0.004 A 
ATOM     91  C   UNL A   1      30.747  27.156  24.578  1.00  0.00     0.050 A 
ATOM     92  C   UNL A   1      31.985  28.226  26.839  1.00  0.00     0.004 A 
ATOM     93  C   UNL A   1      31.148  28.488  24.601  1.00  0.00     0.115 A 
ATOM     94  C   UNL A   1      31.767  29.027  25.720  1.00  0.00     0.046 A 
BRANCH  93  95
ATOM     95  O   UNL A   1      30.920  29.311  23.539  1.00  0.00    -0.508 OA
ATOM     96  H   UNL A   1      31.390  30.118  23.461  1.00  0.00     0.293 HD
ENDBRANCH  93  95
ENDBRANCH  88  89
ENDBRANCH  86  88
ENDBRANCH  85  86
ENDBRANCH  80  81
ENDBRANCH  79  80
ENDBRANCH   2  74
TORSDOF 17
ENDMDL
MODEL 3
REMARK VINA RESULT:     -12.8      3.199      5.433
REMARK SMILES O=C(OCCOC(=O)c1ccc(-c2c3nc(c(-c4c(F)c(F)c(F)c(F)c4F)c4ccc([nH]4)c(-c4c(F)c(F)c(F)c(F)c4F)c4nc(c(-c5c(F)c(F)c(F)c(F)c5F)c5ccc2[nH]5)C=C4)C=C3)cc1)c1ccc(C[C@H]2CCN(C(=O)Cc3cccc(O)c3)C2)cc1
REMARK SMILES IDX 1 1 2 2 3 3 4 4 5 5 6 6 7 7 8 8 9 9 10 10 71 11 11 12 70 13
REMARK SMILES IDX 12 14 13 15 14 16 64 17 15 18 69 19 63 20 65 21 16 22 68 23
REMARK SMILES IDX 62 24 61 25 17 27 49 28 29 29 48 30 30 31 33 32 47 33 66 34
REMARK SMILES IDX 31 35 32 36 46 38 67 39 34 40 18 41 19 42 27 43 20 44 21 45
REMARK SMILES IDX 25 46 28 47 22 48 23 49 26 50 24 51 50 52 51 53 59 54 52 55
REMARK SMILES IDX 53 56 57 57 60 58 54 59 55 60 58 61 56 62 35 63 36 64 44 65
REMARK SMILES IDX 37 66 38 67 42 68 45 69 39 70 40 71 43 72 41 73 72 74 73 75
REMARK SMILES IDX 93 76 74 77 92 78 75 79 76 80 77 81 78 82 91 83 79 84 80 85
REMARK SMILES IDX 81 86 82 87 83 88 84 89 85 90 90 91 86 92 88 93 87 94 89 95
REMARK H PARENT 65 26 33 37 89 96
REMARK Flexibility Score: inf
ROOT
ATOM      1  O   UNL A   1      36.044  33.878  29.495  1.00  0.00    -0.246 OA
ATOM      2  C   UNL A   1      35.196  33.803  28.608  1.00  0.00     0.338 C 
ENDROOT
BRANCH   2   3
ATOM      3  O   UNL A   1      34.683  34.952  28.098  1.00  0.00    -0.458 OA
BRANCH   3   4
ATOM      4  C   UNL A   1      33.968  36.018  28.764  1.00  0.00     0.275 C 
BRANCH   4   5
ATOM      5  C   UNL A   1      32.906  35.492  29.754  1.00  0.00     0.275 C 
BRANCH   5   6
ATOM      6  O   UNL A   1      32.882  36.234  30.993  1.00  0.00    -0.458 OA
BRANCH   6   7
ATOM      7  C   UNL A   1      32.622  35.496  32.101  1.00  0.00     0.338 C 
ATOM      8  O   UNL A   1      31.514  35.266  32.558  1.00  0.00    -0.246 OA
BRANCH   7   9
ATOM      9  C   UNL A   1      33.860  34.862  32.632  1.00  0.00     0.060 A 
ATOM     10  C   UNL A   1      35.054  35.579  32.489  1.00  0.00     0.016 A 
ATOM     11  C   UNL A   1      33.887  33.605  33.248  1.00  0.00     0.016 A 
ATOM     12  C   UNL A   1      36.272  35.017  32.880  1.00  0.00     0.010 A 
ATOM     13  C   UNL A   1      35.110  33.056  33.675  1.00  0.00     0.010 A 
ATOM     14  C   UNL A   1      36.320  33.732  33.437  1.00  0.00    -0.014 A 
BRANCH  14  15
ATOM     15  C   UNL A   1      37.643  33.052  33.571  1.00  0.00     0.031 A 
ATOM     16  C   UNL A   1      38.480  33.318  34.798  1.00  0.00     0.074 A 
ATOM     17  C   UNL A   1      38.071  32.138  32.678  1.00  0.00     0.049 A 
ATOM     18  N   UNL A   1      39.579  32.726  35.204  1.00  0.00    -0.248 NA
ATOM     19  C   UNL A   1      38.021  34.396  35.686  1.00  0.00     0.031 C 
ATOM     20  C   UNL A   1      37.384  31.767  31.444  1.00  0.00     0.029 A 
ATOM     21  N   UNL A   1      39.192  31.338  32.691  1.00  0.00    -0.354 N 
ATOM     22  C   UNL A   1      39.927  33.350  36.395  1.00  0.00     0.074 A 
ATOM     23  C   UNL A   1      38.966  34.409  36.613  1.00  0.00     0.031 C 
ATOM     24  C   UNL A   1      38.087  30.799  30.827  1.00  0.00     0.029 A 
ATOM     25  C   UNL A   1      39.277  30.483  31.620  1.00  0.00     0.049 A 
ATOM     26  H   UNL A   1      39.871  31.376  33.404  1.00  0.00     0.167 HD
ATOM     27  C   UNL A   1      40.932  33.055  37.254  1.00  0.00     0.037 A 
ATOM     28  C   UNL A   1      40.195  29.541  31.320  1.00  0.00     0.037 A 
ATOM     29  C   UNL A   1      41.895  32.003  37.065  1.00  0.00     0.049 A 
ATOM     30  C   UNL A   1      41.336  29.262  32.270  1.00  0.00     0.074 A 
ATOM     31  C   UNL A   1      42.921  31.612  37.908  1.00  0.00     0.029 A 
ATOM     32  N   UNL A   1      41.958  31.182  35.952  1.00  0.00    -0.354 N 
ATOM     33  N   UNL A   1      41.598  29.795  33.438  1.00  0.00    -0.248 NA
ATOM     34  C   UNL A   1      42.301  28.228  31.861  1.00  0.00     0.031 C 
ATOM     35  C   UNL A   1      43.638  30.588  37.281  1.00  0.00     0.029 A 
ATOM     36  C   UNL A   1      43.023  30.303  36.074  1.00  0.00     0.049 A 
ATOM     37  H   UNL A   1      41.338  31.218  35.187  1.00  0.00     0.167 HD
ATOM     38  C   UNL A   1      42.718  29.127  33.922  1.00  0.00     0.074 A 
ATOM     39  C   UNL A   1      43.087  28.149  32.924  1.00  0.00     0.031 C 
ATOM     40  C   UNL A   1      43.375  29.308  35.094  1.00  0.00     0.037 A 
BRANCH  27  41
ATOM     41  C   UNL A   1      41.043  33.896  38.492  1.00  0.00     0.064 A 
ATOM     42  C   UNL A   1      40.338  33.574  39.662  1.00  0.00     0.173 A 
ATOM     43  C   UNL A   1      41.882  35.019  38.517  1.00  0.00     0.173 A 
ATOM     44  F   UNL A   1      39.511  32.517  39.683  1.00  0.00    -0.203 F 
ATOM     45  C   UNL A   1      40.444  34.365  40.802  1.00  0.00     0.198 A 
ATOM     46  C   UNL A   1      42.009  35.791  39.668  1.00  0.00     0.198 A 
ATOM     47  F   UNL A   1      42.581  35.366  37.426  1.00  0.00    -0.203 F 
ATOM     48  F   UNL A   1      39.720  34.071  41.891  1.00  0.00    -0.200 F 
ATOM     49  C   UNL A   1      41.285  35.470  40.806  1.00  0.00     0.200 A 
ATOM     50  F   UNL A   1      42.830  36.850  39.675  1.00  0.00    -0.200 F 
ATOM     51  F   UNL A   1      41.388  36.229  41.905  1.00  0.00    -0.200 F 
ENDBRANCH  27  41
BRANCH  28  52
ATOM     52  C   UNL A   1      40.070  28.743  30.070  1.00  0.00     0.064 A 
ATOM     53  C   UNL A   1      39.451  27.484  30.075  1.00  0.00     0.173 A 
ATOM     54  C   UNL A   1      40.627  29.193  28.865  1.00  0.00     0.173 A 
ATOM     55  F   UNL A   1      38.933  26.998  31.212  1.00  0.00    -0.203 F 
ATOM     56  C   UNL A   1      39.420  26.693  28.928  1.00  0.00     0.198 A 
ATOM     57  C   UNL A   1      40.572  28.412  27.712  1.00  0.00     0.198 A 
ATOM     58  F   UNL A   1      41.236  30.387  28.809  1.00  0.00    -0.203 F 
ATOM     59  F   UNL A   1      38.879  25.468  28.976  1.00  0.00    -0.200 F 
ATOM     60  C   UNL A   1      39.979  27.158  27.747  1.00  0.00     0.200 A 
ATOM     61  F   UNL A   1      41.107  28.866  26.571  1.00  0.00    -0.200 F 
ATOM     62  F   UNL A   1      39.960  26.393  26.647  1.00  0.00    -0.200 F 
ENDBRANCH  28  52
BRANCH  40  63
ATOM     63  C   UNL A   1      44.526  28.390  35.406  1.00  0.00     0.064 A 
ATOM     64  C   UNL A   1      45.846  28.704  35.053  1.00  0.00     0.173 A 
ATOM     65  C   UNL A   1      44.304  27.195  36.110  1.00  0.00     0.173 A 
ATOM     66  F   UNL A   1      46.113  29.828  34.372  1.00  0.00    -0.203 F 
ATOM     67  C   UNL A   1      46.896  27.842  35.363  1.00  0.00     0.198 A 
ATOM     68  C   UNL A   1      45.361  26.351  36.447  1.00  0.00     0.198 A 
ATOM     69  F   UNL A   1      43.063  26.849  36.483  1.00  0.00    -0.203 F 
ATOM     70  F   UNL A   1      48.142  28.139  34.969  1.00  0.00    -0.200 F 
ATOM     71  C   UNL A   1      46.654  26.671  36.066  1.00  0.00     0.200 A 
ATOM     72  F   UNL A   1      45.125  25.228  37.140  1.00  0.00    -0.200 F 
ATOM     73  F   UNL A   1      47.667  25.848  36.368  1.00  0.00    -0.200 F 
ENDBRANCH  40  63
ENDBRANCH  14  15
ENDBRANCH   7   9
ENDBRANCH   6   7
ENDBRANCH   5   6
ENDBRANCH   4   5
ENDBRANCH   3   4
ENDBRANCH   2   3
BRANCH   2  74
ATOM     74  C   UNL A   1      34.886  32.441  28.059  1.00  0.00     0.060 A 
ATOM     75  C   UNL A   1      35.809  31.417  27.944  1.00  0.00     0.016 A 
ATOM     76  C   UNL A   1      33.552  32.128  27.729  1.00  0.00     0.016 A 
ATOM     77  C   UNL A   1      35.426  30.126  27.620  1.00  0.00     0.004 A 
ATOM     78  C   UNL A   1      33.188  30.847  27.262  1.00  0.00     0.004 A 
ATOM     79  C   UNL A   1      34.142  29.833  27.179  1.00  0.00    -0.048 A 
BRANCH  79  80
ATOM     80  C   UNL A   1      33.871  28.458  26.614  1.00  0.00     0.041 C 
BRANCH  80  81
ATOM     81  C   UNL A   1      33.539  28.483  25.103  1.00  0.00     0.015 C 
ATOM     82  C   UNL A   1      33.859  27.192  24.329  1.00  0.00     0.027 C 
ATOM     83  C   UNL A   1      32.038  28.652  24.815  1.00  0.00     0.123 C 
ATOM     84  C   UNL A   1      33.008  27.285  23.095  1.00  0.00     0.120 C 
ATOM     85  N   UNL A   1      31.793  27.894  23.590  1.00  0.00    -0.342 N 
BRANCH  85  86
ATOM     86  C   UNL A   1      30.537  27.778  23.036  1.00  0.00     0.227 C 
ATOM     87  O   UNL A   1      30.193  28.471  22.077  1.00  0.00    -0.275 OA
BRANCH  86  88
ATOM     88  C   UNL A   1      29.560  26.794  23.678  1.00  0.00     0.135 C 
BRANCH  88  89
ATOM     89  C   UNL A   1      30.173  25.506  24.193  1.00  0.00    -0.035 A 
ATOM     90  C   UNL A   1      30.555  24.506  23.285  1.00  0.00     0.004 A 
ATOM     91  C   UNL A   1      30.347  25.275  25.567  1.00  0.00     0.050 A 
ATOM     92  C   UNL A   1      31.045  23.281  23.743  1.00  0.00     0.004 A 
ATOM     93  C   UNL A   1      30.802  24.038  26.012  1.00  0.00     0.115 A 
ATOM     94  C   UNL A   1      31.153  23.042  25.112  1.00  0.00     0.046 A 
BRANCH  93  95
ATOM     95  O   UNL A   1      30.888  23.756  27.343  1.00  0.00    -0.508 OA
ATOM     96  H   UNL A   1      30.109  23.601  27.840  1.00  0.00     0.293 HD
ENDBRANCH  93  95
ENDBRANCH  88  89
ENDBRANCH  86  88
ENDBRANCH  85  86
ENDBRANCH  80  81
ENDBRANCH  79  80
ENDBRANCH   2  74
TORSDOF 17
ENDMDL
