MODEL 1
REMARK VINA RESULT:     -12.0      0.000      0.000
REMARK SMILES CC1(C)[C@H]2CC[C@]1(C)C(=O)N(CC(=O)OCCOC(=O)c1ccc(-c3c4nc(c(-c5c(F)c(F)c(F)c(F)c5F)c5ccc([nH]5)c(-c5c(F)c(F)c(F)c(F)c5F)c5nc(c(-c6c(F)c(F)c(F)c(F)c6F)c6ccc3[nH]6)C=C5)C=C4)cc1)C2=O
REMARK SMILES IDX 17 1 16 2 15 3 13 4 14 5 12 6 11 7 1 8 2 9 4 10 7 11 3 12
REMARK SMILES IDX 5 13 84 14 6 15 9 16 8 17 85 18 10 19 18 20 19 21 20 22
REMARK SMILES IDX 21 23 22 24 83 25 23 26 82 27 24 28 25 29 26 30 76 31 27 32
REMARK SMILES IDX 81 33 75 34 77 35 28 36 80 37 74 38 73 39 29 41 61 42 41 43
REMARK SMILES IDX 60 44 42 45 45 46 59 47 78 48 43 49 44 50 58 52 79 53 46 54
REMARK SMILES IDX 30 55 31 56 39 57 32 58 33 59 37 60 40 61 34 62 35 63 38 64
REMARK SMILES IDX 36 65 62 66 63 67 71 68 64 69 65 70 69 71 72 72 66 73 67 74
REMARK SMILES IDX 70 75 68 76 47 77 48 78 56 79 49 80 50 81 54 82 57 83 51 84
REMARK SMILES IDX 52 85 55 86 53 87
REMARK H PARENT 77 40 45 51
REMARK Flexibility Score: inf
ROOT
ATOM      1  C   UNL A   1      31.777  29.736  25.951  1.00  0.00     0.275 C 
ENDROOT
BRANCH   1   2
ATOM      2  C   UNL A   1      31.028  29.881  24.626  1.00  0.00     0.274 C 
BRANCH   2   3
ATOM      3  O   UNL A   1      31.432  28.884  23.661  1.00  0.00    -0.461 OA
BRANCH   3   4
ATOM      4  C   UNL A   1      30.427  28.192  23.054  1.00  0.00     0.326 C 
ATOM      5  O   UNL A   1      29.882  28.539  22.010  1.00  0.00    -0.250 OA
BRANCH   4   6
ATOM      6  C   UNL A   1      30.057  26.882  23.758  1.00  0.00     0.251 C 
BRANCH   6   7
ATOM      7  N   UNL A   1      31.167  26.154  24.346  1.00  0.00    -0.271 N 
ATOM      8  C   UNL A   1      31.820  23.056  25.387  1.00  0.00     0.013 C 
ATOM      9  C   UNL A   1      32.909  24.142  25.491  1.00  0.00    -0.010 C 
ATOM     10  C   UNL A   1      32.478  25.404  26.270  1.00  0.00     0.086 C 
ATOM     11  C   UNL A   1      33.251  24.828  24.142  1.00  0.00     0.053 C 
ATOM     12  C   UNL A   1      34.121  23.486  26.201  1.00  0.00     0.013 C 
ATOM     13  C   UNL A   1      33.576  26.440  25.966  1.00  0.00     0.015 C 
ATOM     14  C   UNL A   1      31.194  26.004  25.724  1.00  0.00     0.233 C 
ATOM     15  C   UNL A   1      34.082  26.069  24.562  1.00  0.00     0.018 C 
ATOM     16  C   UNL A   1      31.936  25.347  23.512  1.00  0.00     0.236 C 
ATOM     17  C   UNL A   1      34.015  23.977  23.128  1.00  0.00     0.022 C 
ATOM     18  O   UNL A   1      30.277  26.334  26.471  1.00  0.00    -0.274 OA
ATOM     19  O   UNL A   1      31.551  25.021  22.393  1.00  0.00    -0.274 OA
ENDBRANCH   6   7
ENDBRANCH   4   6
ENDBRANCH   3   4
ENDBRANCH   2   3
ENDBRANCH   1   2
BRANCH   1  20
ATOM     20  O   UNL A   1      33.032  30.431  25.881  1.00  0.00    -0.458 OA
BRANCH  20  21
ATOM     21  C   UNL A   1      33.276  31.290  26.898  1.00  0.00     0.338 C 
ATOM     22  O   UNL A   1      32.589  32.222  27.272  1.00  0.00    -0.246 OA
BRANCH  21  23
ATOM     23  C   UNL A   1      34.564  30.943  27.515  1.00  0.00     0.060 A 
ATOM     24  C   UNL A   1      34.793  29.638  27.943  1.00  0.00     0.016 A 
ATOM     25  C   UNL A   1      35.499  31.943  27.773  1.00  0.00     0.016 A 
ATOM     26  C   UNL A   1      35.933  29.326  28.677  1.00  0.00     0.010 A 
ATOM     27  C   UNL A   1      36.671  31.622  28.462  1.00  0.00     0.010 A 
ATOM     28  C   UNL A   1      36.884  30.317  28.943  1.00  0.00    -0.014 A 
BRANCH  28  29
ATOM     29  C   UNL A   1      38.072  29.992  29.769  1.00  0.00     0.031 A 
ATOM     30  C   UNL A   1      39.139  29.088  29.223  1.00  0.00     0.074 A 
ATOM     31  C   UNL A   1      38.202  30.532  30.995  1.00  0.00     0.049 A 
ATOM     32  N   UNL A   1      40.203  28.607  29.815  1.00  0.00    -0.248 NA
ATOM     33  C   UNL A   1      38.987  28.663  27.823  1.00  0.00     0.031 C 
ATOM     34  C   UNL A   1      37.256  31.462  31.613  1.00  0.00     0.029 A 
ATOM     35  N   UNL A   1      39.185  30.379  31.941  1.00  0.00    -0.354 N 
ATOM     36  C   UNL A   1      40.826  27.797  28.875  1.00  0.00     0.074 A 
ATOM     37  C   UNL A   1      40.014  27.837  27.677  1.00  0.00     0.031 C 
ATOM     38  C   UNL A   1      37.711  31.810  32.826  1.00  0.00     0.029 A 
ATOM     39  C   UNL A   1      38.946  31.081  33.096  1.00  0.00     0.049 A 
ATOM     40  H   UNL A   1      39.984  29.820  31.804  1.00  0.00     0.167 HD
ATOM     41  C   UNL A   1      41.976  27.091  29.000  1.00  0.00     0.037 A 
ATOM     42  C   UNL A   1      39.631  31.109  34.255  1.00  0.00     0.037 A 
ATOM     43  C   UNL A   1      42.791  27.079  30.189  1.00  0.00     0.049 A 
ATOM     44  C   UNL A   1      40.876  30.275  34.385  1.00  0.00     0.074 A 
ATOM     45  C   UNL A   1      43.978  26.406  30.417  1.00  0.00     0.029 A 
ATOM     46  N   UNL A   1      42.500  27.778  31.352  1.00  0.00    -0.354 N 
ATOM     47  N   UNL A   1      41.450  29.500  33.498  1.00  0.00    -0.248 NA
ATOM     48  C   UNL A   1      41.564  30.319  35.681  1.00  0.00     0.031 C 
ATOM     49  C   UNL A   1      44.381  26.659  31.732  1.00  0.00     0.029 A 
ATOM     50  C   UNL A   1      43.475  27.536  32.308  1.00  0.00     0.049 A 
ATOM     51  H   UNL A   1      41.716  28.361  31.480  1.00  0.00     0.167 HD
ATOM     52  C   UNL A   1      42.577  28.979  34.118  1.00  0.00     0.074 A 
ATOM     53  C   UNL A   1      42.616  29.546  35.451  1.00  0.00     0.031 C 
ATOM     54  C   UNL A   1      43.497  28.110  33.630  1.00  0.00     0.037 A 
BRANCH  41  55
ATOM     55  C   UNL A   1      42.401  26.246  27.834  1.00  0.00     0.064 A 
ATOM     56  C   UNL A   1      41.850  24.978  27.593  1.00  0.00     0.173 A 
ATOM     57  C   UNL A   1      43.366  26.721  26.931  1.00  0.00     0.173 A 
ATOM     58  F   UNL A   1      40.934  24.471  28.432  1.00  0.00    -0.203 F 
ATOM     59  C   UNL A   1      42.270  24.206  26.512  1.00  0.00     0.198 A 
ATOM     60  C   UNL A   1      43.760  25.959  25.834  1.00  0.00     0.198 A 
ATOM     61  F   UNL A   1      43.922  27.928  27.109  1.00  0.00    -0.203 F 
ATOM     62  F   UNL A   1      41.767  22.977  26.333  1.00  0.00    -0.200 F 
ATOM     63  C   UNL A   1      43.220  24.699  25.631  1.00  0.00     0.200 A 
ATOM     64  F   UNL A   1      44.669  26.444  24.976  1.00  0.00    -0.200 F 
ATOM     65  F   UNL A   1      43.621  23.957  24.590  1.00  0.00    -0.200 F 
ENDBRANCH  41  55
BRANCH  42  66
ATOM     66  C   UNL A   1      39.142  31.941  35.384  1.00  0.00     0.064 A 
ATOM     67  C   UNL A   1      38.376  31.380  36.415  1.00  0.00     0.173 A 
ATOM     68  C   UNL A   1      39.433  33.312  35.460  1.00  0.00     0.173 A 
ATOM     69  F   UNL A   1      38.051  30.080  36.376  1.00  0.00    -0.203 F 
ATOM     70  C   UNL A   1      37.908  32.160  37.470  1.00  0.00     0.198 A 
ATOM     71  C   UNL A   1      38.991  34.084  36.531  1.00  0.00     0.198 A 
ATOM     72  F   UNL A   1      40.162  33.898  34.499  1.00  0.00    -0.203 F 
ATOM     73  F   UNL A   1      37.139  31.609  38.419  1.00  0.00    -0.200 F 
ATOM     74  C   UNL A   1      38.222  33.510  37.532  1.00  0.00     0.200 A 
ATOM     75  F   UNL A   1      39.309  35.384  36.593  1.00  0.00    -0.200 F 
ATOM     76  F   UNL A   1      37.777  34.259  38.550  1.00  0.00    -0.200 F 
ENDBRANCH  42  66
BRANCH  54  77
ATOM     77  C   UNL A   1      44.639  27.749  34.535  1.00  0.00     0.064 A 
ATOM     78  C   UNL A   1      45.817  28.509  34.575  1.00  0.00     0.173 A 
ATOM     79  C   UNL A   1      44.546  26.635  35.384  1.00  0.00     0.173 A 
ATOM     80  F   UNL A   1      45.962  29.574  33.773  1.00  0.00    -0.203 F 
ATOM     81  C   UNL A   1      46.874  28.146  35.406  1.00  0.00     0.198 A 
ATOM     82  C   UNL A   1      45.592  26.294  36.237  1.00  0.00     0.198 A 
ATOM     83  F   UNL A   1      43.438  25.878  35.388  1.00  0.00    -0.203 F 
ATOM     84  F   UNL A   1      48.013  28.852  35.386  1.00  0.00    -0.200 F 
ATOM     85  C   UNL A   1      46.758  27.044  36.240  1.00  0.00     0.200 A 
ATOM     86  F   UNL A   1      45.473  25.237  37.050  1.00  0.00    -0.200 F 
ATOM     87  F   UNL A   1      47.776  26.697  37.040  1.00  0.00    -0.200 F 
ENDBRANCH  54  77
ENDBRANCH  28  29
ENDBRANCH  21  23
ENDBRANCH  20  21
ENDBRANCH   1  20
TORSDOF 12
ENDMDL
MODEL 2
REMARK VINA RESULT:     -12.0      0.359      1.666
REMARK SMILES CC1(C)[C@H]2CC[C@]1(C)C(=O)N(CC(=O)OCCOC(=O)c1ccc(-c3c4nc(c(-c5c(F)c(F)c(F)c(F)c5F)c5ccc([nH]5)c(-c5c(F)c(F)c(F)c(F)c5F)c5nc(c(-c6c(F)c(F)c(F)c(F)c6F)c6ccc3[nH]6)C=C5)C=C4)cc1)C2=O
REMARK SMILES IDX 17 1 16 2 15 3 13 4 14 5 12 6 11 7 1 8 2 9 4 10 7 11 3 12
REMARK SMILES IDX 5 13 84 14 6 15 9 16 8 17 85 18 10 19 18 20 19 21 20 22
REMARK SMILES IDX 21 23 22 24 83 25 23 26 82 27 24 28 25 29 26 30 76 31 27 32
REMARK SMILES IDX 81 33 75 34 77 35 28 36 80 37 74 38 73 39 29 41 61 42 41 43
REMARK SMILES IDX 60 44 42 45 45 46 59 47 78 48 43 49 44 50 58 52 79 53 46 54
REMARK SMILES IDX 30 55 31 56 39 57 32 58 33 59 37 60 40 61 34 62 35 63 38 64
REMARK SMILES IDX 36 65 62 66 63 67 71 68 64 69 65 70 69 71 72 72 66 73 67 74
REMARK SMILES IDX 70 75 68 76 47 77 48 78 56 79 49 80 50 81 54 82 57 83 51 84
REMARK SMILES IDX 52 85 55 86 53 87
REMARK H PARENT 77 40 45 51
REMARK Flexibility Score: inf
ROOT
ATOM      1  C   UNL A   1      31.745  30.168  25.662  1.00  0.00     0.275 C 
ENDROOT
BRANCH   1   2
ATOM      2  C   UNL A   1      31.627  29.342  24.381  1.00  0.00     0.274 C 
BRANCH   2   3
ATOM      3  O   UNL A   1      30.276  28.881  24.153  1.00  0.00    -0.461 OA
BRANCH   3   4
ATOM      4  C   UNL A   1      30.110  27.967  23.156  1.00  0.00     0.326 C 
ATOM      5  O   UNL A   1      30.157  28.234  21.959  1.00  0.00    -0.250 OA
BRANCH   4   6
ATOM      6  C   UNL A   1      29.913  26.531  23.653  1.00  0.00     0.251 C 
BRANCH   6   7
ATOM      7  N   UNL A   1      31.064  25.933  24.306  1.00  0.00    -0.271 N 
ATOM      8  C   UNL A   1      32.036  22.913  25.328  1.00  0.00     0.013 C 
ATOM      9  C   UNL A   1      32.966  24.126  25.535  1.00  0.00    -0.010 C 
ATOM     10  C   UNL A   1      32.322  25.298  26.305  1.00  0.00     0.086 C 
ATOM     11  C   UNL A   1      33.311  24.889  24.228  1.00  0.00     0.053 C 
ATOM     12  C   UNL A   1      34.199  23.608  26.318  1.00  0.00     0.013 C 
ATOM     13  C   UNL A   1      33.296  26.474  26.104  1.00  0.00     0.015 C 
ATOM     14  C   UNL A   1      31.013  25.746  25.678  1.00  0.00     0.233 C 
ATOM     15  C   UNL A   1      33.943  26.212  24.734  1.00  0.00     0.018 C 
ATOM     16  C   UNL A   1      31.987  25.255  23.515  1.00  0.00     0.236 C 
ATOM     17  C   UNL A   1      34.247  24.173  23.256  1.00  0.00     0.022 C 
ATOM     18  O   UNL A   1      30.011  25.934  26.363  1.00  0.00    -0.274 OA
ATOM     19  O   UNL A   1      31.727  24.917  22.363  1.00  0.00    -0.274 OA
ENDBRANCH   6   7
ENDBRANCH   4   6
ENDBRANCH   3   4
ENDBRANCH   2   3
ENDBRANCH   1   2
BRANCH   1  20
ATOM     20  O   UNL A   1      33.124  30.273  26.049  1.00  0.00    -0.458 OA
BRANCH  20  21
ATOM     21  C   UNL A   1      33.393  31.211  26.985  1.00  0.00     0.338 C 
ATOM     22  O   UNL A   1      32.713  32.169  27.303  1.00  0.00    -0.246 OA
BRANCH  21  23
ATOM     23  C   UNL A   1      34.700  30.919  27.590  1.00  0.00     0.060 A 
ATOM     24  C   UNL A   1      35.025  29.607  27.929  1.00  0.00     0.016 A 
ATOM     25  C   UNL A   1      35.556  31.965  27.927  1.00  0.00     0.016 A 
ATOM     26  C   UNL A   1      36.181  29.330  28.650  1.00  0.00     0.010 A 
ATOM     27  C   UNL A   1      36.746  31.685  28.604  1.00  0.00     0.010 A 
ATOM     28  C   UNL A   1      37.053  30.369  28.995  1.00  0.00    -0.014 A 
BRANCH  28  29
ATOM     29  C   UNL A   1      38.258  30.076  29.809  1.00  0.00     0.031 A 
ATOM     30  C   UNL A   1      39.346  29.205  29.250  1.00  0.00     0.074 A 
ATOM     31  C   UNL A   1      38.384  30.615  31.036  1.00  0.00     0.049 A 
ATOM     32  N   UNL A   1      40.429  28.753  29.831  1.00  0.00    -0.248 NA
ATOM     33  C   UNL A   1      39.193  28.780  27.850  1.00  0.00     0.031 C 
ATOM     34  C   UNL A   1      37.417  31.515  31.666  1.00  0.00     0.029 A 
ATOM     35  N   UNL A   1      39.380  30.488  31.972  1.00  0.00    -0.354 N 
ATOM     36  C   UNL A   1      41.067  27.965  28.881  1.00  0.00     0.074 A 
ATOM     37  C   UNL A   1      40.242  27.985  27.692  1.00  0.00     0.031 C 
ATOM     38  C   UNL A   1      37.873  31.873  32.875  1.00  0.00     0.029 A 
ATOM     39  C   UNL A   1      39.132  31.179  33.132  1.00  0.00     0.049 A 
ATOM     40  H   UNL A   1      40.193  29.952  31.826  1.00  0.00     0.167 HD
ATOM     41  C   UNL A   1      42.238  27.292  28.994  1.00  0.00     0.037 A 
ATOM     42  C   UNL A   1      39.826  31.223  34.284  1.00  0.00     0.037 A 
ATOM     43  C   UNL A   1      43.064  27.300  30.175  1.00  0.00     0.049 A 
ATOM     44  C   UNL A   1      41.096  30.425  34.400  1.00  0.00     0.074 A 
ATOM     45  C   UNL A   1      44.272  26.661  30.390  1.00  0.00     0.029 A 
ATOM     46  N   UNL A   1      42.763  27.986  31.343  1.00  0.00    -0.354 N 
ATOM     47  N   UNL A   1      41.684  29.670  33.505  1.00  0.00    -0.248 NA
ATOM     48  C   UNL A   1      41.795  30.485  35.689  1.00  0.00     0.031 C 
ATOM     49  C   UNL A   1      44.680  26.922  31.702  1.00  0.00     0.029 A 
ATOM     50  C   UNL A   1      43.754  27.770  32.289  1.00  0.00     0.049 A 
ATOM     51  H   UNL A   1      41.964  28.546  31.480  1.00  0.00     0.167 HD
ATOM     52  C   UNL A   1      42.832  29.181  34.113  1.00  0.00     0.074 A 
ATOM     53  C   UNL A   1      42.867  29.744  35.447  1.00  0.00     0.031 C 
ATOM     54  C   UNL A   1      43.771  28.340  33.613  1.00  0.00     0.037 A 
BRANCH  41  55
ATOM     55  C   UNL A   1      42.676  26.464  27.820  1.00  0.00     0.064 A 
ATOM     56  C   UNL A   1      43.551  26.961  26.843  1.00  0.00     0.173 A 
ATOM     57  C   UNL A   1      42.225  25.142  27.681  1.00  0.00     0.173 A 
ATOM     58  F   UNL A   1      44.002  28.222  26.920  1.00  0.00    -0.203 F 
ATOM     59  C   UNL A   1      43.932  26.178  25.756  1.00  0.00     0.198 A 
ATOM     60  C   UNL A   1      42.633  24.352  26.610  1.00  0.00     0.198 A 
ATOM     61  F   UNL A   1      41.391  24.612  28.589  1.00  0.00    -0.203 F 
ATOM     62  F   UNL A   1      44.727  26.693  24.807  1.00  0.00    -0.200 F 
ATOM     63  C   UNL A   1      43.478  24.873  25.643  1.00  0.00     0.200 A 
ATOM     64  F   UNL A   1      42.203  23.086  26.511  1.00  0.00    -0.200 F 
ATOM     65  F   UNL A   1      43.848  24.120  24.598  1.00  0.00    -0.200 F 
ENDBRANCH  41  55
BRANCH  42  66
ATOM     66  C   UNL A   1      39.323  32.037  35.421  1.00  0.00     0.064 A 
ATOM     67  C   UNL A   1      38.492  31.474  36.399  1.00  0.00     0.173 A 
ATOM     68  C   UNL A   1      39.667  33.391  35.557  1.00  0.00     0.173 A 
ATOM     69  F   UNL A   1      38.116  30.191  36.301  1.00  0.00    -0.203 F 
ATOM     70  C   UNL A   1      38.011  32.238  37.461  1.00  0.00     0.198 A 
ATOM     71  C   UNL A   1      39.211  34.144  36.636  1.00  0.00     0.198 A 
ATOM     72  F   UNL A   1      40.460  33.977  34.648  1.00  0.00    -0.203 F 
ATOM     73  F   UNL A   1      37.181  31.688  38.357  1.00  0.00    -0.200 F 
ATOM     74  C   UNL A   1      38.377  33.571  37.582  1.00  0.00     0.200 A 
ATOM     75  F   UNL A   1      39.579  35.427  36.756  1.00  0.00    -0.200 F 
ATOM     76  F   UNL A   1      37.920  34.303  38.608  1.00  0.00    -0.200 F 
ENDBRANCH  42  66
BRANCH  54  77
ATOM     77  C   UNL A   1      44.932  28.010  34.506  1.00  0.00     0.064 A 
ATOM     78  C   UNL A   1      44.918  26.891  35.351  1.00  0.00     0.173 A 
ATOM     79  C   UNL A   1      46.080  28.818  34.504  1.00  0.00     0.173 A 
ATOM     80  F   UNL A   1      43.839  26.096  35.401  1.00  0.00    -0.203 F 
ATOM     81  C   UNL A   1      45.996  26.612  36.187  1.00  0.00     0.198 A 
ATOM     82  C   UNL A   1      47.169  28.518  35.317  1.00  0.00     0.198 A 
ATOM     83  F   UNL A   1      46.146  29.897  33.710  1.00  0.00    -0.203 F 
ATOM     84  F   UNL A   1      45.937  25.572  37.029  1.00  0.00    -0.200 F 
ATOM     85  C   UNL A   1      47.122  27.422  36.165  1.00  0.00     0.200 A 
ATOM     86  F   UNL A   1      48.261  29.294  35.286  1.00  0.00    -0.200 F 
ATOM     87  F   UNL A   1      48.159  27.152  36.970  1.00  0.00    -0.200 F 
ENDBRANCH  54  77
ENDBRANCH  28  29
ENDBRANCH  21  23
ENDBRANCH  20  21
ENDBRANCH   1  20
TORSDOF 12
ENDMDL
MODEL 3
REMARK VINA RESULT:     -12.0      0.311      1.655
REMARK SMILES CC1(C)[C@H]2CC[C@]1(C)C(=O)N(CC(=O)OCCOC(=O)c1ccc(-c3c4nc(c(-c5c(F)c(F)c(F)c(F)c5F)c5ccc([nH]5)c(-c5c(F)c(F)c(F)c(F)c5F)c5nc(c(-c6c(F)c(F)c(F)c(F)c6F)c6ccc3[nH]6)C=C5)C=C4)cc1)C2=O
REMARK SMILES IDX 17 1 16 2 15 3 13 4 14 5 12 6 11 7 1 8 2 9 4 10 7 11 3 12
REMARK SMILES IDX 5 13 84 14 6 15 9 16 8 17 85 18 10 19 18 20 19 21 20 22
REMARK SMILES IDX 21 23 22 24 83 25 23 26 82 27 24 28 25 29 26 30 76 31 27 32
REMARK SMILES IDX 81 33 75 34 77 35 28 36 80 37 74 38 73 39 29 41 61 42 41 43
REMARK SMILES IDX 60 44 42 45 45 46 59 47 78 48 43 49 44 50 58 52 79 53 46 54
REMARK SMILES IDX 30 55 31 56 39 57 32 58 33 59 37 60 40 61 34 62 35 63 38 64
REMARK SMILES IDX 36 65 62 66 63 67 71 68 64 69 65 70 69 71 72 72 66 73 67 74
REMARK SMILES IDX 70 75 68 76 47 77 48 78 56 79 49 80 50 81 54 82 57 83 51 84
REMARK SMILES IDX 52 85 55 86 53 87
REMARK H PARENT 77 40 45 51
REMARK Flexibility Score: inf
ROOT
ATOM      1  C   UNL A   1      31.766  30.190  25.721  1.00  0.00     0.275 C 
ENDROOT
BRANCH   1   2
ATOM      2  C   UNL A   1      31.627  29.368  24.439  1.00  0.00     0.274 C 
BRANCH   2   3
ATOM      3  O   UNL A   1      30.250  29.039  24.150  1.00  0.00    -0.461 OA
BRANCH   3   4
ATOM      4  C   UNL A   1      30.046  28.069  23.215  1.00  0.00     0.326 C 
ATOM      5  O   UNL A   1      30.095  28.257  22.002  1.00  0.00    -0.250 OA
BRANCH   4   6
ATOM      6  C   UNL A   1      29.800  26.676  23.804  1.00  0.00     0.251 C 
BRANCH   6   7
ATOM      7  N   UNL A   1      30.963  26.030  24.387  1.00  0.00    -0.271 N 
ATOM      8  C   UNL A   1      31.919  22.952  25.234  1.00  0.00     0.013 C 
ATOM      9  C   UNL A   1      32.876  24.139  25.462  1.00  0.00    -0.010 C 
ATOM     10  C   UNL A   1      32.280  25.285  26.308  1.00  0.00     0.086 C 
ATOM     11  C   UNL A   1      33.187  24.957  24.180  1.00  0.00     0.053 C 
ATOM     12  C   UNL A   1      34.127  23.566  26.175  1.00  0.00     0.013 C 
ATOM     13  C   UNL A   1      33.266  26.453  26.126  1.00  0.00     0.015 C 
ATOM     14  C   UNL A   1      30.958  25.781  25.750  1.00  0.00     0.233 C 
ATOM     15  C   UNL A   1      33.859  26.245  24.722  1.00  0.00     0.018 C 
ATOM     16  C   UNL A   1      31.845  25.376  23.532  1.00  0.00     0.236 C 
ATOM     17  C   UNL A   1      34.075  24.272  23.142  1.00  0.00     0.022 C 
ATOM     18  O   UNL A   1      29.984  25.953  26.479  1.00  0.00    -0.274 OA
ATOM     19  O   UNL A   1      31.538  25.096  22.377  1.00  0.00    -0.274 OA
ENDBRANCH   6   7
ENDBRANCH   4   6
ENDBRANCH   3   4
ENDBRANCH   2   3
ENDBRANCH   1   2
BRANCH   1  20
ATOM     20  O   UNL A   1      33.148  30.273  26.101  1.00  0.00    -0.458 OA
BRANCH  20  21
ATOM     21  C   UNL A   1      33.445  31.237  27.002  1.00  0.00     0.338 C 
ATOM     22  O   UNL A   1      32.799  32.232  27.273  1.00  0.00    -0.246 OA
BRANCH  21  23
ATOM     23  C   UNL A   1      34.735  30.921  27.631  1.00  0.00     0.060 A 
ATOM     24  C   UNL A   1      35.035  29.601  27.960  1.00  0.00     0.016 A 
ATOM     25  C   UNL A   1      35.596  31.952  28.000  1.00  0.00     0.016 A 
ATOM     26  C   UNL A   1      36.171  29.300  28.703  1.00  0.00     0.010 A 
ATOM     27  C   UNL A   1      36.767  31.647  28.699  1.00  0.00     0.010 A 
ATOM     28  C   UNL A   1      37.049  30.323  29.080  1.00  0.00    -0.014 A 
BRANCH  28  29
ATOM     29  C   UNL A   1      38.231  30.004  29.916  1.00  0.00     0.031 A 
ATOM     30  C   UNL A   1      39.316  29.118  29.374  1.00  0.00     0.074 A 
ATOM     31  C   UNL A   1      38.342  30.534  31.149  1.00  0.00     0.049 A 
ATOM     32  N   UNL A   1      40.379  28.643  29.974  1.00  0.00    -0.248 NA
ATOM     33  C   UNL A   1      39.184  28.704  27.969  1.00  0.00     0.031 C 
ATOM     34  C   UNL A   1      37.378  31.447  31.764  1.00  0.00     0.029 A 
ATOM     35  N   UNL A   1      39.316  30.384  32.104  1.00  0.00    -0.354 N 
ATOM     36  C   UNL A   1      41.022  27.850  29.033  1.00  0.00     0.074 A 
ATOM     37  C   UNL A   1      40.222  27.892  27.827  1.00  0.00     0.031 C 
ATOM     38  C   UNL A   1      37.816  31.790  32.985  1.00  0.00     0.029 A 
ATOM     39  C   UNL A   1      39.057  31.073  33.263  1.00  0.00     0.049 A 
ATOM     40  H   UNL A   1      40.123  29.836  31.971  1.00  0.00     0.167 HD
ATOM     41  C   UNL A   1      42.178  27.157  29.164  1.00  0.00     0.037 A 
ATOM     42  C   UNL A   1      39.728  31.098  34.429  1.00  0.00     0.037 A 
ATOM     43  C   UNL A   1      42.981  27.143  30.362  1.00  0.00     0.049 A 
ATOM     44  C   UNL A   1      40.981  30.278  34.565  1.00  0.00     0.074 A 
ATOM     45  C   UNL A   1      44.172  26.482  30.597  1.00  0.00     0.029 A 
ATOM     46  N   UNL A   1      42.668  27.828  31.528  1.00  0.00    -0.354 N 
ATOM     47  N   UNL A   1      41.575  29.518  33.678  1.00  0.00    -0.248 NA
ATOM     48  C   UNL A   1      41.655  30.318  35.869  1.00  0.00     0.031 C 
ATOM     49  C   UNL A   1      44.558  26.728  31.919  1.00  0.00     0.029 A 
ATOM     50  C   UNL A   1      43.636  27.589  32.493  1.00  0.00     0.049 A 
ATOM     51  H   UNL A   1      41.876  28.400  31.652  1.00  0.00     0.167 HD
ATOM     52  C   UNL A   1      42.701  29.005  34.306  1.00  0.00     0.074 A 
ATOM     53  C   UNL A   1      42.719  29.560  35.644  1.00  0.00     0.031 C 
ATOM     54  C   UNL A   1      43.636  28.151  33.820  1.00  0.00     0.037 A 
BRANCH  41  55
ATOM     55  C   UNL A   1      42.626  26.327  27.995  1.00  0.00     0.064 A 
ATOM     56  C   UNL A   1      43.511  26.823  27.026  1.00  0.00     0.173 A 
ATOM     57  C   UNL A   1      42.173  25.007  27.851  1.00  0.00     0.173 A 
ATOM     58  F   UNL A   1      43.964  28.083  27.108  1.00  0.00    -0.203 F 
ATOM     59  C   UNL A   1      43.901  26.040  25.942  1.00  0.00     0.198 A 
ATOM     60  C   UNL A   1      42.590  24.216  26.783  1.00  0.00     0.198 A 
ATOM     61  F   UNL A   1      41.329  24.479  28.751  1.00  0.00    -0.203 F 
ATOM     62  F   UNL A   1      44.706  26.553  25.001  1.00  0.00    -0.200 F 
ATOM     63  C   UNL A   1      43.445  24.736  25.825  1.00  0.00     0.200 A 
ATOM     64  F   UNL A   1      42.158  22.951  26.680  1.00  0.00    -0.200 F 
ATOM     65  F   UNL A   1      43.823  23.982  24.783  1.00  0.00    -0.200 F 
ENDBRANCH  41  55
BRANCH  42  66
ATOM     66  C   UNL A   1      39.217  31.914  35.561  1.00  0.00     0.064 A 
ATOM     67  C   UNL A   1      39.571  33.263  35.696  1.00  0.00     0.173 A 
ATOM     68  C   UNL A   1      38.361  31.364  36.527  1.00  0.00     0.173 A 
ATOM     69  F   UNL A   1      40.406  33.827  34.811  1.00  0.00    -0.203 F 
ATOM     70  C   UNL A   1      39.101  34.027  36.762  1.00  0.00     0.198 A 
ATOM     71  C   UNL A   1      37.867  32.138  37.575  1.00  0.00     0.198 A 
ATOM     72  F   UNL A   1      37.992  30.078  36.445  1.00  0.00    -0.203 F 
ATOM     73  F   UNL A   1      39.492  35.302  36.893  1.00  0.00    -0.200 F 
ATOM     74  C   UNL A   1      38.244  33.466  37.697  1.00  0.00     0.200 A 
ATOM     75  F   UNL A   1      37.028  31.595  38.468  1.00  0.00    -0.200 F 
ATOM     76  F   UNL A   1      37.787  34.203  38.718  1.00  0.00    -0.200 F 
ENDBRANCH  42  66
BRANCH  54  77
ATOM     77  C   UNL A   1      44.772  27.795  34.734  1.00  0.00     0.064 A 
ATOM     78  C   UNL A   1      45.941  28.567  34.793  1.00  0.00     0.173 A 
ATOM     79  C   UNL A   1      44.683  26.673  35.572  1.00  0.00     0.173 A 
ATOM     80  F   UNL A   1      46.083  29.641  34.001  1.00  0.00    -0.203 F 
ATOM     81  C   UNL A   1      46.994  28.210  35.632  1.00  0.00     0.198 A 
ATOM     82  C   UNL A   1      45.723  26.337  36.434  1.00  0.00     0.198 A 
ATOM     83  F   UNL A   1      43.584  25.904  35.558  1.00  0.00    -0.203 F 
ATOM     84  F   UNL A   1      48.124  28.928  35.630  1.00  0.00    -0.200 F 
ATOM     85  C   UNL A   1      46.881  27.099  36.456  1.00  0.00     0.200 A 
ATOM     86  F   UNL A   1      45.608  25.271  37.237  1.00  0.00    -0.200 F 
ATOM     87  F   UNL A   1      47.894  26.757  37.263  1.00  0.00    -0.200 F 
ENDBRANCH  54  77
ENDBRANCH  28  29
ENDBRANCH  21  23
ENDBRANCH  20  21
ENDBRANCH   1  20
TORSDOF 12
ENDMDL
