MODEL 1
REMARK VINA RESULT:     -11.9      0.000      0.000
REMARK SMILES O=C(OCCOC(=O)c1cc2sc(Cl)cc2s1)c1ccc(-c2c3nc(c(-c4c(F)c(F)c(F)c(F)c4F)c4ccc([nH]4)c(-c4c(F)c(F)c(F)c(F)c4F)c4nc(c(-c5c(F)c(F)c(F)c(F)c5F)c5ccc2[nH]5)C=C4)C=C3)cc1
REMARK SMILES IDX 4 1 3 2 2 3 1 4 18 5 19 6 80 7 20 8 79 9 21 10 22 11 23 12
REMARK SMILES IDX 73 13 24 14 78 15 72 16 74 17 25 18 77 19 71 20 70 21 26 23
REMARK SMILES IDX 58 24 38 25 57 26 39 27 42 28 56 29 75 30 40 31 41 32 55 34
REMARK SMILES IDX 76 35 43 36 27 37 28 38 36 39 29 40 30 41 34 42 37 43 31 44
REMARK SMILES IDX 32 45 35 46 33 47 59 48 60 49 68 50 61 51 62 52 66 53 69 54
REMARK SMILES IDX 63 55 64 56 67 57 65 58 44 59 45 60 53 61 46 62 47 63 51 64
REMARK SMILES IDX 54 65 48 66 49 67 52 68 50 69 5 70 6 71 7 72 8 73 9 74 10 75
REMARK SMILES IDX 17 76 11 77 16 78 12 79 15 80 13 81 14 82
REMARK H PARENT 74 22 42 33
REMARK Flexibility Score: inf
ROOT
ATOM      1  C   UNL A   1      40.733  19.607  26.319  1.00  0.00     0.275 C 
ENDROOT
BRANCH   1   2
ATOM      2  O   UNL A   1      40.878  20.965  26.781  1.00  0.00    -0.458 OA
BRANCH   2   3
ATOM      3  C   UNL A   1      39.989  21.913  26.419  1.00  0.00     0.338 C 
ATOM      4  O   UNL A   1      39.012  21.682  25.723  1.00  0.00    -0.246 OA
BRANCH   3   5
ATOM      5  C   UNL A   1      40.120  23.179  27.182  1.00  0.00     0.060 A 
ATOM      6  C   UNL A   1      39.203  24.234  27.100  1.00  0.00     0.016 A 
ATOM      7  C   UNL A   1      41.260  23.308  27.985  1.00  0.00     0.016 A 
ATOM      8  C   UNL A   1      39.487  25.448  27.699  1.00  0.00     0.010 A 
ATOM      9  C   UNL A   1      41.525  24.505  28.620  1.00  0.00     0.010 A 
ATOM     10  C   UNL A   1      40.683  25.593  28.398  1.00  0.00    -0.014 A 
BRANCH  10  11
ATOM     11  C   UNL A   1      41.043  26.908  28.905  1.00  0.00     0.031 A 
ATOM     12  C   UNL A   1      42.294  27.489  28.339  1.00  0.00     0.074 A 
ATOM     13  C   UNL A   1      40.194  27.574  29.713  1.00  0.00     0.049 A 
ATOM     14  N   UNL A   1      43.348  27.904  28.964  1.00  0.00    -0.248 NA
ATOM     15  C   UNL A   1      42.428  27.509  26.873  1.00  0.00     0.031 C 
ATOM     16  C   UNL A   1      38.843  27.180  30.133  1.00  0.00     0.029 A 
ATOM     17  N   UNL A   1      40.318  28.818  30.248  1.00  0.00    -0.354 N 
ATOM     18  C   UNL A   1      44.202  28.412  27.983  1.00  0.00     0.074 A 
ATOM     19  C   UNL A   1      43.654  28.009  26.715  1.00  0.00     0.031 C 
ATOM     20  C   UNL A   1      38.193  28.252  30.635  1.00  0.00     0.029 A 
ATOM     21  C   UNL A   1      39.125  29.359  30.715  1.00  0.00     0.049 A 
ATOM     22  H   UNL A   1      41.178  29.293  30.300  1.00  0.00     0.167 HD
ATOM     23  C   UNL A   1      45.164  29.329  28.284  1.00  0.00     0.037 A 
ATOM     24  C   UNL A   1      38.921  30.654  31.061  1.00  0.00     0.037 A 
ATOM     25  C   UNL A   1      45.493  29.302  29.684  1.00  0.00     0.049 A 
ATOM     26  C   UNL A   1      40.257  31.249  31.326  1.00  0.00     0.074 A 
ATOM     27  C   UNL A   1      46.028  28.353  30.534  1.00  0.00     0.029 A 
ATOM     28  N   UNL A   1      44.939  30.254  30.502  1.00  0.00    -0.354 N 
ATOM     29  N   UNL A   1      41.020  30.878  32.319  1.00  0.00    -0.248 NA
ATOM     30  C   UNL A   1      40.946  31.874  30.206  1.00  0.00     0.031 C 
ATOM     31  C   UNL A   1      45.317  28.519  31.759  1.00  0.00     0.029 A 
ATOM     32  C   UNL A   1      44.450  29.601  31.605  1.00  0.00     0.049 A 
ATOM     33  H   UNL A   1      44.899  31.222  30.330  1.00  0.00     0.167 HD
ATOM     34  C   UNL A   1      42.301  30.838  31.788  1.00  0.00     0.074 A 
ATOM     35  C   UNL A   1      42.199  31.515  30.496  1.00  0.00     0.031 C 
ATOM     36  C   UNL A   1      43.253  30.006  32.302  1.00  0.00     0.037 A 
BRANCH  23  37
ATOM     37  C   UNL A   1      45.523  30.498  27.395  1.00  0.00     0.064 A 
ATOM     38  C   UNL A   1      46.882  30.828  27.208  1.00  0.00     0.173 A 
ATOM     39  C   UNL A   1      44.598  31.486  26.994  1.00  0.00     0.173 A 
ATOM     40  F   UNL A   1      47.849  29.967  27.561  1.00  0.00    -0.203 F 
ATOM     41  C   UNL A   1      47.278  32.088  26.749  1.00  0.00     0.198 A 
ATOM     42  C   UNL A   1      44.998  32.722  26.490  1.00  0.00     0.198 A 
ATOM     43  F   UNL A   1      43.280  31.349  27.181  1.00  0.00    -0.203 F 
ATOM     44  F   UNL A   1      48.580  32.403  26.716  1.00  0.00    -0.200 F 
ATOM     45  C   UNL A   1      46.336  33.037  26.402  1.00  0.00     0.200 A 
ATOM     46  F   UNL A   1      44.068  33.636  26.176  1.00  0.00    -0.200 F 
ATOM     47  F   UNL A   1      46.713  34.269  26.032  1.00  0.00    -0.200 F 
ENDBRANCH  23  37
BRANCH  24  48
ATOM     48  C   UNL A   1      37.712  31.466  30.776  1.00  0.00     0.064 A 
ATOM     49  C   UNL A   1      37.317  31.754  29.461  1.00  0.00     0.173 A 
ATOM     50  C   UNL A   1      36.775  31.758  31.788  1.00  0.00     0.173 A 
ATOM     51  F   UNL A   1      38.127  31.455  28.435  1.00  0.00    -0.203 F 
ATOM     52  C   UNL A   1      36.056  32.294  29.175  1.00  0.00     0.198 A 
ATOM     53  C   UNL A   1      35.521  32.301  31.503  1.00  0.00     0.198 A 
ATOM     54  F   UNL A   1      37.018  31.436  33.067  1.00  0.00    -0.203 F 
ATOM     55  F   UNL A   1      35.693  32.508  27.903  1.00  0.00    -0.200 F 
ATOM     56  C   UNL A   1      35.158  32.559  30.197  1.00  0.00     0.200 A 
ATOM     57  F   UNL A   1      34.647  32.514  32.499  1.00  0.00    -0.200 F 
ATOM     58  F   UNL A   1      33.931  33.025  29.919  1.00  0.00    -0.200 F 
ENDBRANCH  24  48
BRANCH  36  59
ATOM     59  C   UNL A   1      42.929  29.270  33.574  1.00  0.00     0.064 A 
ATOM     60  C   UNL A   1      42.249  28.039  33.612  1.00  0.00     0.173 A 
ATOM     61  C   UNL A   1      43.460  29.744  34.779  1.00  0.00     0.173 A 
ATOM     62  F   UNL A   1      41.811  27.463  32.488  1.00  0.00    -0.203 F 
ATOM     63  C   UNL A   1      42.071  27.342  34.805  1.00  0.00     0.198 A 
ATOM     64  C   UNL A   1      43.311  29.029  35.965  1.00  0.00     0.198 A 
ATOM     65  F   UNL A   1      44.176  30.879  34.795  1.00  0.00    -0.203 F 
ATOM     66  F   UNL A   1      41.414  26.172  34.809  1.00  0.00    -0.200 F 
ATOM     67  C   UNL A   1      42.607  27.835  35.981  1.00  0.00     0.200 A 
ATOM     68  F   UNL A   1      43.879  29.483  37.091  1.00  0.00    -0.200 F 
ATOM     69  F   UNL A   1      42.475  27.145  37.122  1.00  0.00    -0.200 F 
ENDBRANCH  36  59
ENDBRANCH  10  11
ENDBRANCH   3   5
ENDBRANCH   2   3
ENDBRANCH   1   2
BRANCH   1  70
ATOM     70  C   UNL A   1      42.009  18.786  26.120  1.00  0.00     0.275 C 
BRANCH  70  71
ATOM     71  O   UNL A   1      42.754  19.221  24.968  1.00  0.00    -0.458 OA
BRANCH  71  72
ATOM     72  C   UNL A   1      44.116  19.185  25.071  1.00  0.00     0.348 C 
ATOM     73  O   UNL A   1      44.799  18.162  25.042  1.00  0.00    -0.245 OA
BRANCH  72  74
ATOM     74  C   UNL A   1      44.618  20.532  25.194  1.00  0.00     0.114 A 
ATOM     75  C   UNL A   1      43.976  21.623  25.747  1.00  0.00     0.047 A 
ATOM     76  S   UNL A   1      46.199  20.887  24.637  1.00  0.00    -0.127 S 
ATOM     77  C   UNL A   1      44.752  22.809  25.577  1.00  0.00     0.048 A 
ATOM     78  C   UNL A   1      45.930  22.585  24.916  1.00  0.00     0.047 A 
ATOM     79  S   UNL A   1      44.540  24.495  25.980  1.00  0.00    -0.122 S 
ATOM     80  C   UNL A   1      46.634  23.790  24.611  1.00  0.00     0.052 A 
ATOM     81  C   UNL A   1      45.960  24.861  25.134  1.00  0.00     0.095 A 
ATOM     82  Cl  UNL A   1      46.440  26.510  24.998  1.00  0.00    -0.072 Cl
ENDBRANCH  72  74
ENDBRANCH  71  72
ENDBRANCH  70  71
ENDBRANCH   1  70
TORSDOF 11
ENDMDL
MODEL 2
REMARK VINA RESULT:     -11.7      0.639      1.455
REMARK SMILES O=C(OCCOC(=O)c1cc2sc(Cl)cc2s1)c1ccc(-c2c3nc(c(-c4c(F)c(F)c(F)c(F)c4F)c4ccc([nH]4)c(-c4c(F)c(F)c(F)c(F)c4F)c4nc(c(-c5c(F)c(F)c(F)c(F)c5F)c5ccc2[nH]5)C=C4)C=C3)cc1
REMARK SMILES IDX 4 1 3 2 2 3 1 4 18 5 19 6 80 7 20 8 79 9 21 10 22 11 23 12
REMARK SMILES IDX 73 13 24 14 78 15 72 16 74 17 25 18 77 19 71 20 70 21 26 23
REMARK SMILES IDX 58 24 38 25 57 26 39 27 42 28 56 29 75 30 40 31 41 32 55 34
REMARK SMILES IDX 76 35 43 36 27 37 28 38 36 39 29 40 30 41 34 42 37 43 31 44
REMARK SMILES IDX 32 45 35 46 33 47 59 48 60 49 68 50 61 51 62 52 66 53 69 54
REMARK SMILES IDX 63 55 64 56 67 57 65 58 44 59 45 60 53 61 46 62 47 63 51 64
REMARK SMILES IDX 54 65 48 66 49 67 52 68 50 69 5 70 6 71 7 72 8 73 9 74 10 75
REMARK SMILES IDX 17 76 11 77 16 78 12 79 15 80 13 81 14 82
REMARK H PARENT 74 22 42 33
REMARK Flexibility Score: inf
ROOT
ATOM      1  C   UNL A   1      40.755  19.639  26.586  1.00  0.00     0.275 C 
ENDROOT
BRANCH   1   2
ATOM      2  O   UNL A   1      40.912  20.975  27.102  1.00  0.00    -0.458 OA
BRANCH   2   3
ATOM      3  C   UNL A   1      40.102  21.971  26.688  1.00  0.00     0.338 C 
ATOM      4  O   UNL A   1      38.982  21.780  26.241  1.00  0.00    -0.246 OA
BRANCH   3   5
ATOM      5  C   UNL A   1      40.554  23.322  27.103  1.00  0.00     0.060 A 
ATOM      6  C   UNL A   1      41.591  23.547  28.017  1.00  0.00     0.016 A 
ATOM      7  C   UNL A   1      39.853  24.408  26.565  1.00  0.00     0.016 A 
ATOM      8  C   UNL A   1      41.834  24.825  28.490  1.00  0.00     0.010 A 
ATOM      9  C   UNL A   1      40.122  25.689  27.002  1.00  0.00     0.010 A 
ATOM     10  C   UNL A   1      41.048  25.877  28.027  1.00  0.00    -0.014 A 
BRANCH  10  11
ATOM     11  C   UNL A   1      41.211  27.191  28.630  1.00  0.00     0.031 A 
ATOM     12  C   UNL A   1      42.379  27.977  28.140  1.00  0.00     0.074 A 
ATOM     13  C   UNL A   1      40.261  27.675  29.456  1.00  0.00     0.049 A 
ATOM     14  N   UNL A   1      43.352  28.489  28.820  1.00  0.00    -0.248 NA
ATOM     15  C   UNL A   1      42.536  28.117  26.682  1.00  0.00     0.031 C 
ATOM     16  C   UNL A   1      38.971  27.070  29.811  1.00  0.00     0.029 A 
ATOM     17  N   UNL A   1      40.200  28.884  30.075  1.00  0.00    -0.354 N 
ATOM     18  C   UNL A   1      44.145  29.177  27.900  1.00  0.00     0.074 A 
ATOM     19  C   UNL A   1      43.683  28.791  26.593  1.00  0.00     0.031 C 
ATOM     20  C   UNL A   1      38.169  28.005  30.363  1.00  0.00     0.029 A 
ATOM     21  C   UNL A   1      38.935  29.221  30.543  1.00  0.00     0.049 A 
ATOM     22  H   UNL A   1      40.984  29.469  30.184  1.00  0.00     0.167 HD
ATOM     23  C   UNL A   1      44.964  30.195  28.288  1.00  0.00     0.037 A 
ATOM     24  C   UNL A   1      38.545  30.448  30.968  1.00  0.00     0.037 A 
ATOM     25  C   UNL A   1      45.267  30.116  29.692  1.00  0.00     0.049 A 
ATOM     26  C   UNL A   1      39.780  31.202  31.310  1.00  0.00     0.074 A 
ATOM     27  C   UNL A   1      45.912  29.194  30.493  1.00  0.00     0.029 A 
ATOM     28  N   UNL A   1      44.569  30.924  30.555  1.00  0.00    -0.354 N 
ATOM     29  N   UNL A   1      40.568  30.872  32.298  1.00  0.00    -0.248 NA
ATOM     30  C   UNL A   1      40.395  31.993  30.254  1.00  0.00     0.031 C 
ATOM     31  C   UNL A   1      45.162  29.174  31.706  1.00  0.00     0.029 A 
ATOM     32  C   UNL A   1      44.156  30.135  31.598  1.00  0.00     0.049 A 
ATOM     33  H   UNL A   1      44.397  31.887  30.447  1.00  0.00     0.167 HD
ATOM     34  C   UNL A   1      41.851  31.047  31.802  1.00  0.00     0.074 A 
ATOM     35  C   UNL A   1      41.681  31.791  30.555  1.00  0.00     0.031 C 
ATOM     36  C   UNL A   1      42.901  30.320  32.287  1.00  0.00     0.037 A 
BRANCH  23  37
ATOM     37  C   UNL A   1      45.173  31.461  27.489  1.00  0.00     0.064 A 
ATOM     38  C   UNL A   1      46.440  31.718  26.925  1.00  0.00     0.173 A 
ATOM     39  C   UNL A   1      44.293  32.565  27.534  1.00  0.00     0.173 A 
ATOM     40  F   UNL A   1      47.359  30.744  26.839  1.00  0.00    -0.203 F 
ATOM     41  C   UNL A   1      46.825  33.002  26.529  1.00  0.00     0.198 A 
ATOM     42  C   UNL A   1      44.665  33.833  27.091  1.00  0.00     0.198 A 
ATOM     43  F   UNL A   1      43.088  32.497  28.109  1.00  0.00    -0.203 F 
ATOM     44  F   UNL A   1      48.083  33.224  26.126  1.00  0.00    -0.200 F 
ATOM     45  C   UNL A   1      45.942  34.060  26.624  1.00  0.00     0.200 A 
ATOM     46  F   UNL A   1      43.800  34.851  27.210  1.00  0.00    -0.200 F 
ATOM     47  F   UNL A   1      46.332  35.305  26.316  1.00  0.00    -0.200 F 
ENDBRANCH  23  37
BRANCH  24  48
ATOM     48  C   UNL A   1      37.240  31.103  30.703  1.00  0.00     0.064 A 
ATOM     49  C   UNL A   1      36.386  31.483  31.749  1.00  0.00     0.173 A 
ATOM     50  C   UNL A   1      36.923  31.604  29.424  1.00  0.00     0.173 A 
ATOM     51  F   UNL A   1      36.647  31.096  33.006  1.00  0.00    -0.203 F 
ATOM     52  C   UNL A   1      35.284  32.321  31.529  1.00  0.00     0.198 A 
ATOM     53  C   UNL A   1      35.822  32.434  29.204  1.00  0.00     0.198 A 
ATOM     54  F   UNL A   1      37.727  31.376  28.375  1.00  0.00    -0.203 F 
ATOM     55  F   UNL A   1      34.519  32.705  32.561  1.00  0.00    -0.200 F 
ATOM     56  C   UNL A   1      35.009  32.801  30.258  1.00  0.00     0.200 A 
ATOM     57  F   UNL A   1      35.593  32.923  27.977  1.00  0.00    -0.200 F 
ATOM     58  F   UNL A   1      33.988  33.646  30.057  1.00  0.00    -0.200 F 
ENDBRANCH  24  48
BRANCH  36  59
ATOM     59  C   UNL A   1      42.659  29.461  33.497  1.00  0.00     0.064 A 
ATOM     60  C   UNL A   1      42.279  28.107  33.430  1.00  0.00     0.173 A 
ATOM     61  C   UNL A   1      42.973  29.973  34.761  1.00  0.00     0.173 A 
ATOM     62  F   UNL A   1      42.072  27.511  32.252  1.00  0.00    -0.203 F 
ATOM     63  C   UNL A   1      42.175  27.322  34.576  1.00  0.00     0.198 A 
ATOM     64  C   UNL A   1      42.902  29.178  35.902  1.00  0.00     0.198 A 
ATOM     65  F   UNL A   1      43.406  31.238  34.881  1.00  0.00    -0.203 F 
ATOM     66  F   UNL A   1      41.806  26.036  34.479  1.00  0.00    -0.200 F 
ATOM     67  C   UNL A   1      42.493  27.857  35.812  1.00  0.00     0.200 A 
ATOM     68  F   UNL A   1      43.264  29.684  37.088  1.00  0.00    -0.200 F 
ATOM     69  F   UNL A   1      42.437  27.092  36.911  1.00  0.00    -0.200 F 
ENDBRANCH  36  59
ENDBRANCH  10  11
ENDBRANCH   3   5
ENDBRANCH   2   3
ENDBRANCH   1   2
BRANCH   1  70
ATOM     70  C   UNL A   1      42.023  18.881  26.185  1.00  0.00     0.275 C 
BRANCH  70  71
ATOM     71  O   UNL A   1      42.642  19.448  25.016  1.00  0.00    -0.458 OA
BRANCH  71  72
ATOM     72  C   UNL A   1      44.008  19.458  24.990  1.00  0.00     0.348 C 
ATOM     73  O   UNL A   1      44.718  18.461  24.863  1.00  0.00    -0.245 OA
BRANCH  72  74
ATOM     74  C   UNL A   1      44.475  20.817  25.111  1.00  0.00     0.114 A 
ATOM     75  C   UNL A   1      43.735  21.936  25.442  1.00  0.00     0.047 A 
ATOM     76  S   UNL A   1      46.136  21.154  24.858  1.00  0.00    -0.127 S 
ATOM     77  C   UNL A   1      44.530  23.118  25.343  1.00  0.00     0.048 A 
ATOM     78  C   UNL A   1      45.817  22.863  24.951  1.00  0.00     0.047 A 
ATOM     79  S   UNL A   1      44.241  24.825  25.570  1.00  0.00    -0.122 S 
ATOM     80  C   UNL A   1      46.567  24.053  24.705  1.00  0.00     0.052 A 
ATOM     81  C   UNL A   1      45.803  25.150  25.001  1.00  0.00     0.095 A 
ATOM     82  Cl  UNL A   1      46.300  26.791  24.843  1.00  0.00    -0.072 Cl
ENDBRANCH  72  74
ENDBRANCH  71  72
ENDBRANCH  70  71
ENDBRANCH   1  70
TORSDOF 11
ENDMDL
MODEL 3
REMARK VINA RESULT:     -11.7      4.988     10.850
REMARK SMILES O=C(OCCOC(=O)c1cc2sc(Cl)cc2s1)c1ccc(-c2c3nc(c(-c4c(F)c(F)c(F)c(F)c4F)c4ccc([nH]4)c(-c4c(F)c(F)c(F)c(F)c4F)c4nc(c(-c5c(F)c(F)c(F)c(F)c5F)c5ccc2[nH]5)C=C4)C=C3)cc1
REMARK SMILES IDX 4 1 3 2 2 3 1 4 18 5 19 6 80 7 20 8 79 9 21 10 22 11 23 12
REMARK SMILES IDX 73 13 24 14 78 15 72 16 74 17 25 18 77 19 71 20 70 21 26 23
REMARK SMILES IDX 58 24 38 25 57 26 39 27 42 28 56 29 75 30 40 31 41 32 55 34
REMARK SMILES IDX 76 35 43 36 27 37 28 38 36 39 29 40 30 41 34 42 37 43 31 44
REMARK SMILES IDX 32 45 35 46 33 47 59 48 60 49 68 50 61 51 62 52 66 53 69 54
REMARK SMILES IDX 63 55 64 56 67 57 65 58 44 59 45 60 53 61 46 62 47 63 51 64
REMARK SMILES IDX 54 65 48 66 49 67 52 68 50 69 5 70 6 71 7 72 8 73 9 74 10 75
REMARK SMILES IDX 17 76 11 77 16 78 12 79 15 80 13 81 14 82
REMARK H PARENT 74 22 42 33
REMARK Flexibility Score: inf
ROOT
ATOM      1  C   UNL A   1      33.812  33.776  28.012  1.00  0.00     0.275 C 
ENDROOT
BRANCH   1   2
ATOM      2  O   UNL A   1      35.041  33.030  27.918  1.00  0.00    -0.458 OA
BRANCH   2   3
ATOM      3  C   UNL A   1      35.027  31.681  27.898  1.00  0.00     0.338 C 
ATOM      4  O   UNL A   1      34.223  31.030  27.247  1.00  0.00    -0.246 OA
BRANCH   3   5
ATOM      5  C   UNL A   1      36.245  31.061  28.475  1.00  0.00     0.060 A 
ATOM      6  C   UNL A   1      37.322  31.794  28.987  1.00  0.00     0.016 A 
ATOM      7  C   UNL A   1      36.305  29.662  28.449  1.00  0.00     0.016 A 
ATOM      8  C   UNL A   1      38.495  31.150  29.342  1.00  0.00     0.010 A 
ATOM      9  C   UNL A   1      37.458  29.013  28.842  1.00  0.00     0.010 A 
ATOM     10  C   UNL A   1      38.575  29.767  29.199  1.00  0.00    -0.014 A 
BRANCH  10  11
ATOM     11  C   UNL A   1      39.851  29.112  29.437  1.00  0.00     0.031 A 
ATOM     12  C   UNL A   1      40.239  28.971  30.869  1.00  0.00     0.074 A 
ATOM     13  C   UNL A   1      40.524  28.556  28.409  1.00  0.00     0.049 A 
ATOM     14  N   UNL A   1      41.314  29.383  31.461  1.00  0.00    -0.248 NA
ATOM     15  C   UNL A   1      39.246  28.387  31.785  1.00  0.00     0.031 C 
ATOM     16  C   UNL A   1      40.107  28.443  27.006  1.00  0.00     0.029 A 
ATOM     17  N   UNL A   1      41.694  27.863  28.426  1.00  0.00    -0.354 N 
ATOM     18  C   UNL A   1      41.217  28.944  32.782  1.00  0.00     0.074 A 
ATOM     19  C   UNL A   1      39.869  28.473  32.960  1.00  0.00     0.031 C 
ATOM     20  C   UNL A   1      40.873  27.525  26.377  1.00  0.00     0.029 A 
ATOM     21  C   UNL A   1      41.924  27.106  27.282  1.00  0.00     0.049 A 
ATOM     22  H   UNL A   1      42.323  27.896  29.181  1.00  0.00     0.167 HD
ATOM     23  C   UNL A   1      42.325  28.782  33.560  1.00  0.00     0.037 A 
ATOM     24  C   UNL A   1      42.871  26.146  27.141  1.00  0.00     0.037 A 
ATOM     25  C   UNL A   1      43.433  29.550  33.059  1.00  0.00     0.049 A 
ATOM     26  C   UNL A   1      43.895  26.388  28.191  1.00  0.00     0.074 A 
ATOM     27  C   UNL A   1      43.671  30.899  32.873  1.00  0.00     0.029 A 
ATOM     28  N   UNL A   1      44.389  28.905  32.315  1.00  0.00    -0.354 N 
ATOM     29  N   UNL A   1      44.662  27.445  28.211  1.00  0.00    -0.248 NA
ATOM     30  C   UNL A   1      43.710  25.724  29.473  1.00  0.00     0.031 C 
ATOM     31  C   UNL A   1      44.395  30.976  31.647  1.00  0.00     0.029 A 
ATOM     32  C   UNL A   1      44.618  29.673  31.202  1.00  0.00     0.049 A 
ATOM     33  H   UNL A   1      44.828  28.053  32.538  1.00  0.00     0.167 HD
ATOM     34  C   UNL A   1      44.715  27.821  29.545  1.00  0.00     0.074 A 
ATOM     35  C   UNL A   1      44.154  26.690  30.283  1.00  0.00     0.031 C 
ATOM     36  C   UNL A   1      44.931  29.120  29.906  1.00  0.00     0.037 A 
BRANCH  23  37
ATOM     37  C   UNL A   1      42.511  27.643  34.536  1.00  0.00     0.064 A 
ATOM     38  C   UNL A   1      43.029  26.417  34.071  1.00  0.00     0.173 A 
ATOM     39  C   UNL A   1      41.907  27.602  35.811  1.00  0.00     0.173 A 
ATOM     40  F   UNL A   1      43.618  26.336  32.868  1.00  0.00    -0.203 F 
ATOM     41  C   UNL A   1      42.864  25.227  34.787  1.00  0.00     0.198 A 
ATOM     42  C   UNL A   1      41.789  26.422  36.544  1.00  0.00     0.198 A 
ATOM     43  F   UNL A   1      41.303  28.666  36.351  1.00  0.00    -0.203 F 
ATOM     44  F   UNL A   1      43.252  24.065  34.243  1.00  0.00    -0.200 F 
ATOM     45  C   UNL A   1      42.234  25.229  36.016  1.00  0.00     0.200 A 
ATOM     46  F   UNL A   1      41.158  26.442  37.726  1.00  0.00    -0.200 F 
ATOM     47  F   UNL A   1      42.008  24.081  36.670  1.00  0.00    -0.200 F 
ENDBRANCH  23  37
BRANCH  24  48
ATOM     48  C   UNL A   1      42.716  24.846  26.442  1.00  0.00     0.064 A 
ATOM     49  C   UNL A   1      43.554  24.484  25.376  1.00  0.00     0.173 A 
ATOM     50  C   UNL A   1      41.908  23.822  26.977  1.00  0.00     0.173 A 
ATOM     51  F   UNL A   1      44.394  25.383  24.846  1.00  0.00    -0.203 F 
ATOM     52  C   UNL A   1      43.585  23.174  24.881  1.00  0.00     0.198 A 
ATOM     53  C   UNL A   1      41.936  22.519  26.480  1.00  0.00     0.198 A 
ATOM     54  F   UNL A   1      41.141  24.042  28.056  1.00  0.00    -0.203 F 
ATOM     55  F   UNL A   1      44.435  22.852  23.895  1.00  0.00    -0.200 F 
ATOM     56  C   UNL A   1      42.782  22.192  25.439  1.00  0.00     0.200 A 
ATOM     57  F   UNL A   1      41.183  21.571  27.057  1.00  0.00    -0.200 F 
ATOM     58  F   UNL A   1      42.853  20.926  25.001  1.00  0.00    -0.200 F 
ENDBRANCH  24  48
BRANCH  36  59
ATOM     59  C   UNL A   1      45.290  30.098  28.821  1.00  0.00     0.064 A 
ATOM     60  C   UNL A   1      44.343  30.852  28.105  1.00  0.00     0.173 A 
ATOM     61  C   UNL A   1      46.641  30.399  28.607  1.00  0.00     0.173 A 
ATOM     62  F   UNL A   1      43.034  30.705  28.334  1.00  0.00    -0.203 F 
ATOM     63  C   UNL A   1      44.730  31.826  27.187  1.00  0.00     0.198 A 
ATOM     64  C   UNL A   1      47.026  31.397  27.715  1.00  0.00     0.198 A 
ATOM     65  F   UNL A   1      47.588  29.760  29.310  1.00  0.00    -0.203 F 
ATOM     66  F   UNL A   1      43.803  32.526  26.516  1.00  0.00    -0.200 F 
ATOM     67  C   UNL A   1      46.073  32.103  26.998  1.00  0.00     0.200 A 
ATOM     68  F   UNL A   1      48.324  31.699  27.576  1.00  0.00    -0.200 F 
ATOM     69  F   UNL A   1      46.447  33.070  26.148  1.00  0.00    -0.200 F 
ENDBRANCH  36  59
ENDBRANCH  10  11
ENDBRANCH   3   5
ENDBRANCH   2   3
ENDBRANCH   1   2
BRANCH   1  70
ATOM     70  C   UNL A   1      33.775  34.963  28.977  1.00  0.00     0.275 C 
BRANCH  70  71
ATOM     71  O   UNL A   1      33.236  34.595  30.261  1.00  0.00    -0.458 OA
BRANCH  71  72
ATOM     72  C   UNL A   1      33.692  35.300  31.339  1.00  0.00     0.348 C 
ATOM     73  O   UNL A   1      33.407  36.472  31.588  1.00  0.00    -0.245 OA
BRANCH  72  74
ATOM     74  C   UNL A   1      34.532  34.446  32.143  1.00  0.00     0.114 A 
ATOM     75  C   UNL A   1      35.179  34.767  33.320  1.00  0.00     0.047 A 
ATOM     76  S   UNL A   1      34.778  32.821  31.657  1.00  0.00    -0.127 S 
ATOM     77  C   UNL A   1      36.010  33.691  33.753  1.00  0.00     0.048 A 
ATOM     78  C   UNL A   1      35.968  32.612  32.910  1.00  0.00     0.047 A 
ATOM     79  S   UNL A   1      37.103  33.433  35.090  1.00  0.00    -0.122 S 
ATOM     80  C   UNL A   1      36.912  31.599  33.259  1.00  0.00     0.052 A 
ATOM     81  C   UNL A   1      37.569  31.956  34.406  1.00  0.00     0.095 A 
ATOM     82  Cl  UNL A   1      38.801  31.036  35.182  1.00  0.00    -0.072 Cl
ENDBRANCH  72  74
ENDBRANCH  71  72
ENDBRANCH  70  71
ENDBRANCH   1  70
TORSDOF 11
ENDMDL
