MODEL 1
REMARK VINA RESULT:     -13.3      0.000      0.000
REMARK SMILES C[NH+]1CCC2(CC1)OC[C@H](C(=O)OCCOC(=O)c1ccc(-c3c4nc(c(-c5c(F)c(F)c(F)c(F)c5F)c5ccc([nH]5)c(-c5c(F)c(F)c(F)c(F)c5F)c5nc(c(-c6c(F)c(F)c(F)c(F)c6F)c6ccc3[nH]6)C=C5)C=C4)cc1)N2C(=O)c1cc(C(F)(F)F)cc(C(F)(F)F)c1
REMARK SMILES IDX 14 1 13 2 11 3 12 4 10 5 1 6 2 7 3 8 7 9 4 11 6 12 5 13 8 14
REMARK SMILES IDX 82 15 9 16 83 17 84 18 85 19 86 20 98 21 87 22 93 23 92 24
REMARK SMILES IDX 88 25 89 26 90 27 91 28 94 29 95 30 96 31 97 32 15 33 16 34
REMARK SMILES IDX 17 35 18 36 19 37 20 38 81 39 21 40 80 41 22 42 23 43 24 44
REMARK SMILES IDX 74 45 25 46 79 47 73 48 75 49 26 50 78 51 72 52 71 53 27 55
REMARK SMILES IDX 59 56 39 57 58 58 40 59 43 60 57 61 76 62 41 63 42 64 56 66
REMARK SMILES IDX 77 67 44 68 28 69 29 70 37 71 30 72 31 73 35 74 38 75 32 76
REMARK SMILES IDX 33 77 36 78 34 79 60 80 61 81 69 82 62 83 63 84 67 85 70 86
REMARK SMILES IDX 64 87 65 88 68 89 66 90 45 91 46 92 54 93 47 94 48 95 52 96
REMARK SMILES IDX 55 97 49 98 50 99 53 100 51 101
REMARK H PARENT 2 10 75 54 43 65
REMARK Flexibility Score: inf
ROOT
ATOM      1  C   UNL A   1      31.562  28.955  25.228  1.00  0.00     0.274 C 
ENDROOT
BRANCH   1   2
ATOM      2  O   UNL A   1      31.260  28.092  26.340  1.00  0.00    -0.460 OA
BRANCH   2   3
ATOM      3  C   UNL A   1      31.878  26.883  26.372  1.00  0.00     0.331 C 
ATOM      4  O   UNL A   1      33.090  26.735  26.492  1.00  0.00    -0.250 OA
BRANCH   3   5
ATOM      5  C   UNL A   1      30.895  25.715  26.191  1.00  0.00     0.224 C 
ATOM      6  C   UNL A   1      33.047  23.803  20.689  1.00  0.00     0.332 C 
ATOM      7  N   UNL A   1      33.272  23.480  22.092  1.00  0.00    -0.337 N 
ATOM      8  C   UNL A   1      33.689  24.644  22.864  1.00  0.00     0.267 C 
ATOM      9  C   UNL A   1      32.180  22.709  22.679  1.00  0.00     0.267 C 
ATOM     10  H   UNL A   1      34.069  22.844  22.132  1.00  0.00     0.347 HD
ATOM     11  C   UNL A   1      32.561  25.503  23.393  1.00  0.00     0.120 C 
ATOM     12  C   UNL A   1      31.030  23.487  23.309  1.00  0.00     0.120 C 
ATOM     13  C   UNL A   1      31.442  24.726  24.101  1.00  0.00     0.155 C 
ATOM     14  O   UNL A   1      30.288  25.629  23.950  1.00  0.00    -0.352 OA
ATOM     15  N   UNL A   1      31.586  24.598  25.571  1.00  0.00    -0.293 N 
ATOM     16  C   UNL A   1      29.761  25.954  25.241  1.00  0.00     0.200 C 
BRANCH  15  17
ATOM     17  C   UNL A   1      32.173  23.695  26.444  1.00  0.00     0.256 C 
ATOM     18  O   UNL A   1      31.791  23.548  27.605  1.00  0.00    -0.269 OA
BRANCH  17  19
ATOM     19  C   UNL A   1      33.251  22.798  26.028  1.00  0.00     0.041 A 
ATOM     20  C   UNL A   1      32.942  21.486  25.652  1.00  0.00     0.027 A 
ATOM     21  C   UNL A   1      34.577  23.213  26.117  1.00  0.00     0.027 A 
ATOM     22  C   UNL A   1      33.962  20.613  25.241  1.00  0.00     0.057 A 
ATOM     23  C   UNL A   1      35.603  22.392  25.626  1.00  0.00     0.057 A 
ATOM     24  C   UNL A   1      35.286  21.087  25.205  1.00  0.00     0.026 A 
BRANCH  22  25
ATOM     25  C   UNL A   1      33.628  19.195  24.843  1.00  0.00     0.416 C 
ATOM     26  F   UNL A   1      32.948  18.530  25.816  1.00  0.00    -0.166 F 
ATOM     27  F   UNL A   1      32.848  19.138  23.729  1.00  0.00    -0.166 F 
ATOM     28  F   UNL A   1      34.727  18.440  24.567  1.00  0.00    -0.166 F 
ENDBRANCH  22  25
BRANCH  23  29
ATOM     29  C   UNL A   1      37.013  22.919  25.476  1.00  0.00     0.416 C 
ATOM     30  F   UNL A   1      37.161  23.704  24.375  1.00  0.00    -0.166 F 
ATOM     31  F   UNL A   1      37.391  23.686  26.536  1.00  0.00    -0.166 F 
ATOM     32  F   UNL A   1      37.951  21.938  25.372  1.00  0.00    -0.166 F 
ENDBRANCH  23  29
ENDBRANCH  17  19
ENDBRANCH  15  17
ENDBRANCH   3   5
ENDBRANCH   2   3
ENDBRANCH   1   2
BRANCH   1  33
ATOM     33  C   UNL A   1      31.893  30.348  25.755  1.00  0.00     0.275 C 
BRANCH  33  34
ATOM     34  O   UNL A   1      33.278  30.399  26.144  1.00  0.00    -0.458 OA
BRANCH  34  35
ATOM     35  C   UNL A   1      33.576  31.343  27.065  1.00  0.00     0.338 C 
ATOM     36  O   UNL A   1      32.906  32.298  27.413  1.00  0.00    -0.246 OA
BRANCH  35  37
ATOM     37  C   UNL A   1      34.865  31.019  27.683  1.00  0.00     0.060 A 
ATOM     38  C   UNL A   1      35.138  29.702  28.054  1.00  0.00     0.016 A 
ATOM     39  C   UNL A   1      35.747  32.050  27.999  1.00  0.00     0.016 A 
ATOM     40  C   UNL A   1      36.278  29.415  28.799  1.00  0.00     0.010 A 
ATOM     41  C   UNL A   1      36.925  31.749  28.681  1.00  0.00     0.010 A 
ATOM     42  C   UNL A   1      37.189  30.434  29.106  1.00  0.00    -0.014 A 
BRANCH  42  43
ATOM     43  C   UNL A   1      38.426  30.146  29.871  1.00  0.00     0.031 A 
ATOM     44  C   UNL A   1      39.452  29.207  29.307  1.00  0.00     0.074 A 
ATOM     45  C   UNL A   1      38.596  30.685  31.092  1.00  0.00     0.049 A 
ATOM     46  N   UNL A   1      40.477  28.646  29.897  1.00  0.00    -0.248 NA
ATOM     47  C   UNL A   1      39.296  28.837  27.892  1.00  0.00     0.031 C 
ATOM     48  C   UNL A   1      37.688  31.637  31.731  1.00  0.00     0.029 A 
ATOM     49  N   UNL A   1      39.584  30.489  32.024  1.00  0.00    -0.354 N 
ATOM     50  C   UNL A   1      41.058  27.823  28.943  1.00  0.00     0.074 A 
ATOM     51  C   UNL A   1      40.274  27.955  27.734  1.00  0.00     0.031 C 
ATOM     52  C   UNL A   1      38.157  31.941  32.950  1.00  0.00     0.029 A 
ATOM     53  C   UNL A   1      39.359  31.153  33.203  1.00  0.00     0.049 A 
ATOM     54  H   UNL A   1      40.377  29.927  31.862  1.00  0.00     0.167 HD
ATOM     55  C   UNL A   1      42.146  27.027  29.073  1.00  0.00     0.037 A 
ATOM     56  C   UNL A   1      40.020  31.098  34.374  1.00  0.00     0.037 A 
ATOM     57  C   UNL A   1      42.940  26.932  30.270  1.00  0.00     0.049 A 
ATOM     58  C   UNL A   1      41.208  30.190  34.500  1.00  0.00     0.074 A 
ATOM     59  C   UNL A   1      44.077  26.175  30.497  1.00  0.00     0.029 A 
ATOM     60  N   UNL A   1      42.683  27.630  31.442  1.00  0.00    -0.354 N 
ATOM     61  N   UNL A   1      41.735  29.389  33.605  1.00  0.00    -0.248 NA
ATOM     62  C   UNL A   1      41.888  30.167  35.802  1.00  0.00     0.031 C 
ATOM     63  C   UNL A   1      44.489  26.391  31.817  1.00  0.00     0.029 A 
ATOM     64  C   UNL A   1      43.631  27.311  32.399  1.00  0.00     0.049 A 
ATOM     65  H   UNL A   1      41.936  28.257  31.573  1.00  0.00     0.167 HD
ATOM     66  C   UNL A   1      42.813  28.779  34.228  1.00  0.00     0.074 A 
ATOM     67  C   UNL A   1      42.875  29.312  35.574  1.00  0.00     0.031 C 
ATOM     68  C   UNL A   1      43.674  27.858  33.731  1.00  0.00     0.037 A 
BRANCH  55  69
ATOM     69  C   UNL A   1      42.525  26.171  27.901  1.00  0.00     0.064 A 
ATOM     70  C   UNL A   1      41.921  24.929  27.664  1.00  0.00     0.173 A 
ATOM     71  C   UNL A   1      43.484  26.622  26.979  1.00  0.00     0.173 A 
ATOM     72  F   UNL A   1      41.010  24.447  28.523  1.00  0.00    -0.203 F 
ATOM     73  C   UNL A   1      42.277  24.159  26.559  1.00  0.00     0.198 A 
ATOM     74  C   UNL A   1      43.819  25.861  25.863  1.00  0.00     0.198 A 
ATOM     75  F   UNL A   1      44.089  27.806  27.159  1.00  0.00    -0.203 F 
ATOM     76  F   UNL A   1      41.714  22.957  26.372  1.00  0.00    -0.200 F 
ATOM     77  C   UNL A   1      43.219  24.629  25.656  1.00  0.00     0.200 A 
ATOM     78  F   UNL A   1      44.724  26.321  24.988  1.00  0.00    -0.200 F 
ATOM     79  F   UNL A   1      43.556  23.890  24.590  1.00  0.00    -0.200 F 
ENDBRANCH  55  69
BRANCH  56  80
ATOM     80  C   UNL A   1      39.543  31.906  35.524  1.00  0.00     0.064 A 
ATOM     81  C   UNL A   1      40.000  33.215  35.721  1.00  0.00     0.173 A 
ATOM     82  C   UNL A   1      38.604  31.395  36.434  1.00  0.00     0.173 A 
ATOM     83  F   UNL A   1      40.915  33.737  34.891  1.00  0.00    -0.203 F 
ATOM     84  C   UNL A   1      39.541  33.982  36.791  1.00  0.00     0.198 A 
ATOM     85  C   UNL A   1      38.128  32.171  37.487  1.00  0.00     0.198 A 
ATOM     86  F   UNL A   1      38.137  30.146  36.286  1.00  0.00    -0.203 F 
ATOM     87  F   UNL A   1      40.019  35.219  36.977  1.00  0.00    -0.200 F 
ATOM     88  C   UNL A   1      38.600  33.462  37.668  1.00  0.00     0.200 A 
ATOM     89  F   UNL A   1      37.210  31.669  38.325  1.00  0.00    -0.200 F 
ATOM     90  F   UNL A   1      38.153  34.204  38.690  1.00  0.00    -0.200 F 
ENDBRANCH  56  80
BRANCH  68  91
ATOM     91  C   UNL A   1      44.771  27.394  34.641  1.00  0.00     0.064 A 
ATOM     92  C   UNL A   1      45.983  28.094  34.739  1.00  0.00     0.173 A 
ATOM     93  C   UNL A   1      44.595  26.257  35.442  1.00  0.00     0.173 A 
ATOM     94  F   UNL A   1      46.201  29.176  33.979  1.00  0.00    -0.203 F 
ATOM     95  C   UNL A   1      46.989  27.657  35.596  1.00  0.00     0.198 A 
ATOM     96  C   UNL A   1      45.595  25.837  36.313  1.00  0.00     0.198 A 
ATOM     97  F   UNL A   1      43.452  25.558  35.383  1.00  0.00    -0.203 F 
ATOM     98  F   UNL A   1      48.155  28.316  35.648  1.00  0.00    -0.200 F 
ATOM     99  C   UNL A   1      46.792  26.534  36.386  1.00  0.00     0.200 A 
ATOM    100  F   UNL A   1      45.401  24.755  37.081  1.00  0.00    -0.200 F 
ATOM    101  F   UNL A   1      47.761  26.116  37.212  1.00  0.00    -0.200 F 
ENDBRANCH  68  91
ENDBRANCH  42  43
ENDBRANCH  35  37
ENDBRANCH  34  35
ENDBRANCH  33  34
ENDBRANCH   1  33
TORSDOF 15
ENDMDL
MODEL 2
REMARK VINA RESULT:     -13.2      4.613      9.584
REMARK SMILES C[NH+]1CCC2(CC1)OC[C@H](C(=O)OCCOC(=O)c1ccc(-c3c4nc(c(-c5c(F)c(F)c(F)c(F)c5F)c5ccc([nH]5)c(-c5c(F)c(F)c(F)c(F)c5F)c5nc(c(-c6c(F)c(F)c(F)c(F)c6F)c6ccc3[nH]6)C=C5)C=C4)cc1)N2C(=O)c1cc(C(F)(F)F)cc(C(F)(F)F)c1
REMARK SMILES IDX 14 1 13 2 11 3 12 4 10 5 1 6 2 7 3 8 7 9 4 11 6 12 5 13 8 14
REMARK SMILES IDX 82 15 9 16 83 17 84 18 85 19 86 20 98 21 87 22 93 23 92 24
REMARK SMILES IDX 88 25 89 26 90 27 91 28 94 29 95 30 96 31 97 32 15 33 16 34
REMARK SMILES IDX 17 35 18 36 19 37 20 38 81 39 21 40 80 41 22 42 23 43 24 44
REMARK SMILES IDX 74 45 25 46 79 47 73 48 75 49 26 50 78 51 72 52 71 53 27 55
REMARK SMILES IDX 59 56 39 57 58 58 40 59 43 60 57 61 76 62 41 63 42 64 56 66
REMARK SMILES IDX 77 67 44 68 28 69 29 70 37 71 30 72 31 73 35 74 38 75 32 76
REMARK SMILES IDX 33 77 36 78 34 79 60 80 61 81 69 82 62 83 63 84 67 85 70 86
REMARK SMILES IDX 64 87 65 88 68 89 66 90 45 91 46 92 54 93 47 94 48 95 52 96
REMARK SMILES IDX 55 97 49 98 50 99 53 100 51 101
REMARK H PARENT 2 10 75 54 43 65
REMARK Flexibility Score: inf
ROOT
ATOM      1  C   UNL A   1      35.269  21.422  24.748  1.00  0.00     0.274 C 
ENDROOT
BRANCH   1   2
ATOM      2  O   UNL A   1      35.354  22.179  23.526  1.00  0.00    -0.460 OA
BRANCH   2   3
ATOM      3  C   UNL A   1      34.920  23.465  23.562  1.00  0.00     0.331 C 
ATOM      4  O   UNL A   1      35.370  24.320  24.318  1.00  0.00    -0.250 OA
BRANCH   3   5
ATOM      5  C   UNL A   1      33.763  23.723  22.583  1.00  0.00     0.224 C 
ATOM      6  C   UNL A   1      29.358  24.578  26.875  1.00  0.00     0.332 C 
ATOM      7  N   UNL A   1      30.276  25.412  26.110  1.00  0.00    -0.337 N 
ATOM      8  C   UNL A   1      31.668  25.029  26.315  1.00  0.00     0.267 C 
ATOM      9  C   UNL A   1      29.877  25.562  24.713  1.00  0.00     0.267 C 
ATOM     10  H   UNL A   1      30.211  26.359  26.485  1.00  0.00     0.347 HD
ATOM     11  C   UNL A   1      32.166  23.913  25.422  1.00  0.00     0.120 C 
ATOM     12  C   UNL A   1      30.394  24.528  23.720  1.00  0.00     0.120 C 
ATOM     13  C   UNL A   1      31.842  24.091  23.932  1.00  0.00     0.155 C 
ATOM     14  O   UNL A   1      31.858  22.704  23.437  1.00  0.00    -0.352 OA
ATOM     15  N   UNL A   1      32.895  24.754  23.125  1.00  0.00    -0.293 N 
ATOM     16  C   UNL A   1      32.812  22.583  22.377  1.00  0.00     0.200 C 
BRANCH  15  17
ATOM     17  C   UNL A   1      33.212  26.055  22.769  1.00  0.00     0.256 C 
ATOM     18  O   UNL A   1      33.935  26.324  21.809  1.00  0.00    -0.269 OA
BRANCH  17  19
ATOM     19  C   UNL A   1      32.653  27.213  23.467  1.00  0.00     0.041 A 
ATOM     20  C   UNL A   1      31.549  27.875  22.919  1.00  0.00     0.027 A 
ATOM     21  C   UNL A   1      33.285  27.715  24.602  1.00  0.00     0.027 A 
ATOM     22  C   UNL A   1      30.992  28.982  23.580  1.00  0.00     0.057 A 
ATOM     23  C   UNL A   1      32.697  28.760  25.328  1.00  0.00     0.057 A 
ATOM     24  C   UNL A   1      31.558  29.398  24.799  1.00  0.00     0.026 A 
BRANCH  22  25
ATOM     25  C   UNL A   1      29.806  29.700  22.983  1.00  0.00     0.416 C 
ATOM     26  F   UNL A   1      29.477  30.823  23.677  1.00  0.00    -0.166 F 
ATOM     27  F   UNL A   1      30.032  30.100  21.701  1.00  0.00    -0.166 F 
ATOM     28  F   UNL A   1      28.679  28.938  22.941  1.00  0.00    -0.166 F 
ENDBRANCH  22  25
BRANCH  23  29
ATOM     29  C   UNL A   1      33.223  29.149  26.691  1.00  0.00     0.416 C 
ATOM     30  F   UNL A   1      33.950  30.298  26.661  1.00  0.00    -0.166 F 
ATOM     31  F   UNL A   1      32.219  29.365  27.587  1.00  0.00    -0.166 F 
ATOM     32  F   UNL A   1      34.027  28.205  27.252  1.00  0.00    -0.166 F 
ENDBRANCH  23  29
ENDBRANCH  17  19
ENDBRANCH  15  17
ENDBRANCH   3   5
ENDBRANCH   2   3
ENDBRANCH   1   2
BRANCH   1  33
ATOM     33  C   UNL A   1      36.639  20.830  25.061  1.00  0.00     0.275 C 
BRANCH  33  34
ATOM     34  O   UNL A   1      37.333  21.686  25.988  1.00  0.00    -0.458 OA
BRANCH  34  35
ATOM     35  C   UNL A   1      38.664  21.466  26.080  1.00  0.00     0.338 C 
ATOM     36  O   UNL A   1      39.291  20.475  25.751  1.00  0.00    -0.246 OA
BRANCH  35  37
ATOM     37  C   UNL A   1      39.314  22.672  26.598  1.00  0.00     0.060 A 
ATOM     38  C   UNL A   1      38.901  23.925  26.145  1.00  0.00     0.016 A 
ATOM     39  C   UNL A   1      40.414  22.543  27.444  1.00  0.00     0.016 A 
ATOM     40  C   UNL A   1      39.626  25.061  26.494  1.00  0.00     0.010 A 
ATOM     41  C   UNL A   1      41.095  23.689  27.852  1.00  0.00     0.010 A 
ATOM     42  C   UNL A   1      40.720  24.954  27.362  1.00  0.00    -0.014 A 
BRANCH  42  43
ATOM     43  C   UNL A   1      41.488  26.154  27.773  1.00  0.00     0.031 A 
ATOM     44  C   UNL A   1      40.821  27.228  28.582  1.00  0.00     0.074 A 
ATOM     45  C   UNL A   1      42.763  26.301  27.370  1.00  0.00     0.049 A 
ATOM     46  N   UNL A   1      41.230  28.442  28.847  1.00  0.00    -0.248 NA
ATOM     47  C   UNL A   1      39.509  26.896  29.159  1.00  0.00     0.031 C 
ATOM     48  C   UNL A   1      43.530  25.312  26.611  1.00  0.00     0.029 A 
ATOM     49  N   UNL A   1      43.633  27.351  27.525  1.00  0.00    -0.354 N 
ATOM     50  C   UNL A   1      40.209  29.033  29.579  1.00  0.00     0.074 A 
ATOM     51  C   UNL A   1      39.160  28.046  29.718  1.00  0.00     0.031 C 
ATOM     52  C   UNL A   1      44.754  25.802  26.363  1.00  0.00     0.029 A 
ATOM     53  C   UNL A   1      44.832  27.163  26.885  1.00  0.00     0.049 A 
ATOM     54  H   UNL A   1      43.417  28.159  28.044  1.00  0.00     0.167 HD
ATOM     55  C   UNL A   1      40.157  30.290  30.082  1.00  0.00     0.037 A 
ATOM     56  C   UNL A   1      45.861  28.008  26.698  1.00  0.00     0.037 A 
ATOM     57  C   UNL A   1      41.224  31.250  29.969  1.00  0.00     0.049 A 
ATOM     58  C   UNL A   1      45.770  29.404  27.245  1.00  0.00     0.074 A 
ATOM     59  C   UNL A   1      41.282  32.541  30.466  1.00  0.00     0.029 A 
ATOM     60  N   UNL A   1      42.427  31.017  29.319  1.00  0.00    -0.354 N 
ATOM     61  N   UNL A   1      44.790  29.968  27.908  1.00  0.00    -0.248 NA
ATOM     62  C   UNL A   1      46.921  30.284  27.007  1.00  0.00     0.031 C 
ATOM     63  C   UNL A   1      42.508  33.100  30.089  1.00  0.00     0.029 A 
ATOM     64  C   UNL A   1      43.229  32.144  29.391  1.00  0.00     0.049 A 
ATOM     65  H   UNL A   1      42.674  30.175  28.873  1.00  0.00     0.167 HD
ATOM     66  C   UNL A   1      45.209  31.261  28.180  1.00  0.00     0.074 A 
ATOM     67  C   UNL A   1      46.540  31.395  27.621  1.00  0.00     0.031 C 
ATOM     68  C   UNL A   1      44.552  32.251  28.830  1.00  0.00     0.037 A 
BRANCH  55  69
ATOM     69  C   UNL A   1      38.895  30.709  30.775  1.00  0.00     0.064 A 
ATOM     70  C   UNL A   1      38.732  30.580  32.161  1.00  0.00     0.173 A 
ATOM     71  C   UNL A   1      37.845  31.285  30.040  1.00  0.00     0.173 A 
ATOM     72  F   UNL A   1      39.700  30.022  32.904  1.00  0.00    -0.203 F 
ATOM     73  C   UNL A   1      37.557  30.993  32.785  1.00  0.00     0.198 A 
ATOM     74  C   UNL A   1      36.683  31.719  30.671  1.00  0.00     0.198 A 
ATOM     75  F   UNL A   1      37.952  31.434  28.712  1.00  0.00    -0.203 F 
ATOM     76  F   UNL A   1      37.408  30.825  34.106  1.00  0.00    -0.200 F 
ATOM     77  C   UNL A   1      36.537  31.568  32.042  1.00  0.00     0.200 A 
ATOM     78  F   UNL A   1      35.702  32.281  29.952  1.00  0.00    -0.200 F 
ATOM     79  F   UNL A   1      35.411  31.970  32.645  1.00  0.00    -0.200 F 
ENDBRANCH  55  69
BRANCH  56  80
ATOM     80  C   UNL A   1      47.049  27.560  25.929  1.00  0.00     0.064 A 
ATOM     81  C   UNL A   1      47.098  27.700  24.537  1.00  0.00     0.173 A 
ATOM     82  C   UNL A   1      48.166  27.005  26.573  1.00  0.00     0.173 A 
ATOM     83  F   UNL A   1      46.045  28.203  23.877  1.00  0.00    -0.203 F 
ATOM     84  C   UNL A   1      48.219  27.295  23.814  1.00  0.00     0.198 A 
ATOM     85  C   UNL A   1      49.295  26.624  25.852  1.00  0.00     0.198 A 
ATOM     86  F   UNL A   1      48.166  26.851  27.905  1.00  0.00    -0.203 F 
ATOM     87  F   UNL A   1      48.228  27.408  22.479  1.00  0.00    -0.200 F 
ATOM     88  C   UNL A   1      49.319  26.764  24.473  1.00  0.00     0.200 A 
ATOM     89  F   UNL A   1      50.360  26.124  26.494  1.00  0.00    -0.200 F 
ATOM     90  F   UNL A   1      50.400  26.384  23.778  1.00  0.00    -0.200 F 
ENDBRANCH  56  80
BRANCH  68  91
ATOM     91  C   UNL A   1      45.277  33.552  28.998  1.00  0.00     0.064 A 
ATOM     92  C   UNL A   1      46.114  33.786  30.098  1.00  0.00     0.173 A 
ATOM     93  C   UNL A   1      45.154  34.561  28.032  1.00  0.00     0.173 A 
ATOM     94  F   UNL A   1      46.247  32.856  31.055  1.00  0.00    -0.203 F 
ATOM     95  C   UNL A   1      46.789  34.996  30.235  1.00  0.00     0.198 A 
ATOM     96  C   UNL A   1      45.848  35.760  28.161  1.00  0.00     0.198 A 
ATOM     97  F   UNL A   1      44.367  34.381  26.961  1.00  0.00    -0.203 F 
ATOM     98  F   UNL A   1      47.553  35.216  31.313  1.00  0.00    -0.200 F 
ATOM     99  C   UNL A   1      46.661  35.978  29.264  1.00  0.00     0.200 A 
ATOM    100  F   UNL A   1      45.729  36.706  27.219  1.00  0.00    -0.200 F 
ATOM    101  F   UNL A   1      47.312  37.141  29.396  1.00  0.00    -0.200 F 
ENDBRANCH  68  91
ENDBRANCH  42  43
ENDBRANCH  35  37
ENDBRANCH  34  35
ENDBRANCH  33  34
ENDBRANCH   1  33
TORSDOF 15
ENDMDL
MODEL 3
REMARK VINA RESULT:     -13.0      4.658      9.597
REMARK SMILES C[NH+]1CCC2(CC1)OC[C@H](C(=O)OCCOC(=O)c1ccc(-c3c4nc(c(-c5c(F)c(F)c(F)c(F)c5F)c5ccc([nH]5)c(-c5c(F)c(F)c(F)c(F)c5F)c5nc(c(-c6c(F)c(F)c(F)c(F)c6F)c6ccc3[nH]6)C=C5)C=C4)cc1)N2C(=O)c1cc(C(F)(F)F)cc(C(F)(F)F)c1
REMARK SMILES IDX 14 1 13 2 11 3 12 4 10 5 1 6 2 7 3 8 7 9 4 11 6 12 5 13 8 14
REMARK SMILES IDX 82 15 9 16 83 17 84 18 85 19 86 20 98 21 87 22 93 23 92 24
REMARK SMILES IDX 88 25 89 26 90 27 91 28 94 29 95 30 96 31 97 32 15 33 16 34
REMARK SMILES IDX 17 35 18 36 19 37 20 38 81 39 21 40 80 41 22 42 23 43 24 44
REMARK SMILES IDX 74 45 25 46 79 47 73 48 75 49 26 50 78 51 72 52 71 53 27 55
REMARK SMILES IDX 59 56 39 57 58 58 40 59 43 60 57 61 76 62 41 63 42 64 56 66
REMARK SMILES IDX 77 67 44 68 28 69 29 70 37 71 30 72 31 73 35 74 38 75 32 76
REMARK SMILES IDX 33 77 36 78 34 79 60 80 61 81 69 82 62 83 63 84 67 85 70 86
REMARK SMILES IDX 64 87 65 88 68 89 66 90 45 91 46 92 54 93 47 94 48 95 52 96
REMARK SMILES IDX 55 97 49 98 50 99 53 100 51 101
REMARK H PARENT 2 10 75 54 43 65
REMARK Flexibility Score: inf
ROOT
ATOM      1  C   UNL A   1      35.424  21.628  25.548  1.00  0.00     0.274 C 
ENDROOT
BRANCH   1   2
ATOM      2  O   UNL A   1      34.875  21.915  24.248  1.00  0.00    -0.460 OA
BRANCH   2   3
ATOM      3  C   UNL A   1      34.816  23.220  23.875  1.00  0.00     0.331 C 
ATOM      4  O   UNL A   1      35.531  24.100  24.343  1.00  0.00    -0.250 OA
BRANCH   3   5
ATOM      5  C   UNL A   1      33.717  23.484  22.833  1.00  0.00     0.224 C 
ATOM      6  C   UNL A   1      29.153  24.660  26.877  1.00  0.00     0.332 C 
ATOM      7  N   UNL A   1      30.137  25.430  26.127  1.00  0.00    -0.337 N 
ATOM      8  C   UNL A   1      31.502  25.003  26.412  1.00  0.00     0.267 C 
ATOM      9  C   UNL A   1      29.809  25.543  24.708  1.00  0.00     0.267 C 
ATOM     10  H   UNL A   1      30.091  26.391  26.466  1.00  0.00     0.347 HD
ATOM     11  C   UNL A   1      31.998  23.837  25.584  1.00  0.00     0.120 C 
ATOM     12  C   UNL A   1      30.332  24.454  23.778  1.00  0.00     0.120 C 
ATOM     13  C   UNL A   1      31.751  23.973  24.075  1.00  0.00     0.155 C 
ATOM     14  O   UNL A   1      31.736  22.568  23.631  1.00  0.00    -0.352 OA
ATOM     15  N   UNL A   1      32.865  24.565  23.297  1.00  0.00    -0.293 N 
ATOM     16  C   UNL A   1      32.732  22.373  22.622  1.00  0.00     0.200 C 
BRANCH  15  17
ATOM     17  C   UNL A   1      33.248  25.840  22.910  1.00  0.00     0.256 C 
ATOM     18  O   UNL A   1      34.028  26.046  21.980  1.00  0.00    -0.269 OA
BRANCH  17  19
ATOM     19  C   UNL A   1      32.698  27.043  23.536  1.00  0.00     0.041 A 
ATOM     20  C   UNL A   1      31.631  27.706  22.922  1.00  0.00     0.027 A 
ATOM     21  C   UNL A   1      33.307  27.580  24.667  1.00  0.00     0.027 A 
ATOM     22  C   UNL A   1      31.084  28.857  23.513  1.00  0.00     0.057 A 
ATOM     23  C   UNL A   1      32.725  28.673  25.325  1.00  0.00     0.057 A 
ATOM     24  C   UNL A   1      31.621  29.314  24.730  1.00  0.00     0.026 A 
BRANCH  22  25
ATOM     25  C   UNL A   1      29.937  29.577  22.845  1.00  0.00     0.416 C 
ATOM     26  F   UNL A   1      30.278  30.078  21.628  1.00  0.00    -0.166 F 
ATOM     27  F   UNL A   1      28.866  28.764  22.633  1.00  0.00    -0.166 F 
ATOM     28  F   UNL A   1      29.467  30.630  23.569  1.00  0.00    -0.166 F 
ENDBRANCH  22  25
BRANCH  23  29
ATOM     29  C   UNL A   1      33.217  29.111  26.686  1.00  0.00     0.416 C 
ATOM     30  F   UNL A   1      32.216  29.181  27.605  1.00  0.00    -0.166 F 
ATOM     31  F   UNL A   1      34.139  28.251  27.201  1.00  0.00    -0.166 F 
ATOM     32  F   UNL A   1      33.812  30.336  26.679  1.00  0.00    -0.166 F 
ENDBRANCH  23  29
ENDBRANCH  17  19
ENDBRANCH  15  17
ENDBRANCH   3   5
ENDBRANCH   2   3
ENDBRANCH   1   2
BRANCH   1  33
ATOM     33  C   UNL A   1      36.739  20.875  25.376  1.00  0.00     0.275 C 
BRANCH  33  34
ATOM     34  O   UNL A   1      37.831  21.814  25.346  1.00  0.00    -0.458 OA
BRANCH  34  35
ATOM     35  C   UNL A   1      38.887  21.485  26.123  1.00  0.00     0.338 C 
ATOM     36  O   UNL A   1      39.337  20.378  26.358  1.00  0.00    -0.246 OA
BRANCH  35  37
ATOM     37  C   UNL A   1      39.507  22.711  26.632  1.00  0.00     0.060 A 
ATOM     38  C   UNL A   1      39.088  23.949  26.143  1.00  0.00     0.016 A 
ATOM     39  C   UNL A   1      40.587  22.615  27.508  1.00  0.00     0.016 A 
ATOM     40  C   UNL A   1      39.788  25.102  26.486  1.00  0.00     0.010 A 
ATOM     41  C   UNL A   1      41.241  23.779  27.908  1.00  0.00     0.010 A 
ATOM     42  C   UNL A   1      40.861  25.028  27.383  1.00  0.00    -0.014 A 
BRANCH  42  43
ATOM     43  C   UNL A   1      41.602  26.248  27.788  1.00  0.00     0.031 A 
ATOM     44  C   UNL A   1      40.902  27.324  28.566  1.00  0.00     0.074 A 
ATOM     45  C   UNL A   1      42.882  26.408  27.406  1.00  0.00     0.049 A 
ATOM     46  N   UNL A   1      41.286  28.549  28.817  1.00  0.00    -0.248 NA
ATOM     47  C   UNL A   1      39.585  26.980  29.123  1.00  0.00     0.031 C 
ATOM     48  C   UNL A   1      43.679  25.420  26.679  1.00  0.00     0.029 A 
ATOM     49  N   UNL A   1      43.732  27.475  27.560  1.00  0.00    -0.354 N 
ATOM     50  C   UNL A   1      40.243  29.136  29.519  1.00  0.00     0.074 A 
ATOM     51  C   UNL A   1      39.207  28.134  29.655  1.00  0.00     0.031 C 
ATOM     52  C   UNL A   1      44.900  25.926  26.446  1.00  0.00     0.029 A 
ATOM     53  C   UNL A   1      44.946  27.296  26.946  1.00  0.00     0.049 A 
ATOM     54  H   UNL A   1      43.493  28.289  28.060  1.00  0.00     0.167 HD
ATOM     55  C   UNL A   1      40.161  30.400  29.999  1.00  0.00     0.037 A 
ATOM     56  C   UNL A   1      45.965  28.155  26.764  1.00  0.00     0.037 A 
ATOM     57  C   UNL A   1      41.214  31.376  29.890  1.00  0.00     0.049 A 
ATOM     58  C   UNL A   1      45.841  29.557  27.285  1.00  0.00     0.074 A 
ATOM     59  C   UNL A   1      41.242  32.676  30.365  1.00  0.00     0.029 A 
ATOM     60  N   UNL A   1      42.433  31.151  29.267  1.00  0.00    -0.354 N 
ATOM     61  N   UNL A   1      44.839  30.117  27.919  1.00  0.00    -0.248 NA
ATOM     62  C   UNL A   1      46.982  30.452  27.054  1.00  0.00     0.031 C 
ATOM     63  C   UNL A   1      42.466  33.247  30.003  1.00  0.00     0.029 A 
ATOM     64  C   UNL A   1      43.216  32.291  29.335  1.00  0.00     0.049 A 
ATOM     65  H   UNL A   1      42.702  30.306  28.840  1.00  0.00     0.167 HD
ATOM     66  C   UNL A   1      45.233  31.421  28.177  1.00  0.00     0.074 A 
ATOM     67  C   UNL A   1      46.572  31.567  27.641  1.00  0.00     0.031 C 
ATOM     68  C   UNL A   1      44.547  32.411  28.798  1.00  0.00     0.037 A 
BRANCH  55  69
ATOM     69  C   UNL A   1      38.879  30.810  30.660  1.00  0.00     0.064 A 
ATOM     70  C   UNL A   1      37.790  31.302  29.927  1.00  0.00     0.173 A 
ATOM     71  C   UNL A   1      38.727  30.673  32.050  1.00  0.00     0.173 A 
ATOM     72  F   UNL A   1      37.892  31.467  28.599  1.00  0.00    -0.203 F 
ATOM     73  C   UNL A   1      36.603  31.661  30.561  1.00  0.00     0.198 A 
ATOM     74  C   UNL A   1      37.530  31.009  32.677  1.00  0.00     0.198 A 
ATOM     75  F   UNL A   1      39.737  30.204  32.797  1.00  0.00    -0.203 F 
ATOM     76  F   UNL A   1      35.589  32.165  29.845  1.00  0.00    -0.200 F 
ATOM     77  C   UNL A   1      36.472  31.507  31.933  1.00  0.00     0.200 A 
ATOM     78  F   UNL A   1      37.403  30.852  34.002  1.00  0.00    -0.200 F 
ATOM     79  F   UNL A   1      35.327  31.847  32.541  1.00  0.00    -0.200 F 
ENDBRANCH  55  69
BRANCH  56  80
ATOM     80  C   UNL A   1      47.174  27.712  26.025  1.00  0.00     0.064 A 
ATOM     81  C   UNL A   1      48.295  27.225  26.708  1.00  0.00     0.173 A 
ATOM     82  C   UNL A   1      47.223  27.746  24.623  1.00  0.00     0.173 A 
ATOM     83  F   UNL A   1      48.302  27.197  28.049  1.00  0.00    -0.203 F 
ATOM     84  C   UNL A   1      49.425  26.793  26.016  1.00  0.00     0.198 A 
ATOM     85  C   UNL A   1      48.343  27.291  23.933  1.00  0.00     0.198 A 
ATOM     86  F   UNL A   1      46.174  28.204  23.925  1.00  0.00    -0.203 F 
ATOM     87  F   UNL A   1      50.498  26.363  26.694  1.00  0.00    -0.200 F 
ATOM     88  C   UNL A   1      49.446  26.820  24.629  1.00  0.00     0.200 A 
ATOM     89  F   UNL A   1      48.354  27.306  22.592  1.00  0.00    -0.200 F 
ATOM     90  F   UNL A   1      50.529  26.395  23.965  1.00  0.00    -0.200 F 
ENDBRANCH  56  80
BRANCH  68  91
ATOM     91  C   UNL A   1      45.247  33.727  28.956  1.00  0.00     0.064 A 
ATOM     92  C   UNL A   1      45.096  34.754  28.014  1.00  0.00     0.173 A 
ATOM     93  C   UNL A   1      46.053  33.969  30.078  1.00  0.00     0.173 A 
ATOM     94  F   UNL A   1      44.349  34.559  26.918  1.00  0.00    -0.203 F 
ATOM     95  C   UNL A   1      45.745  35.974  28.180  1.00  0.00     0.198 A 
ATOM     96  C   UNL A   1      46.682  35.198  30.251  1.00  0.00     0.198 A 
ATOM     97  F   UNL A   1      46.225  33.017  31.007  1.00  0.00    -0.203 F 
ATOM     98  F   UNL A   1      45.619  36.930  27.249  1.00  0.00    -0.200 F 
ATOM     99  C   UNL A   1      46.531  36.197  29.301  1.00  0.00     0.200 A 
ATOM    100  F   UNL A   1      47.436  35.416  31.338  1.00  0.00    -0.200 F 
ATOM    101  F   UNL A   1      47.154  37.373  29.461  1.00  0.00    -0.200 F 
ENDBRANCH  68  91
ENDBRANCH  42  43
ENDBRANCH  35  37
ENDBRANCH  34  35
ENDBRANCH  33  34
ENDBRANCH   1  33
TORSDOF 15
ENDMDL
