MODEL 1
REMARK VINA RESULT:     -12.6      0.000      0.000
REMARK SMILES C[C@@H](C(=O)OCCOC(=O)c1ccc(-c2c3nc(c(-c4c(F)c(F)c(F)c(F)c4F)c4ccc([nH]4)c(-c4c(F)c(F)c(F)c(F)c4F)c4nc(c(-c5c(F)c(F)c(F)c(F)c5F)c5ccc2[nH]5)C=C4)C=C3)cc1)c1ccc(C[C@@H]2CCC[C@@H]2O)cc1Br
REMARK SMILES IDX 6 1 5 2 3 3 4 4 2 5 1 6 74 7 75 8 86 9 76 10 85 11 87 12
REMARK SMILES IDX 77 13 78 14 79 15 80 16 83 17 81 18 82 19 84 20 7 22 8 23
REMARK SMILES IDX 9 24 10 25 11 26 12 27 73 28 13 29 72 30 14 31 15 32 16 33
REMARK SMILES IDX 66 34 17 35 71 36 65 37 67 38 18 39 70 40 64 41 63 42 19 44
REMARK SMILES IDX 51 45 31 46 50 47 32 48 35 49 49 50 68 51 33 52 34 53 48 55
REMARK SMILES IDX 69 56 36 57 20 58 21 59 29 60 22 61 23 62 27 63 30 64 24 65
REMARK SMILES IDX 25 66 28 67 26 68 52 69 53 70 61 71 54 72 55 73 59 74 62 75
REMARK SMILES IDX 56 76 57 77 60 78 58 79 37 80 38 81 46 82 39 83 40 84 44 85
REMARK SMILES IDX 47 86 41 87 42 88 45 89 43 90
REMARK H PARENT 84 21 67 43 35 54
REMARK Flexibility Score: inf
ROOT
ATOM      1  C   UNL A   1      31.615  28.139  24.681  1.00  0.00     0.274 C 
ENDROOT
BRANCH   1   2
ATOM      2  O   UNL A   1      32.816  27.347  24.808  1.00  0.00    -0.462 OA
BRANCH   2   3
ATOM      3  C   UNL A   1      32.647  25.998  24.867  1.00  0.00     0.313 C 
ATOM      4  O   UNL A   1      31.916  25.435  25.676  1.00  0.00    -0.252 OA
BRANCH   3   5
ATOM      5  C   UNL A   1      33.513  25.240  23.853  1.00  0.00     0.127 C 
ATOM      6  C   UNL A   1      33.512  25.858  22.453  1.00  0.00     0.025 C 
BRANCH   5   7
ATOM      7  C   UNL A   1      33.323  23.721  23.967  1.00  0.00    -0.020 A 
ATOM      8  C   UNL A   1      32.401  23.154  23.054  1.00  0.00     0.006 A 
ATOM      9  C   UNL A   1      33.989  22.829  24.824  1.00  0.00     0.022 A 
ATOM     10  C   UNL A   1      32.153  21.779  22.995  1.00  0.00     0.004 A 
ATOM     11  C   UNL A   1      33.699  21.450  24.792  1.00  0.00     0.019 A 
ATOM     12  Br  UNL A   1      35.390  23.305  26.014  1.00  0.00    -0.050 Br
ATOM     13  C   UNL A   1      32.789  20.909  23.876  1.00  0.00    -0.047 A 
BRANCH  13  14
ATOM     14  C   UNL A   1      32.577  19.416  23.798  1.00  0.00     0.041 C 
BRANCH  14  15
ATOM     15  C   UNL A   1      33.663  18.483  24.365  1.00  0.00     0.022 C 
ATOM     16  C   UNL A   1      34.082  17.341  23.438  1.00  0.00     0.007 C 
ATOM     17  C   UNL A   1      33.334  17.750  25.667  1.00  0.00     0.117 C 
ATOM     18  C   UNL A   1      33.279  16.114  23.876  1.00  0.00     0.003 C 
ATOM     19  C   UNL A   1      32.659  16.456  25.229  1.00  0.00     0.032 C 
BRANCH  17  20
ATOM     20  O   UNL A   1      32.528  18.510  26.544  1.00  0.00    -0.393 OA
ATOM     21  H   UNL A   1      32.311  19.360  26.129  1.00  0.00     0.210 HD
ENDBRANCH  17  20
ENDBRANCH  14  15
ENDBRANCH  13  14
ENDBRANCH   5   7
ENDBRANCH   3   5
ENDBRANCH   2   3
ENDBRANCH   1   2
BRANCH   1  22
ATOM     22  C   UNL A   1      31.592  29.224  25.752  1.00  0.00     0.275 C 
BRANCH  22  23
ATOM     23  O   UNL A   1      32.807  29.989  25.663  1.00  0.00    -0.458 OA
BRANCH  23  24
ATOM     24  C   UNL A   1      33.031  30.879  26.658  1.00  0.00     0.338 C 
ATOM     25  O   UNL A   1      32.283  31.764  27.033  1.00  0.00    -0.246 OA
BRANCH  24  26
ATOM     26  C   UNL A   1      34.365  30.634  27.251  1.00  0.00     0.060 A 
ATOM     27  C   UNL A   1      34.831  29.339  27.460  1.00  0.00     0.016 A 
ATOM     28  C   UNL A   1      35.130  31.718  27.687  1.00  0.00     0.016 A 
ATOM     29  C   UNL A   1      36.012  29.129  28.173  1.00  0.00     0.010 A 
ATOM     30  C   UNL A   1      36.357  31.499  28.331  1.00  0.00     0.010 A 
ATOM     31  C   UNL A   1      36.797  30.198  28.626  1.00  0.00    -0.014 A 
BRANCH  31  32
ATOM     32  C   UNL A   1      38.020  29.961  29.458  1.00  0.00     0.031 A 
ATOM     33  C   UNL A   1      39.181  29.171  28.900  1.00  0.00     0.074 A 
ATOM     34  C   UNL A   1      38.144  30.473  30.700  1.00  0.00     0.049 A 
ATOM     35  N   UNL A   1      40.205  28.641  29.526  1.00  0.00    -0.248 NA
ATOM     36  C   UNL A   1      39.182  28.930  27.448  1.00  0.00     0.031 C 
ATOM     37  C   UNL A   1      37.161  31.317  31.378  1.00  0.00     0.029 A 
ATOM     38  N   UNL A   1      39.171  30.372  31.612  1.00  0.00    -0.354 N 
ATOM     39  C   UNL A   1      40.912  27.929  28.563  1.00  0.00     0.074 A 
ATOM     40  C   UNL A   1      40.218  28.115  27.307  1.00  0.00     0.031 C 
ATOM     41  C   UNL A   1      37.658  31.714  32.560  1.00  0.00     0.029 A 
ATOM     42  C   UNL A   1      38.942  31.058  32.780  1.00  0.00     0.049 A 
ATOM     43  H   UNL A   1      39.992  29.855  31.444  1.00  0.00     0.167 HD
ATOM     44  C   UNL A   1      42.032  27.181  28.718  1.00  0.00     0.037 A 
ATOM     45  C   UNL A   1      39.652  31.120  33.923  1.00  0.00     0.037 A 
ATOM     46  C   UNL A   1      42.789  27.079  29.940  1.00  0.00     0.049 A 
ATOM     47  C   UNL A   1      40.898  30.296  34.073  1.00  0.00     0.074 A 
ATOM     48  C   UNL A   1      43.936  26.343  30.189  1.00  0.00     0.029 A 
ATOM     49  N   UNL A   1      42.497  27.767  31.107  1.00  0.00    -0.354 N 
ATOM     50  N   UNL A   1      41.480  29.511  33.201  1.00  0.00    -0.248 NA
ATOM     51  C   UNL A   1      41.566  30.337  35.383  1.00  0.00     0.031 C 
ATOM     52  C   UNL A   1      44.330  26.575  31.512  1.00  0.00     0.029 A 
ATOM     53  C   UNL A   1      43.446  27.478  32.077  1.00  0.00     0.049 A 
ATOM     54  H   UNL A   1      41.730  28.372  31.230  1.00  0.00     0.167 HD
ATOM     55  C   UNL A   1      42.569  28.955  33.858  1.00  0.00     0.074 A 
ATOM     56  C   UNL A   1      42.593  29.522  35.189  1.00  0.00     0.031 C 
ATOM     57  C   UNL A   1      43.459  28.042  33.399  1.00  0.00     0.037 A 
BRANCH  44  58
ATOM     58  C   UNL A   1      42.497  26.369  27.546  1.00  0.00     0.064 A 
ATOM     59  C   UNL A   1      43.459  26.841  26.643  1.00  0.00     0.173 A 
ATOM     60  C   UNL A   1      42.008  25.065  27.363  1.00  0.00     0.173 A 
ATOM     61  F   UNL A   1      43.951  28.083  26.769  1.00  0.00    -0.203 F 
ATOM     62  C   UNL A   1      43.901  26.044  25.589  1.00  0.00     0.198 A 
ATOM     63  C   UNL A   1      42.472  24.262  26.325  1.00  0.00     0.198 A 
ATOM     64  F   UNL A   1      41.093  24.561  28.206  1.00  0.00    -0.203 F 
ATOM     65  F   UNL A   1      44.798  26.526  24.717  1.00  0.00    -0.200 F 
ATOM     66  C   UNL A   1      43.414  24.754  25.436  1.00  0.00     0.200 A 
ATOM     67  F   UNL A   1      42.011  23.010  26.189  1.00  0.00    -0.200 F 
ATOM     68  F   UNL A   1      43.853  23.984  24.430  1.00  0.00    -0.200 F 
ENDBRANCH  44  58
BRANCH  45  69
ATOM     69  C   UNL A   1      39.162  31.957  35.049  1.00  0.00     0.064 A 
ATOM     70  C   UNL A   1      38.442  31.387  36.108  1.00  0.00     0.173 A 
ATOM     71  C   UNL A   1      39.413  33.337  35.097  1.00  0.00     0.173 A 
ATOM     72  F   UNL A   1      38.150  30.078  36.090  1.00  0.00    -0.203 F 
ATOM     73  C   UNL A   1      37.990  32.166  37.171  1.00  0.00     0.198 A 
ATOM     74  C   UNL A   1      38.988  34.109  36.175  1.00  0.00     0.198 A 
ATOM     75  F   UNL A   1      40.091  33.931  34.104  1.00  0.00    -0.203 F 
ATOM     76  F   UNL A   1      37.274  31.604  38.154  1.00  0.00    -0.200 F 
ATOM     77  C   UNL A   1      38.274  33.524  37.209  1.00  0.00     0.200 A 
ATOM     78  F   UNL A   1      39.276  35.416  36.214  1.00  0.00    -0.200 F 
ATOM     79  F   UNL A   1      37.853  34.269  38.240  1.00  0.00    -0.200 F 
ENDBRANCH  45  69
BRANCH  57  80
ATOM     80  C   UNL A   1      44.537  27.603  34.344  1.00  0.00     0.064 A 
ATOM     81  C   UNL A   1      45.749  28.302  34.440  1.00  0.00     0.173 A 
ATOM     82  C   UNL A   1      44.347  26.493  35.179  1.00  0.00     0.173 A 
ATOM     83  F   UNL A   1      45.983  29.360  33.650  1.00  0.00    -0.203 F 
ATOM     84  C   UNL A   1      46.743  27.890  35.325  1.00  0.00     0.198 A 
ATOM     85  C   UNL A   1      45.335  26.096  36.077  1.00  0.00     0.198 A 
ATOM     86  F   UNL A   1      43.204  25.794  35.126  1.00  0.00    -0.203 F 
ATOM     87  F   UNL A   1      47.911  28.547  35.372  1.00  0.00    -0.200 F 
ATOM     88  C   UNL A   1      46.533  26.791  36.146  1.00  0.00     0.200 A 
ATOM     89  F   UNL A   1      45.128  25.038  36.874  1.00  0.00    -0.200 F 
ATOM     90  F   UNL A   1      47.491  26.396  36.996  1.00  0.00    -0.200 F 
ENDBRANCH  57  80
ENDBRANCH  31  32
ENDBRANCH  24  26
ENDBRANCH  23  24
ENDBRANCH  22  23
ENDBRANCH   1  22
TORSDOF 15
ENDMDL
MODEL 2
REMARK VINA RESULT:     -12.2      4.265      9.941
REMARK SMILES C[C@@H](C(=O)OCCOC(=O)c1ccc(-c2c3nc(c(-c4c(F)c(F)c(F)c(F)c4F)c4ccc([nH]4)c(-c4c(F)c(F)c(F)c(F)c4F)c4nc(c(-c5c(F)c(F)c(F)c(F)c5F)c5ccc2[nH]5)C=C4)C=C3)cc1)c1ccc(C[C@@H]2CCC[C@@H]2O)cc1Br
REMARK SMILES IDX 6 1 5 2 3 3 4 4 2 5 1 6 74 7 75 8 86 9 76 10 85 11 87 12
REMARK SMILES IDX 77 13 78 14 79 15 80 16 83 17 81 18 82 19 84 20 7 22 8 23
REMARK SMILES IDX 9 24 10 25 11 26 12 27 73 28 13 29 72 30 14 31 15 32 16 33
REMARK SMILES IDX 66 34 17 35 71 36 65 37 67 38 18 39 70 40 64 41 63 42 19 44
REMARK SMILES IDX 51 45 31 46 50 47 32 48 35 49 49 50 68 51 33 52 34 53 48 55
REMARK SMILES IDX 69 56 36 57 20 58 21 59 29 60 22 61 23 62 27 63 30 64 24 65
REMARK SMILES IDX 25 66 28 67 26 68 52 69 53 70 61 71 54 72 55 73 59 74 62 75
REMARK SMILES IDX 56 76 57 77 60 78 58 79 37 80 38 81 46 82 39 83 40 84 44 85
REMARK SMILES IDX 47 86 41 87 42 88 45 89 43 90
REMARK H PARENT 84 21 67 43 35 54
REMARK Flexibility Score: inf
ROOT
ATOM      1  C   UNL A   1      34.594  21.020  25.008  1.00  0.00     0.274 C 
ENDROOT
BRANCH   1   2
ATOM      2  O   UNL A   1      34.516  22.452  24.840  1.00  0.00    -0.462 OA
BRANCH   2   3
ATOM      3  C   UNL A   1      34.031  22.895  23.648  1.00  0.00     0.313 C 
ATOM      4  O   UNL A   1      34.714  23.459  22.798  1.00  0.00    -0.252 OA
BRANCH   3   5
ATOM      5  C   UNL A   1      32.521  22.674  23.495  1.00  0.00     0.127 C 
ATOM      6  C   UNL A   1      32.138  21.857  22.258  1.00  0.00     0.025 C 
BRANCH   5   7
ATOM      7  C   UNL A   1      31.727  23.955  23.783  1.00  0.00    -0.020 A 
ATOM      8  C   UNL A   1      31.631  24.866  22.703  1.00  0.00     0.006 A 
ATOM      9  C   UNL A   1      31.045  24.302  24.961  1.00  0.00     0.022 A 
ATOM     10  C   UNL A   1      30.900  26.055  22.787  1.00  0.00     0.004 A 
ATOM     11  C   UNL A   1      30.350  25.526  25.055  1.00  0.00     0.019 A 
ATOM     12  Br  UNL A   1      30.870  23.185  26.486  1.00  0.00    -0.050 Br
ATOM     13  C   UNL A   1      30.262  26.408  23.973  1.00  0.00    -0.047 A 
BRANCH  13  14
ATOM     14  C   UNL A   1      29.425  27.661  24.073  1.00  0.00     0.041 C 
BRANCH  14  15
ATOM     15  C   UNL A   1      29.070  28.420  22.780  1.00  0.00     0.022 C 
ATOM     16  C   UNL A   1      29.937  29.648  22.493  1.00  0.00     0.007 C 
ATOM     17  C   UNL A   1      27.652  28.983  22.675  1.00  0.00     0.117 C 
ATOM     18  C   UNL A   1      29.156  30.856  23.014  1.00  0.00     0.003 C 
ATOM     19  C   UNL A   1      27.735  30.373  23.293  1.00  0.00     0.032 C 
BRANCH  17  20
ATOM     20  O   UNL A   1      26.684  28.169  23.303  1.00  0.00    -0.393 OA
ATOM     21  H   UNL A   1      27.007  27.256  23.347  1.00  0.00     0.210 HD
ENDBRANCH  17  20
ENDBRANCH  14  15
ENDBRANCH  13  14
ENDBRANCH   5   7
ENDBRANCH   3   5
ENDBRANCH   2   3
ENDBRANCH   1   2
BRANCH   1  22
ATOM     22  C   UNL A   1      36.053  20.575  25.009  1.00  0.00     0.275 C 
BRANCH  22  23
ATOM     23  O   UNL A   1      36.831  21.538  25.741  1.00  0.00    -0.458 OA
BRANCH  23  24
ATOM     24  C   UNL A   1      38.170  21.345  25.753  1.00  0.00     0.338 C 
ATOM     25  O   UNL A   1      38.773  20.362  25.361  1.00  0.00    -0.246 OA
BRANCH  24  26
ATOM     26  C   UNL A   1      38.837  22.530  26.337  1.00  0.00     0.060 A 
ATOM     27  C   UNL A   1      38.336  23.812  26.128  1.00  0.00     0.016 A 
ATOM     28  C   UNL A   1      40.035  22.367  27.037  1.00  0.00     0.016 A 
ATOM     29  C   UNL A   1      39.070  24.924  26.543  1.00  0.00     0.010 A 
ATOM     30  C   UNL A   1      40.725  23.487  27.522  1.00  0.00     0.010 A 
ATOM     31  C   UNL A   1      40.277  24.790  27.242  1.00  0.00    -0.014 A 
BRANCH  31  32
ATOM     32  C   UNL A   1      41.095  25.989  27.611  1.00  0.00     0.031 A 
ATOM     33  C   UNL A   1      40.523  27.051  28.522  1.00  0.00     0.074 A 
ATOM     34  C   UNL A   1      42.366  26.140  27.185  1.00  0.00     0.049 A 
ATOM     35  N   UNL A   1      40.955  28.267  28.755  1.00  0.00    -0.248 NA
ATOM     36  C   UNL A   1      39.295  26.705  29.253  1.00  0.00     0.031 C 
ATOM     37  C   UNL A   1      43.110  25.189  26.360  1.00  0.00     0.029 A 
ATOM     38  N   UNL A   1      43.271  27.154  27.410  1.00  0.00    -0.354 N 
ATOM     39  C   UNL A   1      40.003  28.857  29.579  1.00  0.00     0.074 A 
ATOM     40  C   UNL A   1      38.985  27.859  29.827  1.00  0.00     0.031 C 
ATOM     41  C   UNL A   1      44.369  25.625  26.207  1.00  0.00     0.029 A 
ATOM     42  C   UNL A   1      44.494  26.942  26.821  1.00  0.00     0.049 A 
ATOM     43  H   UNL A   1      43.061  27.955  27.941  1.00  0.00     0.167 HD
ATOM     44  C   UNL A   1      39.978  30.119  30.074  1.00  0.00     0.037 A 
ATOM     45  C   UNL A   1      45.582  27.731  26.733  1.00  0.00     0.037 A 
ATOM     46  C   UNL A   1      41.038  31.082  29.921  1.00  0.00     0.049 A 
ATOM     47  C   UNL A   1      45.543  29.122  27.299  1.00  0.00     0.074 A 
ATOM     48  C   UNL A   1      41.099  32.385  30.387  1.00  0.00     0.029 A 
ATOM     49  N   UNL A   1      42.244  30.831  29.287  1.00  0.00    -0.354 N 
ATOM     50  N   UNL A   1      44.579  29.721  27.953  1.00  0.00    -0.248 NA
ATOM     51  C   UNL A   1      46.731  29.960  27.080  1.00  0.00     0.031 C 
ATOM     52  C   UNL A   1      42.336  32.928  30.021  1.00  0.00     0.029 A 
ATOM     53  C   UNL A   1      43.057  31.953  29.354  1.00  0.00     0.049 A 
ATOM     54  H   UNL A   1      42.488  29.983  28.851  1.00  0.00     0.167 HD
ATOM     55  C   UNL A   1      45.036  31.007  28.209  1.00  0.00     0.074 A 
ATOM     56  C   UNL A   1      46.379  31.090  27.677  1.00  0.00     0.031 C 
ATOM     57  C   UNL A   1      44.389  32.030  28.818  1.00  0.00     0.037 A 
BRANCH  44  58
ATOM     58  C   UNL A   1      38.741  30.560  30.799  1.00  0.00     0.064 A 
ATOM     59  C   UNL A   1      38.640  30.525  32.196  1.00  0.00     0.173 A 
ATOM     60  C   UNL A   1      37.658  31.087  30.075  1.00  0.00     0.173 A 
ATOM     61  F   UNL A   1      39.642  30.022  32.932  1.00  0.00    -0.203 F 
ATOM     62  C   UNL A   1      37.492  30.983  32.841  1.00  0.00     0.198 A 
ATOM     63  C   UNL A   1      36.526  31.569  30.724  1.00  0.00     0.198 A 
ATOM     64  F   UNL A   1      37.710  31.154  28.735  1.00  0.00    -0.203 F 
ATOM     65  F   UNL A   1      37.402  30.909  34.176  1.00  0.00    -0.200 F 
ATOM     66  C   UNL A   1      36.441  31.512  32.106  1.00  0.00     0.200 A 
ATOM     67  F   UNL A   1      35.518  32.094  30.012  1.00  0.00    -0.200 F 
ATOM     68  F   UNL A   1      35.345  31.965  32.730  1.00  0.00    -0.200 F 
ENDBRANCH  44  58
BRANCH  45  69
ATOM     69  C   UNL A   1      46.793  27.240  26.024  1.00  0.00     0.064 A 
ATOM     70  C   UNL A   1      46.979  27.498  24.659  1.00  0.00     0.173 A 
ATOM     71  C   UNL A   1      47.790  26.517  26.696  1.00  0.00     0.173 A 
ATOM     72  F   UNL A   1      46.039  28.157  23.968  1.00  0.00    -0.203 F 
ATOM     73  C   UNL A   1      48.118  27.049  23.993  1.00  0.00     0.198 A 
ATOM     74  C   UNL A   1      48.942  26.097  26.037  1.00  0.00     0.198 A 
ATOM     75  F   UNL A   1      47.654  26.239  28.001  1.00  0.00    -0.203 F 
ATOM     76  F   UNL A   1      48.257  27.278  22.681  1.00  0.00    -0.200 F 
ATOM     77  C   UNL A   1      49.104  26.360  24.685  1.00  0.00     0.200 A 
ATOM     78  F   UNL A   1      49.897  25.444  26.712  1.00  0.00    -0.200 F 
ATOM     79  F   UNL A   1      50.205  25.942  24.047  1.00  0.00    -0.200 F 
ENDBRANCH  45  69
BRANCH  57  80
ATOM     80  C   UNL A   1      45.129  33.327  28.945  1.00  0.00     0.064 A 
ATOM     81  C   UNL A   1      45.011  34.330  27.972  1.00  0.00     0.173 A 
ATOM     82  C   UNL A   1      45.940  33.582  30.060  1.00  0.00     0.173 A 
ATOM     83  F   UNL A   1      44.259  34.127  26.880  1.00  0.00    -0.203 F 
ATOM     84  C   UNL A   1      45.698  35.535  28.101  1.00  0.00     0.198 A 
ATOM     85  C   UNL A   1      46.609  34.795  30.195  1.00  0.00     0.198 A 
ATOM     86  F   UNL A   1      46.082  32.655  31.018  1.00  0.00    -0.203 F 
ATOM     87  F   UNL A   1      45.604  36.465  27.139  1.00  0.00    -0.200 F 
ATOM     88  C   UNL A   1      46.492  35.768  29.214  1.00  0.00     0.200 A 
ATOM     89  F   UNL A   1      47.372  35.022  31.274  1.00  0.00    -0.200 F 
ATOM     90  F   UNL A   1      47.154  36.928  29.335  1.00  0.00    -0.200 F 
ENDBRANCH  57  80
ENDBRANCH  31  32
ENDBRANCH  24  26
ENDBRANCH  23  24
ENDBRANCH  22  23
ENDBRANCH   1  22
TORSDOF 15
ENDMDL
MODEL 3
REMARK VINA RESULT:     -12.2      1.591      2.410
REMARK SMILES C[C@@H](C(=O)OCCOC(=O)c1ccc(-c2c3nc(c(-c4c(F)c(F)c(F)c(F)c4F)c4ccc([nH]4)c(-c4c(F)c(F)c(F)c(F)c4F)c4nc(c(-c5c(F)c(F)c(F)c(F)c5F)c5ccc2[nH]5)C=C4)C=C3)cc1)c1ccc(C[C@@H]2CCC[C@@H]2O)cc1Br
REMARK SMILES IDX 6 1 5 2 3 3 4 4 2 5 1 6 74 7 75 8 86 9 76 10 85 11 87 12
REMARK SMILES IDX 77 13 78 14 79 15 80 16 83 17 81 18 82 19 84 20 7 22 8 23
REMARK SMILES IDX 9 24 10 25 11 26 12 27 73 28 13 29 72 30 14 31 15 32 16 33
REMARK SMILES IDX 66 34 17 35 71 36 65 37 67 38 18 39 70 40 64 41 63 42 19 44
REMARK SMILES IDX 51 45 31 46 50 47 32 48 35 49 49 50 68 51 33 52 34 53 48 55
REMARK SMILES IDX 69 56 36 57 20 58 21 59 29 60 22 61 23 62 27 63 30 64 24 65
REMARK SMILES IDX 25 66 28 67 26 68 52 69 53 70 61 71 54 72 55 73 59 74 62 75
REMARK SMILES IDX 56 76 57 77 60 78 58 79 37 80 38 81 46 82 39 83 40 84 44 85
REMARK SMILES IDX 47 86 41 87 42 88 45 89 43 90
REMARK H PARENT 84 21 67 43 35 54
REMARK Flexibility Score: inf
ROOT
ATOM      1  C   UNL A   1      31.650  29.350  24.460  1.00  0.00     0.274 C 
ENDROOT
BRANCH   1   2
ATOM      2  O   UNL A   1      30.379  28.724  24.183  1.00  0.00    -0.462 OA
BRANCH   2   3
ATOM      3  C   UNL A   1      30.348  27.852  23.139  1.00  0.00     0.313 C 
ATOM      4  O   UNL A   1      30.308  28.197  21.961  1.00  0.00    -0.252 OA
BRANCH   3   5
ATOM      5  C   UNL A   1      30.307  26.385  23.583  1.00  0.00     0.127 C 
ATOM      6  C   UNL A   1      29.137  26.053  24.513  1.00  0.00     0.025 C 
BRANCH   5   7
ATOM      7  C   UNL A   1      31.700  25.869  23.969  1.00  0.00    -0.020 A 
ATOM      8  C   UNL A   1      31.892  25.614  25.349  1.00  0.00     0.006 A 
ATOM      9  C   UNL A   1      32.777  25.571  23.119  1.00  0.00     0.022 A 
ATOM     10  C   UNL A   1      33.087  25.093  25.857  1.00  0.00     0.004 A 
ATOM     11  C   UNL A   1      33.996  25.092  23.643  1.00  0.00     0.019 A 
ATOM     12  Br  UNL A   1      32.722  25.657  21.223  1.00  0.00    -0.050 Br
ATOM     13  C   UNL A   1      34.162  24.839  25.009  1.00  0.00    -0.047 A 
BRANCH  13  14
ATOM     14  C   UNL A   1      35.443  24.230  25.525  1.00  0.00     0.041 C 
BRANCH  14  15
ATOM     15  C   UNL A   1      35.608  22.699  25.474  1.00  0.00     0.022 C 
ATOM     16  C   UNL A   1      35.177  22.046  24.160  1.00  0.00     0.007 C 
ATOM     17  C   UNL A   1      34.840  21.886  26.517  1.00  0.00     0.117 C 
ATOM     18  C   UNL A   1      33.748  21.544  24.378  1.00  0.00     0.003 C 
ATOM     19  C   UNL A   1      33.483  21.612  25.879  1.00  0.00     0.032 C 
BRANCH  17  20
ATOM     20  O   UNL A   1      34.729  22.542  27.763  1.00  0.00    -0.393 OA
ATOM     21  H   UNL A   1      35.577  22.956  27.987  1.00  0.00     0.210 HD
ENDBRANCH  17  20
ENDBRANCH  14  15
ENDBRANCH  13  14
ENDBRANCH   5   7
ENDBRANCH   3   5
ENDBRANCH   2   3
ENDBRANCH   1   2
BRANCH   1  22
ATOM     22  C   UNL A   1      31.476  30.438  25.515  1.00  0.00     0.275 C 
BRANCH  22  23
ATOM     23  O   UNL A   1      32.465  30.250  26.542  1.00  0.00    -0.458 OA
BRANCH  23  24
ATOM     24  C   UNL A   1      33.007  31.374  27.067  1.00  0.00     0.338 C 
ATOM     25  O   UNL A   1      32.511  32.486  27.090  1.00  0.00    -0.246 OA
BRANCH  24  26
ATOM     26  C   UNL A   1      34.342  31.065  27.626  1.00  0.00     0.060 A 
ATOM     27  C   UNL A   1      34.724  29.754  27.891  1.00  0.00     0.016 A 
ATOM     28  C   UNL A   1      35.199  32.113  27.972  1.00  0.00     0.016 A 
ATOM     29  C   UNL A   1      35.915  29.497  28.573  1.00  0.00     0.010 A 
ATOM     30  C   UNL A   1      36.432  31.842  28.584  1.00  0.00     0.010 A 
ATOM     31  C   UNL A   1      36.791  30.530  28.937  1.00  0.00    -0.014 A 
BRANCH  31  32
ATOM     32  C   UNL A   1      38.026  30.251  29.738  1.00  0.00     0.031 A 
ATOM     33  C   UNL A   1      39.160  29.454  29.136  1.00  0.00     0.074 A 
ATOM     34  C   UNL A   1      38.184  30.730  30.988  1.00  0.00     0.049 A 
ATOM     35  N   UNL A   1      40.186  28.890  29.728  1.00  0.00    -0.248 NA
ATOM     36  C   UNL A   1      39.126  29.249  27.680  1.00  0.00     0.031 C 
ATOM     37  C   UNL A   1      37.231  31.575  31.707  1.00  0.00     0.029 A 
ATOM     38  N   UNL A   1      39.227  30.588  31.877  1.00  0.00    -0.354 N 
ATOM     39  C   UNL A   1      40.860  28.189  28.735  1.00  0.00     0.074 A 
ATOM     40  C   UNL A   1      40.144  28.418  27.498  1.00  0.00     0.031 C 
ATOM     41  C   UNL A   1      37.758  31.933  32.887  1.00  0.00     0.029 A 
ATOM     42  C   UNL A   1      39.034  31.250  33.065  1.00  0.00     0.049 A 
ATOM     43  H   UNL A   1      40.035  30.061  31.679  1.00  0.00     0.167 HD
ATOM     44  C   UNL A   1      41.969  27.418  28.848  1.00  0.00     0.037 A 
ATOM     45  C   UNL A   1      39.768  31.271  34.195  1.00  0.00     0.037 A 
ATOM     46  C   UNL A   1      42.748  27.273  30.051  1.00  0.00     0.049 A 
ATOM     47  C   UNL A   1      41.002  30.421  34.299  1.00  0.00     0.074 A 
ATOM     48  C   UNL A   1      43.887  26.510  30.259  1.00  0.00     0.029 A 
ATOM     49  N   UNL A   1      42.493  27.937  31.240  1.00  0.00    -0.354 N 
ATOM     50  N   UNL A   1      41.551  29.647  33.396  1.00  0.00    -0.248 NA
ATOM     51  C   UNL A   1      41.697  30.418  35.595  1.00  0.00     0.031 C 
ATOM     52  C   UNL A   1      44.312  26.702  31.578  1.00  0.00     0.029 A 
ATOM     53  C   UNL A   1      43.456  27.607  32.183  1.00  0.00     0.049 A 
ATOM     54  H   UNL A   1      41.740  28.552  31.394  1.00  0.00     0.167 HD
ATOM     55  C   UNL A   1      42.643  29.056  34.017  1.00  0.00     0.074 A 
ATOM     56  C   UNL A   1      42.705  29.590  35.361  1.00  0.00     0.031 C 
ATOM     57  C   UNL A   1      43.507  28.138  33.518  1.00  0.00     0.037 A 
BRANCH  44  58
ATOM     58  C   UNL A   1      42.395  26.627  27.647  1.00  0.00     0.064 A 
ATOM     59  C   UNL A   1      43.392  27.075  26.771  1.00  0.00     0.173 A 
ATOM     60  C   UNL A   1      41.830  25.363  27.408  1.00  0.00     0.173 A 
ATOM     61  F   UNL A   1      43.956  28.278  26.950  1.00  0.00    -0.203 F 
ATOM     62  C   UNL A   1      43.795  26.295  25.689  1.00  0.00     0.198 A 
ATOM     63  C   UNL A   1      42.254  24.575  26.342  1.00  0.00     0.198 A 
ATOM     64  F   UNL A   1      40.879  24.882  28.225  1.00  0.00    -0.203 F 
ATOM     65  F   UNL A   1      44.727  26.756  24.843  1.00  0.00    -0.200 F 
ATOM     66  C   UNL A   1      43.233  25.044  25.481  1.00  0.00     0.200 A 
ATOM     67  F   UNL A   1      41.720  23.360  26.153  1.00  0.00    -0.200 F 
ATOM     68  F   UNL A   1      43.633  24.290  24.447  1.00  0.00    -0.200 F 
ENDBRANCH  44  58
BRANCH  45  69
ATOM     69  C   UNL A   1      39.316  32.089  35.350  1.00  0.00     0.064 A 
ATOM     70  C   UNL A   1      38.505  31.535  36.349  1.00  0.00     0.173 A 
ATOM     71  C   UNL A   1      39.696  33.433  35.486  1.00  0.00     0.173 A 
ATOM     72  F   UNL A   1      38.090  30.264  36.246  1.00  0.00    -0.203 F 
ATOM     73  C   UNL A   1      38.089  32.295  37.440  1.00  0.00     0.198 A 
ATOM     74  C   UNL A   1      39.305  34.183  36.593  1.00  0.00     0.198 A 
ATOM     75  F   UNL A   1      40.466  34.011  34.553  1.00  0.00    -0.203 F 
ATOM     76  F   UNL A   1      37.284  31.753  38.364  1.00  0.00    -0.200 F 
ATOM     77  C   UNL A   1      38.499  33.615  37.567  1.00  0.00     0.200 A 
ATOM     78  F   UNL A   1      39.715  35.451  36.718  1.00  0.00    -0.200 F 
ATOM     79  F   UNL A   1      38.111  34.340  38.624  1.00  0.00    -0.200 F 
ENDBRANCH  45  69
BRANCH  57  80
ATOM     80  C   UNL A   1      44.595  27.657  34.430  1.00  0.00     0.064 A 
ATOM     81  C   UNL A   1      44.425  26.517  35.228  1.00  0.00     0.173 A 
ATOM     82  C   UNL A   1      45.827  28.325  34.486  1.00  0.00     0.173 A 
ATOM     83  F   UNL A   1      43.258  25.855  35.219  1.00  0.00    -0.203 F 
ATOM     84  C   UNL A   1      45.444  26.074  36.068  1.00  0.00     0.198 A 
ATOM     85  C   UNL A   1      46.851  27.867  35.312  1.00  0.00     0.198 A 
ATOM     86  F   UNL A   1      46.039  29.418  33.740  1.00  0.00    -0.203 F 
ATOM     87  F   UNL A   1      45.246  25.006  36.854  1.00  0.00    -0.200 F 
ATOM     88  C   UNL A   1      46.656  26.747  36.106  1.00  0.00     0.200 A 
ATOM     89  F   UNL A   1      48.024  28.514  35.343  1.00  0.00    -0.200 F 
ATOM     90  F   UNL A   1      47.635  26.319  36.916  1.00  0.00    -0.200 F 
ENDBRANCH  57  80
ENDBRANCH  31  32
ENDBRANCH  24  26
ENDBRANCH  23  24
ENDBRANCH  22  23
ENDBRANCH   1  22
TORSDOF 15
ENDMDL
