MODEL 1
REMARK VINA RESULT:     -12.0      0.000      0.000
REMARK SMILES Cc1nsc(N(C)S(=O)(=O)c2cn[nH]c2C)c1C(=O)OCCOC(=O)c1ccc(-c2c3nc(c(-c4c(F)c(F)c(F)c(F)c4F)c4ccc([nH]4)c(-c4c(F)c(F)c(F)c(F)c4F)c4nc(c(-c5c(F)c(F)c(F)c(F)c5F)c5ccc2[nH]5)C=C4)C=C3)cc1
REMARK SMILES IDX 21 1 20 2 18 3 19 4 17 5 1 6 2 7 3 8 4 9 5 10 6 11 7 12 8 13
REMARK SMILES IDX 9 14 10 15 11 16 12 17 15 18 13 19 14 20 16 21 22 23 23 24
REMARK SMILES IDX 24 25 25 26 26 27 27 28 88 29 28 30 87 31 29 32 30 33 31 34
REMARK SMILES IDX 81 35 32 36 86 37 80 38 82 39 33 40 85 41 79 42 78 43 34 45
REMARK SMILES IDX 66 46 46 47 65 48 47 49 50 50 64 51 83 52 48 53 49 54 63 56
REMARK SMILES IDX 84 57 51 58 35 59 36 60 44 61 37 62 38 63 42 64 45 65 39 66
REMARK SMILES IDX 40 67 43 68 41 69 67 70 68 71 76 72 69 73 70 74 74 75 77 76
REMARK SMILES IDX 71 77 72 78 75 79 73 80 52 81 53 82 61 83 54 84 55 85 59 86
REMARK SMILES IDX 62 87 56 88 57 89 60 90 58 91
REMARK H PARENT 14 22 82 44 50 55
REMARK Flexibility Score: inf
ROOT
ATOM      1  C   UNL A   1      37.143  22.398  24.423  1.00  0.00     0.275 C 
ENDROOT
BRANCH   1   2
ATOM      2  O   UNL A   1      35.742  22.364  24.713  1.00  0.00    -0.458 OA
BRANCH   2   3
ATOM      3  C   UNL A   1      34.860  22.734  23.749  1.00  0.00     0.343 C 
ATOM      4  O   UNL A   1      35.171  23.035  22.601  1.00  0.00    -0.246 OA
BRANCH   3   5
ATOM      5  C   UNL A   1      33.506  22.785  24.273  1.00  0.00     0.118 A 
ATOM      6  C   UNL A   1      33.395  20.181  24.791  1.00  0.00     0.069 C 
ATOM      7  C   UNL A   1      32.846  21.572  24.759  1.00  0.00     0.068 A 
ATOM      8  N   UNL A   1      31.630  21.725  25.268  1.00  0.00    -0.195 NA
ATOM      9  S   UNL A   1      31.166  23.276  25.076  1.00  0.00    -0.017 S 
ATOM     10  C   UNL A   1      32.639  23.883  24.372  1.00  0.00     0.140 A 
BRANCH  10  11
ATOM     11  N   UNL A   1      32.700  25.300  23.958  1.00  0.00    -0.258 N 
ATOM     12  C   UNL A   1      31.548  25.867  23.220  1.00  0.00     0.165 C 
BRANCH  11  13
ATOM     13  S   UNL A   1      33.649  26.412  24.821  1.00  0.00     0.268 S 
ATOM     14  O   UNL A   1      34.666  25.678  25.543  1.00  0.00    -0.201 OA
ATOM     15  O   UNL A   1      33.950  27.524  23.947  1.00  0.00    -0.201 OA
BRANCH  13  16
ATOM     16  C   UNL A   1      32.807  27.218  26.110  1.00  0.00     0.128 A 
ATOM     17  C   UNL A   1      31.519  26.949  26.608  1.00  0.00     0.157 A 
ATOM     18  C   UNL A   1      33.303  28.192  26.971  1.00  0.00     0.053 A 
ATOM     19  N   UNL A   1      31.194  27.715  27.654  1.00  0.00    -0.183 NA
ATOM     20  N   UNL A   1      32.304  28.430  27.876  1.00  0.00    -0.281 N 
ATOM     21  C   UNL A   1      34.606  28.890  27.090  1.00  0.00     0.067 C 
ATOM     22  H   UNL A   1      32.394  29.068  28.622  1.00  0.00     0.190 HD
ENDBRANCH  13  16
ENDBRANCH  11  13
ENDBRANCH  10  11
ENDBRANCH   3   5
ENDBRANCH   2   3
ENDBRANCH   1   2
BRANCH   1  23
ATOM     23  C   UNL A   1      37.876  22.048  25.711  1.00  0.00     0.275 C 
BRANCH  23  24
ATOM     24  O   UNL A   1      38.658  23.159  26.141  1.00  0.00    -0.458 OA
BRANCH  24  25
ATOM     25  C   UNL A   1      39.789  22.908  26.841  1.00  0.00     0.338 C 
ATOM     26  O   UNL A   1      40.152  21.854  27.330  1.00  0.00    -0.246 OA
BRANCH  25  27
ATOM     27  C   UNL A   1      40.434  24.205  27.099  1.00  0.00     0.060 A 
ATOM     28  C   UNL A   1      41.303  24.303  28.189  1.00  0.00     0.016 A 
ATOM     29  C   UNL A   1      39.993  25.342  26.405  1.00  0.00     0.016 A 
ATOM     30  C   UNL A   1      41.565  25.556  28.703  1.00  0.00     0.010 A 
ATOM     31  C   UNL A   1      40.232  26.585  26.928  1.00  0.00     0.010 A 
ATOM     32  C   UNL A   1      40.950  26.667  28.113  1.00  0.00    -0.014 A 
BRANCH  32  33
ATOM     33  C   UNL A   1      41.118  27.963  28.728  1.00  0.00     0.031 A 
ATOM     34  C   UNL A   1      42.366  28.637  28.310  1.00  0.00     0.074 A 
ATOM     35  C   UNL A   1      40.154  28.512  29.491  1.00  0.00     0.049 A 
ATOM     36  N   UNL A   1      43.403  28.885  29.034  1.00  0.00    -0.248 NA
ATOM     37  C   UNL A   1      42.553  28.915  26.877  1.00  0.00     0.031 C 
ATOM     38  C   UNL A   1      38.777  28.039  29.678  1.00  0.00     0.029 A 
ATOM     39  N   UNL A   1      40.178  29.671  30.201  1.00  0.00    -0.354 N 
ATOM     40  C   UNL A   1      44.295  29.545  28.194  1.00  0.00     0.074 A 
ATOM     41  C   UNL A   1      43.809  29.363  26.854  1.00  0.00     0.031 C 
ATOM     42  C   UNL A   1      38.045  29.013  30.267  1.00  0.00     0.029 A 
ATOM     43  C   UNL A   1      38.930  30.105  30.626  1.00  0.00     0.049 A 
ATOM     44  H   UNL A   1      41.009  30.162  30.395  1.00  0.00     0.167 HD
ATOM     45  C   UNL A   1      45.183  30.436  28.711  1.00  0.00     0.037 A 
ATOM     46  C   UNL A   1      38.653  31.313  31.175  1.00  0.00     0.037 A 
ATOM     47  C   UNL A   1      45.324  30.239  30.132  1.00  0.00     0.049 A 
ATOM     48  C   UNL A   1      39.930  31.860  31.694  1.00  0.00     0.074 A 
ATOM     49  C   UNL A   1      45.849  29.262  30.949  1.00  0.00     0.029 A 
ATOM     50  N   UNL A   1      44.485  31.001  30.902  1.00  0.00    -0.354 N 
ATOM     51  N   UNL A   1      40.600  31.324  32.679  1.00  0.00    -0.248 NA
ATOM     52  C   UNL A   1      40.688  32.776  30.855  1.00  0.00     0.031 C 
ATOM     53  C   UNL A   1      45.054  29.287  32.135  1.00  0.00     0.029 A 
ATOM     54  C   UNL A   1      44.110  30.310  32.020  1.00  0.00     0.049 A 
ATOM     55  H   UNL A   1      44.196  31.916  30.682  1.00  0.00     0.167 HD
ATOM     56  C   UNL A   1      41.931  31.497  32.336  1.00  0.00     0.074 A 
ATOM     57  C   UNL A   1      41.922  32.520  31.297  1.00  0.00     0.031 C 
ATOM     58  C   UNL A   1      42.869  30.579  32.716  1.00  0.00     0.037 A 
BRANCH  45  59
ATOM     59  C   UNL A   1      45.505  31.774  28.072  1.00  0.00     0.064 A 
ATOM     60  C   UNL A   1      44.438  32.644  27.763  1.00  0.00     0.173 A 
ATOM     61  C   UNL A   1      46.736  32.084  27.453  1.00  0.00     0.173 A 
ATOM     62  F   UNL A   1      43.217  32.438  28.278  1.00  0.00    -0.203 F 
ATOM     63  C   UNL A   1      44.573  33.680  26.834  1.00  0.00     0.198 A 
ATOM     64  C   UNL A   1      46.878  33.150  26.564  1.00  0.00     0.198 A 
ATOM     65  F   UNL A   1      47.821  31.314  27.578  1.00  0.00    -0.203 F 
ATOM     66  F   UNL A   1      43.498  34.391  26.470  1.00  0.00    -0.200 F 
ATOM     67  C   UNL A   1      45.791  33.925  26.228  1.00  0.00     0.200 A 
ATOM     68  F   UNL A   1      48.063  33.355  25.970  1.00  0.00    -0.200 F 
ATOM     69  F   UNL A   1      45.908  34.871  25.287  1.00  0.00    -0.200 F 
ENDBRANCH  45  59
BRANCH  46  70
ATOM     70  C   UNL A   1      37.454  32.152  30.937  1.00  0.00     0.064 A 
ATOM     71  C   UNL A   1      37.216  32.767  29.697  1.00  0.00     0.173 A 
ATOM     72  C   UNL A   1      36.377  32.142  31.846  1.00  0.00     0.173 A 
ATOM     73  F   UNL A   1      38.169  32.767  28.753  1.00  0.00    -0.203 F 
ATOM     74  C   UNL A   1      35.973  33.330  29.384  1.00  0.00     0.198 A 
ATOM     75  C   UNL A   1      35.139  32.706  31.534  1.00  0.00     0.198 A 
ATOM     76  F   UNL A   1      36.475  31.498  33.018  1.00  0.00    -0.203 F 
ATOM     77  F   UNL A   1      35.764  33.860  28.171  1.00  0.00    -0.200 F 
ATOM     78  C   UNL A   1      34.934  33.292  30.300  1.00  0.00     0.200 A 
ATOM     79  F   UNL A   1      34.130  32.622  32.414  1.00  0.00    -0.200 F 
ATOM     80  F   UNL A   1      33.727  33.780  29.981  1.00  0.00    -0.200 F 
ENDBRANCH  46  70
BRANCH  58  81
ATOM     81  C   UNL A   1      42.512  29.647  33.839  1.00  0.00     0.064 A 
ATOM     82  C   UNL A   1      41.898  28.396  33.671  1.00  0.00     0.173 A 
ATOM     83  C   UNL A   1      42.942  29.991  35.127  1.00  0.00     0.173 A 
ATOM     84  F   UNL A   1      41.534  27.962  32.457  1.00  0.00    -0.203 F 
ATOM     85  C   UNL A   1      41.702  27.541  34.755  1.00  0.00     0.198 A 
ATOM     86  C   UNL A   1      42.779  29.121  36.199  1.00  0.00     0.198 A 
ATOM     87  F   UNL A   1      43.575  31.157  35.334  1.00  0.00    -0.203 F 
ATOM     88  F   UNL A   1      41.109  26.351  34.575  1.00  0.00    -0.200 F 
ATOM     89  C   UNL A   1      42.153  27.899  36.015  1.00  0.00     0.200 A 
ATOM     90  F   UNL A   1      43.260  29.454  37.405  1.00  0.00    -0.200 F 
ATOM     91  F   UNL A   1      42.008  27.058  37.049  1.00  0.00    -0.200 F 
ENDBRANCH  58  81
ENDBRANCH  32  33
ENDBRANCH  25  27
ENDBRANCH  24  25
ENDBRANCH  23  24
ENDBRANCH   1  23
TORSDOF 14
ENDMDL
MODEL 2
REMARK VINA RESULT:     -12.0      3.110      8.615
REMARK SMILES Cc1nsc(N(C)S(=O)(=O)c2cn[nH]c2C)c1C(=O)OCCOC(=O)c1ccc(-c2c3nc(c(-c4c(F)c(F)c(F)c(F)c4F)c4ccc([nH]4)c(-c4c(F)c(F)c(F)c(F)c4F)c4nc(c(-c5c(F)c(F)c(F)c(F)c5F)c5ccc2[nH]5)C=C4)C=C3)cc1
REMARK SMILES IDX 21 1 20 2 18 3 19 4 17 5 1 6 2 7 3 8 4 9 5 10 6 11 7 12 8 13
REMARK SMILES IDX 9 14 10 15 11 16 12 17 15 18 13 19 14 20 16 21 22 23 23 24
REMARK SMILES IDX 24 25 25 26 26 27 27 28 88 29 28 30 87 31 29 32 30 33 31 34
REMARK SMILES IDX 81 35 32 36 86 37 80 38 82 39 33 40 85 41 79 42 78 43 34 45
REMARK SMILES IDX 66 46 46 47 65 48 47 49 50 50 64 51 83 52 48 53 49 54 63 56
REMARK SMILES IDX 84 57 51 58 35 59 36 60 44 61 37 62 38 63 42 64 45 65 39 66
REMARK SMILES IDX 40 67 43 68 41 69 67 70 68 71 76 72 69 73 70 74 74 75 77 76
REMARK SMILES IDX 71 77 72 78 75 79 73 80 52 81 53 82 61 83 54 84 55 85 59 86
REMARK SMILES IDX 62 87 56 88 57 89 60 90 58 91
REMARK H PARENT 14 22 82 44 50 55
REMARK Flexibility Score: inf
ROOT
ATOM      1  C   UNL A   1      32.460  29.693  26.896  1.00  0.00     0.275 C 
ENDROOT
BRANCH   1   2
ATOM      2  O   UNL A   1      31.766  29.992  25.681  1.00  0.00    -0.458 OA
BRANCH   2   3
ATOM      3  C   UNL A   1      32.036  29.258  24.570  1.00  0.00     0.343 C 
ATOM      4  O   UNL A   1      33.044  29.385  23.882  1.00  0.00    -0.246 OA
BRANCH   3   5
ATOM      5  C   UNL A   1      30.947  28.345  24.269  1.00  0.00     0.118 A 
ATOM      6  C   UNL A   1      29.442  30.207  23.115  1.00  0.00     0.069 C 
ATOM      7  C   UNL A   1      29.745  28.818  23.581  1.00  0.00     0.068 A 
ATOM      8  N   UNL A   1      28.826  27.901  23.301  1.00  0.00    -0.195 NA
ATOM      9  S   UNL A   1      29.283  26.478  23.951  1.00  0.00    -0.017 S 
ATOM     10  C   UNL A   1      30.827  26.982  24.578  1.00  0.00     0.140 A 
BRANCH  10  11
ATOM     11  N   UNL A   1      31.643  26.009  25.332  1.00  0.00    -0.258 N 
ATOM     12  C   UNL A   1      30.972  25.167  26.348  1.00  0.00     0.165 C 
BRANCH  11  13
ATOM     13  S   UNL A   1      33.066  25.370  24.660  1.00  0.00     0.268 S 
ATOM     14  O   UNL A   1      34.100  26.379  24.740  1.00  0.00    -0.201 OA
ATOM     15  O   UNL A   1      33.237  24.024  25.160  1.00  0.00    -0.201 OA
BRANCH  13  16
ATOM     16  C   UNL A   1      32.978  25.082  22.948  1.00  0.00     0.128 A 
ATOM     17  C   UNL A   1      33.259  25.979  21.901  1.00  0.00     0.157 A 
ATOM     18  C   UNL A   1      32.741  23.874  22.301  1.00  0.00     0.053 A 
ATOM     19  N   UNL A   1      33.157  25.417  20.693  1.00  0.00    -0.183 NA
ATOM     20  N   UNL A   1      32.880  24.136  20.965  1.00  0.00    -0.281 N 
ATOM     21  C   UNL A   1      32.454  22.497  22.770  1.00  0.00     0.067 C 
ATOM     22  H   UNL A   1      32.786  23.445  20.268  1.00  0.00     0.190 HD
ENDBRANCH  13  16
ENDBRANCH  11  13
ENDBRANCH  10  11
ENDBRANCH   3   5
ENDBRANCH   2   3
ENDBRANCH   1   2
BRANCH   1  23
ATOM     23  C   UNL A   1      33.299  30.915  27.244  1.00  0.00     0.275 C 
BRANCH  23  24
ATOM     24  O   UNL A   1      34.658  30.531  27.439  1.00  0.00    -0.458 OA
BRANCH  24  25
ATOM     25  C   UNL A   1      35.539  31.484  27.821  1.00  0.00     0.338 C 
ATOM     26  O   UNL A   1      35.555  32.661  27.512  1.00  0.00    -0.246 OA
BRANCH  25  27
ATOM     27  C   UNL A   1      36.632  30.801  28.531  1.00  0.00     0.060 A 
ATOM     28  C   UNL A   1      37.666  31.581  29.056  1.00  0.00     0.016 A 
ATOM     29  C   UNL A   1      36.727  29.403  28.463  1.00  0.00     0.016 A 
ATOM     30  C   UNL A   1      38.873  30.970  29.324  1.00  0.00     0.010 A 
ATOM     31  C   UNL A   1      37.932  28.797  28.706  1.00  0.00     0.010 A 
ATOM     32  C   UNL A   1      39.007  29.602  29.057  1.00  0.00    -0.014 A 
BRANCH  32  33
ATOM     33  C   UNL A   1      40.305  28.987  29.213  1.00  0.00     0.031 A 
ATOM     34  C   UNL A   1      40.727  28.891  30.626  1.00  0.00     0.074 A 
ATOM     35  C   UNL A   1      40.964  28.457  28.165  1.00  0.00     0.049 A 
ATOM     36  N   UNL A   1      41.686  29.531  31.204  1.00  0.00    -0.248 NA
ATOM     37  C   UNL A   1      39.875  28.124  31.550  1.00  0.00     0.031 C 
ATOM     38  C   UNL A   1      40.460  28.235  26.804  1.00  0.00     0.029 A 
ATOM     39  N   UNL A   1      42.212  27.918  28.121  1.00  0.00    -0.354 N 
ATOM     40  C   UNL A   1      41.692  29.083  32.521  1.00  0.00     0.074 A 
ATOM     41  C   UNL A   1      40.456  28.380  32.723  1.00  0.00     0.031 C 
ATOM     42  C   UNL A   1      41.309  27.418  26.140  1.00  0.00     0.029 A 
ATOM     43  C   UNL A   1      42.475  27.186  26.971  1.00  0.00     0.049 A 
ATOM     44  H   UNL A   1      42.871  28.038  28.842  1.00  0.00     0.167 HD
ATOM     45  C   UNL A   1      42.852  29.075  33.230  1.00  0.00     0.037 A 
ATOM     46  C   UNL A   1      43.555  26.393  26.765  1.00  0.00     0.037 A 
ATOM     47  C   UNL A   1      43.829  29.934  32.608  1.00  0.00     0.049 A 
ATOM     48  C   UNL A   1      44.606  26.831  27.715  1.00  0.00     0.074 A 
ATOM     49  C   UNL A   1      43.974  31.290  32.412  1.00  0.00     0.029 A 
ATOM     50  N   UNL A   1      44.657  29.307  31.713  1.00  0.00    -0.354 N 
ATOM     51  N   UNL A   1      45.185  28.001  27.667  1.00  0.00    -0.248 NA
ATOM     52  C   UNL A   1      44.736  26.127  28.983  1.00  0.00     0.031 C 
ATOM     53  C   UNL A   1      44.671  31.425  31.173  1.00  0.00     0.029 A 
ATOM     54  C   UNL A   1      44.971  30.151  30.686  1.00  0.00     0.049 A 
ATOM     55  H   UNL A   1      44.980  28.381  31.800  1.00  0.00     0.167 HD
ATOM     56  C   UNL A   1      45.376  28.356  28.992  1.00  0.00     0.074 A 
ATOM     57  C   UNL A   1      45.226  27.113  29.740  1.00  0.00     0.031 C 
ATOM     58  C   UNL A   1      45.337  29.668  29.371  1.00  0.00     0.037 A 
BRANCH  45  59
ATOM     59  C   UNL A   1      43.280  27.935  34.136  1.00  0.00     0.064 A 
ATOM     60  C   UNL A   1      43.443  26.653  33.571  1.00  0.00     0.173 A 
ATOM     61  C   UNL A   1      43.201  27.968  35.546  1.00  0.00     0.173 A 
ATOM     62  F   UNL A   1      43.512  26.497  32.240  1.00  0.00    -0.203 F 
ATOM     63  C   UNL A   1      43.429  25.492  34.350  1.00  0.00     0.198 A 
ATOM     64  C   UNL A   1      43.238  26.810  36.324  1.00  0.00     0.198 A 
ATOM     65  F   UNL A   1      42.966  29.092  36.230  1.00  0.00    -0.203 F 
ATOM     66  F   UNL A   1      43.448  24.292  33.756  1.00  0.00    -0.200 F 
ATOM     67  C   UNL A   1      43.317  25.572  35.725  1.00  0.00     0.200 A 
ATOM     68  F   UNL A   1      43.103  26.909  37.655  1.00  0.00    -0.200 F 
ATOM     69  F   UNL A   1      43.234  24.462  36.469  1.00  0.00    -0.200 F 
ENDBRANCH  45  59
BRANCH  46  70
ATOM     70  C   UNL A   1      43.585  25.079  26.079  1.00  0.00     0.064 A 
ATOM     71  C   UNL A   1      44.553  24.774  25.109  1.00  0.00     0.173 A 
ATOM     72  C   UNL A   1      42.822  23.998  26.563  1.00  0.00     0.173 A 
ATOM     73  F   UNL A   1      45.361  25.736  24.639  1.00  0.00    -0.203 F 
ATOM     74  C   UNL A   1      44.751  23.463  24.657  1.00  0.00     0.198 A 
ATOM     75  C   UNL A   1      43.018  22.692  26.111  1.00  0.00     0.198 A 
ATOM     76  F   UNL A   1      41.939  24.172  27.557  1.00  0.00    -0.203 F 
ATOM     77  F   UNL A   1      45.720  23.199  23.771  1.00  0.00    -0.200 F 
ATOM     78  C   UNL A   1      43.988  22.423  25.165  1.00  0.00     0.200 A 
ATOM     79  F   UNL A   1      42.304  21.690  26.643  1.00  0.00    -0.200 F 
ATOM     80  F   UNL A   1      44.215  21.160  24.776  1.00  0.00    -0.200 F 
ENDBRANCH  46  70
BRANCH  58  81
ATOM     81  C   UNL A   1      45.512  30.704  28.298  1.00  0.00     0.064 A 
ATOM     82  C   UNL A   1      44.462  31.265  27.553  1.00  0.00     0.173 A 
ATOM     83  C   UNL A   1      46.793  31.244  28.122  1.00  0.00     0.173 A 
ATOM     84  F   UNL A   1      43.198  30.858  27.726  1.00  0.00    -0.203 F 
ATOM     85  C   UNL A   1      44.695  32.305  26.654  1.00  0.00     0.198 A 
ATOM     86  C   UNL A   1      47.016  32.305  27.252  1.00  0.00     0.198 A 
ATOM     87  F   UNL A   1      47.824  30.775  28.843  1.00  0.00    -0.203 F 
ATOM     88  F   UNL A   1      43.680  32.824  25.948  1.00  0.00    -0.200 F 
ATOM     89  C   UNL A   1      45.969  32.831  26.512  1.00  0.00     0.200 A 
ATOM     90  F   UNL A   1      48.240  32.840  27.156  1.00  0.00    -0.200 F 
ATOM     91  F   UNL A   1      46.186  33.862  25.683  1.00  0.00    -0.200 F 
ENDBRANCH  58  81
ENDBRANCH  32  33
ENDBRANCH  25  27
ENDBRANCH  24  25
ENDBRANCH  23  24
ENDBRANCH   1  23
TORSDOF 14
ENDMDL
MODEL 3
REMARK VINA RESULT:     -11.7      1.519      2.151
REMARK SMILES Cc1nsc(N(C)S(=O)(=O)c2cn[nH]c2C)c1C(=O)OCCOC(=O)c1ccc(-c2c3nc(c(-c4c(F)c(F)c(F)c(F)c4F)c4ccc([nH]4)c(-c4c(F)c(F)c(F)c(F)c4F)c4nc(c(-c5c(F)c(F)c(F)c(F)c5F)c5ccc2[nH]5)C=C4)C=C3)cc1
REMARK SMILES IDX 21 1 20 2 18 3 19 4 17 5 1 6 2 7 3 8 4 9 5 10 6 11 7 12 8 13
REMARK SMILES IDX 9 14 10 15 11 16 12 17 15 18 13 19 14 20 16 21 22 23 23 24
REMARK SMILES IDX 24 25 25 26 26 27 27 28 88 29 28 30 87 31 29 32 30 33 31 34
REMARK SMILES IDX 81 35 32 36 86 37 80 38 82 39 33 40 85 41 79 42 78 43 34 45
REMARK SMILES IDX 66 46 46 47 65 48 47 49 50 50 64 51 83 52 48 53 49 54 63 56
REMARK SMILES IDX 84 57 51 58 35 59 36 60 44 61 37 62 38 63 42 64 45 65 39 66
REMARK SMILES IDX 40 67 43 68 41 69 67 70 68 71 76 72 69 73 70 74 74 75 77 76
REMARK SMILES IDX 71 77 72 78 75 79 73 80 52 81 53 82 61 83 54 84 55 85 59 86
REMARK SMILES IDX 62 87 56 88 57 89 60 90 58 91
REMARK H PARENT 14 22 82 44 50 55
REMARK Flexibility Score: inf
ROOT
ATOM      1  C   UNL A   1      36.854  21.448  24.780  1.00  0.00     0.275 C 
ENDROOT
BRANCH   1   2
ATOM      2  O   UNL A   1      35.885  20.571  25.365  1.00  0.00    -0.458 OA
BRANCH   2   3
ATOM      3  C   UNL A   1      34.700  21.085  25.784  1.00  0.00     0.343 C 
ATOM      4  O   UNL A   1      34.460  21.430  26.937  1.00  0.00    -0.246 OA
BRANCH   3   5
ATOM      5  C   UNL A   1      33.733  21.116  24.700  1.00  0.00     0.118 A 
ATOM      6  C   UNL A   1      33.224  18.510  24.815  1.00  0.00     0.069 C 
ATOM      7  C   UNL A   1      33.052  19.893  24.271  1.00  0.00     0.068 A 
ATOM      8  N   UNL A   1      32.147  20.028  23.309  1.00  0.00    -0.195 NA
ATOM      9  S   UNL A   1      32.155  21.572  22.787  1.00  0.00    -0.017 S 
ATOM     10  C   UNL A   1      33.329  22.201  23.909  1.00  0.00     0.140 A 
BRANCH  10  11
ATOM     11  N   UNL A   1      33.729  23.619  23.801  1.00  0.00    -0.258 N 
ATOM     12  C   UNL A   1      34.903  23.956  22.964  1.00  0.00     0.165 C 
BRANCH  11  13
ATOM     13  S   UNL A   1      32.589  24.858  24.015  1.00  0.00     0.268 S 
ATOM     14  O   UNL A   1      33.267  26.011  24.566  1.00  0.00    -0.201 OA
ATOM     15  O   UNL A   1      31.762  24.921  22.829  1.00  0.00    -0.201 OA
BRANCH  13  16
ATOM     16  C   UNL A   1      31.397  24.526  25.236  1.00  0.00     0.128 A 
ATOM     17  C   UNL A   1      31.480  23.617  26.306  1.00  0.00     0.157 A 
ATOM     18  C   UNL A   1      30.196  25.193  25.455  1.00  0.00     0.053 A 
ATOM     19  N   UNL A   1      30.409  23.654  27.105  1.00  0.00    -0.183 NA
ATOM     20  N   UNL A   1      29.667  24.641  26.589  1.00  0.00    -0.281 N 
ATOM     21  C   UNL A   1      29.505  26.313  24.771  1.00  0.00     0.067 C 
ATOM     22  H   UNL A   1      28.819  24.944  26.990  1.00  0.00     0.190 HD
ENDBRANCH  13  16
ENDBRANCH  11  13
ENDBRANCH  10  11
ENDBRANCH   3   5
ENDBRANCH   2   3
ENDBRANCH   1   2
BRANCH   1  23
ATOM     23  C   UNL A   1      38.199  21.112  25.409  1.00  0.00     0.275 C 
BRANCH  23  24
ATOM     24  O   UNL A   1      38.938  22.309  25.642  1.00  0.00    -0.458 OA
BRANCH  24  25
ATOM     25  C   UNL A   1      40.101  22.215  26.328  1.00  0.00     0.338 C 
ATOM     26  O   UNL A   1      40.909  21.305  26.317  1.00  0.00    -0.246 OA
BRANCH  25  27
ATOM     27  C   UNL A   1      40.134  23.339  27.277  1.00  0.00     0.060 A 
ATOM     28  C   UNL A   1      39.112  24.289  27.210  1.00  0.00     0.016 A 
ATOM     29  C   UNL A   1      41.286  23.551  28.050  1.00  0.00     0.016 A 
ATOM     30  C   UNL A   1      39.341  25.534  27.759  1.00  0.00     0.010 A 
ATOM     31  C   UNL A   1      41.526  24.793  28.575  1.00  0.00     0.010 A 
ATOM     32  C   UNL A   1      40.583  25.788  28.353  1.00  0.00    -0.014 A 
BRANCH  32  33
ATOM     33  C   UNL A   1      40.874  27.127  28.811  1.00  0.00     0.031 A 
ATOM     34  C   UNL A   1      42.109  27.679  28.217  1.00  0.00     0.074 A 
ATOM     35  C   UNL A   1      40.014  27.805  29.594  1.00  0.00     0.049 A 
ATOM     36  N   UNL A   1      43.221  27.936  28.816  1.00  0.00    -0.248 NA
ATOM     37  C   UNL A   1      42.176  27.801  26.751  1.00  0.00     0.031 C 
ATOM     38  C   UNL A   1      38.639  27.437  29.951  1.00  0.00     0.029 A 
ATOM     39  N   UNL A   1      40.164  29.027  30.173  1.00  0.00    -0.354 N 
ATOM     40  C   UNL A   1      44.063  28.454  27.836  1.00  0.00     0.074 A 
ATOM     41  C   UNL A   1      43.444  28.168  26.571  1.00  0.00     0.031 C 
ATOM     42  C   UNL A   1      38.015  28.507  30.496  1.00  0.00     0.029 A 
ATOM     43  C   UNL A   1      38.984  29.574  30.659  1.00  0.00     0.049 A 
ATOM     44  H   UNL A   1      41.033  29.483  30.241  1.00  0.00     0.167 HD
ATOM     45  C   UNL A   1      45.039  29.337  28.176  1.00  0.00     0.037 A 
ATOM     46  C   UNL A   1      38.822  30.846  31.101  1.00  0.00     0.037 A 
ATOM     47  C   UNL A   1      45.303  29.274  29.592  1.00  0.00     0.049 A 
ATOM     48  C   UNL A   1      40.168  31.364  31.445  1.00  0.00     0.074 A 
ATOM     49  C   UNL A   1      45.851  28.354  30.458  1.00  0.00     0.029 A 
ATOM     50  N   UNL A   1      44.580  30.159  30.350  1.00  0.00    -0.354 N 
ATOM     51  N   UNL A   1      40.900  30.890  32.418  1.00  0.00    -0.248 NA
ATOM     52  C   UNL A   1      40.890  32.145  30.451  1.00  0.00     0.031 C 
ATOM     53  C   UNL A   1      45.174  28.545  31.700  1.00  0.00     0.029 A 
ATOM     54  C   UNL A   1      44.276  29.606  31.562  1.00  0.00     0.049 A 
ATOM     55  H   UNL A   1      44.318  31.062  30.061  1.00  0.00     0.167 HD
ATOM     56  C   UNL A   1      42.199  30.947  31.943  1.00  0.00     0.074 A 
ATOM     57  C   UNL A   1      42.145  31.861  30.806  1.00  0.00     0.031 C 
ATOM     58  C   UNL A   1      43.121  30.018  32.333  1.00  0.00     0.037 A 
BRANCH  45  59
ATOM     59  C   UNL A   1      45.368  30.583  27.375  1.00  0.00     0.064 A 
ATOM     60  C   UNL A   1      46.720  30.850  27.076  1.00  0.00     0.173 A 
ATOM     61  C   UNL A   1      44.484  31.669  27.196  1.00  0.00     0.173 A 
ATOM     62  F   UNL A   1      47.655  29.898  27.226  1.00  0.00    -0.203 F 
ATOM     63  C   UNL A   1      47.162  32.128  26.719  1.00  0.00     0.198 A 
ATOM     64  C   UNL A   1      44.921  32.930  26.792  1.00  0.00     0.198 A 
ATOM     65  F   UNL A   1      43.186  31.604  27.512  1.00  0.00    -0.203 F 
ATOM     66  F   UNL A   1      48.473  32.364  26.579  1.00  0.00    -0.200 F 
ATOM     67  C   UNL A   1      46.263  33.169  26.587  1.00  0.00     0.200 A 
ATOM     68  F   UNL A   1      44.035  33.933  26.693  1.00  0.00    -0.200 F 
ATOM     69  F   UNL A   1      46.688  34.409  26.314  1.00  0.00    -0.200 F 
ENDBRANCH  45  59
BRANCH  46  70
ATOM     70  C   UNL A   1      37.650  31.727  30.882  1.00  0.00     0.064 A 
ATOM     71  C   UNL A   1      37.305  32.195  29.604  1.00  0.00     0.173 A 
ATOM     72  C   UNL A   1      36.685  31.905  31.894  1.00  0.00     0.173 A 
ATOM     73  F   UNL A   1      38.142  32.012  28.573  1.00  0.00    -0.203 F 
ATOM     74  C   UNL A   1      36.066  32.797  29.353  1.00  0.00     0.198 A 
ATOM     75  C   UNL A   1      35.451  32.508  31.644  1.00  0.00     0.198 A 
ATOM     76  F   UNL A   1      36.882  31.408  33.124  1.00  0.00    -0.203 F 
ATOM     77  F   UNL A   1      35.748  33.184  28.110  1.00  0.00    -0.200 F 
ATOM     78  C   UNL A   1      35.138  32.946  30.372  1.00  0.00     0.200 A 
ATOM     79  F   UNL A   1      34.547  32.604  32.629  1.00  0.00    -0.200 F 
ATOM     80  F   UNL A   1      33.930  33.470  30.121  1.00  0.00    -0.200 F 
ENDBRANCH  46  70
BRANCH  58  81
ATOM     81  C   UNL A   1      42.824  29.226  33.574  1.00  0.00     0.064 A 
ATOM     82  C   UNL A   1      42.120  28.011  33.595  1.00  0.00     0.173 A 
ATOM     83  C   UNL A   1      43.405  29.660  34.773  1.00  0.00     0.173 A 
ATOM     84  F   UNL A   1      41.607  27.490  32.473  1.00  0.00    -0.203 F 
ATOM     85  C   UNL A   1      41.984  27.280  34.775  1.00  0.00     0.198 A 
ATOM     86  C   UNL A   1      43.300  28.911  35.939  1.00  0.00     0.198 A 
ATOM     87  F   UNL A   1      44.128  30.791  34.798  1.00  0.00    -0.203 F 
ATOM     88  F   UNL A   1      41.303  26.125  34.776  1.00  0.00    -0.200 F 
ATOM     89  C   UNL A   1      42.583  27.725  35.943  1.00  0.00     0.200 A 
ATOM     90  F   UNL A   1      43.921  29.322  37.053  1.00  0.00    -0.200 F 
ATOM     91  F   UNL A   1      42.494  26.999  37.066  1.00  0.00    -0.200 F 
ENDBRANCH  58  81
ENDBRANCH  32  33
ENDBRANCH  25  27
ENDBRANCH  24  25
ENDBRANCH  23  24
ENDBRANCH   1  23
TORSDOF 14
ENDMDL
