MODEL 1
REMARK VINA RESULT:     -12.5      0.000      0.000
REMARK SMILES C[C@@H](NC(=O)c1cc(C(=O)OCCOC(=O)c2ccc(-c3c4nc(c(-c5c(F)c(F)c(F)c(F)c5F)c5ccc([nH]5)c(-c5c(F)c(F)c(F)c(F)c5F)c5nc(c(-c6c(F)c(F)c(F)c(F)c6F)c6ccc3[nH]6)C=C5)C=C4)cc2)n(C)n1)c1ccccc1
REMARK SMILES IDX 12 1 11 2 9 3 10 4 8 5 6 6 7 7 82 8 80 9 81 10 4 11 3 12
REMARK SMILES IDX 5 14 2 15 1 16 83 17 84 18 88 19 85 20 87 21 86 22 13 23
REMARK SMILES IDX 14 24 15 25 16 26 17 27 18 28 79 29 19 30 78 31 20 32 21 33
REMARK SMILES IDX 22 34 72 35 23 36 77 37 71 38 73 39 24 40 76 41 70 42 69 43
REMARK SMILES IDX 25 45 57 46 37 47 56 48 38 49 41 50 55 51 74 52 39 53 40 54
REMARK SMILES IDX 54 56 75 57 42 58 26 59 27 60 35 61 28 62 29 63 33 64 36 65
REMARK SMILES IDX 30 66 31 67 34 68 32 69 58 70 59 71 67 72 60 73 61 74 65 75
REMARK SMILES IDX 68 76 62 77 63 78 66 79 64 80 43 81 44 82 52 83 45 84 46 85
REMARK SMILES IDX 50 86 53 87 47 88 48 89 51 90 49 91
REMARK H PARENT 3 13 73 44 41 55
REMARK Flexibility Score: inf
ROOT
ATOM      1  C   UNL A   1      31.090  29.453  24.607  1.00  0.00     0.275 C 
ENDROOT
BRANCH   1   2
ATOM      2  O   UNL A   1      30.633  28.153  24.176  1.00  0.00    -0.457 OA
BRANCH   2   3
ATOM      3  C   UNL A   1      30.678  27.913  22.833  1.00  0.00     0.356 C 
ATOM      4  O   UNL A   1      29.992  28.483  22.003  1.00  0.00    -0.244 OA
BRANCH   3   5
ATOM      5  C   UNL A   1      31.727  26.977  22.511  1.00  0.00     0.146 A 
ATOM      6  C   UNL A   1      32.859  25.110  21.995  1.00  0.00     0.151 A 
ATOM      7  C   UNL A   1      31.591  25.600  22.379  1.00  0.00     0.071 A 
ATOM      8  N   UNL A   1      33.768  26.097  22.022  1.00  0.00    -0.167 NA
ATOM      9  N   UNL A   1      33.059  27.214  22.282  1.00  0.00    -0.260 N 
ATOM     10  C   UNL A   1      33.810  28.444  22.379  1.00  0.00     0.174 C 
BRANCH   6  11
ATOM     11  C   UNL A   1      33.243  23.743  21.641  1.00  0.00     0.272 C 
ATOM     12  N   UNL A   1      33.544  22.838  22.636  1.00  0.00    -0.344 N 
ATOM     13  H   UNL A   1      33.497  21.895  22.357  1.00  0.00     0.164 HD
ATOM     14  O   UNL A   1      33.278  23.353  20.474  1.00  0.00    -0.267 OA
BRANCH  12  15
ATOM     15  C   UNL A   1      33.921  23.039  24.035  1.00  0.00     0.109 C 
ATOM     16  C   UNL A   1      34.783  21.867  24.515  1.00  0.00     0.036 C 
BRANCH  15  17
ATOM     17  C   UNL A   1      32.772  23.252  24.998  1.00  0.00    -0.026 A 
ATOM     18  C   UNL A   1      31.775  22.290  25.201  1.00  0.00     0.006 A 
ATOM     19  C   UNL A   1      32.681  24.464  25.698  1.00  0.00     0.006 A 
ATOM     20  C   UNL A   1      30.669  22.576  26.005  1.00  0.00     0.000 A 
ATOM     21  C   UNL A   1      31.573  24.753  26.495  1.00  0.00     0.000 A 
ATOM     22  C   UNL A   1      30.556  23.816  26.631  1.00  0.00     0.000 A 
ENDBRANCH  15  17
ENDBRANCH  12  15
ENDBRANCH   6  11
ENDBRANCH   3   5
ENDBRANCH   2   3
ENDBRANCH   1   2
BRANCH   1  23
ATOM     23  C   UNL A   1      31.741  29.361  25.988  1.00  0.00     0.275 C 
BRANCH  23  24
ATOM     24  O   UNL A   1      32.982  30.080  25.954  1.00  0.00    -0.458 OA
BRANCH  24  25
ATOM     25  C   UNL A   1      33.123  31.061  26.874  1.00  0.00     0.338 C 
ATOM     26  O   UNL A   1      32.308  31.932  27.126  1.00  0.00    -0.246 OA
BRANCH  25  27
ATOM     27  C   UNL A   1      34.391  30.856  27.626  1.00  0.00     0.060 A 
ATOM     28  C   UNL A   1      35.243  31.925  27.922  1.00  0.00     0.016 A 
ATOM     29  C   UNL A   1      34.785  29.559  27.967  1.00  0.00     0.016 A 
ATOM     30  C   UNL A   1      36.493  31.701  28.499  1.00  0.00     0.010 A 
ATOM     31  C   UNL A   1      36.005  29.346  28.625  1.00  0.00     0.010 A 
ATOM     32  C   UNL A   1      36.878  30.413  28.894  1.00  0.00    -0.014 A 
BRANCH  32  33
ATOM     33  C   UNL A   1      38.157  30.184  29.628  1.00  0.00     0.031 A 
ATOM     34  C   UNL A   1      39.228  29.294  29.054  1.00  0.00     0.074 A 
ATOM     35  C   UNL A   1      38.341  30.732  30.848  1.00  0.00     0.049 A 
ATOM     36  N   UNL A   1      40.264  28.757  29.648  1.00  0.00    -0.248 NA
ATOM     37  C   UNL A   1      39.115  28.955  27.628  1.00  0.00     0.031 C 
ATOM     38  C   UNL A   1      37.414  31.645  31.520  1.00  0.00     0.029 A 
ATOM     39  N   UNL A   1      39.368  30.585  31.752  1.00  0.00    -0.354 N 
ATOM     40  C   UNL A   1      40.885  27.962  28.692  1.00  0.00     0.074 A 
ATOM     41  C   UNL A   1      40.122  28.105  27.469  1.00  0.00     0.031 C 
ATOM     42  C   UNL A   1      37.916  31.988  32.715  1.00  0.00     0.029 A 
ATOM     43  C   UNL A   1      39.143  31.237  32.941  1.00  0.00     0.049 A 
ATOM     44  H   UNL A   1      40.182  30.065  31.565  1.00  0.00     0.167 HD
ATOM     45  C   UNL A   1      41.981  27.177  28.833  1.00  0.00     0.037 A 
ATOM     46  C   UNL A   1      39.803  31.188  34.114  1.00  0.00     0.037 A 
ATOM     47  C   UNL A   1      42.774  27.089  30.035  1.00  0.00     0.049 A 
ATOM     48  C   UNL A   1      41.000  30.292  34.249  1.00  0.00     0.074 A 
ATOM     49  C   UNL A   1      43.928  26.356  30.254  1.00  0.00     0.029 A 
ATOM     50  N   UNL A   1      42.504  27.766  31.215  1.00  0.00    -0.354 N 
ATOM     51  N   UNL A   1      41.549  29.506  33.357  1.00  0.00    -0.248 NA
ATOM     52  C   UNL A   1      41.657  30.260  35.563  1.00  0.00     0.031 C 
ATOM     53  C   UNL A   1      44.334  26.556  31.577  1.00  0.00     0.029 A 
ATOM     54  C   UNL A   1      43.462  27.453  32.168  1.00  0.00     0.049 A 
ATOM     55  H   UNL A   1      41.744  28.376  31.355  1.00  0.00     0.167 HD
ATOM     56  C   UNL A   1      42.622  28.899  33.993  1.00  0.00     0.074 A 
ATOM     57  C   UNL A   1      42.660  29.423  35.342  1.00  0.00     0.031 C 
ATOM     58  C   UNL A   1      43.493  27.986  33.504  1.00  0.00     0.037 A 
BRANCH  45  59
ATOM     59  C   UNL A   1      42.393  26.313  27.677  1.00  0.00     0.064 A 
ATOM     60  C   UNL A   1      43.434  26.674  26.812  1.00  0.00     0.173 A 
ATOM     61  C   UNL A   1      41.802  25.050  27.503  1.00  0.00     0.173 A 
ATOM     62  F   UNL A   1      44.025  27.871  26.930  1.00  0.00    -0.203 F 
ATOM     63  C   UNL A   1      43.868  25.804  25.813  1.00  0.00     0.198 A 
ATOM     64  C   UNL A   1      42.255  24.173  26.521  1.00  0.00     0.198 A 
ATOM     65  F   UNL A   1      40.806  24.653  28.310  1.00  0.00    -0.203 F 
ATOM     66  F   UNL A   1      44.853  26.176  24.985  1.00  0.00    -0.200 F 
ATOM     67  C   UNL A   1      43.287  24.551  25.676  1.00  0.00     0.200 A 
ATOM     68  F   UNL A   1      41.702  22.958  26.401  1.00  0.00    -0.200 F 
ATOM     69  F   UNL A   1      43.723  23.707  24.730  1.00  0.00    -0.200 F 
ENDBRANCH  45  59
BRANCH  46  70
ATOM     70  C   UNL A   1      39.299  31.962  35.279  1.00  0.00     0.064 A 
ATOM     71  C   UNL A   1      38.485  31.361  36.248  1.00  0.00     0.173 A 
ATOM     72  C   UNL A   1      39.617  33.319  35.443  1.00  0.00     0.173 A 
ATOM     73  F   UNL A   1      38.130  30.075  36.119  1.00  0.00    -0.203 F 
ATOM     74  C   UNL A   1      37.997  32.092  37.329  1.00  0.00     0.198 A 
ATOM     75  C   UNL A   1      39.158  34.039  36.543  1.00  0.00     0.198 A 
ATOM     76  F   UNL A   1      40.392  33.942  34.543  1.00  0.00    -0.203 F 
ATOM     77  F   UNL A   1      37.178  31.507  38.215  1.00  0.00    -0.200 F 
ATOM     78  C   UNL A   1      38.340  33.428  37.480  1.00  0.00     0.200 A 
ATOM     79  F   UNL A   1      39.507  35.324  36.693  1.00  0.00    -0.200 F 
ATOM     80  F   UNL A   1      37.876  34.127  38.524  1.00  0.00    -0.200 F 
ENDBRANCH  46  70
BRANCH  58  81
ATOM     81  C   UNL A   1      44.588  27.529  34.422  1.00  0.00     0.064 A 
ATOM     82  C   UNL A   1      45.808  28.216  34.511  1.00  0.00     0.173 A 
ATOM     83  C   UNL A   1      44.408  26.397  35.231  1.00  0.00     0.173 A 
ATOM     84  F   UNL A   1      46.034  29.292  33.744  1.00  0.00    -0.203 F 
ATOM     85  C   UNL A   1      46.819  27.768  35.358  1.00  0.00     0.198 A 
ATOM     86  C   UNL A   1      45.410  25.970  36.096  1.00  0.00     0.198 A 
ATOM     87  F   UNL A   1      43.257  25.709  35.185  1.00  0.00    -0.203 F 
ATOM     88  F   UNL A   1      47.995  28.409  35.390  1.00  0.00    -0.200 F 
ATOM     89  C   UNL A   1      46.617  26.649  36.153  1.00  0.00     0.200 A 
ATOM     90  F   UNL A   1      45.211  24.893  36.871  1.00  0.00    -0.200 F 
ATOM     91  F   UNL A   1      47.592  26.220  36.968  1.00  0.00    -0.200 F 
ENDBRANCH  58  81
ENDBRANCH  32  33
ENDBRANCH  25  27
ENDBRANCH  24  25
ENDBRANCH  23  24
ENDBRANCH   1  23
TORSDOF 14
ENDMDL
MODEL 2
REMARK VINA RESULT:     -12.4      1.262      2.400
REMARK SMILES C[C@@H](NC(=O)c1cc(C(=O)OCCOC(=O)c2ccc(-c3c4nc(c(-c5c(F)c(F)c(F)c(F)c5F)c5ccc([nH]5)c(-c5c(F)c(F)c(F)c(F)c5F)c5nc(c(-c6c(F)c(F)c(F)c(F)c6F)c6ccc3[nH]6)C=C5)C=C4)cc2)n(C)n1)c1ccccc1
REMARK SMILES IDX 12 1 11 2 9 3 10 4 8 5 6 6 7 7 82 8 80 9 81 10 4 11 3 12
REMARK SMILES IDX 5 14 2 15 1 16 83 17 84 18 88 19 85 20 87 21 86 22 13 23
REMARK SMILES IDX 14 24 15 25 16 26 17 27 18 28 79 29 19 30 78 31 20 32 21 33
REMARK SMILES IDX 22 34 72 35 23 36 77 37 71 38 73 39 24 40 76 41 70 42 69 43
REMARK SMILES IDX 25 45 57 46 37 47 56 48 38 49 41 50 55 51 74 52 39 53 40 54
REMARK SMILES IDX 54 56 75 57 42 58 26 59 27 60 35 61 28 62 29 63 33 64 36 65
REMARK SMILES IDX 30 66 31 67 34 68 32 69 58 70 59 71 67 72 60 73 61 74 65 75
REMARK SMILES IDX 68 76 62 77 63 78 66 79 64 80 43 81 44 82 52 83 45 84 46 85
REMARK SMILES IDX 50 86 53 87 47 88 48 89 51 90 49 91
REMARK H PARENT 3 13 73 44 41 55
REMARK Flexibility Score: inf
ROOT
ATOM      1  C   UNL A   1      31.777  28.668  26.316  1.00  0.00     0.275 C 
ENDROOT
BRANCH   1   2
ATOM      2  O   UNL A   1      33.073  28.111  26.005  1.00  0.00    -0.457 OA
BRANCH   2   3
ATOM      3  C   UNL A   1      33.153  27.370  24.863  1.00  0.00     0.356 C 
ATOM      4  O   UNL A   1      33.828  27.664  23.891  1.00  0.00    -0.244 OA
BRANCH   3   5
ATOM      5  C   UNL A   1      32.425  26.132  24.997  1.00  0.00     0.146 A 
ATOM      6  C   UNL A   1      31.698  24.131  25.704  1.00  0.00     0.151 A 
ATOM      7  C   UNL A   1      32.708  25.102  25.884  1.00  0.00     0.071 A 
ATOM      8  N   UNL A   1      30.911  24.466  24.669  1.00  0.00    -0.167 NA
ATOM      9  N   UNL A   1      31.332  25.691  24.295  1.00  0.00    -0.260 N 
ATOM     10  C   UNL A   1      30.648  26.290  23.173  1.00  0.00     0.174 C 
BRANCH   6  11
ATOM     11  C   UNL A   1      31.475  22.891  26.447  1.00  0.00     0.272 C 
ATOM     12  N   UNL A   1      32.066  21.722  26.019  1.00  0.00    -0.344 N 
ATOM     13  H   UNL A   1      32.124  21.019  26.706  1.00  0.00     0.164 HD
ATOM     14  O   UNL A   1      30.797  22.855  27.474  1.00  0.00    -0.267 OA
BRANCH  12  15
ATOM     15  C   UNL A   1      32.621  21.347  24.719  1.00  0.00     0.109 C 
ATOM     16  C   UNL A   1      32.424  19.846  24.483  1.00  0.00     0.036 C 
BRANCH  15  17
ATOM     17  C   UNL A   1      34.075  21.709  24.499  1.00  0.00    -0.026 A 
ATOM     18  C   UNL A   1      34.471  22.713  23.607  1.00  0.00     0.006 A 
ATOM     19  C   UNL A   1      35.070  21.002  25.191  1.00  0.00     0.006 A 
ATOM     20  C   UNL A   1      35.826  22.932  23.343  1.00  0.00     0.000 A 
ATOM     21  C   UNL A   1      36.422  21.215  24.922  1.00  0.00     0.000 A 
ATOM     22  C   UNL A   1      36.799  22.166  23.983  1.00  0.00     0.000 A 
ENDBRANCH  15  17
ENDBRANCH  12  15
ENDBRANCH   6  11
ENDBRANCH   3   5
ENDBRANCH   2   3
ENDBRANCH   1   2
BRANCH   1  23
ATOM     23  C   UNL A   1      31.727  30.149  25.942  1.00  0.00     0.275 C 
BRANCH  23  24
ATOM     24  O   UNL A   1      33.051  30.691  26.053  1.00  0.00    -0.458 OA
BRANCH  24  25
ATOM     25  C   UNL A   1      33.228  31.630  27.010  1.00  0.00     0.338 C 
ATOM     26  O   UNL A   1      32.444  32.517  27.301  1.00  0.00    -0.246 OA
BRANCH  25  27
ATOM     27  C   UNL A   1      34.493  31.354  27.745  1.00  0.00     0.060 A 
ATOM     28  C   UNL A   1      35.433  32.363  27.982  1.00  0.00     0.016 A 
ATOM     29  C   UNL A   1      34.792  30.044  28.131  1.00  0.00     0.016 A 
ATOM     30  C   UNL A   1      36.673  32.062  28.544  1.00  0.00     0.010 A 
ATOM     31  C   UNL A   1      36.005  29.760  28.774  1.00  0.00     0.010 A 
ATOM     32  C   UNL A   1      36.965  30.764  28.984  1.00  0.00    -0.014 A 
BRANCH  32  33
ATOM     33  C   UNL A   1      38.238  30.463  29.702  1.00  0.00     0.031 A 
ATOM     34  C   UNL A   1      39.265  29.541  29.099  1.00  0.00     0.074 A 
ATOM     35  C   UNL A   1      38.453  30.973  30.933  1.00  0.00     0.049 A 
ATOM     36  N   UNL A   1      40.280  28.945  29.673  1.00  0.00    -0.248 NA
ATOM     37  C   UNL A   1      39.128  29.240  27.666  1.00  0.00     0.031 C 
ATOM     38  C   UNL A   1      37.571  31.909  31.633  1.00  0.00     0.029 A 
ATOM     39  N   UNL A   1      39.479  30.761  31.825  1.00  0.00    -0.354 N 
ATOM     40  C   UNL A   1      40.859  28.147  28.694  1.00  0.00     0.074 A 
ATOM     41  C   UNL A   1      40.096  28.352  27.481  1.00  0.00     0.031 C 
ATOM     42  C   UNL A   1      38.096  32.202  32.831  1.00  0.00     0.029 A 
ATOM     43  C   UNL A   1      39.291  31.394  33.031  1.00  0.00     0.049 A 
ATOM     44  H   UNL A   1      40.268  30.210  31.620  1.00  0.00     0.167 HD
ATOM     45  C   UNL A   1      41.921  27.312  28.808  1.00  0.00     0.037 A 
ATOM     46  C   UNL A   1      39.956  31.289  34.197  1.00  0.00     0.037 A 
ATOM     47  C   UNL A   1      42.718  27.162  30.001  1.00  0.00     0.049 A 
ATOM     48  C   UNL A   1      41.114  30.338  34.302  1.00  0.00     0.074 A 
ATOM     49  C   UNL A   1      43.840  26.374  30.194  1.00  0.00     0.029 A 
ATOM     50  N   UNL A   1      42.485  27.821  31.199  1.00  0.00    -0.354 N 
ATOM     51  N   UNL A   1      41.621  29.551  33.387  1.00  0.00    -0.248 NA
ATOM     52  C   UNL A   1      41.778  30.247  35.610  1.00  0.00     0.031 C 
ATOM     53  C   UNL A   1      44.264  26.525  31.518  1.00  0.00     0.029 A 
ATOM     54  C   UNL A   1      43.435  27.446  32.136  1.00  0.00     0.049 A 
ATOM     55  H   UNL A   1      41.754  28.461  31.359  1.00  0.00     0.167 HD
ATOM     56  C   UNL A   1      42.671  28.883  34.002  1.00  0.00     0.074 A 
ATOM     57  C   UNL A   1      42.741  29.373  35.362  1.00  0.00     0.031 C 
ATOM     58  C   UNL A   1      43.499  27.945  33.485  1.00  0.00     0.037 A 
BRANCH  45  59
ATOM     59  C   UNL A   1      42.287  26.458  27.629  1.00  0.00     0.064 A 
ATOM     60  C   UNL A   1      43.305  26.819  26.736  1.00  0.00     0.173 A 
ATOM     61  C   UNL A   1      41.678  25.203  27.459  1.00  0.00     0.173 A 
ATOM     62  F   UNL A   1      43.912  28.009  26.850  1.00  0.00    -0.203 F 
ATOM     63  C   UNL A   1      43.697  25.958  25.713  1.00  0.00     0.198 A 
ATOM     64  C   UNL A   1      42.090  24.334  26.452  1.00  0.00     0.198 A 
ATOM     65  F   UNL A   1      40.704  24.807  28.292  1.00  0.00    -0.203 F 
ATOM     66  F   UNL A   1      44.660  26.330  24.859  1.00  0.00    -0.200 F 
ATOM     67  C   UNL A   1      43.099  24.712  25.579  1.00  0.00     0.200 A 
ATOM     68  F   UNL A   1      41.521  23.127  26.335  1.00  0.00    -0.200 F 
ATOM     69  F   UNL A   1      43.496  23.876  24.611  1.00  0.00    -0.200 F 
ENDBRANCH  45  59
BRANCH  46  70
ATOM     70  C   UNL A   1      39.494  32.056  35.384  1.00  0.00     0.064 A 
ATOM     71  C   UNL A   1      38.606  31.492  36.309  1.00  0.00     0.173 A 
ATOM     72  C   UNL A   1      39.927  33.371  35.613  1.00  0.00     0.173 A 
ATOM     73  F   UNL A   1      38.142  30.249  36.117  1.00  0.00    -0.203 F 
ATOM     74  C   UNL A   1      38.158  32.218  37.410  1.00  0.00     0.198 A 
ATOM     75  C   UNL A   1      39.507  34.084  36.733  1.00  0.00     0.198 A 
ATOM     76  F   UNL A   1      40.776  33.959  34.757  1.00  0.00    -0.203 F 
ATOM     77  F   UNL A   1      37.269  31.673  38.252  1.00  0.00    -0.200 F 
ATOM     78  C   UNL A   1      38.615  33.510  37.626  1.00  0.00     0.200 A 
ATOM     79  F   UNL A   1      39.965  35.325  36.945  1.00  0.00    -0.200 F 
ATOM     80  F   UNL A   1      38.189  34.205  38.689  1.00  0.00    -0.200 F 
ENDBRANCH  46  70
BRANCH  58  81
ATOM     81  C   UNL A   1      44.579  27.419  34.383  1.00  0.00     0.064 A 
ATOM     82  C   UNL A   1      44.395  26.264  35.157  1.00  0.00     0.173 A 
ATOM     83  C   UNL A   1      45.819  28.072  34.458  1.00  0.00     0.173 A 
ATOM     84  F   UNL A   1      43.221  25.616  35.133  1.00  0.00    -0.203 F 
ATOM     85  C   UNL A   1      45.404  25.799  35.997  1.00  0.00     0.198 A 
ATOM     86  C   UNL A   1      46.834  27.588  35.277  1.00  0.00     0.198 A 
ATOM     87  F   UNL A   1      46.045  29.178  33.733  1.00  0.00    -0.203 F 
ATOM     88  F   UNL A   1      45.188  24.724  36.767  1.00  0.00    -0.200 F 
ATOM     89  C   UNL A   1      46.623  26.458  36.052  1.00  0.00     0.200 A 
ATOM     90  F   UNL A   1      48.015  28.220  35.322  1.00  0.00    -0.200 F 
ATOM     91  F   UNL A   1      47.593  26.008  36.861  1.00  0.00    -0.200 F 
ENDBRANCH  58  81
ENDBRANCH  32  33
ENDBRANCH  25  27
ENDBRANCH  24  25
ENDBRANCH  23  24
ENDBRANCH   1  23
TORSDOF 14
ENDMDL
MODEL 3
REMARK VINA RESULT:     -12.3      1.579      2.287
REMARK SMILES C[C@@H](NC(=O)c1cc(C(=O)OCCOC(=O)c2ccc(-c3c4nc(c(-c5c(F)c(F)c(F)c(F)c5F)c5ccc([nH]5)c(-c5c(F)c(F)c(F)c(F)c5F)c5nc(c(-c6c(F)c(F)c(F)c(F)c6F)c6ccc3[nH]6)C=C5)C=C4)cc2)n(C)n1)c1ccccc1
REMARK SMILES IDX 12 1 11 2 9 3 10 4 8 5 6 6 7 7 82 8 80 9 81 10 4 11 3 12
REMARK SMILES IDX 5 14 2 15 1 16 83 17 84 18 88 19 85 20 87 21 86 22 13 23
REMARK SMILES IDX 14 24 15 25 16 26 17 27 18 28 79 29 19 30 78 31 20 32 21 33
REMARK SMILES IDX 22 34 72 35 23 36 77 37 71 38 73 39 24 40 76 41 70 42 69 43
REMARK SMILES IDX 25 45 57 46 37 47 56 48 38 49 41 50 55 51 74 52 39 53 40 54
REMARK SMILES IDX 54 56 75 57 42 58 26 59 27 60 35 61 28 62 29 63 33 64 36 65
REMARK SMILES IDX 30 66 31 67 34 68 32 69 58 70 59 71 67 72 60 73 61 74 65 75
REMARK SMILES IDX 68 76 62 77 63 78 66 79 64 80 43 81 44 82 52 83 45 84 46 85
REMARK SMILES IDX 50 86 53 87 47 88 48 89 51 90 49 91
REMARK H PARENT 3 13 73 44 41 55
REMARK Flexibility Score: inf
ROOT
ATOM      1  C   UNL A   1      31.242  29.155  24.282  1.00  0.00     0.275 C 
ENDROOT
BRANCH   1   2
ATOM      2  O   UNL A   1      30.731  27.814  24.121  1.00  0.00    -0.457 OA
BRANCH   2   3
ATOM      3  C   UNL A   1      31.589  26.904  23.575  1.00  0.00     0.356 C 
ATOM      4  O   UNL A   1      32.236  27.083  22.558  1.00  0.00    -0.244 OA
BRANCH   3   5
ATOM      5  C   UNL A   1      31.718  25.743  24.422  1.00  0.00     0.146 A 
ATOM      6  C   UNL A   1      31.404  23.748  25.398  1.00  0.00     0.151 A 
ATOM      7  C   UNL A   1      30.841  24.667  24.486  1.00  0.00     0.071 A 
ATOM      8  N   UNL A   1      32.494  24.275  25.978  1.00  0.00    -0.167 NA
ATOM      9  N   UNL A   1      32.692  25.447  25.341  1.00  0.00    -0.260 N 
ATOM     10  C   UNL A   1      33.815  26.238  25.788  1.00  0.00     0.174 C 
BRANCH   6  11
ATOM     11  C   UNL A   1      30.930  22.412  25.762  1.00  0.00     0.272 C 
ATOM     12  N   UNL A   1      31.647  21.302  25.371  1.00  0.00    -0.344 N 
ATOM     13  H   UNL A   1      31.450  20.488  25.887  1.00  0.00     0.164 HD
ATOM     14  O   UNL A   1      29.919  22.238  26.443  1.00  0.00    -0.267 OA
BRANCH  12  15
ATOM     15  C   UNL A   1      32.648  21.128  24.320  1.00  0.00     0.109 C 
ATOM     16  C   UNL A   1      32.149  21.759  23.016  1.00  0.00     0.036 C 
BRANCH  15  17
ATOM     17  C   UNL A   1      33.083  19.701  24.060  1.00  0.00    -0.026 A 
ATOM     18  C   UNL A   1      34.196  19.129  24.687  1.00  0.00     0.006 A 
ATOM     19  C   UNL A   1      32.364  18.923  23.140  1.00  0.00     0.006 A 
ATOM     20  C   UNL A   1      34.633  17.852  24.327  1.00  0.00     0.000 A 
ATOM     21  C   UNL A   1      32.804  17.651  22.774  1.00  0.00     0.000 A 
ATOM     22  C   UNL A   1      33.952  17.124  23.354  1.00  0.00     0.000 A 
ENDBRANCH  15  17
ENDBRANCH  12  15
ENDBRANCH   6  11
ENDBRANCH   3   5
ENDBRANCH   2   3
ENDBRANCH   1   2
BRANCH   1  23
ATOM     23  C   UNL A   1      31.644  29.404  25.736  1.00  0.00     0.275 C 
BRANCH  23  24
ATOM     24  O   UNL A   1      32.903  30.091  25.748  1.00  0.00    -0.458 OA
BRANCH  24  25
ATOM     25  C   UNL A   1      33.054  31.033  26.706  1.00  0.00     0.338 C 
ATOM     26  O   UNL A   1      32.225  31.865  27.033  1.00  0.00    -0.246 OA
BRANCH  25  27
ATOM     27  C   UNL A   1      34.361  30.837  27.392  1.00  0.00     0.060 A 
ATOM     28  C   UNL A   1      34.802  29.563  27.767  1.00  0.00     0.016 A 
ATOM     29  C   UNL A   1      35.123  31.952  27.749  1.00  0.00     0.016 A 
ATOM     30  C   UNL A   1      35.957  29.408  28.534  1.00  0.00     0.010 A 
ATOM     31  C   UNL A   1      36.329  31.785  28.447  1.00  0.00     0.010 A 
ATOM     32  C   UNL A   1      36.759  30.511  28.853  1.00  0.00    -0.014 A 
BRANCH  32  33
ATOM     33  C   UNL A   1      38.061  30.337  29.561  1.00  0.00     0.031 A 
ATOM     34  C   UNL A   1      39.163  29.508  28.957  1.00  0.00     0.074 A 
ATOM     35  C   UNL A   1      38.240  30.880  30.784  1.00  0.00     0.049 A 
ATOM     36  N   UNL A   1      40.235  29.015  29.526  1.00  0.00    -0.248 NA
ATOM     37  C   UNL A   1      39.041  29.179  27.529  1.00  0.00     0.031 C 
ATOM     38  C   UNL A   1      37.281  31.738  31.483  1.00  0.00     0.029 A 
ATOM     39  N   UNL A   1      39.289  30.773  31.668  1.00  0.00    -0.354 N 
ATOM     40  C   UNL A   1      40.876  28.263  28.549  1.00  0.00     0.074 A 
ATOM     41  C   UNL A   1      40.086  28.382  27.342  1.00  0.00     0.031 C 
ATOM     42  C   UNL A   1      37.788  32.092  32.673  1.00  0.00     0.029 A 
ATOM     43  C   UNL A   1      39.055  31.400  32.869  1.00  0.00     0.049 A 
ATOM     44  H   UNL A   1      40.124  30.296  31.460  1.00  0.00     0.167 HD
ATOM     45  C   UNL A   1      42.012  27.532  28.661  1.00  0.00     0.037 A 
ATOM     46  C   UNL A   1      39.738  31.370  34.029  1.00  0.00     0.037 A 
ATOM     47  C   UNL A   1      42.831  27.469  29.848  1.00  0.00     0.049 A 
ATOM     48  C   UNL A   1      40.980  30.533  34.131  1.00  0.00     0.074 A 
ATOM     49  C   UNL A   1      44.023  26.792  30.037  1.00  0.00     0.029 A 
ATOM     50  N   UNL A   1      42.550  28.118  31.040  1.00  0.00    -0.354 N 
ATOM     51  N   UNL A   1      41.550  29.785  33.220  1.00  0.00    -0.248 NA
ATOM     52  C   UNL A   1      41.662  30.519  35.433  1.00  0.00     0.031 C 
ATOM     53  C   UNL A   1      44.444  26.996  31.355  1.00  0.00     0.029 A 
ATOM     54  C   UNL A   1      43.539  27.843  31.972  1.00  0.00     0.049 A 
ATOM     55  H   UNL A   1      41.763  28.689  31.202  1.00  0.00     0.167 HD
ATOM     56  C   UNL A   1      42.663  29.225  33.830  1.00  0.00     0.074 A 
ATOM     57  C   UNL A   1      42.700  29.735  35.184  1.00  0.00     0.031 C 
ATOM     58  C   UNL A   1      43.569  28.362  33.314  1.00  0.00     0.037 A 
BRANCH  45  59
ATOM     59  C   UNL A   1      42.445  26.702  27.487  1.00  0.00     0.064 A 
ATOM     60  C   UNL A   1      43.424  27.141  26.586  1.00  0.00     0.173 A 
ATOM     61  C   UNL A   1      41.944  25.398  27.331  1.00  0.00     0.173 A 
ATOM     62  F   UNL A   1      43.927  28.379  26.687  1.00  0.00    -0.203 F 
ATOM     63  C   UNL A   1      43.884  26.307  25.569  1.00  0.00     0.198 A 
ATOM     64  C   UNL A   1      42.425  24.559  26.329  1.00  0.00     0.198 A 
ATOM     65  F   UNL A   1      41.011  24.927  28.172  1.00  0.00    -0.203 F 
ATOM     66  F   UNL A   1      44.808  26.753  24.706  1.00  0.00    -0.200 F 
ATOM     67  C   UNL A   1      43.394  25.014  25.448  1.00  0.00     0.200 A 
ATOM     68  F   UNL A   1      41.961  23.306  26.226  1.00  0.00    -0.200 F 
ATOM     69  F   UNL A   1      43.857  24.206  24.484  1.00  0.00    -0.200 F 
ENDBRANCH  45  59
BRANCH  46  70
ATOM     70  C   UNL A   1      39.218  32.105  35.212  1.00  0.00     0.064 A 
ATOM     71  C   UNL A   1      38.487  31.445  36.209  1.00  0.00     0.173 A 
ATOM     72  C   UNL A   1      39.437  33.483  35.366  1.00  0.00     0.173 A 
ATOM     73  F   UNL A   1      38.228  30.136  36.091  1.00  0.00    -0.203 F 
ATOM     74  C   UNL A   1      37.984  32.138  37.308  1.00  0.00     0.198 A 
ATOM     75  C   UNL A   1      38.964  34.167  36.483  1.00  0.00     0.198 A 
ATOM     76  F   UNL A   1      40.129  34.162  34.440  1.00  0.00    -0.203 F 
ATOM     77  F   UNL A   1      37.245  31.493  38.221  1.00  0.00    -0.200 F 
ATOM     78  C   UNL A   1      38.229  33.497  37.448  1.00  0.00     0.200 A 
ATOM     79  F   UNL A   1      39.218  35.475  36.621  1.00  0.00    -0.200 F 
ATOM     80  F   UNL A   1      37.750  34.160  38.508  1.00  0.00    -0.200 F 
ENDBRANCH  46  70
BRANCH  58  81
ATOM     81  C   UNL A   1      44.702  27.949  34.206  1.00  0.00     0.064 A 
ATOM     82  C   UNL A   1      45.885  28.697  34.287  1.00  0.00     0.173 A 
ATOM     83  C   UNL A   1      44.595  26.797  35.000  1.00  0.00     0.173 A 
ATOM     84  F   UNL A   1      46.042  29.796  33.534  1.00  0.00    -0.203 F 
ATOM     85  C   UNL A   1      46.933  28.290  35.110  1.00  0.00     0.198 A 
ATOM     86  C   UNL A   1      45.633  26.410  35.842  1.00  0.00     0.198 A 
ATOM     87  F   UNL A   1      43.481  26.050  34.962  1.00  0.00    -0.203 F 
ATOM     88  F   UNL A   1      48.074  28.992  35.133  1.00  0.00    -0.200 F 
ATOM     89  C   UNL A   1      46.803  27.150  35.890  1.00  0.00     0.200 A 
ATOM     90  F   UNL A   1      45.503  25.313  36.603  1.00  0.00    -0.200 F 
ATOM     91  F   UNL A   1      47.813  26.761  36.682  1.00  0.00    -0.200 F 
ENDBRANCH  58  81
ENDBRANCH  32  33
ENDBRANCH  25  27
ENDBRANCH  24  25
ENDBRANCH  23  24
ENDBRANCH   1  23
TORSDOF 14
ENDMDL
