MODEL 1
REMARK VINA RESULT:     -12.9      0.000      0.000
REMARK SMILES Cc1c(CCC(=O)N[C@@H](C)C(=O)OCCOC(=O)c2ccc(-c3c4nc(c(-c5c(F)c(F)c(F)c(F)c5F)c5ccc([nH]5)c(-c5c(F)c(F)c(F)c(F)c5F)c5nc(c(-c6c(F)c(F)c(F)c(F)c6F)c6ccc3[nH]6)C=C5)C=C4)cc2)c(=O)oc2cc3oc4c(c3cc12)CCCC4
REMARK SMILES IDX 14 1 13 2 11 3 12 4 9 5 10 6 8 7 6 8 7 9 5 11 4 12 3 13 1 14
REMARK SMILES IDX 2 15 93 16 82 17 85 18 92 19 83 20 84 21 86 22 91 23 87 24
REMARK SMILES IDX 90 25 88 26 89 27 94 28 97 29 95 30 96 31 15 32 16 33 17 34
REMARK SMILES IDX 18 35 19 36 20 37 81 38 21 39 80 40 22 41 23 42 24 43 74 44
REMARK SMILES IDX 25 45 79 46 73 47 75 48 26 49 78 50 72 51 71 52 27 54 59 55
REMARK SMILES IDX 39 56 58 57 40 58 43 59 57 60 76 61 41 62 42 63 56 65 77 66
REMARK SMILES IDX 44 67 28 68 29 69 37 70 30 71 31 72 35 73 38 74 32 75 33 76
REMARK SMILES IDX 36 77 34 78 60 79 61 80 69 81 62 82 63 83 67 84 70 85 64 86
REMARK SMILES IDX 65 87 68 88 66 89 45 90 46 91 54 92 47 93 48 94 52 95 55 96
REMARK SMILES IDX 49 97 50 98 53 99 51 100
REMARK H PARENT 8 10 75 53 43 64
REMARK Flexibility Score: inf
ROOT
ATOM      1  C   UNL A   1      37.207  20.674  25.439  1.00  0.00     0.274 C 
ENDROOT
BRANCH   1   2
ATOM      2  O   UNL A   1      36.144  21.491  24.912  1.00  0.00    -0.461 OA
BRANCH   2   3
ATOM      3  C   UNL A   1      35.017  21.554  25.668  1.00  0.00     0.328 C 
ATOM      4  O   UNL A   1      34.989  21.870  26.851  1.00  0.00    -0.250 OA
BRANCH   3   5
ATOM      5  C   UNL A   1      33.766  21.178  24.875  1.00  0.00     0.189 C 
ATOM      6  C   UNL A   1      33.780  19.690  24.532  1.00  0.00     0.043 C 
BRANCH   5   7
ATOM      7  N   UNL A   1      33.370  21.976  23.719  1.00  0.00    -0.343 N 
ATOM      8  C   UNL A   1      32.421  22.969  23.774  1.00  0.00     0.221 C 
ATOM      9  O   UNL A   1      31.382  22.844  23.126  1.00  0.00    -0.275 OA
ATOM     10  H   UNL A   1      33.806  21.795  22.856  1.00  0.00     0.164 HD
BRANCH   8  11
ATOM     11  C   UNL A   1      32.747  24.250  24.531  1.00  0.00     0.105 C 
BRANCH  11  12
ATOM     12  C   UNL A   1      33.740  25.210  23.852  1.00  0.00     0.053 C 
BRANCH  12  13
ATOM     13  C   UNL A   1      33.328  26.646  24.073  1.00  0.00     0.042 A 
ATOM     14  C   UNL A   1      32.472  26.942  21.722  1.00  0.00     0.046 C 
ATOM     15  C   UNL A   1      32.633  27.343  23.162  1.00  0.00    -0.030 A 
ATOM     16  C   UNL A   1      31.812  28.422  23.701  1.00  0.00     0.022 A 
ATOM     17  C   UNL A   1      33.685  27.271  25.381  1.00  0.00     0.339 A 
ATOM     18  C   UNL A   1      32.185  29.089  24.863  1.00  0.00     0.142 A 
ATOM     19  C   UNL A   1      30.559  28.679  23.147  1.00  0.00     0.024 A 
ATOM     20  O   UNL A   1      34.403  26.675  26.177  1.00  0.00    -0.246 OA
ATOM     21  O   UNL A   1      33.261  28.581  25.613  1.00  0.00    -0.422 OA
ATOM     22  C   UNL A   1      31.513  30.232  25.330  1.00  0.00     0.095 A 
ATOM     23  C   UNL A   1      29.780  29.695  23.687  1.00  0.00     0.025 A 
ATOM     24  C   UNL A   1      30.357  30.549  24.618  1.00  0.00     0.138 A 
ATOM     25  C   UNL A   1      28.526  30.237  23.346  1.00  0.00     0.001 A 
ATOM     26  O   UNL A   1      29.694  31.753  24.558  1.00  0.00    -0.461 OA
ATOM     27  C   UNL A   1      28.735  31.573  23.602  1.00  0.00     0.108 A 
ATOM     28  C   UNL A   1      27.578  29.823  22.287  1.00  0.00     0.040 C 
ATOM     29  C   UNL A   1      28.511  32.576  22.515  1.00  0.00     0.076 C 
ATOM     30  C   UNL A   1      28.013  30.485  20.972  1.00  0.00     0.005 C 
ATOM     31  C   UNL A   1      28.791  31.824  21.165  1.00  0.00     0.008 C 
ENDBRANCH  12  13
ENDBRANCH  11  12
ENDBRANCH   8  11
ENDBRANCH   5   7
ENDBRANCH   3   5
ENDBRANCH   2   3
ENDBRANCH   1   2
BRANCH   1  32
ATOM     32  C   UNL A   1      38.524  21.443  25.378  1.00  0.00     0.275 C 
BRANCH  32  33
ATOM     33  O   UNL A   1      38.732  22.182  26.590  1.00  0.00    -0.458 OA
BRANCH  33  34
ATOM     34  C   UNL A   1      39.975  22.120  27.127  1.00  0.00     0.338 C 
ATOM     35  O   UNL A   1      40.663  21.146  27.324  1.00  0.00    -0.246 OA
BRANCH  34  36
ATOM     36  C   UNL A   1      40.382  23.508  27.379  1.00  0.00     0.060 A 
ATOM     37  C   UNL A   1      39.404  24.473  27.599  1.00  0.00     0.016 A 
ATOM     38  C   UNL A   1      41.735  23.847  27.329  1.00  0.00     0.016 A 
ATOM     39  C   UNL A   1      39.796  25.796  27.760  1.00  0.00     0.010 A 
ATOM     40  C   UNL A   1      42.124  25.170  27.479  1.00  0.00     0.010 A 
ATOM     41  C   UNL A   1      41.157  26.145  27.701  1.00  0.00    -0.014 A 
BRANCH  41  42
ATOM     42  C   UNL A   1      41.519  27.556  27.872  1.00  0.00     0.031 A 
ATOM     43  C   UNL A   1      40.396  28.551  27.817  1.00  0.00     0.074 A 
ATOM     44  C   UNL A   1      42.573  27.832  28.663  1.00  0.00     0.049 A 
ATOM     45  N   UNL A   1      39.686  28.950  28.832  1.00  0.00    -0.248 NA
ATOM     46  C   UNL A   1      39.874  28.999  26.523  1.00  0.00     0.031 C 
ATOM     47  C   UNL A   1      42.859  27.166  29.937  1.00  0.00     0.029 A 
ATOM     48  N   UNL A   1      43.472  28.865  28.593  1.00  0.00    -0.354 N 
ATOM     49  C   UNL A   1      38.598  29.648  28.322  1.00  0.00     0.074 A 
ATOM     50  C   UNL A   1      38.775  29.673  26.888  1.00  0.00     0.031 C 
ATOM     51  C   UNL A   1      43.763  27.905  30.611  1.00  0.00     0.029 A 
ATOM     52  C   UNL A   1      44.194  29.018  29.770  1.00  0.00     0.049 A 
ATOM     53  H   UNL A   1      43.592  29.435  27.799  1.00  0.00     0.167 HD
ATOM     54  C   UNL A   1      37.602  30.170  29.086  1.00  0.00     0.037 A 
ATOM     55  C   UNL A   1      44.657  30.215  30.220  1.00  0.00     0.037 A 
ATOM     56  C   UNL A   1      37.702  29.944  30.494  1.00  0.00     0.049 A 
ATOM     57  C   UNL A   1      43.381  30.801  30.775  1.00  0.00     0.074 A 
ATOM     58  C   UNL A   1      37.205  29.041  31.406  1.00  0.00     0.029 A 
ATOM     59  N   UNL A   1      38.531  30.762  31.223  1.00  0.00    -0.354 N 
ATOM     60  N   UNL A   1      42.835  30.491  31.923  1.00  0.00    -0.248 NA
ATOM     61  C   UNL A   1      42.481  31.485  29.842  1.00  0.00     0.031 C 
ATOM     62  C   UNL A   1      38.114  29.075  32.509  1.00  0.00     0.029 A 
ATOM     63  C   UNL A   1      39.128  29.970  32.170  1.00  0.00     0.049 A 
ATOM     64  H   UNL A   1      38.669  31.727  31.092  1.00  0.00     0.167 HD
ATOM     65  C   UNL A   1      41.463  30.682  31.742  1.00  0.00     0.074 A 
ATOM     66  C   UNL A   1      41.317  31.340  30.462  1.00  0.00     0.031 C 
ATOM     67  C   UNL A   1      40.514  30.113  32.542  1.00  0.00     0.037 A 
BRANCH  54  68
ATOM     68  C   UNL A   1      36.536  31.065  28.593  1.00  0.00     0.064 A 
ATOM     69  C   UNL A   1      36.735  32.449  28.724  1.00  0.00     0.173 A 
ATOM     70  C   UNL A   1      35.269  30.614  28.214  1.00  0.00     0.173 A 
ATOM     71  F   UNL A   1      37.936  32.921  29.097  1.00  0.00    -0.203 F 
ATOM     72  C   UNL A   1      35.694  33.349  28.528  1.00  0.00     0.198 A 
ATOM     73  C   UNL A   1      34.227  31.521  28.009  1.00  0.00     0.198 A 
ATOM     74  F   UNL A   1      35.023  29.302  28.089  1.00  0.00    -0.203 F 
ATOM     75  F   UNL A   1      35.903  34.660  28.712  1.00  0.00    -0.200 F 
ATOM     76  C   UNL A   1      34.437  32.884  28.181  1.00  0.00     0.200 A 
ATOM     77  F   UNL A   1      33.007  31.076  27.675  1.00  0.00    -0.200 F 
ATOM     78  F   UNL A   1      33.424  33.748  28.027  1.00  0.00    -0.200 F 
ENDBRANCH  54  68
BRANCH  55  79
ATOM     79  C   UNL A   1      45.581  30.903  29.262  1.00  0.00     0.064 A 
ATOM     80  C   UNL A   1      46.921  31.108  29.668  1.00  0.00     0.173 A 
ATOM     81  C   UNL A   1      45.259  31.340  27.972  1.00  0.00     0.173 A 
ATOM     82  F   UNL A   1      47.295  30.827  30.927  1.00  0.00    -0.203 F 
ATOM     83  C   UNL A   1      47.899  31.578  28.793  1.00  0.00     0.198 A 
ATOM     84  C   UNL A   1      46.242  31.792  27.087  1.00  0.00     0.198 A 
ATOM     85  F   UNL A   1      43.995  31.322  27.531  1.00  0.00    -0.203 F 
ATOM     86  F   UNL A   1      49.166  31.700  29.208  1.00  0.00    -0.200 F 
ATOM     87  C   UNL A   1      47.564  31.889  27.490  1.00  0.00     0.200 A 
ATOM     88  F   UNL A   1      45.906  32.108  25.829  1.00  0.00    -0.200 F 
ATOM     89  F   UNL A   1      48.507  32.282  26.624  1.00  0.00    -0.200 F 
ENDBRANCH  55  79
BRANCH  67  90
ATOM     90  C   UNL A   1      41.034  29.374  33.722  1.00  0.00     0.064 A 
ATOM     91  C   UNL A   1      41.207  27.986  33.666  1.00  0.00     0.173 A 
ATOM     92  C   UNL A   1      41.397  30.041  34.903  1.00  0.00     0.173 A 
ATOM     93  F   UNL A   1      40.884  27.307  32.554  1.00  0.00    -0.203 F 
ATOM     94  C   UNL A   1      41.744  27.293  34.746  1.00  0.00     0.198 A 
ATOM     95  C   UNL A   1      41.959  29.349  35.970  1.00  0.00     0.198 A 
ATOM     96  F   UNL A   1      41.236  31.368  35.021  1.00  0.00    -0.203 F 
ATOM     97  F   UNL A   1      41.909  25.966  34.672  1.00  0.00    -0.200 F 
ATOM     98  C   UNL A   1      42.131  27.976  35.890  1.00  0.00     0.200 A 
ATOM     99  F   UNL A   1      42.352  30.013  37.067  1.00  0.00    -0.200 F 
ATOM    100  F   UNL A   1      42.684  27.310  36.914  1.00  0.00    -0.200 F 
ENDBRANCH  67  90
ENDBRANCH  41  42
ENDBRANCH  34  36
ENDBRANCH  33  34
ENDBRANCH  32  33
ENDBRANCH   1  32
TORSDOF 15
ENDMDL
MODEL 2
REMARK VINA RESULT:     -12.8      3.070      8.578
REMARK SMILES Cc1c(CCC(=O)N[C@@H](C)C(=O)OCCOC(=O)c2ccc(-c3c4nc(c(-c5c(F)c(F)c(F)c(F)c5F)c5ccc([nH]5)c(-c5c(F)c(F)c(F)c(F)c5F)c5nc(c(-c6c(F)c(F)c(F)c(F)c6F)c6ccc3[nH]6)C=C5)C=C4)cc2)c(=O)oc2cc3oc4c(c3cc12)CCCC4
REMARK SMILES IDX 14 1 13 2 11 3 12 4 9 5 10 6 8 7 6 8 7 9 5 11 4 12 3 13 1 14
REMARK SMILES IDX 2 15 93 16 82 17 85 18 92 19 83 20 84 21 86 22 91 23 87 24
REMARK SMILES IDX 90 25 88 26 89 27 94 28 97 29 95 30 96 31 15 32 16 33 17 34
REMARK SMILES IDX 18 35 19 36 20 37 81 38 21 39 80 40 22 41 23 42 24 43 74 44
REMARK SMILES IDX 25 45 79 46 73 47 75 48 26 49 78 50 72 51 71 52 27 54 59 55
REMARK SMILES IDX 39 56 58 57 40 58 43 59 57 60 76 61 41 62 42 63 56 65 77 66
REMARK SMILES IDX 44 67 28 68 29 69 37 70 30 71 31 72 35 73 38 74 32 75 33 76
REMARK SMILES IDX 36 77 34 78 60 79 61 80 69 81 62 82 63 83 67 84 70 85 64 86
REMARK SMILES IDX 65 87 68 88 66 89 45 90 46 91 54 92 47 93 48 94 52 95 55 96
REMARK SMILES IDX 49 97 50 98 53 99 51 100
REMARK H PARENT 8 10 75 53 43 64
REMARK Flexibility Score: inf
ROOT
ATOM      1  C   UNL A   1      33.464  28.121  26.808  1.00  0.00     0.274 C 
ENDROOT
BRANCH   1   2
ATOM      2  O   UNL A   1      32.062  27.795  26.887  1.00  0.00    -0.461 OA
BRANCH   2   3
ATOM      3  C   UNL A   1      31.509  27.283  25.757  1.00  0.00     0.328 C 
ATOM      4  O   UNL A   1      30.985  27.951  24.875  1.00  0.00    -0.250 OA
BRANCH   3   5
ATOM      5  C   UNL A   1      31.607  25.759  25.704  1.00  0.00     0.189 C 
ATOM      6  C   UNL A   1      30.774  25.212  24.546  1.00  0.00     0.043 C 
BRANCH   5   7
ATOM      7  N   UNL A   1      31.394  24.974  26.915  1.00  0.00    -0.343 N 
ATOM      8  C   UNL A   1      31.473  23.602  26.951  1.00  0.00     0.221 C 
ATOM      9  O   UNL A   1      30.468  22.949  27.226  1.00  0.00    -0.275 OA
ATOM     10  H   UNL A   1      31.185  25.451  27.749  1.00  0.00     0.164 HD
BRANCH   8  11
ATOM     11  C   UNL A   1      32.837  22.945  26.779  1.00  0.00     0.105 C 
BRANCH  11  12
ATOM     12  C   UNL A   1      33.200  22.488  25.355  1.00  0.00     0.053 C 
BRANCH  12  13
ATOM     13  C   UNL A   1      34.695  22.337  25.209  1.00  0.00     0.042 A 
ATOM     14  C   UNL A   1      35.101  24.818  25.040  1.00  0.00     0.046 C 
ATOM     15  C   UNL A   1      35.528  23.388  25.222  1.00  0.00    -0.030 A 
ATOM     16  C   UNL A   1      36.885  23.099  25.674  1.00  0.00     0.022 A 
ATOM     17  C   UNL A   1      35.240  20.952  25.091  1.00  0.00     0.339 A 
ATOM     18  C   UNL A   1      37.449  21.843  25.476  1.00  0.00     0.142 A 
ATOM     19  C   UNL A   1      37.565  24.029  26.458  1.00  0.00     0.024 A 
ATOM     20  O   UNL A   1      34.480  19.995  24.980  1.00  0.00    -0.246 OA
ATOM     21  O   UNL A   1      36.625  20.802  25.009  1.00  0.00    -0.422 OA
ATOM     22  C   UNL A   1      38.800  21.566  25.751  1.00  0.00     0.095 A 
ATOM     23  C   UNL A   1      38.848  23.728  26.899  1.00  0.00     0.025 A 
ATOM     24  C   UNL A   1      39.483  22.609  26.376  1.00  0.00     0.138 A 
ATOM     25  C   UNL A   1      39.808  24.442  27.642  1.00  0.00     0.001 A 
ATOM     26  O   UNL A   1      40.841  22.820  26.443  1.00  0.00    -0.461 OA
ATOM     27  C   UNL A   1      40.971  24.054  27.016  1.00  0.00     0.108 A 
ATOM     28  C   UNL A   1      39.710  25.782  28.263  1.00  0.00     0.040 C 
ATOM     29  C   UNL A   1      41.884  25.092  26.446  1.00  0.00     0.076 C 
ATOM     30  C   UNL A   1      40.033  26.831  27.190  1.00  0.00     0.005 C 
ATOM     31  C   UNL A   1      40.970  26.309  26.056  1.00  0.00     0.008 C 
ENDBRANCH  12  13
ENDBRANCH  11  12
ENDBRANCH   8  11
ENDBRANCH   5   7
ENDBRANCH   3   5
ENDBRANCH   2   3
ENDBRANCH   1   2
BRANCH   1  32
ATOM     32  C   UNL A   1      33.631  29.628  26.632  1.00  0.00     0.275 C 
BRANCH  32  33
ATOM     33  O   UNL A   1      34.979  30.023  26.931  1.00  0.00    -0.458 OA
BRANCH  33  34
ATOM     34  C   UNL A   1      35.144  30.837  28.002  1.00  0.00     0.338 C 
ATOM     35  O   UNL A   1      34.371  31.644  28.461  1.00  0.00    -0.246 OA
BRANCH  34  36
ATOM     36  C   UNL A   1      36.457  30.505  28.568  1.00  0.00     0.060 A 
ATOM     37  C   UNL A   1      36.730  29.189  28.925  1.00  0.00     0.016 A 
ATOM     38  C   UNL A   1      37.383  31.524  28.798  1.00  0.00     0.016 A 
ATOM     39  C   UNL A   1      37.947  28.900  29.531  1.00  0.00     0.010 A 
ATOM     40  C   UNL A   1      38.592  31.237  29.413  1.00  0.00     0.010 A 
ATOM     41  C   UNL A   1      38.879  29.925  29.774  1.00  0.00    -0.014 A 
BRANCH  41  42
ATOM     42  C   UNL A   1      40.147  29.569  30.421  1.00  0.00     0.031 A 
ATOM     43  C   UNL A   1      41.401  30.082  29.774  1.00  0.00     0.074 A 
ATOM     44  C   UNL A   1      40.138  29.421  31.759  1.00  0.00     0.049 A 
ATOM     45  N   UNL A   1      41.971  31.224  30.026  1.00  0.00    -0.248 NA
ATOM     46  C   UNL A   1      41.969  29.384  28.618  1.00  0.00     0.031 C 
ATOM     47  C   UNL A   1      39.421  30.296  32.692  1.00  0.00     0.029 A 
ATOM     48  N   UNL A   1      40.900  28.605  32.554  1.00  0.00    -0.354 N 
ATOM     49  C   UNL A   1      42.928  31.430  29.041  1.00  0.00     0.074 A 
ATOM     50  C   UNL A   1      42.907  30.249  28.207  1.00  0.00     0.031 C 
ATOM     51  C   UNL A   1      39.898  30.078  33.933  1.00  0.00     0.029 A 
ATOM     52  C   UNL A   1      40.860  28.980  33.891  1.00  0.00     0.049 A 
ATOM     53  H   UNL A   1      41.419  27.839  32.217  1.00  0.00     0.167 HD
ATOM     54  C   UNL A   1      43.693  32.550  28.944  1.00  0.00     0.037 A 
ATOM     55  C   UNL A   1      41.894  28.802  34.756  1.00  0.00     0.037 A 
ATOM     56  C   UNL A   1      43.449  33.567  29.918  1.00  0.00     0.049 A 
ATOM     57  C   UNL A   1      42.793  29.939  34.330  1.00  0.00     0.074 A 
ATOM     58  C   UNL A   1      42.707  34.723  30.002  1.00  0.00     0.029 A 
ATOM     59  N   UNL A   1      44.022  33.425  31.159  1.00  0.00    -0.354 N 
ATOM     60  N   UNL A   1      42.636  31.197  34.652  1.00  0.00    -0.248 NA
ATOM     61  C   UNL A   1      43.688  29.712  33.192  1.00  0.00     0.031 C 
ATOM     62  C   UNL A   1      42.503  34.943  31.400  1.00  0.00     0.029 A 
ATOM     63  C   UNL A   1      43.102  33.877  32.069  1.00  0.00     0.049 A 
ATOM     64  H   UNL A   1      44.918  33.068  31.355  1.00  0.00     0.167 HD
ATOM     65  C   UNL A   1      43.179  31.920  33.587  1.00  0.00     0.074 A 
ATOM     66  C   UNL A   1      43.852  30.951  32.749  1.00  0.00     0.031 C 
ATOM     67  C   UNL A   1      42.878  33.228  33.337  1.00  0.00     0.037 A 
BRANCH  54  68
ATOM     68  C   UNL A   1      44.836  32.719  28.023  1.00  0.00     0.064 A 
ATOM     69  C   UNL A   1      46.094  32.273  28.458  1.00  0.00     0.173 A 
ATOM     70  C   UNL A   1      44.774  33.487  26.857  1.00  0.00     0.173 A 
ATOM     71  F   UNL A   1      46.194  31.542  29.581  1.00  0.00    -0.203 F 
ATOM     72  C   UNL A   1      47.256  32.618  27.778  1.00  0.00     0.198 A 
ATOM     73  C   UNL A   1      45.943  33.825  26.170  1.00  0.00     0.198 A 
ATOM     74  F   UNL A   1      43.600  33.950  26.407  1.00  0.00    -0.203 F 
ATOM     75  F   UNL A   1      48.446  32.220  28.248  1.00  0.00    -0.200 F 
ATOM     76  C   UNL A   1      47.181  33.404  26.640  1.00  0.00     0.200 A 
ATOM     77  F   UNL A   1      45.877  34.587  25.070  1.00  0.00    -0.200 F 
ATOM     78  F   UNL A   1      48.303  33.767  26.004  1.00  0.00    -0.200 F 
ENDBRANCH  54  68
BRANCH  55  79
ATOM     79  C   UNL A   1      42.317  27.373  34.905  1.00  0.00     0.064 A 
ATOM     80  C   UNL A   1      41.805  26.644  36.004  1.00  0.00     0.173 A 
ATOM     81  C   UNL A   1      43.151  26.663  34.034  1.00  0.00     0.173 A 
ATOM     82  F   UNL A   1      41.090  27.268  36.954  1.00  0.00    -0.203 F 
ATOM     83  C   UNL A   1      41.996  25.269  36.138  1.00  0.00     0.198 A 
ATOM     84  C   UNL A   1      43.326  25.281  34.155  1.00  0.00     0.198 A 
ATOM     85  F   UNL A   1      43.799  27.280  33.039  1.00  0.00    -0.203 F 
ATOM     86  F   UNL A   1      41.443  24.613  37.166  1.00  0.00    -0.200 F 
ATOM     87  C   UNL A   1      42.730  24.582  35.191  1.00  0.00     0.200 A 
ATOM     88  F   UNL A   1      44.054  24.623  33.242  1.00  0.00    -0.200 F 
ATOM     89  F   UNL A   1      42.867  23.252  35.277  1.00  0.00    -0.200 F 
ENDBRANCH  55  79
BRANCH  67  90
ATOM     90  C   UNL A   1      42.029  33.894  34.359  1.00  0.00     0.064 A 
ATOM     91  C   UNL A   1      42.612  34.494  35.481  1.00  0.00     0.173 A 
ATOM     92  C   UNL A   1      40.635  33.974  34.213  1.00  0.00     0.173 A 
ATOM     93  F   UNL A   1      43.942  34.452  35.657  1.00  0.00    -0.203 F 
ATOM     94  C   UNL A   1      41.830  35.167  36.414  1.00  0.00     0.198 A 
ATOM     95  C   UNL A   1      39.860  34.671  35.133  1.00  0.00     0.198 A 
ATOM     96  F   UNL A   1      40.018  33.402  33.167  1.00  0.00    -0.203 F 
ATOM     97  F   UNL A   1      42.407  35.740  37.478  1.00  0.00    -0.200 F 
ATOM     98  C   UNL A   1      40.458  35.267  36.232  1.00  0.00     0.200 A 
ATOM     99  F   UNL A   1      38.537  34.785  34.945  1.00  0.00    -0.200 F 
ATOM    100  F   UNL A   1      39.713  35.950  37.113  1.00  0.00    -0.200 F 
ENDBRANCH  67  90
ENDBRANCH  41  42
ENDBRANCH  34  36
ENDBRANCH  33  34
ENDBRANCH  32  33
ENDBRANCH   1  32
TORSDOF 15
ENDMDL
MODEL 3
REMARK VINA RESULT:     -12.6      5.635     10.737
REMARK SMILES Cc1c(CCC(=O)N[C@@H](C)C(=O)OCCOC(=O)c2ccc(-c3c4nc(c(-c5c(F)c(F)c(F)c(F)c5F)c5ccc([nH]5)c(-c5c(F)c(F)c(F)c(F)c5F)c5nc(c(-c6c(F)c(F)c(F)c(F)c6F)c6ccc3[nH]6)C=C5)C=C4)cc2)c(=O)oc2cc3oc4c(c3cc12)CCCC4
REMARK SMILES IDX 14 1 13 2 11 3 12 4 9 5 10 6 8 7 6 8 7 9 5 11 4 12 3 13 1 14
REMARK SMILES IDX 2 15 93 16 82 17 85 18 92 19 83 20 84 21 86 22 91 23 87 24
REMARK SMILES IDX 90 25 88 26 89 27 94 28 97 29 95 30 96 31 15 32 16 33 17 34
REMARK SMILES IDX 18 35 19 36 20 37 81 38 21 39 80 40 22 41 23 42 24 43 74 44
REMARK SMILES IDX 25 45 79 46 73 47 75 48 26 49 78 50 72 51 71 52 27 54 59 55
REMARK SMILES IDX 39 56 58 57 40 58 43 59 57 60 76 61 41 62 42 63 56 65 77 66
REMARK SMILES IDX 44 67 28 68 29 69 37 70 30 71 31 72 35 73 38 74 32 75 33 76
REMARK SMILES IDX 36 77 34 78 60 79 61 80 69 81 62 82 63 83 67 84 70 85 64 86
REMARK SMILES IDX 65 87 68 88 66 89 45 90 46 91 54 92 47 93 48 94 52 95 55 96
REMARK SMILES IDX 49 97 50 98 53 99 51 100
REMARK H PARENT 8 10 75 53 43 64
REMARK Flexibility Score: inf
ROOT
ATOM      1  C   UNL A   1      46.912  34.204  26.149  1.00  0.00     0.274 C 
ENDROOT
BRANCH   1   2
ATOM      2  O   UNL A   1      47.187  33.524  27.388  1.00  0.00    -0.461 OA
BRANCH   2   3
ATOM      3  C   UNL A   1      46.357  32.493  27.694  1.00  0.00     0.328 C 
ATOM      4  O   UNL A   1      46.201  32.035  28.820  1.00  0.00    -0.250 OA
BRANCH   3   5
ATOM      5  C   UNL A   1      45.630  31.950  26.464  1.00  0.00     0.189 C 
ATOM      6  C   UNL A   1      44.145  31.756  26.765  1.00  0.00     0.043 C 
BRANCH   5   7
ATOM      7  N   UNL A   1      46.171  30.799  25.748  1.00  0.00    -0.343 N 
ATOM      8  C   UNL A   1      46.732  29.714  26.377  1.00  0.00     0.221 C 
ATOM      9  O   UNL A   1      47.924  29.464  26.197  1.00  0.00    -0.275 OA
ATOM     10  H   UNL A   1      46.131  30.801  24.766  1.00  0.00     0.164 HD
BRANCH   8  11
ATOM     11  C   UNL A   1      45.826  28.779  27.169  1.00  0.00     0.105 C 
BRANCH  11  12
ATOM     12  C   UNL A   1      44.653  28.151  26.398  1.00  0.00     0.053 C 
BRANCH  12  13
ATOM     13  C   UNL A   1      44.922  26.693  26.113  1.00  0.00     0.042 A 
ATOM     14  C   UNL A   1      43.714  25.890  28.173  1.00  0.00     0.046 C 
ATOM     15  C   UNL A   1      44.368  25.705  26.832  1.00  0.00    -0.030 A 
ATOM     16  C   UNL A   1      44.209  24.438  26.127  1.00  0.00     0.022 A 
ATOM     17  C   UNL A   1      45.807  26.369  24.955  1.00  0.00     0.339 A 
ATOM     18  C   UNL A   1      45.090  24.071  25.116  1.00  0.00     0.142 A 
ATOM     19  C   UNL A   1      43.072  23.662  26.349  1.00  0.00     0.024 A 
ATOM     20  O   UNL A   1      46.394  27.263  24.354  1.00  0.00    -0.246 OA
ATOM     21  O   UNL A   1      46.017  25.022  24.653  1.00  0.00    -0.422 OA
ATOM     22  C   UNL A   1      45.072  22.798  24.520  1.00  0.00     0.095 A 
ATOM     23  C   UNL A   1      42.927  22.469  25.652  1.00  0.00     0.025 A 
ATOM     24  C   UNL A   1      44.006  21.992  24.920  1.00  0.00     0.138 A 
ATOM     25  C   UNL A   1      41.955  21.450  25.673  1.00  0.00     0.001 A 
ATOM     26  O   UNL A   1      43.891  20.623  24.836  1.00  0.00    -0.461 OA
ATOM     27  C   UNL A   1      42.740  20.331  25.511  1.00  0.00     0.108 A 
ATOM     28  C   UNL A   1      40.694  21.367  26.445  1.00  0.00     0.040 C 
ATOM     29  C   UNL A   1      42.683  19.236  26.528  1.00  0.00     0.076 C 
ATOM     30  C   UNL A   1      41.025  20.825  27.842  1.00  0.00     0.005 C 
ATOM     31  C   UNL A   1      42.298  19.923  27.887  1.00  0.00     0.008 C 
ENDBRANCH  12  13
ENDBRANCH  11  12
ENDBRANCH   8  11
ENDBRANCH   5   7
ENDBRANCH   3   5
ENDBRANCH   2   3
ENDBRANCH   1   2
BRANCH   1  32
ATOM     32  C   UNL A   1      46.387  35.608  26.439  1.00  0.00     0.275 C 
BRANCH  32  33
ATOM     33  O   UNL A   1      44.953  35.631  26.384  1.00  0.00    -0.458 OA
BRANCH  33  34
ATOM     34  C   UNL A   1      44.330  36.453  27.263  1.00  0.00     0.338 C 
ATOM     35  O   UNL A   1      44.238  37.657  27.233  1.00  0.00    -0.246 OA
BRANCH  34  36
ATOM     36  C   UNL A   1      43.707  35.581  28.267  1.00  0.00     0.060 A 
ATOM     37  C   UNL A   1      44.480  35.091  29.315  1.00  0.00     0.016 A 
ATOM     38  C   UNL A   1      42.371  35.207  28.118  1.00  0.00     0.016 A 
ATOM     39  C   UNL A   1      43.900  34.206  30.215  1.00  0.00     0.010 A 
ATOM     40  C   UNL A   1      41.796  34.315  29.010  1.00  0.00     0.010 A 
ATOM     41  C   UNL A   1      42.557  33.818  30.064  1.00  0.00    -0.014 A 
BRANCH  41  42
ATOM     42  C   UNL A   1      41.993  32.878  31.038  1.00  0.00     0.031 A 
ATOM     43  C   UNL A   1      40.526  33.007  31.329  1.00  0.00     0.074 A 
ATOM     44  C   UNL A   1      42.548  31.653  31.107  1.00  0.00     0.049 A 
ATOM     45  N   UNL A   1      39.569  32.404  30.685  1.00  0.00    -0.248 NA
ATOM     46  C   UNL A   1      40.051  34.028  32.266  1.00  0.00     0.031 C 
ATOM     47  C   UNL A   1      42.966  30.858  29.948  1.00  0.00     0.029 A 
ATOM     48  N   UNL A   1      42.671  30.807  32.179  1.00  0.00    -0.354 N 
ATOM     49  C   UNL A   1      38.375  32.994  31.081  1.00  0.00     0.074 A 
ATOM     50  C   UNL A   1      38.725  33.976  32.081  1.00  0.00     0.031 C 
ATOM     51  C   UNL A   1      43.148  29.584  30.347  1.00  0.00     0.029 A 
ATOM     52  C   UNL A   1      42.972  29.506  31.795  1.00  0.00     0.049 A 
ATOM     53  H   UNL A   1      42.557  31.088  33.115  1.00  0.00     0.167 HD
ATOM     54  C   UNL A   1      37.158  32.660  30.575  1.00  0.00     0.037 A 
ATOM     55  C   UNL A   1      42.572  28.405  32.484  1.00  0.00     0.037 A 
ATOM     56  C   UNL A   1      37.150  31.656  29.559  1.00  0.00     0.049 A 
ATOM     57  C   UNL A   1      41.126  28.334  32.052  1.00  0.00     0.074 A 
ATOM     58  C   UNL A   1      37.139  31.617  28.183  1.00  0.00     0.029 A 
ATOM     59  N   UNL A   1      37.218  30.341  29.949  1.00  0.00    -0.354 N 
ATOM     60  N   UNL A   1      40.694  27.873  30.907  1.00  0.00    -0.248 NA
ATOM     61  C   UNL A   1      40.155  29.158  32.778  1.00  0.00     0.031 C 
ATOM     62  C   UNL A   1      37.671  30.336  27.835  1.00  0.00     0.029 A 
ATOM     63  C   UNL A   1      38.008  29.700  29.029  1.00  0.00     0.049 A 
ATOM     64  H   UNL A   1      36.783  29.937  30.734  1.00  0.00     0.167 HD
ATOM     65  C   UNL A   1      39.517  28.581  30.644  1.00  0.00     0.074 A 
ATOM     66  C   UNL A   1      39.217  29.316  31.854  1.00  0.00     0.031 C 
ATOM     67  C   UNL A   1      38.970  28.691  29.400  1.00  0.00     0.037 A 
BRANCH  54  68
ATOM     68  C   UNL A   1      35.862  33.138  31.101  1.00  0.00     0.064 A 
ATOM     69  C   UNL A   1      35.221  34.178  30.409  1.00  0.00     0.173 A 
ATOM     70  C   UNL A   1      35.360  32.770  32.353  1.00  0.00     0.173 A 
ATOM     71  F   UNL A   1      35.683  34.567  29.209  1.00  0.00    -0.203 F 
ATOM     72  C   UNL A   1      34.144  34.857  30.965  1.00  0.00     0.198 A 
ATOM     73  C   UNL A   1      34.271  33.449  32.905  1.00  0.00     0.198 A 
ATOM     74  F   UNL A   1      35.944  31.793  33.061  1.00  0.00    -0.203 F 
ATOM     75  F   UNL A   1      33.587  35.880  30.301  1.00  0.00    -0.200 F 
ATOM     76  C   UNL A   1      33.676  34.500  32.218  1.00  0.00     0.200 A 
ATOM     77  F   UNL A   1      33.815  33.109  34.118  1.00  0.00    -0.200 F 
ATOM     78  F   UNL A   1      32.660  35.178  32.770  1.00  0.00    -0.200 F 
ENDBRANCH  54  68
BRANCH  55  79
ATOM     79  C   UNL A   1      43.054  28.371  33.902  1.00  0.00     0.064 A 
ATOM     80  C   UNL A   1      44.007  27.386  34.252  1.00  0.00     0.173 A 
ATOM     81  C   UNL A   1      42.679  29.251  34.924  1.00  0.00     0.173 A 
ATOM     82  F   UNL A   1      44.341  26.427  33.372  1.00  0.00    -0.203 F 
ATOM     83  C   UNL A   1      44.646  27.376  35.490  1.00  0.00     0.198 A 
ATOM     84  C   UNL A   1      43.334  29.257  36.159  1.00  0.00     0.198 A 
ATOM     85  F   UNL A   1      41.690  30.135  34.748  1.00  0.00    -0.203 F 
ATOM     86  F   UNL A   1      45.584  26.457  35.754  1.00  0.00    -0.200 F 
ATOM     87  C   UNL A   1      44.332  28.336  36.433  1.00  0.00     0.200 A 
ATOM     88  F   UNL A   1      43.012  30.181  37.075  1.00  0.00    -0.200 F 
ATOM     89  F   UNL A   1      44.985  28.375  37.602  1.00  0.00    -0.200 F 
ENDBRANCH  55  79
BRANCH  67  90
ATOM     90  C   UNL A   1      39.632  27.889  28.337  1.00  0.00     0.064 A 
ATOM     91  C   UNL A   1      39.424  26.507  28.263  1.00  0.00     0.173 A 
ATOM     92  C   UNL A   1      40.446  28.491  27.365  1.00  0.00     0.173 A 
ATOM     93  F   UNL A   1      38.645  25.889  29.164  1.00  0.00    -0.203 F 
ATOM     94  C   UNL A   1      39.995  25.757  27.240  1.00  0.00     0.198 A 
ATOM     95  C   UNL A   1      40.992  27.742  26.329  1.00  0.00     0.198 A 
ATOM     96  F   UNL A   1      40.696  29.810  27.397  1.00  0.00    -0.203 F 
ATOM     97  F   UNL A   1      39.780  24.436  27.181  1.00  0.00    -0.200 F 
ATOM     98  C   UNL A   1      40.766  26.377  26.267  1.00  0.00     0.200 A 
ATOM     99  F   UNL A   1      41.720  28.346  25.377  1.00  0.00    -0.200 F 
ATOM    100  F   UNL A   1      41.283  25.657  25.261  1.00  0.00    -0.200 F 
ENDBRANCH  67  90
ENDBRANCH  41  42
ENDBRANCH  34  36
ENDBRANCH  33  34
ENDBRANCH  32  33
ENDBRANCH   1  32
TORSDOF 15
ENDMDL
