MODEL 1
REMARK VINA RESULT:     -12.1      0.000      0.000
REMARK SMILES CCOc1ccc(NC(=O)N2CC[C@@H](C(=O)OCCOC(=O)c3ccc(-c4c5nc(c(-c6c(F)c(F)c(F)c(F)c6F)c6ccc([nH]6)c(-c6c(F)c(F)c(F)c(F)c6F)c6nc(c(-c7c(F)c(F)c(F)c(F)c7F)c7ccc4[nH]7)C=C6)C=C5)cc3)[C@@H]2C)cc1
REMARK SMILES IDX 18 1 17 2 15 3 16 4 14 5 11 6 12 7 86 8 13 9 87 10 9 11 8 12
REMARK SMILES IDX 10 14 7 15 4 16 5 17 89 18 6 19 88 20 3 21 2 22 1 23 19 24
REMARK SMILES IDX 20 25 21 26 22 27 23 28 24 29 85 30 25 31 84 32 26 33 27 34
REMARK SMILES IDX 28 35 78 36 29 37 83 38 77 39 79 40 30 41 82 42 76 43 75 44
REMARK SMILES IDX 31 46 63 47 43 48 62 49 44 50 47 51 61 52 80 53 45 54 46 55
REMARK SMILES IDX 60 57 81 58 48 59 32 60 33 61 41 62 34 63 35 64 39 65 42 66
REMARK SMILES IDX 36 67 37 68 40 69 38 70 64 71 65 72 73 73 66 74 67 75 71 76
REMARK SMILES IDX 74 77 68 78 69 79 72 80 70 81 49 82 50 83 58 84 51 85 52 86
REMARK SMILES IDX 56 87 59 88 53 89 54 90 57 91 55 92
REMARK H PARENT 8 13 79 45 47 56
REMARK Flexibility Score: inf
ROOT
ATOM      1  C   UNL A   1      31.273  29.619  24.672  1.00  0.00     0.274 C 
ENDROOT
BRANCH   1   2
ATOM      2  O   UNL A   1      31.752  28.412  24.039  1.00  0.00    -0.462 OA
BRANCH   2   3
ATOM      3  C   UNL A   1      30.866  27.395  23.910  1.00  0.00     0.311 C 
ATOM      4  O   UNL A   1      29.664  27.542  23.713  1.00  0.00    -0.252 OA
BRANCH   3   5
ATOM      5  C   UNL A   1      31.478  26.019  24.081  1.00  0.00     0.123 C 
ATOM      6  N   UNL A   1      30.990  24.184  25.508  1.00  0.00    -0.321 N 
ATOM      7  C   UNL A   1      30.890  23.706  24.149  1.00  0.00     0.122 C 
ATOM      8  C   UNL A   1      31.645  25.503  25.528  1.00  0.00     0.098 C 
ATOM      9  C   UNL A   1      30.615  24.972  23.370  1.00  0.00     0.039 C 
ATOM     10  C   UNL A   1      33.127  25.351  25.900  1.00  0.00     0.032 C 
BRANCH   6  11
ATOM     11  C   UNL A   1      30.749  23.327  26.542  1.00  0.00     0.322 C 
ATOM     12  N   UNL A   1      31.412  22.151  26.652  1.00  0.00    -0.308 N 
ATOM     13  H   UNL A   1      30.880  21.433  27.067  1.00  0.00     0.171 HD
ATOM     14  O   UNL A   1      29.885  23.579  27.387  1.00  0.00    -0.248 OA
BRANCH  12  15
ATOM     15  C   UNL A   1      32.710  21.759  26.289  1.00  0.00     0.043 A 
ATOM     16  C   UNL A   1      35.242  21.029  25.339  1.00  0.00     0.119 A 
ATOM     17  C   UNL A   1      35.122  21.756  26.519  1.00  0.00     0.048 A 
ATOM     18  C   UNL A   1      34.098  20.557  24.702  1.00  0.00     0.048 A 
ATOM     19  C   UNL A   1      33.858  22.103  27.003  1.00  0.00     0.030 A 
ATOM     20  C   UNL A   1      32.836  20.923  25.177  1.00  0.00     0.030 A 
BRANCH  16  21
ATOM     21  O   UNL A   1      36.510  20.762  24.907  1.00  0.00    -0.494 OA
BRANCH  21  22
ATOM     22  C   UNL A   1      37.294  21.929  24.629  1.00  0.00     0.226 C 
ATOM     23  C   UNL A   1      36.715  22.670  23.437  1.00  0.00     0.049 C 
ENDBRANCH  21  22
ENDBRANCH  16  21
ENDBRANCH  12  15
ENDBRANCH   6  11
ENDBRANCH   3   5
ENDBRANCH   2   3
ENDBRANCH   1   2
BRANCH   1  24
ATOM     24  C   UNL A   1      31.771  29.738  26.116  1.00  0.00     0.275 C 
BRANCH  24  25
ATOM     25  O   UNL A   1      33.154  30.128  26.159  1.00  0.00    -0.458 OA
BRANCH  25  26
ATOM     26  C   UNL A   1      33.426  31.170  26.977  1.00  0.00     0.338 C 
ATOM     27  O   UNL A   1      32.700  32.101  27.272  1.00  0.00    -0.246 OA
BRANCH  26  28
ATOM     28  C   UNL A   1      34.712  30.927  27.641  1.00  0.00     0.060 A 
ATOM     29  C   UNL A   1      34.968  29.630  28.088  1.00  0.00     0.016 A 
ATOM     30  C   UNL A   1      35.617  31.958  27.887  1.00  0.00     0.016 A 
ATOM     31  C   UNL A   1      36.121  29.348  28.802  1.00  0.00     0.010 A 
ATOM     32  C   UNL A   1      36.791  31.671  28.591  1.00  0.00     0.010 A 
ATOM     33  C   UNL A   1      37.040  30.367  29.058  1.00  0.00    -0.014 A 
BRANCH  33  34
ATOM     34  C   UNL A   1      38.241  30.059  29.860  1.00  0.00     0.031 A 
ATOM     35  C   UNL A   1      39.306  29.178  29.285  1.00  0.00     0.074 A 
ATOM     36  C   UNL A   1      38.382  30.612  31.077  1.00  0.00     0.049 A 
ATOM     37  N   UNL A   1      40.391  28.715  29.848  1.00  0.00    -0.248 NA
ATOM     38  C   UNL A   1      39.124  28.759  27.886  1.00  0.00     0.031 C 
ATOM     39  C   UNL A   1      37.433  31.539  31.697  1.00  0.00     0.029 A 
ATOM     40  N   UNL A   1      39.378  30.480  32.008  1.00  0.00    -0.354 N 
ATOM     41  C   UNL A   1      41.007  27.928  28.887  1.00  0.00     0.074 A 
ATOM     42  C   UNL A   1      40.171  27.965  27.706  1.00  0.00     0.031 C 
ATOM     43  C   UNL A   1      37.895  31.894  32.906  1.00  0.00     0.029 A 
ATOM     44  C   UNL A   1      39.140  31.179  33.165  1.00  0.00     0.049 A 
ATOM     45  H   UNL A   1      40.186  29.937  31.861  1.00  0.00     0.167 HD
ATOM     46  C   UNL A   1      42.167  27.237  28.988  1.00  0.00     0.037 A 
ATOM     47  C   UNL A   1      39.839  31.210  34.315  1.00  0.00     0.037 A 
ATOM     48  C   UNL A   1      42.993  27.226  30.166  1.00  0.00     0.049 A 
ATOM     49  C   UNL A   1      41.094  30.390  34.421  1.00  0.00     0.074 A 
ATOM     50  C   UNL A   1      44.188  26.561  30.381  1.00  0.00     0.029 A 
ATOM     51  N   UNL A   1      42.706  27.919  31.335  1.00  0.00    -0.354 N 
ATOM     52  N   UNL A   1      41.661  29.625  33.518  1.00  0.00    -0.248 NA
ATOM     53  C   UNL A   1      41.803  30.428  35.706  1.00  0.00     0.031 C 
ATOM     54  C   UNL A   1      44.602  26.821  31.692  1.00  0.00     0.029 A 
ATOM     55  C   UNL A   1      43.690  27.684  32.280  1.00  0.00     0.049 A 
ATOM     56  H   UNL A   1      41.917  28.494  31.471  1.00  0.00     0.167 HD
ATOM     57  C   UNL A   1      42.799  29.107  34.116  1.00  0.00     0.074 A 
ATOM     58  C   UNL A   1      42.852  29.658  35.456  1.00  0.00     0.031 C 
ATOM     59  C   UNL A   1      43.718  28.250  33.606  1.00  0.00     0.037 A 
BRANCH  46  60
ATOM     60  C   UNL A   1      42.579  26.406  27.809  1.00  0.00     0.064 A 
ATOM     61  C   UNL A   1      42.078  25.113  27.602  1.00  0.00     0.173 A 
ATOM     62  C   UNL A   1      43.487  26.917  26.869  1.00  0.00     0.173 A 
ATOM     63  F   UNL A   1      41.222  24.571  28.481  1.00  0.00    -0.203 F 
ATOM     64  C   UNL A   1      42.494  24.350  26.512  1.00  0.00     0.198 A 
ATOM     65  C   UNL A   1      43.880  26.162  25.766  1.00  0.00     0.198 A 
ATOM     66  F   UNL A   1      43.997  28.148  27.020  1.00  0.00    -0.203 F 
ATOM     67  F   UNL A   1      42.043  23.096  26.362  1.00  0.00    -0.200 F 
ATOM     68  C   UNL A   1      43.390  24.876  25.594  1.00  0.00     0.200 A 
ATOM     69  F   UNL A   1      44.739  26.676  24.876  1.00  0.00    -0.200 F 
ATOM     70  F   UNL A   1      43.789  24.141  24.547  1.00  0.00    -0.200 F 
ENDBRANCH  46  60
BRANCH  47  71
ATOM     71  C   UNL A   1      39.350  32.028  35.454  1.00  0.00     0.064 A 
ATOM     72  C   UNL A   1      38.499  31.482  36.424  1.00  0.00     0.173 A 
ATOM     73  C   UNL A   1      39.734  33.370  35.603  1.00  0.00     0.173 A 
ATOM     74  F   UNL A   1      38.086  30.211  36.313  1.00  0.00    -0.203 F 
ATOM     75  C   UNL A   1      38.043  32.250  37.495  1.00  0.00     0.198 A 
ATOM     76  C   UNL A   1      39.300  34.127  36.688  1.00  0.00     0.198 A 
ATOM     77  F   UNL A   1      40.547  33.941  34.702  1.00  0.00    -0.203 F 
ATOM     78  F   UNL A   1      37.201  31.713  38.388  1.00  0.00    -0.200 F 
ATOM     79  C   UNL A   1      38.450  33.568  37.631  1.00  0.00     0.200 A 
ATOM     80  F   UNL A   1      39.706  35.397  36.822  1.00  0.00    -0.200 F 
ATOM     81  F   UNL A   1      38.018  34.302  38.665  1.00  0.00    -0.200 F 
ENDBRANCH  47  71
BRANCH  59  82
ATOM     82  C   UNL A   1      44.872  27.885  34.492  1.00  0.00     0.064 A 
ATOM     83  C   UNL A   1      46.041  28.659  34.530  1.00  0.00     0.173 A 
ATOM     84  C   UNL A   1      44.791  26.769  35.337  1.00  0.00     0.173 A 
ATOM     85  F   UNL A   1      46.171  29.726  33.727  1.00  0.00    -0.203 F 
ATOM     86  C   UNL A   1      47.098  28.314  35.367  1.00  0.00     0.198 A 
ATOM     87  C   UNL A   1      45.839  26.443  36.193  1.00  0.00     0.198 A 
ATOM     88  F   UNL A   1      43.691  26.001  35.340  1.00  0.00    -0.203 F 
ATOM     89  F   UNL A   1      48.223  29.041  35.355  1.00  0.00    -0.200 F 
ATOM     90  C   UNL A   1      46.993  27.212  36.203  1.00  0.00     0.200 A 
ATOM     91  F   UNL A   1      45.732  25.385  37.007  1.00  0.00    -0.200 F 
ATOM     92  F   UNL A   1      48.010  26.884  37.012  1.00  0.00    -0.200 F 
ENDBRANCH  59  82
ENDBRANCH  33  34
ENDBRANCH  26  28
ENDBRANCH  25  26
ENDBRANCH  24  25
ENDBRANCH   1  24
TORSDOF 15
ENDMDL
MODEL 2
REMARK VINA RESULT:     -12.0      4.031      9.530
REMARK SMILES CCOc1ccc(NC(=O)N2CC[C@@H](C(=O)OCCOC(=O)c3ccc(-c4c5nc(c(-c6c(F)c(F)c(F)c(F)c6F)c6ccc([nH]6)c(-c6c(F)c(F)c(F)c(F)c6F)c6nc(c(-c7c(F)c(F)c(F)c(F)c7F)c7ccc4[nH]7)C=C6)C=C5)cc3)[C@@H]2C)cc1
REMARK SMILES IDX 18 1 17 2 15 3 16 4 14 5 11 6 12 7 86 8 13 9 87 10 9 11 8 12
REMARK SMILES IDX 10 14 7 15 4 16 5 17 89 18 6 19 88 20 3 21 2 22 1 23 19 24
REMARK SMILES IDX 20 25 21 26 22 27 23 28 24 29 85 30 25 31 84 32 26 33 27 34
REMARK SMILES IDX 28 35 78 36 29 37 83 38 77 39 79 40 30 41 82 42 76 43 75 44
REMARK SMILES IDX 31 46 63 47 43 48 62 49 44 50 47 51 61 52 80 53 45 54 46 55
REMARK SMILES IDX 60 57 81 58 48 59 32 60 33 61 41 62 34 63 35 64 39 65 42 66
REMARK SMILES IDX 36 67 37 68 40 69 38 70 64 71 65 72 73 73 66 74 67 75 71 76
REMARK SMILES IDX 74 77 68 78 69 79 72 80 70 81 49 82 50 83 58 84 51 85 52 86
REMARK SMILES IDX 56 87 59 88 53 89 54 90 57 91 55 92
REMARK H PARENT 8 13 79 45 47 56
REMARK Flexibility Score: inf
ROOT
ATOM      1  C   UNL A   1      36.658  23.121  23.675  1.00  0.00     0.274 C 
ENDROOT
BRANCH   1   2
ATOM      2  O   UNL A   1      35.553  22.953  22.760  1.00  0.00    -0.462 OA
BRANCH   2   3
ATOM      3  C   UNL A   1      34.383  23.545  23.098  1.00  0.00     0.311 C 
ATOM      4  O   UNL A   1      33.953  24.575  22.587  1.00  0.00    -0.252 OA
BRANCH   3   5
ATOM      5  C   UNL A   1      33.641  22.850  24.222  1.00  0.00     0.123 C 
ATOM      6  N   UNL A   1      31.773  23.453  25.560  1.00  0.00    -0.321 N 
ATOM      7  C   UNL A   1      31.443  22.211  24.899  1.00  0.00     0.122 C 
ATOM      8  C   UNL A   1      33.214  23.725  25.423  1.00  0.00     0.098 C 
ATOM      9  C   UNL A   1      32.348  22.227  23.689  1.00  0.00     0.039 C 
ATOM     10  C   UNL A   1      33.953  23.314  26.705  1.00  0.00     0.032 C 
BRANCH   6  11
ATOM     11  C   UNL A   1      30.863  24.034  26.393  1.00  0.00     0.322 C 
ATOM     12  N   UNL A   1      30.516  25.336  26.260  1.00  0.00    -0.308 N 
ATOM     13  H   UNL A   1      30.288  25.776  27.111  1.00  0.00     0.171 HD
ATOM     14  O   UNL A   1      30.359  23.400  27.325  1.00  0.00    -0.248 OA
BRANCH  12  15
ATOM     15  C   UNL A   1      30.418  26.179  25.142  1.00  0.00     0.043 A 
ATOM     16  C   UNL A   1      30.028  27.958  23.012  1.00  0.00     0.119 A 
ATOM     17  C   UNL A   1      31.309  27.721  23.499  1.00  0.00     0.048 A 
ATOM     18  C   UNL A   1      28.958  27.214  23.501  1.00  0.00     0.048 A 
ATOM     19  C   UNL A   1      31.506  26.819  24.548  1.00  0.00     0.030 A 
ATOM     20  C   UNL A   1      29.154  26.327  24.564  1.00  0.00     0.030 A 
BRANCH  16  21
ATOM     21  O   UNL A   1      29.910  28.882  22.014  1.00  0.00    -0.494 OA
BRANCH  21  22
ATOM     22  C   UNL A   1      29.233  30.085  22.404  1.00  0.00     0.226 C 
ATOM     23  C   UNL A   1      28.028  30.313  21.510  1.00  0.00     0.049 C 
ENDBRANCH  21  22
ENDBRANCH  16  21
ENDBRANCH  12  15
ENDBRANCH   6  11
ENDBRANCH   3   5
ENDBRANCH   2   3
ENDBRANCH   1   2
BRANCH   1  24
ATOM     24  C   UNL A   1      37.034  21.801  24.358  1.00  0.00     0.275 C 
BRANCH  24  25
ATOM     25  O   UNL A   1      37.376  22.009  25.739  1.00  0.00    -0.458 OA
BRANCH  25  26
ATOM     26  C   UNL A   1      38.636  21.651  26.073  1.00  0.00     0.338 C 
ATOM     27  O   UNL A   1      39.190  20.586  25.872  1.00  0.00    -0.246 OA
BRANCH  26  28
ATOM     28  C   UNL A   1      39.347  22.831  26.576  1.00  0.00     0.060 A 
ATOM     29  C   UNL A   1      38.916  24.080  26.125  1.00  0.00     0.016 A 
ATOM     30  C   UNL A   1      40.456  22.719  27.412  1.00  0.00     0.016 A 
ATOM     31  C   UNL A   1      39.596  25.230  26.487  1.00  0.00     0.010 A 
ATOM     32  C   UNL A   1      41.133  23.882  27.795  1.00  0.00     0.010 A 
ATOM     33  C   UNL A   1      40.710  25.139  27.324  1.00  0.00    -0.014 A 
BRANCH  33  34
ATOM     34  C   UNL A   1      41.450  26.370  27.663  1.00  0.00     0.031 A 
ATOM     35  C   UNL A   1      40.785  27.429  28.487  1.00  0.00     0.074 A 
ATOM     36  C   UNL A   1      42.728  26.504  27.265  1.00  0.00     0.049 A 
ATOM     37  N   UNL A   1      41.222  28.614  28.822  1.00  0.00    -0.248 NA
ATOM     38  C   UNL A   1      39.444  27.110  29.003  1.00  0.00     0.031 C 
ATOM     39  C   UNL A   1      43.486  25.499  26.518  1.00  0.00     0.029 A 
ATOM     40  N   UNL A   1      43.614  27.534  27.437  1.00  0.00    -0.354 N 
ATOM     41  C   UNL A   1      40.202  29.196  29.561  1.00  0.00     0.074 A 
ATOM     42  C   UNL A   1      39.119  28.238  29.619  1.00  0.00     0.031 C 
ATOM     43  C   UNL A   1      44.726  25.963  26.298  1.00  0.00     0.029 A 
ATOM     44  C   UNL A   1      44.829  27.313  26.840  1.00  0.00     0.049 A 
ATOM     45  H   UNL A   1      43.399  28.352  27.940  1.00  0.00     0.167 HD
ATOM     46  C   UNL A   1      40.180  30.421  30.137  1.00  0.00     0.037 A 
ATOM     47  C   UNL A   1      45.893  28.128  26.719  1.00  0.00     0.037 A 
ATOM     48  C   UNL A   1      41.275  31.353  30.082  1.00  0.00     0.049 A 
ATOM     49  C   UNL A   1      45.821  29.505  27.319  1.00  0.00     0.074 A 
ATOM     50  C   UNL A   1      41.362  32.621  30.628  1.00  0.00     0.029 A 
ATOM     51  N   UNL A   1      42.482  31.111  29.439  1.00  0.00    -0.354 N 
ATOM     52  N   UNL A   1      44.845  30.062  27.996  1.00  0.00    -0.248 NA
ATOM     53  C   UNL A   1      46.993  30.369  27.133  1.00  0.00     0.031 C 
ATOM     54  C   UNL A   1      42.605  33.161  30.281  1.00  0.00     0.029 A 
ATOM     55  C   UNL A   1      43.313  32.213  29.558  1.00  0.00     0.049 A 
ATOM     56  H   UNL A   1      42.713  30.278  28.966  1.00  0.00     0.167 HD
ATOM     57  C   UNL A   1      45.289  31.331  28.332  1.00  0.00     0.074 A 
ATOM     58  C   UNL A   1      46.631  31.457  27.798  1.00  0.00     0.031 C 
ATOM     59  C   UNL A   1      44.646  32.309  29.018  1.00  0.00     0.037 A 
BRANCH  46  60
ATOM     60  C   UNL A   1      38.916  30.832  30.832  1.00  0.00     0.064 A 
ATOM     61  C   UNL A   1      38.751  30.690  32.217  1.00  0.00     0.173 A 
ATOM     62  C   UNL A   1      37.855  31.384  30.098  1.00  0.00     0.173 A 
ATOM     63  F   UNL A   1      39.727  30.151  32.962  1.00  0.00    -0.203 F 
ATOM     64  C   UNL A   1      37.559  31.057  32.838  1.00  0.00     0.198 A 
ATOM     65  C   UNL A   1      36.674  31.775  30.726  1.00  0.00     0.198 A 
ATOM     66  F   UNL A   1      37.961  31.542  28.770  1.00  0.00    -0.203 F 
ATOM     67  F   UNL A   1      37.403  30.863  34.155  1.00  0.00    -0.200 F 
ATOM     68  C   UNL A   1      36.524  31.603  32.093  1.00  0.00     0.200 A 
ATOM     69  F   UNL A   1      35.680  32.310  30.005  1.00  0.00    -0.200 F 
ATOM     70  F   UNL A   1      35.378  31.955  32.692  1.00  0.00    -0.200 F 
ENDBRANCH  46  60
BRANCH  47  71
ATOM     71  C   UNL A   1      47.098  27.666  25.984  1.00  0.00     0.064 A 
ATOM     72  C   UNL A   1      48.208  27.149  26.667  1.00  0.00     0.173 A 
ATOM     73  C   UNL A   1      47.161  27.719  24.583  1.00  0.00     0.173 A 
ATOM     74  F   UNL A   1      48.204  27.098  28.008  1.00  0.00    -0.203 F 
ATOM     75  C   UNL A   1      49.337  26.711  25.977  1.00  0.00     0.198 A 
ATOM     76  C   UNL A   1      48.279  27.255  23.894  1.00  0.00     0.198 A 
ATOM     77  F   UNL A   1      46.127  28.205  23.882  1.00  0.00    -0.203 F 
ATOM     78  F   UNL A   1      50.398  26.256  26.658  1.00  0.00    -0.200 F 
ATOM     79  C   UNL A   1      49.370  26.758  24.592  1.00  0.00     0.200 A 
ATOM     80  F   UNL A   1      48.300  27.290  22.555  1.00  0.00    -0.200 F 
ATOM     81  F   UNL A   1      50.452  26.329  23.930  1.00  0.00    -0.200 F 
ENDBRANCH  47  71
BRANCH  59  82
ATOM     82  C   UNL A   1      45.401  33.583  29.255  1.00  0.00     0.064 A 
ATOM     83  C   UNL A   1      45.316  34.662  28.363  1.00  0.00     0.173 A 
ATOM     84  C   UNL A   1      46.188  33.736  30.404  1.00  0.00     0.173 A 
ATOM     85  F   UNL A   1      44.588  34.555  27.241  1.00  0.00    -0.203 F 
ATOM     86  C   UNL A   1      46.013  35.842  28.603  1.00  0.00     0.198 A 
ATOM     87  C   UNL A   1      46.862  34.928  30.655  1.00  0.00     0.198 A 
ATOM     88  F   UNL A   1      46.296  32.734  31.290  1.00  0.00    -0.203 F 
ATOM     89  F   UNL A   1      45.954  36.844  27.716  1.00  0.00    -0.200 F 
ATOM     90  C   UNL A   1      46.778  35.977  29.752  1.00  0.00     0.200 A 
ATOM     91  F   UNL A   1      47.592  35.061  31.771  1.00  0.00    -0.200 F 
ATOM     92  F   UNL A   1      47.445  37.116  29.984  1.00  0.00    -0.200 F 
ENDBRANCH  59  82
ENDBRANCH  33  34
ENDBRANCH  26  28
ENDBRANCH  25  26
ENDBRANCH  24  25
ENDBRANCH   1  24
TORSDOF 15
ENDMDL
MODEL 3
REMARK VINA RESULT:     -12.0      1.345      2.246
REMARK SMILES CCOc1ccc(NC(=O)N2CC[C@@H](C(=O)OCCOC(=O)c3ccc(-c4c5nc(c(-c6c(F)c(F)c(F)c(F)c6F)c6ccc([nH]6)c(-c6c(F)c(F)c(F)c(F)c6F)c6nc(c(-c7c(F)c(F)c(F)c(F)c7F)c7ccc4[nH]7)C=C6)C=C5)cc3)[C@@H]2C)cc1
REMARK SMILES IDX 18 1 17 2 15 3 16 4 14 5 11 6 12 7 86 8 13 9 87 10 9 11 8 12
REMARK SMILES IDX 10 14 7 15 4 16 5 17 89 18 6 19 88 20 3 21 2 22 1 23 19 24
REMARK SMILES IDX 20 25 21 26 22 27 23 28 24 29 85 30 25 31 84 32 26 33 27 34
REMARK SMILES IDX 28 35 78 36 29 37 83 38 77 39 79 40 30 41 82 42 76 43 75 44
REMARK SMILES IDX 31 46 63 47 43 48 62 49 44 50 47 51 61 52 80 53 45 54 46 55
REMARK SMILES IDX 60 57 81 58 48 59 32 60 33 61 41 62 34 63 35 64 39 65 42 66
REMARK SMILES IDX 36 67 37 68 40 69 38 70 64 71 65 72 73 73 66 74 67 75 71 76
REMARK SMILES IDX 74 77 68 78 69 79 72 80 70 81 49 82 50 83 58 84 51 85 52 86
REMARK SMILES IDX 56 87 59 88 53 89 54 90 57 91 55 92
REMARK H PARENT 8 13 79 45 47 56
REMARK Flexibility Score: inf
ROOT
ATOM      1  C   UNL A   1      31.963  28.292  27.554  1.00  0.00     0.274 C 
ENDROOT
BRANCH   1   2
ATOM      2  O   UNL A   1      30.864  27.415  27.224  1.00  0.00    -0.462 OA
BRANCH   2   3
ATOM      3  C   UNL A   1      31.147  26.344  26.445  1.00  0.00     0.311 C 
ATOM      4  O   UNL A   1      31.360  25.213  26.870  1.00  0.00    -0.252 OA
BRANCH   3   5
ATOM      5  C   UNL A   1      31.232  26.662  24.966  1.00  0.00     0.123 C 
ATOM      6  N   UNL A   1      32.392  25.665  23.148  1.00  0.00    -0.321 N 
ATOM      7  C   UNL A   1      30.985  25.651  22.817  1.00  0.00     0.122 C 
ATOM      8  C   UNL A   1      32.625  26.546  24.305  1.00  0.00     0.098 C 
ATOM      9  C   UNL A   1      30.324  25.718  24.174  1.00  0.00     0.039 C 
ATOM     10  C   UNL A   1      33.136  27.915  23.832  1.00  0.00     0.032 C 
BRANCH   6  11
ATOM     11  C   UNL A   1      33.294  25.140  22.270  1.00  0.00     0.322 C 
ATOM     12  N   UNL A   1      33.868  23.932  22.488  1.00  0.00    -0.308 N 
ATOM     13  H   UNL A   1      34.787  23.860  22.140  1.00  0.00     0.171 HD
ATOM     14  O   UNL A   1      33.649  25.770  21.270  1.00  0.00    -0.248 OA
BRANCH  12  15
ATOM     15  C   UNL A   1      33.406  22.764  23.114  1.00  0.00     0.043 A 
ATOM     16  C   UNL A   1      32.532  20.317  24.160  1.00  0.00     0.119 A 
ATOM     17  C   UNL A   1      33.299  21.175  24.940  1.00  0.00     0.048 A 
ATOM     18  C   UNL A   1      32.094  20.733  22.906  1.00  0.00     0.048 A 
ATOM     19  C   UNL A   1      33.719  22.404  24.425  1.00  0.00     0.030 A 
ATOM     20  C   UNL A   1      32.531  21.954  22.386  1.00  0.00     0.030 A 
BRANCH  16  21
ATOM     21  O   UNL A   1      32.194  19.116  24.716  1.00  0.00    -0.494 OA
BRANCH  21  22
ATOM     22  C   UNL A   1      33.282  18.189  24.819  1.00  0.00     0.226 C 
ATOM     23  C   UNL A   1      33.359  17.340  23.563  1.00  0.00     0.049 C 
ENDBRANCH  21  22
ENDBRANCH  16  21
ENDBRANCH  12  15
ENDBRANCH   6  11
ENDBRANCH   3   5
ENDBRANCH   2   3
ENDBRANCH   1   2
BRANCH   1  24
ATOM     24  C   UNL A   1      31.820  29.659  26.876  1.00  0.00     0.275 C 
BRANCH  24  25
ATOM     25  O   UNL A   1      33.097  30.164  26.450  1.00  0.00    -0.458 OA
BRANCH  25  26
ATOM     26  C   UNL A   1      33.510  31.281  27.090  1.00  0.00     0.338 C 
ATOM     27  O   UNL A   1      32.899  32.321  27.252  1.00  0.00    -0.246 OA
BRANCH  26  28
ATOM     28  C   UNL A   1      34.787  31.001  27.757  1.00  0.00     0.060 A 
ATOM     29  C   UNL A   1      35.002  29.699  28.209  1.00  0.00     0.016 A 
ATOM     30  C   UNL A   1      35.724  32.004  27.999  1.00  0.00     0.016 A 
ATOM     31  C   UNL A   1      36.145  29.383  28.924  1.00  0.00     0.010 A 
ATOM     32  C   UNL A   1      36.888  31.683  28.705  1.00  0.00     0.010 A 
ATOM     33  C   UNL A   1      37.095  30.374  29.177  1.00  0.00    -0.014 A 
BRANCH  33  34
ATOM     34  C   UNL A   1      38.285  30.032  29.981  1.00  0.00     0.031 A 
ATOM     35  C   UNL A   1      39.332  29.131  29.404  1.00  0.00     0.074 A 
ATOM     36  C   UNL A   1      38.435  30.572  31.204  1.00  0.00     0.049 A 
ATOM     37  N   UNL A   1      40.405  28.639  29.967  1.00  0.00    -0.248 NA
ATOM     38  C   UNL A   1      39.147  28.727  28.000  1.00  0.00     0.031 C 
ATOM     39  C   UNL A   1      37.505  31.515  31.827  1.00  0.00     0.029 A 
ATOM     40  N   UNL A   1      39.424  30.409  32.137  1.00  0.00    -0.354 N 
ATOM     41  C   UNL A   1      41.006  27.845  29.001  1.00  0.00     0.074 A 
ATOM     42  C   UNL A   1      40.175  27.911  27.818  1.00  0.00     0.031 C 
ATOM     43  C   UNL A   1      37.970  31.849  33.041  1.00  0.00     0.029 A 
ATOM     44  C   UNL A   1      39.197  31.104  33.299  1.00  0.00     0.049 A 
ATOM     45  H   UNL A   1      40.219  29.848  31.989  1.00  0.00     0.167 HD
ATOM     46  C   UNL A   1      42.149  27.127  29.102  1.00  0.00     0.037 A 
ATOM     47  C   UNL A   1      39.891  31.109  34.452  1.00  0.00     0.037 A 
ATOM     48  C   UNL A   1      42.970  27.087  30.283  1.00  0.00     0.049 A 
ATOM     49  C   UNL A   1      41.127  30.259  34.556  1.00  0.00     0.074 A 
ATOM     50  C   UNL A   1      44.148  26.394  30.496  1.00  0.00     0.029 A 
ATOM     51  N   UNL A   1      42.694  27.778  31.456  1.00  0.00    -0.354 N 
ATOM     52  N   UNL A   1      41.679  29.489  33.649  1.00  0.00    -0.248 NA
ATOM     53  C   UNL A   1      41.831  30.271  35.844  1.00  0.00     0.031 C 
ATOM     54  C   UNL A   1      44.562  26.633  31.811  1.00  0.00     0.029 A 
ATOM     55  C   UNL A   1      43.669  27.512  32.403  1.00  0.00     0.049 A 
ATOM     56  H   UNL A   1      41.918  28.369  31.594  1.00  0.00     0.167 HD
ATOM     57  C   UNL A   1      42.803  28.940  34.247  1.00  0.00     0.074 A 
ATOM     58  C   UNL A   1      42.863  29.479  35.592  1.00  0.00     0.031 C 
ATOM     59  C   UNL A   1      43.704  28.066  33.734  1.00  0.00     0.037 A 
BRANCH  46  60
ATOM     60  C   UNL A   1      42.547  26.296  27.918  1.00  0.00     0.064 A 
ATOM     61  C   UNL A   1      42.023  25.014  27.702  1.00  0.00     0.173 A 
ATOM     62  C   UNL A   1      43.464  26.797  26.981  1.00  0.00     0.173 A 
ATOM     63  F   UNL A   1      41.158  24.481  28.577  1.00  0.00    -0.203 F 
ATOM     64  C   UNL A   1      42.425  24.250  26.608  1.00  0.00     0.198 A 
ATOM     65  C   UNL A   1      43.843  26.042  25.873  1.00  0.00     0.198 A 
ATOM     66  F   UNL A   1      43.995  28.018  27.140  1.00  0.00    -0.203 F 
ATOM     67  F   UNL A   1      41.953  23.006  26.449  1.00  0.00    -0.200 F 
ATOM     68  C   UNL A   1      43.331  24.767  25.692  1.00  0.00     0.200 A 
ATOM     69  F   UNL A   1      44.712  26.546  24.986  1.00  0.00    -0.200 F 
ATOM     70  F   UNL A   1      43.718  24.031  24.641  1.00  0.00    -0.200 F 
ENDBRANCH  46  60
BRANCH  47  71
ATOM     71  C   UNL A   1      39.417  31.929  35.595  1.00  0.00     0.064 A 
ATOM     72  C   UNL A   1      38.502  31.415  36.525  1.00  0.00     0.173 A 
ATOM     73  C   UNL A   1      39.877  33.240  35.791  1.00  0.00     0.173 A 
ATOM     74  F   UNL A   1      38.016  30.175  36.368  1.00  0.00    -0.203 F 
ATOM     75  C   UNL A   1      38.060  32.183  37.600  1.00  0.00     0.198 A 
ATOM     76  C   UNL A   1      39.456  33.997  36.881  1.00  0.00     0.198 A 
ATOM     77  F   UNL A   1      40.753  33.780  34.931  1.00  0.00    -0.203 F 
ATOM     78  F   UNL A   1      37.157  31.679  38.452  1.00  0.00    -0.200 F 
ATOM     79  C   UNL A   1      38.542  33.470  37.782  1.00  0.00     0.200 A 
ATOM     80  F   UNL A   1      39.935  35.236  37.060  1.00  0.00    -0.200 F 
ATOM     81  F   UNL A   1      38.123  34.205  38.821  1.00  0.00    -0.200 F 
ENDBRANCH  47  71
BRANCH  59  82
ATOM     82  C   UNL A   1      44.846  27.667  34.621  1.00  0.00     0.064 A 
ATOM     83  C   UNL A   1      44.767  26.546  35.460  1.00  0.00     0.173 A 
ATOM     84  C   UNL A   1      46.043  28.397  34.604  1.00  0.00     0.173 A 
ATOM     85  F   UNL A   1      43.635  25.828  35.521  1.00  0.00    -0.203 F 
ATOM     86  C   UNL A   1      45.840  26.182  36.267  1.00  0.00     0.198 A 
ATOM     87  C   UNL A   1      47.124  28.014  35.393  1.00  0.00     0.198 A 
ATOM     88  F   UNL A   1      46.169  29.474  33.815  1.00  0.00    -0.203 F 
ATOM     89  F   UNL A   1      45.727  25.134  37.095  1.00  0.00    -0.200 F 
ATOM     90  C   UNL A   1      47.019  26.912  36.228  1.00  0.00     0.200 A 
ATOM     91  F   UNL A   1      48.266  28.712  35.346  1.00  0.00    -0.200 F 
ATOM     92  F   UNL A   1      48.054  26.557  37.003  1.00  0.00    -0.200 F 
ENDBRANCH  59  82
ENDBRANCH  33  34
ENDBRANCH  26  28
ENDBRANCH  25  26
ENDBRANCH  24  25
ENDBRANCH   1  24
TORSDOF 15
ENDMDL
