MODEL 1
REMARK VINA RESULT:     -12.5      0.000      0.000
REMARK SMILES CS(=O)(=O)c1ccc(NS(=O)(=O)c2ccc(F)c(C(=O)OCCOC(=O)c3ccc(-c4c5nc(c(-c6c(F)c(F)c(F)c(F)c6F)c6ccc([nH]6)c(-c6c(F)c(F)c(F)c(F)c6F)c6nc(c(-c7c(F)c(F)c(F)c(F)c7F)c7ccc4[nH]7)C=C6)C=C5)cc3)c2)cc1
REMARK SMILES IDX 22 1 21 2 19 3 20 4 18 5 13 6 14 7 90 8 15 9 16 10 17 11
REMARK SMILES IDX 10 12 11 13 12 14 9 15 8 17 5 18 6 19 92 20 7 21 91 22 2 23
REMARK SMILES IDX 1 24 3 25 4 26 23 27 24 28 25 29 26 30 27 31 28 32 89 33
REMARK SMILES IDX 29 34 88 35 30 36 31 37 32 38 82 39 33 40 87 41 81 42 83 43
REMARK SMILES IDX 34 44 86 45 80 46 79 47 35 49 67 50 47 51 66 52 48 53 51 54
REMARK SMILES IDX 65 55 84 56 49 57 50 58 64 60 85 61 52 62 36 63 37 64 45 65
REMARK SMILES IDX 38 66 39 67 43 68 46 69 40 70 41 71 44 72 42 73 68 74 69 75
REMARK SMILES IDX 77 76 70 77 71 78 75 79 78 80 72 81 73 82 76 83 74 84 53 85
REMARK SMILES IDX 54 86 62 87 55 88 56 89 60 90 63 91 57 92 58 93 61 94 59 95
REMARK H PARENT 9 16 83 48 51 59
REMARK Flexibility Score: inf
ROOT
ATOM      1  C   UNL A   1      31.850  28.332  27.101  1.00  0.00     0.275 C 
ENDROOT
BRANCH   1   2
ATOM      2  O   UNL A   1      32.805  27.419  26.515  1.00  0.00    -0.458 OA
BRANCH   2   3
ATOM      3  C   UNL A   1      32.345  26.165  26.280  1.00  0.00     0.341 C 
ATOM      4  O   UNL A   1      31.384  25.651  26.831  1.00  0.00    -0.246 OA
BRANCH   3   5
ATOM      5  C   UNL A   1      33.142  25.467  25.236  1.00  0.00     0.097 A 
ATOM      6  C   UNL A   1      35.036  24.142  24.481  1.00  0.00     0.088 A 
ATOM      7  C   UNL A   1      34.418  23.947  23.240  1.00  0.00     0.025 A 
ATOM      8  C   UNL A   1      34.396  24.891  25.489  1.00  0.00     0.041 A 
ATOM      9  C   UNL A   1      33.215  24.588  22.965  1.00  0.00     0.041 A 
ATOM     10  C   UNL A   1      32.585  25.334  23.957  1.00  0.00     0.137 A 
ATOM     11  F   UNL A   1      31.430  25.933  23.633  1.00  0.00    -0.206 F 
BRANCH   6  12
ATOM     12  S   UNL A   1      36.556  23.295  24.855  1.00  0.00     0.261 S 
ATOM     13  O   UNL A   1      37.358  24.236  25.608  1.00  0.00    -0.201 OA
ATOM     14  O   UNL A   1      37.055  22.733  23.618  1.00  0.00    -0.201 OA
BRANCH  12  15
ATOM     15  N   UNL A   1      36.297  21.981  25.898  1.00  0.00    -0.280 N 
ATOM     16  H   UNL A   1      36.690  22.014  26.800  1.00  0.00     0.180 HD
BRANCH  15  17
ATOM     17  C   UNL A   1      35.536  20.829  25.531  1.00  0.00     0.049 A 
ATOM     18  C   UNL A   1      34.064  18.604  24.699  1.00  0.00     0.067 A 
ATOM     19  C   UNL A   1      33.402  19.729  25.201  1.00  0.00     0.022 A 
ATOM     20  C   UNL A   1      35.454  18.601  24.563  1.00  0.00     0.022 A 
ATOM     21  C   UNL A   1      34.141  20.848  25.596  1.00  0.00     0.028 A 
ATOM     22  C   UNL A   1      36.188  19.714  24.987  1.00  0.00     0.028 A 
BRANCH  18  23
ATOM     23  S   UNL A   1      33.116  17.202  24.143  1.00  0.00     0.175 S 
ATOM     24  C   UNL A   1      33.811  15.849  25.056  1.00  0.00     0.163 C 
ATOM     25  O   UNL A   1      33.418  17.005  22.739  1.00  0.00    -0.224 OA
ATOM     26  O   UNL A   1      31.753  17.401  24.596  1.00  0.00    -0.224 OA
ENDBRANCH  18  23
ENDBRANCH  15  17
ENDBRANCH  12  15
ENDBRANCH   6  12
ENDBRANCH   3   5
ENDBRANCH   2   3
ENDBRANCH   1   2
BRANCH   1  27
ATOM     27  C   UNL A   1      31.781  29.649  26.329  1.00  0.00     0.275 C 
BRANCH  27  28
ATOM     28  O   UNL A   1      33.098  30.203  26.156  1.00  0.00    -0.458 OA
BRANCH  28  29
ATOM     29  C   UNL A   1      33.401  31.237  26.972  1.00  0.00     0.338 C 
ATOM     30  O   UNL A   1      32.714  32.204  27.249  1.00  0.00    -0.246 OA
BRANCH  29  31
ATOM     31  C   UNL A   1      34.703  30.988  27.604  1.00  0.00     0.060 A 
ATOM     32  C   UNL A   1      35.015  29.680  27.964  1.00  0.00     0.016 A 
ATOM     33  C   UNL A   1      35.549  32.039  27.955  1.00  0.00     0.016 A 
ATOM     34  C   UNL A   1      36.156  29.411  28.712  1.00  0.00     0.010 A 
ATOM     35  C   UNL A   1      36.729  31.760  28.656  1.00  0.00     0.010 A 
ATOM     36  C   UNL A   1      37.036  30.445  29.056  1.00  0.00    -0.014 A 
BRANCH  36  37
ATOM     37  C   UNL A   1      38.255  30.148  29.859  1.00  0.00     0.031 A 
ATOM     38  C   UNL A   1      39.346  29.283  29.291  1.00  0.00     0.074 A 
ATOM     39  C   UNL A   1      38.401  30.675  31.090  1.00  0.00     0.049 A 
ATOM     40  N   UNL A   1      40.403  28.784  29.882  1.00  0.00    -0.248 NA
ATOM     41  C   UNL A   1      39.230  28.928  27.869  1.00  0.00     0.031 C 
ATOM     42  C   UNL A   1      37.457  31.585  31.739  1.00  0.00     0.029 A 
ATOM     43  N   UNL A   1      39.406  30.525  32.015  1.00  0.00    -0.354 N 
ATOM     44  C   UNL A   1      41.050  28.021  28.920  1.00  0.00     0.074 A 
ATOM     45  C   UNL A   1      40.264  28.117  27.707  1.00  0.00     0.031 C 
ATOM     46  C   UNL A   1      37.940  31.937  32.940  1.00  0.00     0.029 A 
ATOM     47  C   UNL A   1      39.179  31.208  33.185  1.00  0.00     0.049 A 
ATOM     48  H   UNL A   1      40.210  29.981  31.856  1.00  0.00     0.167 HD
ATOM     49  C   UNL A   1      42.195  27.304  29.039  1.00  0.00     0.037 A 
ATOM     50  C   UNL A   1      39.862  31.209  34.346  1.00  0.00     0.037 A 
ATOM     51  C   UNL A   1      42.995  27.244  30.236  1.00  0.00     0.049 A 
ATOM     52  C   UNL A   1      41.080  30.339  34.484  1.00  0.00     0.074 A 
ATOM     53  C   UNL A   1      44.184  26.567  30.448  1.00  0.00     0.029 A 
ATOM     54  N   UNL A   1      42.687  27.888  31.426  1.00  0.00    -0.354 N 
ATOM     55  N   UNL A   1      41.663  29.585  33.585  1.00  0.00    -0.248 NA
ATOM     56  C   UNL A   1      41.716  30.299  35.808  1.00  0.00     0.031 C 
ATOM     57  C   UNL A   1      44.569  26.762  31.779  1.00  0.00     0.029 A 
ATOM     58  C   UNL A   1      43.646  27.599  32.385  1.00  0.00     0.049 A 
ATOM     59  H   UNL A   1      41.902  28.465  31.568  1.00  0.00     0.167 HD
ATOM     60  C   UNL A   1      42.735  28.983  34.229  1.00  0.00     0.074 A 
ATOM     61  C   UNL A   1      42.737  29.481  35.589  1.00  0.00     0.031 C 
ATOM     62  C   UNL A   1      43.630  28.091  33.739  1.00  0.00     0.037 A 
BRANCH  49  63
ATOM     63  C   UNL A   1      42.626  26.486  27.854  1.00  0.00     0.064 A 
ATOM     64  C   UNL A   1      43.539  26.970  26.906  1.00  0.00     0.173 A 
ATOM     65  C   UNL A   1      42.124  25.187  27.677  1.00  0.00     0.173 A 
ATOM     66  F   UNL A   1      44.041  28.207  27.023  1.00  0.00    -0.203 F 
ATOM     67  C   UNL A   1      43.904  26.198  25.804  1.00  0.00     0.198 A 
ATOM     68  C   UNL A   1      42.516  24.406  26.593  1.00  0.00     0.198 A 
ATOM     69  F   UNL A   1      41.255  24.671  28.559  1.00  0.00    -0.203 F 
ATOM     70  F   UNL A   1      44.734  26.702  24.880  1.00  0.00    -0.200 F 
ATOM     71  C   UNL A   1      43.395  24.916  25.651  1.00  0.00     0.200 A 
ATOM     72  F   UNL A   1      42.034  23.163  26.455  1.00  0.00    -0.200 F 
ATOM     73  F   UNL A   1      43.748  24.174  24.592  1.00  0.00    -0.200 F 
ENDBRANCH  49  63
BRANCH  50  74
ATOM     74  C   UNL A   1      39.375  32.028  35.487  1.00  0.00     0.064 A 
ATOM     75  C   UNL A   1      38.509  31.486  36.445  1.00  0.00     0.173 A 
ATOM     76  C   UNL A   1      39.777  33.363  35.650  1.00  0.00     0.173 A 
ATOM     77  F   UNL A   1      38.074  30.224  36.316  1.00  0.00    -0.203 F 
ATOM     78  C   UNL A   1      38.064  32.248  37.524  1.00  0.00     0.198 A 
ATOM     79  C   UNL A   1      39.357  34.113  36.746  1.00  0.00     0.198 A 
ATOM     80  F   UNL A   1      40.600  33.931  34.757  1.00  0.00    -0.203 F 
ATOM     81  F   UNL A   1      37.210  31.715  38.409  1.00  0.00    -0.200 F 
ATOM     82  C   UNL A   1      38.496  33.556  37.680  1.00  0.00     0.200 A 
ATOM     83  F   UNL A   1      39.789  35.372  36.899  1.00  0.00    -0.200 F 
ATOM     84  F   UNL A   1      38.080  34.282  38.726  1.00  0.00    -0.200 F 
ENDBRANCH  50  74
BRANCH  62  85
ATOM     85  C   UNL A   1      44.695  27.603  34.678  1.00  0.00     0.064 A 
ATOM     86  C   UNL A   1      45.910  28.287  34.824  1.00  0.00     0.173 A 
ATOM     87  C   UNL A   1      44.485  26.460  35.464  1.00  0.00     0.173 A 
ATOM     88  F   UNL A   1      46.167  29.374  34.080  1.00  0.00    -0.203 F 
ATOM     89  C   UNL A   1      46.885  27.833  35.709  1.00  0.00     0.198 A 
ATOM     90  C   UNL A   1      45.451  26.026  36.368  1.00  0.00     0.198 A 
ATOM     91  F   UNL A   1      43.339  25.771  35.363  1.00  0.00    -0.203 F 
ATOM     92  F   UNL A   1      48.057  28.477  35.799  1.00  0.00    -0.200 F 
ATOM     93  C   UNL A   1      46.651  26.708  36.485  1.00  0.00     0.200 A 
ATOM     94  F   UNL A   1      45.218  24.944  37.125  1.00  0.00    -0.200 F 
ATOM     95  F   UNL A   1      47.589  26.276  37.341  1.00  0.00    -0.200 F 
ENDBRANCH  62  85
ENDBRANCH  36  37
ENDBRANCH  29  31
ENDBRANCH  28  29
ENDBRANCH  27  28
ENDBRANCH   1  27
TORSDOF 15
ENDMDL
MODEL 2
REMARK VINA RESULT:     -12.4      4.516     10.184
REMARK SMILES CS(=O)(=O)c1ccc(NS(=O)(=O)c2ccc(F)c(C(=O)OCCOC(=O)c3ccc(-c4c5nc(c(-c6c(F)c(F)c(F)c(F)c6F)c6ccc([nH]6)c(-c6c(F)c(F)c(F)c(F)c6F)c6nc(c(-c7c(F)c(F)c(F)c(F)c7F)c7ccc4[nH]7)C=C6)C=C5)cc3)c2)cc1
REMARK SMILES IDX 22 1 21 2 19 3 20 4 18 5 13 6 14 7 90 8 15 9 16 10 17 11
REMARK SMILES IDX 10 12 11 13 12 14 9 15 8 17 5 18 6 19 92 20 7 21 91 22 2 23
REMARK SMILES IDX 1 24 3 25 4 26 23 27 24 28 25 29 26 30 27 31 28 32 89 33
REMARK SMILES IDX 29 34 88 35 30 36 31 37 32 38 82 39 33 40 87 41 81 42 83 43
REMARK SMILES IDX 34 44 86 45 80 46 79 47 35 49 67 50 47 51 66 52 48 53 51 54
REMARK SMILES IDX 65 55 84 56 49 57 50 58 64 60 85 61 52 62 36 63 37 64 45 65
REMARK SMILES IDX 38 66 39 67 43 68 46 69 40 70 41 71 44 72 42 73 68 74 69 75
REMARK SMILES IDX 77 76 70 77 71 78 75 79 78 80 72 81 73 82 76 83 74 84 53 85
REMARK SMILES IDX 54 86 62 87 55 88 56 89 60 90 63 91 57 92 58 93 61 94 59 95
REMARK H PARENT 9 16 83 48 51 59
REMARK Flexibility Score: inf
ROOT
ATOM      1  C   UNL A   1      36.528  22.585  23.563  1.00  0.00     0.275 C 
ENDROOT
BRANCH   1   2
ATOM      2  O   UNL A   1      35.908  23.716  24.216  1.00  0.00    -0.458 OA
BRANCH   2   3
ATOM      3  C   UNL A   1      34.715  24.106  23.700  1.00  0.00     0.341 C 
ATOM      4  O   UNL A   1      34.363  23.948  22.541  1.00  0.00    -0.246 OA
BRANCH   3   5
ATOM      5  C   UNL A   1      33.849  24.744  24.726  1.00  0.00     0.097 A 
ATOM      6  C   UNL A   1      33.144  26.619  26.105  1.00  0.00     0.088 A 
ATOM      7  C   UNL A   1      31.980  25.931  26.464  1.00  0.00     0.025 A 
ATOM      8  C   UNL A   1      34.077  26.035  25.225  1.00  0.00     0.041 A 
ATOM      9  C   UNL A   1      31.798  24.621  26.035  1.00  0.00     0.041 A 
ATOM     10  C   UNL A   1      32.722  24.040  25.171  1.00  0.00     0.137 A 
ATOM     11  F   UNL A   1      32.497  22.773  24.794  1.00  0.00    -0.206 F 
BRANCH   6  12
ATOM     12  S   UNL A   1      33.367  28.308  26.618  1.00  0.00     0.261 S 
ATOM     13  O   UNL A   1      34.774  28.444  26.932  1.00  0.00    -0.201 OA
ATOM     14  O   UNL A   1      32.362  28.594  27.620  1.00  0.00    -0.201 OA
BRANCH  12  15
ATOM     15  N   UNL A   1      33.079  29.391  25.342  1.00  0.00    -0.280 N 
ATOM     16  H   UNL A   1      33.847  29.862  24.945  1.00  0.00     0.180 HD
BRANCH  15  17
ATOM     17  C   UNL A   1      31.776  29.651  24.816  1.00  0.00     0.049 A 
ATOM     18  C   UNL A   1      29.278  30.192  23.686  1.00  0.00     0.067 A 
ATOM     19  C   UNL A   1      29.839  31.091  24.598  1.00  0.00     0.022 A 
ATOM     20  C   UNL A   1      29.978  29.047  23.297  1.00  0.00     0.022 A 
ATOM     21  C   UNL A   1      31.098  30.827  25.145  1.00  0.00     0.028 A 
ATOM     22  C   UNL A   1      31.225  28.776  23.870  1.00  0.00     0.028 A 
BRANCH  18  23
ATOM     23  S   UNL A   1      27.699  30.559  22.948  1.00  0.00     0.175 S 
ATOM     24  C   UNL A   1      28.079  30.709  21.221  1.00  0.00     0.163 C 
ATOM     25  O   UNL A   1      27.285  31.859  23.436  1.00  0.00    -0.224 OA
ATOM     26  O   UNL A   1      26.862  29.389  23.126  1.00  0.00    -0.224 OA
ENDBRANCH  18  23
ENDBRANCH  15  17
ENDBRANCH  12  15
ENDBRANCH   6  12
ENDBRANCH   3   5
ENDBRANCH   2   3
ENDBRANCH   1   2
BRANCH   1  27
ATOM     27  C   UNL A   1      36.708  21.409  24.523  1.00  0.00     0.275 C 
BRANCH  27  28
ATOM     28  O   UNL A   1      37.241  21.861  25.781  1.00  0.00    -0.458 OA
BRANCH  28  29
ATOM     29  C   UNL A   1      38.537  21.549  26.003  1.00  0.00     0.338 C 
ATOM     30  O   UNL A   1      39.117  20.509  25.743  1.00  0.00    -0.246 OA
BRANCH  29  31
ATOM     31  C   UNL A   1      39.233  22.726  26.538  1.00  0.00     0.060 A 
ATOM     32  C   UNL A   1      38.771  23.984  26.161  1.00  0.00     0.016 A 
ATOM     33  C   UNL A   1      40.397  22.597  27.293  1.00  0.00     0.016 A 
ATOM     34  C   UNL A   1      39.488  25.126  26.502  1.00  0.00     0.010 A 
ATOM     35  C   UNL A   1      41.086  23.751  27.688  1.00  0.00     0.010 A 
ATOM     36  C   UNL A   1      40.648  25.027  27.282  1.00  0.00    -0.014 A 
BRANCH  36  37
ATOM     37  C   UNL A   1      41.411  26.254  27.640  1.00  0.00     0.031 A 
ATOM     38  C   UNL A   1      40.773  27.327  28.478  1.00  0.00     0.074 A 
ATOM     39  C   UNL A   1      42.689  26.400  27.239  1.00  0.00     0.049 A 
ATOM     40  N   UNL A   1      41.210  28.528  28.764  1.00  0.00    -0.248 NA
ATOM     41  C   UNL A   1      39.465  27.008  29.069  1.00  0.00     0.031 C 
ATOM     42  C   UNL A   1      43.457  25.411  26.481  1.00  0.00     0.029 A 
ATOM     43  N   UNL A   1      43.572  27.437  27.419  1.00  0.00    -0.354 N 
ATOM     44  C   UNL A   1      40.214  29.123  29.527  1.00  0.00     0.074 A 
ATOM     45  C   UNL A   1      39.146  28.153  29.655  1.00  0.00     0.031 C 
ATOM     46  C   UNL A   1      44.700  25.873  26.288  1.00  0.00     0.029 A 
ATOM     47  C   UNL A   1      44.793  27.226  26.826  1.00  0.00     0.049 A 
ATOM     48  H   UNL A   1      43.351  28.253  27.923  1.00  0.00     0.167 HD
ATOM     49  C   UNL A   1      40.193  30.365  30.069  1.00  0.00     0.037 A 
ATOM     50  C   UNL A   1      45.852  28.046  26.684  1.00  0.00     0.037 A 
ATOM     51  C   UNL A   1      41.275  31.312  29.974  1.00  0.00     0.049 A 
ATOM     52  C   UNL A   1      45.773  29.448  27.218  1.00  0.00     0.074 A 
ATOM     53  C   UNL A   1      41.360  32.584  30.512  1.00  0.00     0.029 A 
ATOM     54  N   UNL A   1      42.465  31.086  29.296  1.00  0.00    -0.354 N 
ATOM     55  N   UNL A   1      44.811  30.020  27.901  1.00  0.00    -0.248 NA
ATOM     56  C   UNL A   1      46.916  30.328  26.935  1.00  0.00     0.031 C 
ATOM     57  C   UNL A   1      42.580  33.147  30.117  1.00  0.00     0.029 A 
ATOM     58  C   UNL A   1      43.276  32.209  29.374  1.00  0.00     0.049 A 
ATOM     59  H   UNL A   1      42.698  30.253  28.827  1.00  0.00     0.167 HD
ATOM     60  C   UNL A   1      45.231  31.323  28.132  1.00  0.00     0.074 A 
ATOM     61  C   UNL A   1      46.547  31.449  27.540  1.00  0.00     0.031 C 
ATOM     62  C   UNL A   1      44.579  32.326  28.771  1.00  0.00     0.037 A 
BRANCH  49  63
ATOM     63  C   UNL A   1      38.937  30.790  30.777  1.00  0.00     0.064 A 
ATOM     64  C   UNL A   1      38.769  30.631  32.160  1.00  0.00     0.173 A 
ATOM     65  C   UNL A   1      37.890  31.383  30.053  1.00  0.00     0.173 A 
ATOM     66  F   UNL A   1      39.735  30.062  32.895  1.00  0.00    -0.203 F 
ATOM     67  C   UNL A   1      37.584  31.014  32.786  1.00  0.00     0.198 A 
ATOM     68  C   UNL A   1      36.721  31.793  30.687  1.00  0.00     0.198 A 
ATOM     69  F   UNL A   1      38.002  31.567  28.729  1.00  0.00    -0.203 F 
ATOM     70  F   UNL A   1      37.423  30.800  34.100  1.00  0.00    -0.200 F 
ATOM     71  C   UNL A   1      36.563  31.598  32.050  1.00  0.00     0.200 A 
ATOM     72  F   UNL A   1      35.742  32.371  29.977  1.00  0.00    -0.200 F 
ATOM     73  F   UNL A   1      35.425  31.967  32.654  1.00  0.00    -0.200 F 
ENDBRANCH  49  63
BRANCH  50  74
ATOM     74  C   UNL A   1      47.060  27.570  25.961  1.00  0.00     0.064 A 
ATOM     75  C   UNL A   1      47.161  27.693  24.569  1.00  0.00     0.173 A 
ATOM     76  C   UNL A   1      48.144  26.999  26.647  1.00  0.00     0.173 A 
ATOM     77  F   UNL A   1      46.139  28.206  23.866  1.00  0.00    -0.203 F 
ATOM     78  C   UNL A   1      48.299  27.262  23.890  1.00  0.00     0.198 A 
ATOM     79  C   UNL A   1      49.293  26.599  25.970  1.00  0.00     0.198 A 
ATOM     80  F   UNL A   1      48.095  26.853  27.978  1.00  0.00    -0.203 F 
ATOM     81  F   UNL A   1      48.357  27.361  22.555  1.00  0.00    -0.200 F 
ATOM     82  C   UNL A   1      49.368  26.726  24.592  1.00  0.00     0.200 A 
ATOM     83  F   UNL A   1      50.329  26.094  26.655  1.00  0.00    -0.200 F 
ATOM     84  F   UNL A   1      50.468  26.326  23.940  1.00  0.00    -0.200 F 
ENDBRANCH  50  74
BRANCH  62  85
ATOM     85  C   UNL A   1      45.285  33.647  28.870  1.00  0.00     0.064 A 
ATOM     86  C   UNL A   1      45.088  34.655  27.915  1.00  0.00     0.173 A 
ATOM     87  C   UNL A   1      46.140  33.920  29.948  1.00  0.00     0.173 A 
ATOM     88  F   UNL A   1      44.296  34.434  26.855  1.00  0.00    -0.203 F 
ATOM     89  C   UNL A   1      45.738  35.882  28.025  1.00  0.00     0.198 A 
ATOM     90  C   UNL A   1      46.766  35.158  30.069  1.00  0.00     0.198 A 
ATOM     91  F   UNL A   1      46.361  32.990  30.889  1.00  0.00    -0.203 F 
ATOM     92  F   UNL A   1      45.570  36.814  27.077  1.00  0.00    -0.200 F 
ATOM     93  C   UNL A   1      46.569  36.135  29.106  1.00  0.00     0.200 A 
ATOM     94  F   UNL A   1      47.561  35.405  31.120  1.00  0.00    -0.200 F 
ATOM     95  F   UNL A   1      47.188  37.319  29.213  1.00  0.00    -0.200 F 
ENDBRANCH  62  85
ENDBRANCH  36  37
ENDBRANCH  29  31
ENDBRANCH  28  29
ENDBRANCH  27  28
ENDBRANCH   1  27
TORSDOF 15
ENDMDL
MODEL 3
REMARK VINA RESULT:     -12.2      1.323      2.306
REMARK SMILES CS(=O)(=O)c1ccc(NS(=O)(=O)c2ccc(F)c(C(=O)OCCOC(=O)c3ccc(-c4c5nc(c(-c6c(F)c(F)c(F)c(F)c6F)c6ccc([nH]6)c(-c6c(F)c(F)c(F)c(F)c6F)c6nc(c(-c7c(F)c(F)c(F)c(F)c7F)c7ccc4[nH]7)C=C6)C=C5)cc3)c2)cc1
REMARK SMILES IDX 22 1 21 2 19 3 20 4 18 5 13 6 14 7 90 8 15 9 16 10 17 11
REMARK SMILES IDX 10 12 11 13 12 14 9 15 8 17 5 18 6 19 92 20 7 21 91 22 2 23
REMARK SMILES IDX 1 24 3 25 4 26 23 27 24 28 25 29 26 30 27 31 28 32 89 33
REMARK SMILES IDX 29 34 88 35 30 36 31 37 32 38 82 39 33 40 87 41 81 42 83 43
REMARK SMILES IDX 34 44 86 45 80 46 79 47 35 49 67 50 47 51 66 52 48 53 51 54
REMARK SMILES IDX 65 55 84 56 49 57 50 58 64 60 85 61 52 62 36 63 37 64 45 65
REMARK SMILES IDX 38 66 39 67 43 68 46 69 40 70 41 71 44 72 42 73 68 74 69 75
REMARK SMILES IDX 77 76 70 77 71 78 75 79 78 80 72 81 73 82 76 83 74 84 53 85
REMARK SMILES IDX 54 86 62 87 55 88 56 89 60 90 63 91 57 92 58 93 61 94 59 95
REMARK H PARENT 9 16 83 48 51 59
REMARK Flexibility Score: inf
ROOT
ATOM      1  C   UNL A   1      31.417  30.134  25.159  1.00  0.00     0.275 C 
ENDROOT
BRANCH   1   2
ATOM      2  O   UNL A   1      32.530  29.326  24.713  1.00  0.00    -0.458 OA
BRANCH   2   3
ATOM      3  C   UNL A   1      32.299  28.577  23.606  1.00  0.00     0.341 C 
ATOM      4  O   UNL A   1      32.550  28.915  22.460  1.00  0.00    -0.246 OA
BRANCH   3   5
ATOM      5  C   UNL A   1      31.711  27.253  23.945  1.00  0.00     0.097 A 
ATOM      6  C   UNL A   1      31.845  24.971  24.772  1.00  0.00     0.088 A 
ATOM      7  C   UNL A   1      30.449  24.892  24.813  1.00  0.00     0.025 A 
ATOM      8  C   UNL A   1      32.484  26.154  24.350  1.00  0.00     0.041 A 
ATOM      9  C   UNL A   1      29.688  25.952  24.332  1.00  0.00     0.041 A 
ATOM     10  C   UNL A   1      30.317  27.120  23.908  1.00  0.00     0.137 A 
ATOM     11  F   UNL A   1      29.533  28.107  23.451  1.00  0.00    -0.206 F 
BRANCH   6  12
ATOM     12  S   UNL A   1      32.826  23.634  25.420  1.00  0.00     0.261 S 
ATOM     13  O   UNL A   1      31.906  22.790  26.154  1.00  0.00    -0.201 OA
ATOM     14  O   UNL A   1      33.972  24.218  26.083  1.00  0.00    -0.201 OA
BRANCH  12  15
ATOM     15  N   UNL A   1      33.448  22.657  24.179  1.00  0.00    -0.280 N 
ATOM     16  H   UNL A   1      33.734  23.089  23.341  1.00  0.00     0.180 HD
BRANCH  15  17
ATOM     17  C   UNL A   1      33.578  21.238  24.291  1.00  0.00     0.049 A 
ATOM     18  C   UNL A   1      33.903  18.466  24.417  1.00  0.00     0.067 A 
ATOM     19  C   UNL A   1      32.713  19.006  23.921  1.00  0.00     0.022 A 
ATOM     20  C   UNL A   1      34.952  19.302  24.805  1.00  0.00     0.022 A 
ATOM     21  C   UNL A   1      32.562  20.393  23.840  1.00  0.00     0.028 A 
ATOM     22  C   UNL A   1      34.784  20.689  24.747  1.00  0.00     0.028 A 
BRANCH  18  23
ATOM     23  S   UNL A   1      34.113  16.698  24.465  1.00  0.00     0.175 S 
ATOM     24  C   UNL A   1      32.675  16.138  25.341  1.00  0.00     0.163 C 
ATOM     25  O   UNL A   1      35.278  16.423  25.282  1.00  0.00    -0.224 OA
ATOM     26  O   UNL A   1      34.025  16.220  23.099  1.00  0.00    -0.224 OA
ENDBRANCH  18  23
ENDBRANCH  15  17
ENDBRANCH  12  15
ENDBRANCH   6  12
ENDBRANCH   3   5
ENDBRANCH   2   3
ENDBRANCH   1   2
BRANCH   1  27
ATOM     27  C   UNL A   1      31.722  30.833  26.484  1.00  0.00     0.275 C 
BRANCH  27  28
ATOM     28  O   UNL A   1      33.120  30.717  26.805  1.00  0.00    -0.458 OA
BRANCH  28  29
ATOM     29  C   UNL A   1      33.671  31.805  27.389  1.00  0.00     0.338 C 
ATOM     30  O   UNL A   1      33.190  32.917  27.513  1.00  0.00    -0.246 OA
BRANCH  29  31
ATOM     31  C   UNL A   1      34.959  31.432  27.986  1.00  0.00     0.060 A 
ATOM     32  C   UNL A   1      35.102  30.137  28.476  1.00  0.00     0.016 A 
ATOM     33  C   UNL A   1      35.966  32.376  28.179  1.00  0.00     0.016 A 
ATOM     34  C   UNL A   1      36.237  29.781  29.197  1.00  0.00     0.010 A 
ATOM     35  C   UNL A   1      37.135  31.999  28.853  1.00  0.00     0.010 A 
ATOM     36  C   UNL A   1      37.275  30.702  29.384  1.00  0.00    -0.014 A 
BRANCH  36  37
ATOM     37  C   UNL A   1      38.485  30.313  30.159  1.00  0.00     0.031 A 
ATOM     38  C   UNL A   1      39.528  29.422  29.542  1.00  0.00     0.074 A 
ATOM     39  C   UNL A   1      38.669  30.778  31.410  1.00  0.00     0.049 A 
ATOM     40  N   UNL A   1      40.565  28.848  30.099  1.00  0.00    -0.248 NA
ATOM     41  C   UNL A   1      39.381  29.135  28.107  1.00  0.00     0.031 C 
ATOM     42  C   UNL A   1      37.776  31.703  32.109  1.00  0.00     0.029 A 
ATOM     43  N   UNL A   1      39.673  30.540  32.316  1.00  0.00    -0.354 N 
ATOM     44  C   UNL A   1      41.166  28.097  29.097  1.00  0.00     0.074 A 
ATOM     45  C   UNL A   1      40.374  28.283  27.899  1.00  0.00     0.031 C 
ATOM     46  C   UNL A   1      38.286  31.979  33.318  1.00  0.00     0.029 A 
ATOM     47  C   UNL A   1      39.491  31.181  33.517  1.00  0.00     0.049 A 
ATOM     48  H   UNL A   1      40.449  29.966  32.124  1.00  0.00     0.167 HD
ATOM     49  C   UNL A   1      42.276  27.321  29.173  1.00  0.00     0.037 A 
ATOM     50  C   UNL A   1      40.184  31.099  34.669  1.00  0.00     0.037 A 
ATOM     51  C   UNL A   1      43.083  27.171  30.356  1.00  0.00     0.049 A 
ATOM     52  C   UNL A   1      41.359  30.167  34.756  1.00  0.00     0.074 A 
ATOM     53  C   UNL A   1      44.240  26.430  30.525  1.00  0.00     0.029 A 
ATOM     54  N   UNL A   1      42.817  27.777  31.576  1.00  0.00    -0.354 N 
ATOM     55  N   UNL A   1      41.897  29.425  33.818  1.00  0.00    -0.248 NA
ATOM     56  C   UNL A   1      42.005  30.038  36.069  1.00  0.00     0.031 C 
ATOM     57  C   UNL A   1      44.646  26.548  31.859  1.00  0.00     0.029 A 
ATOM     58  C   UNL A   1      43.770  27.401  32.511  1.00  0.00     0.049 A 
ATOM     59  H   UNL A   1      42.063  28.384  31.753  1.00  0.00     0.167 HD
ATOM     60  C   UNL A   1      42.944  28.745  34.423  1.00  0.00     0.074 A 
ATOM     61  C   UNL A   1      42.983  29.183  35.804  1.00  0.00     0.031 C 
ATOM     62  C   UNL A   1      43.791  27.834  33.885  1.00  0.00     0.037 A 
BRANCH  49  63
ATOM     63  C   UNL A   1      42.656  26.536  27.949  1.00  0.00     0.064 A 
ATOM     64  C   UNL A   1      43.584  27.016  27.013  1.00  0.00     0.173 A 
ATOM     65  C   UNL A   1      42.089  25.273  27.721  1.00  0.00     0.173 A 
ATOM     66  F   UNL A   1      44.147  28.221  27.179  1.00  0.00    -0.203 F 
ATOM     67  C   UNL A   1      43.901  26.276  25.875  1.00  0.00     0.198 A 
ATOM     68  C   UNL A   1      42.432  24.522  26.600  1.00  0.00     0.198 A 
ATOM     69  F   UNL A   1      41.202  24.762  28.589  1.00  0.00    -0.203 F 
ATOM     70  F   UNL A   1      44.747  26.779  24.965  1.00  0.00    -0.200 F 
ATOM     71  C   UNL A   1      43.328  25.029  25.671  1.00  0.00     0.200 A 
ATOM     72  F   UNL A   1      41.888  23.312  26.412  1.00  0.00    -0.200 F 
ATOM     73  F   UNL A   1      43.634  24.318  24.577  1.00  0.00    -0.200 F 
ENDBRANCH  49  63
BRANCH  50  74
ATOM     74  C   UNL A   1      39.748  31.890  35.849  1.00  0.00     0.064 A 
ATOM     75  C   UNL A   1      40.389  33.087  36.192  1.00  0.00     0.173 A 
ATOM     76  C   UNL A   1      38.671  31.474  36.649  1.00  0.00     0.173 A 
ATOM     77  F   UNL A   1      41.442  33.511  35.475  1.00  0.00    -0.203 F 
ATOM     78  C   UNL A   1      39.972  33.838  37.288  1.00  0.00     0.198 A 
ATOM     79  C   UNL A   1      38.235  32.243  37.726  1.00  0.00     0.198 A 
ATOM     80  F   UNL A   1      38.027  30.332  36.368  1.00  0.00    -0.203 F 
ATOM     81  F   UNL A   1      40.624  34.964  37.614  1.00  0.00    -0.200 F 
ATOM     82  C   UNL A   1      38.889  33.422  38.047  1.00  0.00     0.200 A 
ATOM     83  F   UNL A   1      37.179  31.842  38.448  1.00  0.00    -0.200 F 
ATOM     84  F   UNL A   1      38.478  34.153  39.093  1.00  0.00    -0.200 F 
ENDBRANCH  50  74
BRANCH  62  85
ATOM     85  C   UNL A   1      44.840  27.255  34.790  1.00  0.00     0.064 A 
ATOM     86  C   UNL A   1      44.616  26.067  35.501  1.00  0.00     0.173 A 
ATOM     87  C   UNL A   1      46.091  27.875  34.921  1.00  0.00     0.173 A 
ATOM     88  F   UNL A   1      43.428  25.448  35.425  1.00  0.00    -0.203 F 
ATOM     89  C   UNL A   1      45.601  25.532  36.328  1.00  0.00     0.198 A 
ATOM     90  C   UNL A   1      47.083  27.320  35.726  1.00  0.00     0.198 A 
ATOM     91  F   UNL A   1      46.356  29.011  34.261  1.00  0.00    -0.203 F 
ATOM     92  F   UNL A   1      45.350  24.420  37.033  1.00  0.00    -0.200 F 
ATOM     93  C   UNL A   1      46.836  26.154  36.433  1.00  0.00     0.200 A 
ATOM     94  F   UNL A   1      48.280  27.918  35.818  1.00  0.00    -0.200 F 
ATOM     95  F   UNL A   1      47.785  25.633  37.223  1.00  0.00    -0.200 F 
ENDBRANCH  62  85
ENDBRANCH  36  37
ENDBRANCH  29  31
ENDBRANCH  28  29
ENDBRANCH  27  28
ENDBRANCH   1  27
TORSDOF 15
ENDMDL
