MODEL 1
REMARK VINA RESULT:     -13.3      0.000      0.000
REMARK SMILES Cn1c(=O)c(=O)n(C)c2cc(S(=O)(=O)N3CCC[C@H]3C(=O)OCCOC(=O)c3ccc(-c4c5nc(c(-c6c(F)c(F)c(F)c(F)c6F)c6ccc([nH]6)c(-c6c(F)c(F)c(F)c(F)c6F)c6nc(c(-c7c(F)c(F)c(F)c(F)c7F)c7ccc4[nH]7)C=C6)C=C5)cc3)ccc21
REMARK SMILES IDX 23 1 22 2 20 3 21 4 19 5 15 6 16 7 17 8 18 9 12 10 13 11
REMARK SMILES IDX 14 12 11 13 1 14 2 15 3 16 93 17 4 18 5 19 9 20 92 21 6 22
REMARK SMILES IDX 7 23 10 24 91 25 8 26 24 27 25 28 26 29 27 30 28 31 29 32
REMARK SMILES IDX 90 33 30 34 89 35 31 36 32 37 33 38 83 39 34 40 88 41 82 42
REMARK SMILES IDX 84 43 35 44 87 45 81 46 80 47 36 49 68 50 48 51 67 52 49 53
REMARK SMILES IDX 52 54 66 55 85 56 50 57 51 58 65 60 86 61 53 62 37 63 38 64
REMARK SMILES IDX 46 65 39 66 40 67 44 68 47 69 41 70 42 71 45 72 43 73 69 74
REMARK SMILES IDX 70 75 78 76 71 77 72 78 76 79 79 80 73 81 74 82 77 83 75 84
REMARK SMILES IDX 54 85 55 86 63 87 56 88 57 89 61 90 64 91 58 92 59 93 62 94
REMARK SMILES IDX 60 95
REMARK H PARENT 84 48 52 59
REMARK Flexibility Score: inf
ROOT
ATOM      1  C   UNL A   1      31.216  30.058  24.931  1.00  0.00     0.274 C 
ENDROOT
BRANCH   1   2
ATOM      2  O   UNL A   1      31.315  28.730  24.377  1.00  0.00    -0.461 OA
BRANCH   2   3
ATOM      3  C   UNL A   1      32.428  28.472  23.627  1.00  0.00     0.324 C 
ATOM      4  O   UNL A   1      33.154  29.324  23.132  1.00  0.00    -0.250 OA
BRANCH   3   5
ATOM      5  C   UNL A   1      32.670  26.967  23.569  1.00  0.00     0.183 C 
ATOM      6  N   UNL A   1      31.836  26.244  24.551  1.00  0.00    -0.184 NA
ATOM      7  C   UNL A   1      30.785  25.451  23.917  1.00  0.00     0.103 C 
ATOM      8  C   UNL A   1      31.197  25.327  22.459  1.00  0.00     0.019 C 
ATOM      9  C   UNL A   1      32.292  26.363  22.213  1.00  0.00     0.034 C 
BRANCH   6  10
ATOM     10  S   UNL A   1      32.478  25.830  26.037  1.00  0.00     0.243 S 
ATOM     11  O   UNL A   1      31.428  25.234  26.833  1.00  0.00    -0.207 OA
ATOM     12  O   UNL A   1      33.259  26.956  26.501  1.00  0.00    -0.207 OA
BRANCH  10  13
ATOM     13  C   UNL A   1      33.656  24.532  25.706  1.00  0.00     0.084 A 
ATOM     14  C   UNL A   1      37.807  21.577  25.373  1.00  0.00     0.154 C 
ATOM     15  N   UNL A   1      36.378  21.336  25.221  1.00  0.00    -0.305 N 
ATOM     16  C   UNL A   1      35.956  20.029  25.001  1.00  0.00     0.316 A 
ATOM     17  C   UNL A   1      35.454  22.401  25.354  1.00  0.00     0.068 A 
ATOM     18  O   UNL A   1      36.724  19.074  24.931  1.00  0.00    -0.263 OA
ATOM     19  C   UNL A   1      34.449  19.780  24.841  1.00  0.00     0.316 A 
ATOM     20  C   UNL A   1      34.065  22.169  25.286  1.00  0.00     0.069 A 
ATOM     21  C   UNL A   1      35.914  23.704  25.566  1.00  0.00     0.030 A 
ATOM     22  O   UNL A   1      34.070  18.645  24.567  1.00  0.00    -0.263 OA
ATOM     23  N   UNL A   1      33.584  20.859  25.024  1.00  0.00    -0.305 N 
ATOM     24  C   UNL A   1      33.174  23.243  25.479  1.00  0.00     0.050 A 
ATOM     25  C   UNL A   1      35.024  24.756  25.723  1.00  0.00     0.024 A 
ATOM     26  C   UNL A   1      32.154  20.613  24.908  1.00  0.00     0.154 C 
ENDBRANCH  10  13
ENDBRANCH   6  10
ENDBRANCH   3   5
ENDBRANCH   2   3
ENDBRANCH   1   2
BRANCH   1  27
ATOM     27  C   UNL A   1      31.778  30.080  26.351  1.00  0.00     0.275 C 
BRANCH  27  28
ATOM     28  O   UNL A   1      33.164  30.469  26.312  1.00  0.00    -0.458 OA
BRANCH  28  29
ATOM     29  C   UNL A   1      33.535  31.432  27.181  1.00  0.00     0.338 C 
ATOM     30  O   UNL A   1      32.897  32.406  27.540  1.00  0.00    -0.246 OA
BRANCH  29  31
ATOM     31  C   UNL A   1      34.858  31.102  27.733  1.00  0.00     0.060 A 
ATOM     32  C   UNL A   1      35.780  32.108  28.001  1.00  0.00     0.016 A 
ATOM     33  C   UNL A   1      35.128  29.791  28.118  1.00  0.00     0.016 A 
ATOM     34  C   UNL A   1      36.986  31.778  28.628  1.00  0.00     0.010 A 
ATOM     35  C   UNL A   1      36.261  29.493  28.864  1.00  0.00     0.010 A 
ATOM     36  C   UNL A   1      37.232  30.469  29.090  1.00  0.00    -0.014 A 
BRANCH  36  37
ATOM     37  C   UNL A   1      38.495  30.127  29.795  1.00  0.00     0.031 A 
ATOM     38  C   UNL A   1      38.749  30.589  31.211  1.00  0.00     0.074 A 
ATOM     39  C   UNL A   1      39.432  29.400  29.154  1.00  0.00     0.049 A 
ATOM     40  N   UNL A   1      39.719  30.246  32.023  1.00  0.00    -0.248 NA
ATOM     41  C   UNL A   1      37.833  31.591  31.780  1.00  0.00     0.031 C 
ATOM     42  C   UNL A   1      39.382  29.011  27.743  1.00  0.00     0.029 A 
ATOM     43  N   UNL A   1      40.593  28.828  29.612  1.00  0.00    -0.354 N 
ATOM     44  C   UNL A   1      39.518  30.981  33.184  1.00  0.00     0.074 A 
ATOM     45  C   UNL A   1      38.403  31.863  32.943  1.00  0.00     0.031 C 
ATOM     46  C   UNL A   1      40.409  28.190  27.475  1.00  0.00     0.029 A 
ATOM     47  C   UNL A   1      41.195  28.004  28.691  1.00  0.00     0.049 A 
ATOM     48  H   UNL A   1      40.959  28.992  30.512  1.00  0.00     0.167 HD
ATOM     49  C   UNL A   1      40.164  30.887  34.370  1.00  0.00     0.037 A 
ATOM     50  C   UNL A   1      42.230  27.153  28.829  1.00  0.00     0.037 A 
ATOM     51  C   UNL A   1      41.232  29.964  34.630  1.00  0.00     0.049 A 
ATOM     52  C   UNL A   1      42.890  27.012  30.172  1.00  0.00     0.074 A 
ATOM     53  C   UNL A   1      41.881  29.708  35.825  1.00  0.00     0.029 A 
ATOM     54  N   UNL A   1      41.802  29.136  33.676  1.00  0.00    -0.354 N 
ATOM     55  N   UNL A   1      42.598  27.607  31.302  1.00  0.00    -0.248 NA
ATOM     56  C   UNL A   1      44.016  26.070  30.261  1.00  0.00     0.031 C 
ATOM     57  C   UNL A   1      42.863  28.744  35.587  1.00  0.00     0.029 A 
ATOM     58  C   UNL A   1      42.806  28.380  34.252  1.00  0.00     0.049 A 
ATOM     59  H   UNL A   1      41.533  29.094  32.730  1.00  0.00     0.167 HD
ATOM     60  C   UNL A   1      43.490  27.102  32.239  1.00  0.00     0.074 A 
ATOM     61  C   UNL A   1      44.320  26.136  31.551  1.00  0.00     0.031 C 
ATOM     62  C   UNL A   1      43.614  27.418  33.550  1.00  0.00     0.037 A 
BRANCH  49  63
ATOM     63  C   UNL A   1      39.682  31.745  35.503  1.00  0.00     0.064 A 
ATOM     64  C   UNL A   1      40.184  33.042  35.690  1.00  0.00     0.173 A 
ATOM     65  C   UNL A   1      38.659  31.306  36.357  1.00  0.00     0.173 A 
ATOM     66  F   UNL A   1      41.167  33.505  34.903  1.00  0.00    -0.203 F 
ATOM     67  C   UNL A   1      39.693  33.863  36.702  1.00  0.00     0.198 A 
ATOM     68  C   UNL A   1      38.153  32.140  37.351  1.00  0.00     0.198 A 
ATOM     69  F   UNL A   1      38.139  30.078  36.214  1.00  0.00    -0.203 F 
ATOM     70  F   UNL A   1      40.210  35.086  36.879  1.00  0.00    -0.200 F 
ATOM     71  C   UNL A   1      38.671  33.414  37.525  1.00  0.00     0.200 A 
ATOM     72  F   UNL A   1      37.154  31.712  38.137  1.00  0.00    -0.200 F 
ATOM     73  F   UNL A   1      38.185  34.214  38.485  1.00  0.00    -0.200 F 
ENDBRANCH  49  63
BRANCH  50  74
ATOM     74  C   UNL A   1      42.632  26.290  27.688  1.00  0.00     0.064 A 
ATOM     75  C   UNL A   1      43.651  26.695  26.815  1.00  0.00     0.173 A 
ATOM     76  C   UNL A   1      42.027  25.048  27.457  1.00  0.00     0.173 A 
ATOM     77  F   UNL A   1      44.251  27.882  26.992  1.00  0.00    -0.203 F 
ATOM     78  C   UNL A   1      44.040  25.896  25.743  1.00  0.00     0.198 A 
ATOM     79  C   UNL A   1      42.431  24.240  26.395  1.00  0.00     0.198 A 
ATOM     80  F   UNL A   1      41.054  24.612  28.269  1.00  0.00    -0.203 F 
ATOM     81  F   UNL A   1      44.994  26.322  24.905  1.00  0.00    -0.200 F 
ATOM     82  C   UNL A   1      43.433  24.667  25.535  1.00  0.00     0.200 A 
ATOM     83  F   UNL A   1      41.852  23.046  26.205  1.00  0.00    -0.200 F 
ATOM     84  F   UNL A   1      43.810  23.897  24.507  1.00  0.00    -0.200 F 
ENDBRANCH  50  74
BRANCH  62  85
ATOM     85  C   UNL A   1      44.684  26.723  34.334  1.00  0.00     0.064 A 
ATOM     86  C   UNL A   1      45.950  27.302  34.495  1.00  0.00     0.173 A 
ATOM     87  C   UNL A   1      44.411  25.525  35.009  1.00  0.00     0.173 A 
ATOM     88  F   UNL A   1      46.257  28.443  33.860  1.00  0.00    -0.203 F 
ATOM     89  C   UNL A   1      46.909  26.700  35.304  1.00  0.00     0.198 A 
ATOM     90  C   UNL A   1      45.364  24.939  35.835  1.00  0.00     0.198 A 
ATOM     91  F   UNL A   1      43.208  24.941  34.890  1.00  0.00    -0.203 F 
ATOM     92  F   UNL A   1      48.121  27.258  35.431  1.00  0.00    -0.200 F 
ATOM     93  C   UNL A   1      46.613  25.526  35.981  1.00  0.00     0.200 A 
ATOM     94  F   UNL A   1      45.072  23.812  36.500  1.00  0.00    -0.200 F 
ATOM     95  F   UNL A   1      47.531  24.960  36.776  1.00  0.00    -0.200 F 
ENDBRANCH  62  85
ENDBRANCH  36  37
ENDBRANCH  29  31
ENDBRANCH  28  29
ENDBRANCH  27  28
ENDBRANCH   1  27
TORSDOF 13
ENDMDL
MODEL 2
REMARK VINA RESULT:     -13.3      0.744      2.090
REMARK SMILES Cn1c(=O)c(=O)n(C)c2cc(S(=O)(=O)N3CCC[C@H]3C(=O)OCCOC(=O)c3ccc(-c4c5nc(c(-c6c(F)c(F)c(F)c(F)c6F)c6ccc([nH]6)c(-c6c(F)c(F)c(F)c(F)c6F)c6nc(c(-c7c(F)c(F)c(F)c(F)c7F)c7ccc4[nH]7)C=C6)C=C5)cc3)ccc21
REMARK SMILES IDX 23 1 22 2 20 3 21 4 19 5 15 6 16 7 17 8 18 9 12 10 13 11
REMARK SMILES IDX 14 12 11 13 1 14 2 15 3 16 93 17 4 18 5 19 9 20 92 21 6 22
REMARK SMILES IDX 7 23 10 24 91 25 8 26 24 27 25 28 26 29 27 30 28 31 29 32
REMARK SMILES IDX 90 33 30 34 89 35 31 36 32 37 33 38 83 39 34 40 88 41 82 42
REMARK SMILES IDX 84 43 35 44 87 45 81 46 80 47 36 49 68 50 48 51 67 52 49 53
REMARK SMILES IDX 52 54 66 55 85 56 50 57 51 58 65 60 86 61 53 62 37 63 38 64
REMARK SMILES IDX 46 65 39 66 40 67 44 68 47 69 41 70 42 71 45 72 43 73 69 74
REMARK SMILES IDX 70 75 78 76 71 77 72 78 76 79 79 80 73 81 74 82 77 83 75 84
REMARK SMILES IDX 54 85 55 86 63 87 56 88 57 89 61 90 64 91 58 92 59 93 62 94
REMARK SMILES IDX 60 95
REMARK H PARENT 84 48 52 59
REMARK Flexibility Score: inf
ROOT
ATOM      1  C   UNL A   1      32.030  29.411  24.800  1.00  0.00     0.274 C 
ENDROOT
BRANCH   1   2
ATOM      2  O   UNL A   1      30.808  28.970  24.176  1.00  0.00    -0.461 OA
BRANCH   2   3
ATOM      3  C   UNL A   1      30.948  28.174  23.074  1.00  0.00     0.324 C 
ATOM      4  O   UNL A   1      30.258  28.244  22.066  1.00  0.00    -0.250 OA
BRANCH   3   5
ATOM      5  C   UNL A   1      32.142  27.244  23.261  1.00  0.00     0.183 C 
ATOM      6  N   UNL A   1      31.714  25.856  23.535  1.00  0.00    -0.184 NA
ATOM      7  C   UNL A   1      32.001  24.953  22.423  1.00  0.00     0.103 C 
ATOM      8  C   UNL A   1      33.016  25.684  21.560  1.00  0.00     0.019 C 
ATOM      9  C   UNL A   1      33.013  27.145  22.004  1.00  0.00     0.034 C 
BRANCH   6  10
ATOM     10  S   UNL A   1      31.625  25.314  25.113  1.00  0.00     0.243 S 
ATOM     11  O   UNL A   1      30.246  24.981  25.399  1.00  0.00    -0.207 OA
ATOM     12  O   UNL A   1      32.386  26.232  25.932  1.00  0.00    -0.207 OA
BRANCH  10  13
ATOM     13  C   UNL A   1      32.531  23.778  25.145  1.00  0.00     0.084 A 
ATOM     14  C   UNL A   1      34.114  18.951  24.637  1.00  0.00     0.154 C 
ATOM     15  N   UNL A   1      34.787  20.212  24.919  1.00  0.00    -0.305 N 
ATOM     16  C   UNL A   1      36.174  20.204  25.022  1.00  0.00     0.316 A 
ATOM     17  C   UNL A   1      34.043  21.413  25.025  1.00  0.00     0.068 A 
ATOM     18  O   UNL A   1      36.856  19.192  24.885  1.00  0.00    -0.263 OA
ATOM     19  C   UNL A   1      36.878  21.536  25.320  1.00  0.00     0.316 A 
ATOM     20  C   UNL A   1      34.688  22.650  25.220  1.00  0.00     0.069 A 
ATOM     21  C   UNL A   1      32.649  21.382  24.925  1.00  0.00     0.030 A 
ATOM     22  O   UNL A   1      38.094  21.528  25.492  1.00  0.00    -0.263 OA
ATOM     23  N   UNL A   1      36.098  22.692  25.372  1.00  0.00    -0.305 N 
ATOM     24  C   UNL A   1      33.920  23.831  25.264  1.00  0.00     0.050 A 
ATOM     25  C   UNL A   1      31.905  22.550  25.000  1.00  0.00     0.024 A 
ATOM     26  C   UNL A   1      36.773  23.958  25.618  1.00  0.00     0.154 C 
ENDBRANCH  10  13
ENDBRANCH   6  10
ENDBRANCH   3   5
ENDBRANCH   2   3
ENDBRANCH   1   2
BRANCH   1  27
ATOM     27  C   UNL A   1      31.731  30.474  25.855  1.00  0.00     0.275 C 
BRANCH  27  28
ATOM     28  O   UNL A   1      32.688  30.369  26.926  1.00  0.00    -0.458 OA
BRANCH  28  29
ATOM     29  C   UNL A   1      33.303  31.515  27.286  1.00  0.00     0.338 C 
ATOM     30  O   UNL A   1      32.853  32.647  27.268  1.00  0.00    -0.246 OA
BRANCH  29  31
ATOM     31  C   UNL A   1      34.643  31.201  27.808  1.00  0.00     0.060 A 
ATOM     32  C   UNL A   1      35.566  32.216  28.032  1.00  0.00     0.016 A 
ATOM     33  C   UNL A   1      34.929  29.899  28.210  1.00  0.00     0.016 A 
ATOM     34  C   UNL A   1      36.790  31.904  28.632  1.00  0.00     0.010 A 
ATOM     35  C   UNL A   1      36.084  29.620  28.929  1.00  0.00     0.010 A 
ATOM     36  C   UNL A   1      37.055  30.604  29.111  1.00  0.00    -0.014 A 
BRANCH  36  37
ATOM     37  C   UNL A   1      38.340  30.281  29.787  1.00  0.00     0.031 A 
ATOM     38  C   UNL A   1      38.626  30.763  31.190  1.00  0.00     0.074 A 
ATOM     39  C   UNL A   1      39.266  29.554  29.131  1.00  0.00     0.049 A 
ATOM     40  N   UNL A   1      39.619  30.437  31.981  1.00  0.00    -0.248 NA
ATOM     41  C   UNL A   1      37.717  31.765  31.770  1.00  0.00     0.031 C 
ATOM     42  C   UNL A   1      39.182  29.147  27.726  1.00  0.00     0.029 A 
ATOM     43  N   UNL A   1      40.442  28.997  29.566  1.00  0.00    -0.354 N 
ATOM     44  C   UNL A   1      39.442  31.186  33.138  1.00  0.00     0.074 A 
ATOM     45  C   UNL A   1      38.314  32.056  32.915  1.00  0.00     0.031 C 
ATOM     46  C   UNL A   1      40.209  28.331  27.443  1.00  0.00     0.029 A 
ATOM     47  C   UNL A   1      41.027  28.166  28.640  1.00  0.00     0.049 A 
ATOM     48  H   UNL A   1      40.830  29.175  30.454  1.00  0.00     0.167 HD
ATOM     49  C   UNL A   1      40.119  31.111  34.308  1.00  0.00     0.037 A 
ATOM     50  C   UNL A   1      42.072  27.325  28.761  1.00  0.00     0.037 A 
ATOM     51  C   UNL A   1      41.201  30.200  34.552  1.00  0.00     0.049 A 
ATOM     52  C   UNL A   1      42.768  27.206  30.089  1.00  0.00     0.074 A 
ATOM     53  C   UNL A   1      41.883  29.965  35.732  1.00  0.00     0.029 A 
ATOM     54  N   UNL A   1      41.753  29.365  33.593  1.00  0.00    -0.354 N 
ATOM     55  N   UNL A   1      42.501  27.813  31.219  1.00  0.00    -0.248 NA
ATOM     56  C   UNL A   1      43.904  26.274  30.160  1.00  0.00     0.031 C 
ATOM     57  C   UNL A   1      42.866  29.005  35.481  1.00  0.00     0.029 A 
ATOM     58  C   UNL A   1      42.778  28.624  34.152  1.00  0.00     0.049 A 
ATOM     59  H   UNL A   1      41.460  29.309  32.655  1.00  0.00     0.167 HD
ATOM     60  C   UNL A   1      43.420  27.326  32.138  1.00  0.00     0.074 A 
ATOM     61  C   UNL A   1      44.240  26.358  31.440  1.00  0.00     0.031 C 
ATOM     62  C   UNL A   1      43.575  27.660  33.442  1.00  0.00     0.037 A 
BRANCH  49  63
ATOM     63  C   UNL A   1      39.659  31.980  35.442  1.00  0.00     0.064 A 
ATOM     64  C   UNL A   1      40.156  33.283  35.601  1.00  0.00     0.173 A 
ATOM     65  C   UNL A   1      38.662  31.544  36.327  1.00  0.00     0.173 A 
ATOM     66  F   UNL A   1      41.115  33.743  34.784  1.00  0.00    -0.203 F 
ATOM     67  C   UNL A   1      39.685  34.112  36.615  1.00  0.00     0.198 A 
ATOM     68  C   UNL A   1      38.174  32.385  37.324  1.00  0.00     0.198 A 
ATOM     69  F   UNL A   1      38.147  30.310  36.212  1.00  0.00    -0.203 F 
ATOM     70  F   UNL A   1      40.196  35.341  36.764  1.00  0.00    -0.200 F 
ATOM     71  C   UNL A   1      38.687  33.666  37.469  1.00  0.00     0.200 A 
ATOM     72  F   UNL A   1      37.199  31.960  38.140  1.00  0.00    -0.200 F 
ATOM     73  F   UNL A   1      38.219  34.473  38.431  1.00  0.00    -0.200 F 
ENDBRANCH  49  63
BRANCH  50  74
ATOM     74  C   UNL A   1      42.452  26.451  27.621  1.00  0.00     0.064 A 
ATOM     75  C   UNL A   1      41.792  25.232  27.411  1.00  0.00     0.173 A 
ATOM     76  C   UNL A   1      43.459  26.814  26.718  1.00  0.00     0.173 A 
ATOM     77  F   UNL A   1      40.829  24.837  28.258  1.00  0.00    -0.203 F 
ATOM     78  C   UNL A   1      42.136  24.401  26.347  1.00  0.00     0.198 A 
ATOM     79  C   UNL A   1      43.788  25.992  25.642  1.00  0.00     0.198 A 
ATOM     80  F   UNL A   1      44.112  27.975  26.872  1.00  0.00    -0.203 F 
ATOM     81  F   UNL A   1      41.511  23.227  26.188  1.00  0.00    -0.200 F 
ATOM     82  C   UNL A   1      43.130  24.784  25.460  1.00  0.00     0.200 A 
ATOM     83  F   UNL A   1      44.740  26.371  24.778  1.00  0.00    -0.200 F 
ATOM     84  F   UNL A   1      43.458  23.987  24.435  1.00  0.00    -0.200 F 
ENDBRANCH  50  74
BRANCH  62  85
ATOM     85  C   UNL A   1      44.670  26.983  34.207  1.00  0.00     0.064 A 
ATOM     86  C   UNL A   1      44.465  25.733  34.806  1.00  0.00     0.173 A 
ATOM     87  C   UNL A   1      45.956  27.540  34.255  1.00  0.00     0.173 A 
ATOM     88  F   UNL A   1      43.248  25.169  34.792  1.00  0.00    -0.203 F 
ATOM     89  C   UNL A   1      45.512  25.064  35.432  1.00  0.00     0.198 A 
ATOM     90  C   UNL A   1      47.005  26.858  34.862  1.00  0.00     0.198 A 
ATOM     91  F   UNL A   1      46.200  28.731  33.687  1.00  0.00    -0.203 F 
ATOM     92  F   UNL A   1      45.293  23.878  36.016  1.00  0.00    -0.200 F 
ATOM     93  C   UNL A   1      46.783  25.621  35.451  1.00  0.00     0.200 A 
ATOM     94  F   UNL A   1      48.236  27.390  34.868  1.00  0.00    -0.200 F 
ATOM     95  F   UNL A   1      47.794  24.965  36.036  1.00  0.00    -0.200 F 
ENDBRANCH  62  85
ENDBRANCH  36  37
ENDBRANCH  29  31
ENDBRANCH  28  29
ENDBRANCH  27  28
ENDBRANCH   1  27
TORSDOF 13
ENDMDL
MODEL 3
REMARK VINA RESULT:     -13.2      0.755      1.787
REMARK SMILES Cn1c(=O)c(=O)n(C)c2cc(S(=O)(=O)N3CCC[C@H]3C(=O)OCCOC(=O)c3ccc(-c4c5nc(c(-c6c(F)c(F)c(F)c(F)c6F)c6ccc([nH]6)c(-c6c(F)c(F)c(F)c(F)c6F)c6nc(c(-c7c(F)c(F)c(F)c(F)c7F)c7ccc4[nH]7)C=C6)C=C5)cc3)ccc21
REMARK SMILES IDX 23 1 22 2 20 3 21 4 19 5 15 6 16 7 17 8 18 9 12 10 13 11
REMARK SMILES IDX 14 12 11 13 1 14 2 15 3 16 93 17 4 18 5 19 9 20 92 21 6 22
REMARK SMILES IDX 7 23 10 24 91 25 8 26 24 27 25 28 26 29 27 30 28 31 29 32
REMARK SMILES IDX 90 33 30 34 89 35 31 36 32 37 33 38 83 39 34 40 88 41 82 42
REMARK SMILES IDX 84 43 35 44 87 45 81 46 80 47 36 49 68 50 48 51 67 52 49 53
REMARK SMILES IDX 52 54 66 55 85 56 50 57 51 58 65 60 86 61 53 62 37 63 38 64
REMARK SMILES IDX 46 65 39 66 40 67 44 68 47 69 41 70 42 71 45 72 43 73 69 74
REMARK SMILES IDX 70 75 78 76 71 77 72 78 76 79 79 80 73 81 74 82 77 83 75 84
REMARK SMILES IDX 54 85 55 86 63 87 56 88 57 89 61 90 64 91 58 92 59 93 62 94
REMARK SMILES IDX 60 95
REMARK H PARENT 84 48 52 59
REMARK Flexibility Score: inf
ROOT
ATOM      1  C   UNL A   1      31.938  29.299  24.876  1.00  0.00     0.274 C 
ENDROOT
BRANCH   1   2
ATOM      2  O   UNL A   1      30.738  29.036  24.123  1.00  0.00    -0.461 OA
BRANCH   2   3
ATOM      3  C   UNL A   1      30.868  28.188  23.059  1.00  0.00     0.324 C 
ATOM      4  O   UNL A   1      30.162  28.202  22.059  1.00  0.00    -0.250 OA
BRANCH   3   5
ATOM      5  C   UNL A   1      32.074  27.279  23.272  1.00  0.00     0.183 C 
ATOM      6  N   UNL A   1      31.665  25.882  23.524  1.00  0.00    -0.184 NA
ATOM      7  C   UNL A   1      31.999  24.992  22.414  1.00  0.00     0.103 C 
ATOM      8  C   UNL A   1      33.023  25.748  21.584  1.00  0.00     0.019 C 
ATOM      9  C   UNL A   1      32.980  27.206  22.038  1.00  0.00     0.034 C 
BRANCH   6  10
ATOM     10  S   UNL A   1      31.543  25.326  25.095  1.00  0.00     0.243 S 
ATOM     11  O   UNL A   1      30.157  25.004  25.354  1.00  0.00    -0.207 OA
ATOM     12  O   UNL A   1      32.299  26.229  25.935  1.00  0.00    -0.207 OA
BRANCH  10  13
ATOM     13  C   UNL A   1      32.433  23.781  25.129  1.00  0.00     0.084 A 
ATOM     14  C   UNL A   1      33.970  18.938  24.619  1.00  0.00     0.154 C 
ATOM     15  N   UNL A   1      34.654  20.192  24.907  1.00  0.00    -0.305 N 
ATOM     16  C   UNL A   1      36.040  20.170  25.016  1.00  0.00     0.316 A 
ATOM     17  C   UNL A   1      33.921  21.400  25.011  1.00  0.00     0.068 A 
ATOM     18  O   UNL A   1      36.713  19.152  24.880  1.00  0.00    -0.263 OA
ATOM     19  C   UNL A   1      36.757  21.495  25.319  1.00  0.00     0.316 A 
ATOM     20  C   UNL A   1      34.578  22.631  25.212  1.00  0.00     0.069 A 
ATOM     21  C   UNL A   1      32.528  21.383  24.904  1.00  0.00     0.030 A 
ATOM     22  O   UNL A   1      37.972  21.474  25.497  1.00  0.00    -0.263 OA
ATOM     23  N   UNL A   1      35.989  22.658  25.369  1.00  0.00    -0.305 N 
ATOM     24  C   UNL A   1      33.822  23.819  25.255  1.00  0.00     0.050 A 
ATOM     25  C   UNL A   1      31.795  22.559  24.979  1.00  0.00     0.024 A 
ATOM     26  C   UNL A   1      36.675  23.917  25.621  1.00  0.00     0.154 C 
ENDBRANCH  10  13
ENDBRANCH   6  10
ENDBRANCH   3   5
ENDBRANCH   2   3
ENDBRANCH   1   2
BRANCH   1  27
ATOM     27  C   UNL A   1      31.749  30.532  25.757  1.00  0.00     0.275 C 
BRANCH  27  28
ATOM     28  O   UNL A   1      32.618  30.440  26.901  1.00  0.00    -0.458 OA
BRANCH  28  29
ATOM     29  C   UNL A   1      33.232  31.583  27.274  1.00  0.00     0.338 C 
ATOM     30  O   UNL A   1      32.783  32.716  27.259  1.00  0.00    -0.246 OA
BRANCH  29  31
ATOM     31  C   UNL A   1      34.567  31.265  27.803  1.00  0.00     0.060 A 
ATOM     32  C   UNL A   1      35.508  32.272  27.990  1.00  0.00     0.016 A 
ATOM     33  C   UNL A   1      34.832  29.973  28.250  1.00  0.00     0.016 A 
ATOM     34  C   UNL A   1      36.728  31.959  28.598  1.00  0.00     0.010 A 
ATOM     35  C   UNL A   1      35.984  29.700  28.977  1.00  0.00     0.010 A 
ATOM     36  C   UNL A   1      36.972  30.674  29.122  1.00  0.00    -0.014 A 
BRANCH  36  37
ATOM     37  C   UNL A   1      38.253  30.352  29.807  1.00  0.00     0.031 A 
ATOM     38  C   UNL A   1      38.524  30.823  31.216  1.00  0.00     0.074 A 
ATOM     39  C   UNL A   1      39.189  29.637  29.152  1.00  0.00     0.049 A 
ATOM     40  N   UNL A   1      39.511  30.497  32.013  1.00  0.00    -0.248 NA
ATOM     41  C   UNL A   1      37.603  31.814  31.797  1.00  0.00     0.031 C 
ATOM     42  C   UNL A   1      39.120  29.242  27.743  1.00  0.00     0.029 A 
ATOM     43  N   UNL A   1      40.366  29.083  29.593  1.00  0.00    -0.354 N 
ATOM     44  C   UNL A   1      39.320  31.234  33.175  1.00  0.00     0.074 A 
ATOM     45  C   UNL A   1      38.188  32.098  32.950  1.00  0.00     0.031 C 
ATOM     46  C   UNL A   1      40.155  28.435  27.461  1.00  0.00     0.029 A 
ATOM     47  C   UNL A   1      40.964  28.265  28.664  1.00  0.00     0.049 A 
ATOM     48  H   UNL A   1      40.744  29.256  30.485  1.00  0.00     0.167 HD
ATOM     49  C   UNL A   1      39.987  31.153  34.350  1.00  0.00     0.037 A 
ATOM     50  C   UNL A   1      42.013  27.430  28.787  1.00  0.00     0.037 A 
ATOM     51  C   UNL A   1      41.073  30.247  34.595  1.00  0.00     0.049 A 
ATOM     52  C   UNL A   1      42.698  27.302  30.120  1.00  0.00     0.074 A 
ATOM     53  C   UNL A   1      41.745  30.004  35.780  1.00  0.00     0.029 A 
ATOM     54  N   UNL A   1      41.638  29.423  33.634  1.00  0.00    -0.354 N 
ATOM     55  N   UNL A   1      42.417  27.897  31.253  1.00  0.00    -0.248 NA
ATOM     56  C   UNL A   1      43.839  26.377  30.193  1.00  0.00     0.031 C 
ATOM     57  C   UNL A   1      42.737  29.053  35.529  1.00  0.00     0.029 A 
ATOM     58  C   UNL A   1      42.663  28.684  34.195  1.00  0.00     0.049 A 
ATOM     59  H   UNL A   1      41.354  29.374  32.693  1.00  0.00     0.167 HD
ATOM     60  C   UNL A   1      43.331  27.408  32.176  1.00  0.00     0.074 A 
ATOM     61  C   UNL A   1      44.163  26.452  31.477  1.00  0.00     0.031 C 
ATOM     62  C   UNL A   1      43.472  27.731  33.484  1.00  0.00     0.037 A 
BRANCH  49  63
ATOM     63  C   UNL A   1      39.511  32.008  35.488  1.00  0.00     0.064 A 
ATOM     64  C   UNL A   1      38.549  31.534  36.394  1.00  0.00     0.173 A 
ATOM     65  C   UNL A   1      40.073  33.271  35.726  1.00  0.00     0.173 A 
ATOM     66  F   UNL A   1      37.978  30.335  36.206  1.00  0.00    -0.203 F 
ATOM     67  C   UNL A   1      38.153  32.301  37.486  1.00  0.00     0.198 A 
ATOM     68  C   UNL A   1      39.693  34.023  36.835  1.00  0.00     0.198 A 
ATOM     69  F   UNL A   1      41.003  33.765  34.895  1.00  0.00    -0.203 F 
ATOM     70  F   UNL A   1      37.211  31.839  38.319  1.00  0.00    -0.200 F 
ATOM     71  C   UNL A   1      38.733  33.540  37.711  1.00  0.00     0.200 A 
ATOM     72  F   UNL A   1      40.264  35.215  37.061  1.00  0.00    -0.200 F 
ATOM     73  F   UNL A   1      38.365  34.268  38.775  1.00  0.00    -0.200 F 
ENDBRANCH  49  63
BRANCH  50  74
ATOM     74  C   UNL A   1      42.408  26.568  27.643  1.00  0.00     0.064 A 
ATOM     75  C   UNL A   1      43.425  26.973  26.767  1.00  0.00     0.173 A 
ATOM     76  C   UNL A   1      41.800  25.327  27.411  1.00  0.00     0.173 A 
ATOM     77  F   UNL A   1      44.027  28.158  26.943  1.00  0.00    -0.203 F 
ATOM     78  C   UNL A   1      43.808  26.176  25.690  1.00  0.00     0.198 A 
ATOM     79  C   UNL A   1      42.198  24.521  26.346  1.00  0.00     0.198 A 
ATOM     80  F   UNL A   1      40.830  24.892  28.227  1.00  0.00    -0.203 F 
ATOM     81  F   UNL A   1      44.759  26.602  24.849  1.00  0.00    -0.200 F 
ATOM     82  C   UNL A   1      43.197  24.948  25.483  1.00  0.00     0.200 A 
ATOM     83  F   UNL A   1      41.616  23.329  26.156  1.00  0.00    -0.200 F 
ATOM     84  F   UNL A   1      43.568  24.180  24.451  1.00  0.00    -0.200 F 
ENDBRANCH  50  74
BRANCH  62  85
ATOM     85  C   UNL A   1      44.565  27.055  34.252  1.00  0.00     0.064 A 
ATOM     86  C   UNL A   1      45.824  27.655  34.395  1.00  0.00     0.173 A 
ATOM     87  C   UNL A   1      44.323  25.852  34.930  1.00  0.00     0.173 A 
ATOM     88  F   UNL A   1      46.102  28.801  33.756  1.00  0.00    -0.203 F 
ATOM     89  C   UNL A   1      46.805  27.070  35.190  1.00  0.00     0.198 A 
ATOM     90  C   UNL A   1      45.298  25.282  35.741  1.00  0.00     0.198 A 
ATOM     91  F   UNL A   1      43.129  25.247  34.828  1.00  0.00    -0.203 F 
ATOM     92  F   UNL A   1      48.008  27.649  35.299  1.00  0.00    -0.200 F 
ATOM     93  C   UNL A   1      46.539  25.890  35.870  1.00  0.00     0.200 A 
ATOM     94  F   UNL A   1      45.035  24.150  36.410  1.00  0.00    -0.200 F 
ATOM     95  F   UNL A   1      47.478  25.340  36.651  1.00  0.00    -0.200 F 
ENDBRANCH  62  85
ENDBRANCH  36  37
ENDBRANCH  29  31
ENDBRANCH  28  29
ENDBRANCH  27  28
ENDBRANCH   1  27
TORSDOF 13
ENDMDL
