MODEL 1
REMARK VINA RESULT:     -12.9      0.000      0.000
REMARK SMILES CCc1noc(C[N@@H+]2CC[C@H](Cc3cccc(C(=O)OCCOC(=O)c4ccc(-c5c6nc(c(-c7c(F)c(F)c(F)c(F)c7F)c7ccc([nH]7)c(-c7c(F)c(F)c(F)c(F)c7F)c7nc(c(-c8c(F)c(F)c(F)c(F)c8F)c8ccc5[nH]8)C=C7)C=C6)cc4)c3)C2)n1
REMARK SMILES IDX 20 1 18 2 19 3 17 4 13 5 14 6 89 7 15 8 16 9 12 10 11 11
REMARK SMILES IDX 8 12 9 13 90 14 10 16 7 17 6 18 3 19 4 20 91 21 5 22 2 23
REMARK SMILES IDX 1 24 21 25 22 26 23 27 24 28 25 29 26 30 27 31 88 32 28 33
REMARK SMILES IDX 87 34 29 35 30 36 31 37 81 38 32 39 86 40 80 41 82 42 33 43
REMARK SMILES IDX 85 44 79 45 78 46 34 48 66 49 46 50 65 51 47 52 50 53 64 54
REMARK SMILES IDX 83 55 48 56 49 57 63 59 84 60 51 61 35 62 36 63 44 64 37 65
REMARK SMILES IDX 38 66 42 67 45 68 39 69 40 70 43 71 41 72 67 73 68 74 76 75
REMARK SMILES IDX 69 76 70 77 74 78 77 79 71 80 72 81 75 82 73 83 52 84 53 85
REMARK SMILES IDX 61 86 54 87 55 88 59 89 62 90 56 91 57 92 60 93 58 94
REMARK H PARENT 8 15 82 47 50 58
REMARK Flexibility Score: inf
ROOT
ATOM      1  O   UNL A   1      41.564  20.961  25.752  1.00  0.00    -0.458 OA
ENDROOT
BRANCH   1   2
ATOM      2  C   UNL A   1      40.680  21.057  26.779  1.00  0.00     0.338 C 
ATOM      3  O   UNL A   1      40.819  20.613  27.898  1.00  0.00    -0.246 OA
BRANCH   2   4
ATOM      4  C   UNL A   1      39.516  21.892  26.371  1.00  0.00     0.060 A 
ATOM      5  C   UNL A   1      37.460  22.222  25.140  1.00  0.00    -0.047 A 
ATOM      6  C   UNL A   1      37.391  23.537  25.622  1.00  0.00     0.004 A 
ATOM      7  C   UNL A   1      38.555  21.420  25.478  1.00  0.00     0.019 A 
ATOM      8  C   UNL A   1      38.358  24.020  26.498  1.00  0.00     0.001 A 
ATOM      9  C   UNL A   1      39.391  23.182  26.908  1.00  0.00     0.016 A 
BRANCH   5  10
ATOM     10  C   UNL A   1      36.287  21.611  24.414  1.00  0.00     0.045 C 
BRANCH  10  11
ATOM     11  C   UNL A   1      35.059  22.534  24.498  1.00  0.00     0.054 C 
ATOM     12  N   UNL A   1      32.717  22.054  24.143  1.00  0.00    -0.327 N 
ATOM     13  C   UNL A   1      33.095  23.168  23.274  1.00  0.00     0.263 C 
ATOM     14  C   UNL A   1      33.821  21.855  25.094  1.00  0.00     0.266 C 
ATOM     15  H   UNL A   1      31.862  22.287  24.648  1.00  0.00     0.348 HD
ATOM     16  C   UNL A   1      34.597  23.080  23.143  1.00  0.00     0.071 C 
BRANCH  12  17
ATOM     17  C   UNL A   1      32.317  20.829  23.418  1.00  0.00     0.364 C 
BRANCH  17  18
ATOM     18  C   UNL A   1      32.572  19.507  24.069  1.00  0.00     0.281 A 
ATOM     19  C   UNL A   1      33.127  17.573  24.650  1.00  0.00     0.171 A 
ATOM     20  N   UNL A   1      32.524  18.058  25.744  1.00  0.00    -0.062 NA
ATOM     21  N   UNL A   1      33.177  18.440  23.588  1.00  0.00    -0.191 NA
ATOM     22  O   UNL A   1      32.161  19.354  25.362  1.00  0.00    -0.333 OA
BRANCH  19  23
ATOM     23  C   UNL A   1      33.725  16.216  24.591  1.00  0.00     0.078 C 
ATOM     24  C   UNL A   1      32.948  15.175  25.383  1.00  0.00     0.012 C 
ENDBRANCH  19  23
ENDBRANCH  17  18
ENDBRANCH  12  17
ENDBRANCH  10  11
ENDBRANCH   5  10
ENDBRANCH   2   4
ENDBRANCH   1   2
BRANCH   1  25
ATOM     25  C   UNL A   1      42.953  20.855  26.108  1.00  0.00     0.275 C 
BRANCH  25  26
ATOM     26  C   UNL A   1      43.809  21.765  25.227  1.00  0.00     0.275 C 
BRANCH  26  27
ATOM     27  O   UNL A   1      43.103  22.980  24.906  1.00  0.00    -0.458 OA
BRANCH  27  28
ATOM     28  C   UNL A   1      43.780  24.124  25.157  1.00  0.00     0.338 C 
ATOM     29  O   UNL A   1      44.800  24.521  24.620  1.00  0.00    -0.246 OA
BRANCH  28  30
ATOM     30  C   UNL A   1      43.031  24.944  26.120  1.00  0.00     0.060 A 
ATOM     31  C   UNL A   1      43.217  26.321  26.058  1.00  0.00     0.016 A 
ATOM     32  C   UNL A   1      42.296  24.384  27.161  1.00  0.00     0.016 A 
ATOM     33  C   UNL A   1      42.720  27.154  27.051  1.00  0.00     0.010 A 
ATOM     34  C   UNL A   1      41.758  25.225  28.146  1.00  0.00     0.010 A 
ATOM     35  C   UNL A   1      41.994  26.616  28.118  1.00  0.00    -0.014 A 
BRANCH  35  36
ATOM     36  C   UNL A   1      41.597  27.498  29.250  1.00  0.00     0.031 A 
ATOM     37  C   UNL A   1      42.393  27.474  30.526  1.00  0.00     0.074 A 
ATOM     38  C   UNL A   1      40.573  28.363  29.125  1.00  0.00     0.049 A 
ATOM     39  N   UNL A   1      42.147  28.056  31.674  1.00  0.00    -0.248 NA
ATOM     40  C   UNL A   1      43.630  26.680  30.510  1.00  0.00     0.031 C 
ATOM     41  C   UNL A   1      39.759  28.542  27.923  1.00  0.00     0.029 A 
ATOM     42  N   UNL A   1      40.045  29.261  30.022  1.00  0.00    -0.354 N 
ATOM     43  C   UNL A   1      43.167  27.655  32.528  1.00  0.00     0.074 A 
ATOM     44  C   UNL A   1      44.026  26.769  31.771  1.00  0.00     0.031 C 
ATOM     45  C   UNL A   1      38.847  29.500  28.150  1.00  0.00     0.029 A 
ATOM     46  C   UNL A   1      38.963  29.951  29.534  1.00  0.00     0.049 A 
ATOM     47  H   UNL A   1      40.409  29.397  30.926  1.00  0.00     0.167 HD
ATOM     48  C   UNL A   1      43.371  27.997  33.823  1.00  0.00     0.037 A 
ATOM     49  C   UNL A   1      38.131  30.818  30.143  1.00  0.00     0.037 A 
ATOM     50  C   UNL A   1      42.539  28.916  34.559  1.00  0.00     0.049 A 
ATOM     51  C   UNL A   1      38.356  31.162  31.590  1.00  0.00     0.074 A 
ATOM     52  C   UNL A   1      42.658  29.326  35.876  1.00  0.00     0.029 A 
ATOM     53  N   UNL A   1      41.439  29.578  34.033  1.00  0.00    -0.354 N 
ATOM     54  N   UNL A   1      39.285  30.733  32.408  1.00  0.00    -0.248 NA
ATOM     55  C   UNL A   1      37.409  32.106  32.199  1.00  0.00     0.031 C 
ATOM     56  C   UNL A   1      41.607  30.207  36.157  1.00  0.00     0.029 A 
ATOM     57  C   UNL A   1      40.865  30.388  35.001  1.00  0.00     0.049 A 
ATOM     58  H   UNL A   1      41.113  29.487  33.108  1.00  0.00     0.167 HD
ATOM     59  C   UNL A   1      39.047  31.363  33.622  1.00  0.00     0.074 A 
ATOM     60  C   UNL A   1      37.897  32.221  33.427  1.00  0.00     0.031 C 
ATOM     61  C   UNL A   1      39.720  31.239  34.793  1.00  0.00     0.037 A 
BRANCH  48  62
ATOM     62  C   UNL A   1      44.517  27.336  34.536  1.00  0.00     0.064 A 
ATOM     63  C   UNL A   1      45.797  27.908  34.580  1.00  0.00     0.173 A 
ATOM     64  C   UNL A   1      44.327  26.104  35.181  1.00  0.00     0.173 A 
ATOM     65  F   UNL A   1      46.035  29.077  33.968  1.00  0.00    -0.203 F 
ATOM     66  C   UNL A   1      46.854  27.250  35.205  1.00  0.00     0.198 A 
ATOM     67  C   UNL A   1      45.380  25.465  35.835  1.00  0.00     0.198 A 
ATOM     68  F   UNL A   1      43.123  25.514  35.177  1.00  0.00    -0.203 F 
ATOM     69  F   UNL A   1      48.084  27.783  35.175  1.00  0.00    -0.200 F 
ATOM     70  C   UNL A   1      46.644  26.032  35.834  1.00  0.00     0.200 A 
ATOM     71  F   UNL A   1      45.170  24.296  36.454  1.00  0.00    -0.200 F 
ATOM     72  F   UNL A   1      47.663  25.400  36.431  1.00  0.00    -0.200 F 
ENDBRANCH  48  62
BRANCH  49  73
ATOM     73  C   UNL A   1      36.985  31.388  29.386  1.00  0.00     0.064 A 
ATOM     74  C   UNL A   1      35.877  30.604  29.044  1.00  0.00     0.173 A 
ATOM     75  C   UNL A   1      36.971  32.739  29.005  1.00  0.00     0.173 A 
ATOM     76  F   UNL A   1      35.856  29.301  29.360  1.00  0.00    -0.203 F 
ATOM     77  C   UNL A   1      34.799  31.147  28.346  1.00  0.00     0.198 A 
ATOM     78  C   UNL A   1      35.881  33.288  28.336  1.00  0.00     0.198 A 
ATOM     79  F   UNL A   1      38.010  33.533  29.305  1.00  0.00    -0.203 F 
ATOM     80  F   UNL A   1      33.767  30.366  28.000  1.00  0.00    -0.200 F 
ATOM     81  C   UNL A   1      34.798  32.490  28.003  1.00  0.00     0.200 A 
ATOM     82  F   UNL A   1      35.877  34.590  28.020  1.00  0.00    -0.200 F 
ATOM     83  F   UNL A   1      33.754  33.015  27.345  1.00  0.00    -0.200 F 
ENDBRANCH  49  73
BRANCH  61  84
ATOM     84  C   UNL A   1      39.250  32.079  35.945  1.00  0.00     0.064 A 
ATOM     85  C   UNL A   1      38.311  31.604  36.871  1.00  0.00     0.173 A 
ATOM     86  C   UNL A   1      39.771  33.368  36.140  1.00  0.00     0.173 A 
ATOM     87  F   UNL A   1      37.772  30.385  36.721  1.00  0.00    -0.203 F 
ATOM     88  C   UNL A   1      37.887  32.399  37.933  1.00  0.00     0.198 A 
ATOM     89  C   UNL A   1      39.367  34.149  37.220  1.00  0.00     0.198 A 
ATOM     90  F   UNL A   1      40.677  33.868  35.287  1.00  0.00    -0.203 F 
ATOM     91  F   UNL A   1      36.949  31.945  38.776  1.00  0.00    -0.200 F 
ATOM     92  C   UNL A   1      38.420  33.667  38.110  1.00  0.00     0.200 A 
ATOM     93  F   UNL A   1      39.892  35.370  37.396  1.00  0.00    -0.200 F 
ATOM     94  F   UNL A   1      38.012  34.430  39.134  1.00  0.00    -0.200 F 
ENDBRANCH  61  84
ENDBRANCH  35  36
ENDBRANCH  28  30
ENDBRANCH  27  28
ENDBRANCH  26  27
ENDBRANCH  25  26
ENDBRANCH   1  25
TORSDOF 16
ENDMDL
MODEL 2
REMARK VINA RESULT:     -12.6      5.272      7.639
REMARK SMILES CCc1noc(C[N@@H+]2CC[C@H](Cc3cccc(C(=O)OCCOC(=O)c4ccc(-c5c6nc(c(-c7c(F)c(F)c(F)c(F)c7F)c7ccc([nH]7)c(-c7c(F)c(F)c(F)c(F)c7F)c7nc(c(-c8c(F)c(F)c(F)c(F)c8F)c8ccc5[nH]8)C=C7)C=C6)cc4)c3)C2)n1
REMARK SMILES IDX 20 1 18 2 19 3 17 4 13 5 14 6 89 7 15 8 16 9 12 10 11 11
REMARK SMILES IDX 8 12 9 13 90 14 10 16 7 17 6 18 3 19 4 20 91 21 5 22 2 23
REMARK SMILES IDX 1 24 21 25 22 26 23 27 24 28 25 29 26 30 27 31 88 32 28 33
REMARK SMILES IDX 87 34 29 35 30 36 31 37 81 38 32 39 86 40 80 41 82 42 33 43
REMARK SMILES IDX 85 44 79 45 78 46 34 48 66 49 46 50 65 51 47 52 50 53 64 54
REMARK SMILES IDX 83 55 48 56 49 57 63 59 84 60 51 61 35 62 36 63 44 64 37 65
REMARK SMILES IDX 38 66 42 67 45 68 39 69 40 70 43 71 41 72 67 73 68 74 76 75
REMARK SMILES IDX 69 76 70 77 74 78 77 79 71 80 72 81 75 82 73 83 52 84 53 85
REMARK SMILES IDX 61 86 54 87 55 88 59 89 62 90 56 91 57 92 60 93 58 94
REMARK H PARENT 8 15 82 47 50 58
REMARK Flexibility Score: inf
ROOT
ATOM      1  O   UNL A   1      41.137  20.286  26.361  1.00  0.00    -0.458 OA
ENDROOT
BRANCH   1   2
ATOM      2  C   UNL A   1      40.967  21.434  27.066  1.00  0.00     0.338 C 
ATOM      3  O   UNL A   1      41.712  21.883  27.911  1.00  0.00    -0.246 OA
BRANCH   2   4
ATOM      4  C   UNL A   1      39.753  22.150  26.585  1.00  0.00     0.060 A 
ATOM      5  C   UNL A   1      37.673  22.223  25.352  1.00  0.00    -0.047 A 
ATOM      6  C   UNL A   1      37.529  23.576  25.690  1.00  0.00     0.004 A 
ATOM      7  C   UNL A   1      38.816  21.528  25.760  1.00  0.00     0.019 A 
ATOM      8  C   UNL A   1      38.470  24.208  26.497  1.00  0.00     0.001 A 
ATOM      9  C   UNL A   1      39.553  23.481  26.982  1.00  0.00     0.016 A 
BRANCH   5  10
ATOM     10  C   UNL A   1      36.535  21.469  24.710  1.00  0.00     0.045 C 
BRANCH  10  11
ATOM     11  C   UNL A   1      35.236  22.292  24.776  1.00  0.00     0.054 C 
ATOM     12  N   UNL A   1      32.955  21.652  24.297  1.00  0.00    -0.327 N 
ATOM     13  C   UNL A   1      33.282  22.829  23.492  1.00  0.00     0.263 C 
ATOM     14  C   UNL A   1      34.031  21.495  25.288  1.00  0.00     0.266 C 
ATOM     15  H   UNL A   1      32.065  21.796  24.773  1.00  0.00     0.348 HD
ATOM     16  C   UNL A   1      34.790  22.861  23.425  1.00  0.00     0.071 C 
BRANCH  12  17
ATOM     17  C   UNL A   1      32.683  20.433  23.506  1.00  0.00     0.364 C 
BRANCH  17  18
ATOM     18  C   UNL A   1      32.824  19.105  24.180  1.00  0.00     0.281 A 
ATOM     19  C   UNL A   1      33.287  17.173  24.841  1.00  0.00     0.171 A 
ATOM     20  N   UNL A   1      32.455  17.628  25.789  1.00  0.00    -0.062 NA
ATOM     21  N   UNL A   1      33.541  18.058  23.825  1.00  0.00    -0.191 NA
ATOM     22  O   UNL A   1      32.152  18.922  25.354  1.00  0.00    -0.333 OA
BRANCH  19  23
ATOM     23  C   UNL A   1      33.915  15.829  24.894  1.00  0.00     0.078 C 
ATOM     24  C   UNL A   1      35.357  15.850  25.375  1.00  0.00     0.012 C 
ENDBRANCH  19  23
ENDBRANCH  17  18
ENDBRANCH  12  17
ENDBRANCH  10  11
ENDBRANCH   5  10
ENDBRANCH   2   4
ENDBRANCH   1   2
BRANCH   1  25
ATOM     25  C   UNL A   1      41.889  19.243  27.006  1.00  0.00     0.275 C 
BRANCH  25  26
ATOM     26  C   UNL A   1      42.682  18.433  25.979  1.00  0.00     0.275 C 
BRANCH  26  27
ATOM     27  O   UNL A   1      43.004  19.240  24.828  1.00  0.00    -0.458 OA
BRANCH  27  28
ATOM     28  C   UNL A   1      44.325  19.376  24.571  1.00  0.00     0.338 C 
ATOM     29  O   UNL A   1      45.100  18.524  24.173  1.00  0.00    -0.246 OA
BRANCH  28  30
ATOM     30  C   UNL A   1      44.716  20.786  24.712  1.00  0.00     0.060 A 
ATOM     31  C   UNL A   1      45.555  21.108  25.775  1.00  0.00     0.016 A 
ATOM     32  C   UNL A   1      44.155  21.795  23.934  1.00  0.00     0.016 A 
ATOM     33  C   UNL A   1      45.807  22.431  26.110  1.00  0.00     0.010 A 
ATOM     34  C   UNL A   1      44.439  23.133  24.244  1.00  0.00     0.010 A 
ATOM     35  C   UNL A   1      45.241  23.465  25.357  1.00  0.00    -0.014 A 
BRANCH  35  36
ATOM     36  C   UNL A   1      45.397  24.872  25.815  1.00  0.00     0.031 A 
ATOM     37  C   UNL A   1      46.723  25.565  25.651  1.00  0.00     0.074 A 
ATOM     38  C   UNL A   1      44.351  25.556  26.316  1.00  0.00     0.049 A 
ATOM     39  N   UNL A   1      47.115  26.732  26.097  1.00  0.00    -0.248 NA
ATOM     40  C   UNL A   1      47.749  24.838  24.889  1.00  0.00     0.031 C 
ATOM     41  C   UNL A   1      42.994  25.033  26.467  1.00  0.00     0.029 A 
ATOM     42  N   UNL A   1      44.267  26.845  26.786  1.00  0.00    -0.354 N 
ATOM     43  C   UNL A   1      48.445  26.855  25.716  1.00  0.00     0.074 A 
ATOM     44  C   UNL A   1      48.798  25.638  25.016  1.00  0.00     0.031 C 
ATOM     45  C   UNL A   1      42.209  25.995  26.978  1.00  0.00     0.029 A 
ATOM     46  C   UNL A   1      43.021  27.175  27.258  1.00  0.00     0.049 A 
ATOM     47  H   UNL A   1      45.027  27.471  26.784  1.00  0.00     0.167 HD
ATOM     48  C   UNL A   1      49.294  27.890  25.927  1.00  0.00     0.037 A 
ATOM     49  C   UNL A   1      42.589  28.287  27.883  1.00  0.00     0.037 A 
ATOM     50  C   UNL A   1      48.927  29.119  26.584  1.00  0.00     0.049 A 
ATOM     51  C   UNL A   1      43.553  29.413  28.136  1.00  0.00     0.074 A 
ATOM     52  C   UNL A   1      49.713  30.227  26.850  1.00  0.00     0.029 A 
ATOM     53  N   UNL A   1      47.657  29.406  27.066  1.00  0.00    -0.354 N 
ATOM     54  N   UNL A   1      44.824  29.498  27.828  1.00  0.00    -0.248 NA
ATOM     55  C   UNL A   1      43.024  30.595  28.831  1.00  0.00     0.031 C 
ATOM     56  C   UNL A   1      48.929  31.169  27.527  1.00  0.00     0.029 A 
ATOM     57  C   UNL A   1      47.640  30.670  27.635  1.00  0.00     0.049 A 
ATOM     58  H   UNL A   1      46.882  28.802  27.012  1.00  0.00     0.167 HD
ATOM     59  C   UNL A   1      45.244  30.744  28.276  1.00  0.00     0.074 A 
ATOM     60  C   UNL A   1      44.086  31.389  28.859  1.00  0.00     0.031 C 
ATOM     61  C   UNL A   1      46.479  31.301  28.211  1.00  0.00     0.037 A 
BRANCH  48  62
ATOM     62  C   UNL A   1      50.718  27.713  25.480  1.00  0.00     0.064 A 
ATOM     63  C   UNL A   1      51.107  27.890  24.143  1.00  0.00     0.173 A 
ATOM     64  C   UNL A   1      51.708  27.353  26.407  1.00  0.00     0.173 A 
ATOM     65  F   UNL A   1      50.198  28.220  23.214  1.00  0.00    -0.203 F 
ATOM     66  C   UNL A   1      52.424  27.670  23.745  1.00  0.00     0.198 A 
ATOM     67  C   UNL A   1      53.031  27.168  26.011  1.00  0.00     0.198 A 
ATOM     68  F   UNL A   1      51.395  27.178  27.700  1.00  0.00    -0.203 F 
ATOM     69  F   UNL A   1      52.758  27.779  22.451  1.00  0.00    -0.200 F 
ATOM     70  C   UNL A   1      53.385  27.314  24.679  1.00  0.00     0.200 A 
ATOM     71  F   UNL A   1      53.961  26.838  26.919  1.00  0.00    -0.200 F 
ATOM     72  F   UNL A   1      54.650  27.100  24.293  1.00  0.00    -0.200 F 
ENDBRANCH  48  62
BRANCH  49  73
ATOM     73  C   UNL A   1      41.178  28.365  28.347  1.00  0.00     0.064 A 
ATOM     74  C   UNL A   1      40.806  27.927  29.624  1.00  0.00     0.173 A 
ATOM     75  C   UNL A   1      40.175  28.899  27.523  1.00  0.00     0.173 A 
ATOM     76  F   UNL A   1      41.723  27.384  30.439  1.00  0.00    -0.203 F 
ATOM     77  C   UNL A   1      39.485  28.016  30.059  1.00  0.00     0.198 A 
ATOM     78  C   UNL A   1      38.861  29.016  27.969  1.00  0.00     0.198 A 
ATOM     79  F   UNL A   1      40.477  29.329  26.289  1.00  0.00    -0.203 F 
ATOM     80  F   UNL A   1      39.149  27.556  31.272  1.00  0.00    -0.200 F 
ATOM     81  C   UNL A   1      38.516  28.570  29.235  1.00  0.00     0.200 A 
ATOM     82  F   UNL A   1      37.932  29.565  27.176  1.00  0.00    -0.200 F 
ATOM     83  F   UNL A   1      37.249  28.668  29.660  1.00  0.00    -0.200 F 
ENDBRANCH  49  73
BRANCH  61  84
ATOM     84  C   UNL A   1      46.632  32.692  28.754  1.00  0.00     0.064 A 
ATOM     85  C   UNL A   1      46.995  32.930  30.087  1.00  0.00     0.173 A 
ATOM     86  C   UNL A   1      46.439  33.804  27.918  1.00  0.00     0.173 A 
ATOM     87  F   UNL A   1      47.177  31.903  30.931  1.00  0.00    -0.203 F 
ATOM     88  C   UNL A   1      47.131  34.228  30.572  1.00  0.00     0.198 A 
ATOM     89  C   UNL A   1      46.604  35.100  28.398  1.00  0.00     0.198 A 
ATOM     90  F   UNL A   1      46.097  33.632  26.632  1.00  0.00    -0.203 F 
ATOM     91  F   UNL A   1      47.428  34.433  31.863  1.00  0.00    -0.200 F 
ATOM     92  C   UNL A   1      46.942  35.311  29.726  1.00  0.00     0.200 A 
ATOM     93  F   UNL A   1      46.433  36.145  27.576  1.00  0.00    -0.200 F 
ATOM     94  F   UNL A   1      47.075  36.560  30.194  1.00  0.00    -0.200 F 
ENDBRANCH  61  84
ENDBRANCH  35  36
ENDBRANCH  28  30
ENDBRANCH  27  28
ENDBRANCH  26  27
ENDBRANCH  25  26
ENDBRANCH   1  25
TORSDOF 16
ENDMDL
MODEL 3
REMARK VINA RESULT:     -12.3      1.360      2.996
REMARK SMILES CCc1noc(C[N@@H+]2CC[C@H](Cc3cccc(C(=O)OCCOC(=O)c4ccc(-c5c6nc(c(-c7c(F)c(F)c(F)c(F)c7F)c7ccc([nH]7)c(-c7c(F)c(F)c(F)c(F)c7F)c7nc(c(-c8c(F)c(F)c(F)c(F)c8F)c8ccc5[nH]8)C=C7)C=C6)cc4)c3)C2)n1
REMARK SMILES IDX 20 1 18 2 19 3 17 4 13 5 14 6 89 7 15 8 16 9 12 10 11 11
REMARK SMILES IDX 8 12 9 13 90 14 10 16 7 17 6 18 3 19 4 20 91 21 5 22 2 23
REMARK SMILES IDX 1 24 21 25 22 26 23 27 24 28 25 29 26 30 27 31 88 32 28 33
REMARK SMILES IDX 87 34 29 35 30 36 31 37 81 38 32 39 86 40 80 41 82 42 33 43
REMARK SMILES IDX 85 44 79 45 78 46 34 48 66 49 46 50 65 51 47 52 50 53 64 54
REMARK SMILES IDX 83 55 48 56 49 57 63 59 84 60 51 61 35 62 36 63 44 64 37 65
REMARK SMILES IDX 38 66 42 67 45 68 39 69 40 70 43 71 41 72 67 73 68 74 76 75
REMARK SMILES IDX 69 76 70 77 74 78 77 79 71 80 72 81 75 82 73 83 52 84 53 85
REMARK SMILES IDX 61 86 54 87 55 88 59 89 62 90 56 91 57 92 60 93 58 94
REMARK H PARENT 8 15 82 47 50 58
REMARK Flexibility Score: inf
ROOT
ATOM      1  O   UNL A   1      41.584  21.468  26.313  1.00  0.00    -0.458 OA
ENDROOT
BRANCH   1   2
ATOM      2  C   UNL A   1      40.409  20.812  26.126  1.00  0.00     0.338 C 
ATOM      3  O   UNL A   1      40.242  19.611  26.125  1.00  0.00    -0.246 OA
BRANCH   2   4
ATOM      4  C   UNL A   1      39.293  21.791  26.015  1.00  0.00     0.060 A 
ATOM      5  C   UNL A   1      37.059  22.404  25.316  1.00  0.00    -0.047 A 
ATOM      6  C   UNL A   1      37.269  23.700  25.809  1.00  0.00     0.004 A 
ATOM      7  C   UNL A   1      38.097  21.467  25.376  1.00  0.00     0.019 A 
ATOM      8  C   UNL A   1      38.467  24.035  26.429  1.00  0.00     0.001 A 
ATOM      9  C   UNL A   1      39.458  23.067  26.574  1.00  0.00     0.016 A 
BRANCH   5  10
ATOM     10  C   UNL A   1      35.682  21.961  24.889  1.00  0.00     0.045 C 
BRANCH  10  11
ATOM     11  C   UNL A   1      34.878  21.453  26.099  1.00  0.00     0.054 C 
ATOM     12  N   UNL A   1      32.497  21.469  26.510  1.00  0.00    -0.327 N 
ATOM     13  C   UNL A   1      33.162  22.126  27.634  1.00  0.00     0.263 C 
ATOM     14  C   UNL A   1      33.543  20.803  25.718  1.00  0.00     0.266 C 
ATOM     15  H   UNL A   1      31.835  20.776  26.859  1.00  0.00     0.348 HD
ATOM     16  C   UNL A   1      34.514  22.547  27.108  1.00  0.00     0.071 C 
BRANCH  12  17
ATOM     17  C   UNL A   1      31.618  22.358  25.720  1.00  0.00     0.364 C 
BRANCH  17  18
ATOM     18  C   UNL A   1      31.721  23.833  25.942  1.00  0.00     0.281 A 
ATOM     19  C   UNL A   1      32.117  25.889  25.951  1.00  0.00     0.171 A 
ATOM     20  N   UNL A   1      31.155  25.761  26.876  1.00  0.00    -0.062 NA
ATOM     21  N   UNL A   1      32.497  24.717  25.350  1.00  0.00    -0.191 NA
ATOM     22  O   UNL A   1      30.882  24.389  26.865  1.00  0.00    -0.333 OA
BRANCH  19  23
ATOM     23  C   UNL A   1      32.709  27.198  25.578  1.00  0.00     0.078 C 
ATOM     24  C   UNL A   1      31.715  28.348  25.617  1.00  0.00     0.012 C 
ENDBRANCH  19  23
ENDBRANCH  17  18
ENDBRANCH  12  17
ENDBRANCH  10  11
ENDBRANCH   5  10
ENDBRANCH   2   4
ENDBRANCH   1   2
BRANCH   1  25
ATOM     25  C   UNL A   1      42.761  20.845  25.770  1.00  0.00     0.275 C 
BRANCH  25  26
ATOM     26  C   UNL A   1      43.775  21.898  25.325  1.00  0.00     0.275 C 
BRANCH  26  27
ATOM     27  O   UNL A   1      43.110  23.108  24.911  1.00  0.00    -0.458 OA
BRANCH  27  28
ATOM     28  C   UNL A   1      43.787  24.253  25.161  1.00  0.00     0.338 C 
ATOM     29  O   UNL A   1      44.809  24.647  24.627  1.00  0.00    -0.246 OA
BRANCH  28  30
ATOM     30  C   UNL A   1      43.034  25.078  26.116  1.00  0.00     0.060 A 
ATOM     31  C   UNL A   1      43.285  26.447  26.106  1.00  0.00     0.016 A 
ATOM     32  C   UNL A   1      42.229  24.523  27.106  1.00  0.00     0.016 A 
ATOM     33  C   UNL A   1      42.783  27.272  27.103  1.00  0.00     0.010 A 
ATOM     34  C   UNL A   1      41.687  25.358  28.093  1.00  0.00     0.010 A 
ATOM     35  C   UNL A   1      41.987  26.737  28.120  1.00  0.00    -0.014 A 
BRANCH  35  36
ATOM     36  C   UNL A   1      41.581  27.602  29.261  1.00  0.00     0.031 A 
ATOM     37  C   UNL A   1      42.380  27.577  30.536  1.00  0.00     0.074 A 
ATOM     38  C   UNL A   1      40.545  28.454  29.147  1.00  0.00     0.049 A 
ATOM     39  N   UNL A   1      42.129  28.144  31.690  1.00  0.00    -0.248 NA
ATOM     40  C   UNL A   1      43.627  26.799  30.509  1.00  0.00     0.031 C 
ATOM     41  C   UNL A   1      39.725  28.634  27.949  1.00  0.00     0.029 A 
ATOM     42  N   UNL A   1      40.007  29.336  30.054  1.00  0.00    -0.354 N 
ATOM     43  C   UNL A   1      43.156  27.748  32.537  1.00  0.00     0.074 A 
ATOM     44  C   UNL A   1      44.025  26.881  31.770  1.00  0.00     0.031 C 
ATOM     45  C   UNL A   1      38.801  29.577  28.188  1.00  0.00     0.029 A 
ATOM     46  C   UNL A   1      38.915  30.016  29.576  1.00  0.00     0.049 A 
ATOM     47  H   UNL A   1      40.371  29.468  30.959  1.00  0.00     0.167 HD
ATOM     48  C   UNL A   1      43.359  28.081  33.835  1.00  0.00     0.037 A 
ATOM     49  C   UNL A   1      38.073  30.866  30.195  1.00  0.00     0.037 A 
ATOM     50  C   UNL A   1      42.516  28.980  34.582  1.00  0.00     0.049 A 
ATOM     51  C   UNL A   1      38.296  31.199  31.645  1.00  0.00     0.074 A 
ATOM     52  C   UNL A   1      42.633  29.379  35.903  1.00  0.00     0.029 A 
ATOM     53  N   UNL A   1      41.406  29.633  34.065  1.00  0.00    -0.354 N 
ATOM     54  N   UNL A   1      39.233  30.774  32.456  1.00  0.00    -0.248 NA
ATOM     55  C   UNL A   1      37.338  32.124  32.266  1.00  0.00     0.031 C 
ATOM     56  C   UNL A   1      41.571  30.243  36.195  1.00  0.00     0.029 A 
ATOM     57  C   UNL A   1      40.824  30.425  35.042  1.00  0.00     0.049 A 
ATOM     58  H   UNL A   1      41.079  29.547  33.140  1.00  0.00     0.167 HD
ATOM     59  C   UNL A   1      38.989  31.388  33.678  1.00  0.00     0.074 A 
ATOM     60  C   UNL A   1      37.827  32.233  33.494  1.00  0.00     0.031 C 
ATOM     61  C   UNL A   1      39.667  31.262  34.846  1.00  0.00     0.037 A 
BRANCH  48  62
ATOM     62  C   UNL A   1      44.515  27.428  34.539  1.00  0.00     0.064 A 
ATOM     63  C   UNL A   1      45.786  28.020  34.592  1.00  0.00     0.173 A 
ATOM     64  C   UNL A   1      44.346  26.184  35.166  1.00  0.00     0.173 A 
ATOM     65  F   UNL A   1      46.006  29.201  33.996  1.00  0.00    -0.203 F 
ATOM     66  C   UNL A   1      46.854  27.371  35.207  1.00  0.00     0.198 A 
ATOM     67  C   UNL A   1      45.409  25.553  35.811  1.00  0.00     0.198 A 
ATOM     68  F   UNL A   1      43.151  25.575  35.155  1.00  0.00    -0.203 F 
ATOM     69  F   UNL A   1      48.075  27.924  35.185  1.00  0.00    -0.200 F 
ATOM     70  C   UNL A   1      46.664  26.141  35.819  1.00  0.00     0.200 A 
ATOM     71  F   UNL A   1      45.218  24.372  36.414  1.00  0.00    -0.200 F 
ATOM     72  F   UNL A   1      47.693  25.517  36.407  1.00  0.00    -0.200 F 
ENDBRANCH  48  62
BRANCH  49  73
ATOM     73  C   UNL A   1      36.917  31.427  29.446  1.00  0.00     0.064 A 
ATOM     74  C   UNL A   1      36.890  32.769  29.049  1.00  0.00     0.173 A 
ATOM     75  C   UNL A   1      35.822  30.621  29.096  1.00  0.00     0.173 A 
ATOM     76  F   UNL A   1      37.899  33.587  29.384  1.00  0.00    -0.203 F 
ATOM     77  C   UNL A   1      35.810  33.287  28.335  1.00  0.00     0.198 A 
ATOM     78  C   UNL A   1      34.760  31.130  28.355  1.00  0.00     0.198 A 
ATOM     79  F   UNL A   1      35.797  29.328  29.455  1.00  0.00    -0.203 F 
ATOM     80  F   UNL A   1      35.793  34.584  27.998  1.00  0.00    -0.200 F 
ATOM     81  C   UNL A   1      34.752  32.464  27.979  1.00  0.00     0.200 A 
ATOM     82  F   UNL A   1      33.747  30.329  28.001  1.00  0.00    -0.200 F 
ATOM     83  F   UNL A   1      33.722  32.959  27.279  1.00  0.00    -0.200 F 
ENDBRANCH  49  73
BRANCH  61  84
ATOM     84  C   UNL A   1      39.189  32.085  36.007  1.00  0.00     0.064 A 
ATOM     85  C   UNL A   1      39.631  33.399  36.213  1.00  0.00     0.173 A 
ATOM     86  C   UNL A   1      38.252  31.558  36.910  1.00  0.00     0.173 A 
ATOM     87  F   UNL A   1      40.537  33.944  35.388  1.00  0.00    -0.203 F 
ATOM     88  C   UNL A   1      39.176  34.146  37.297  1.00  0.00     0.198 A 
ATOM     89  C   UNL A   1      37.777  32.317  37.976  1.00  0.00     0.198 A 
ATOM     90  F   UNL A   1      37.791  30.308  36.755  1.00  0.00    -0.203 F 
ATOM     91  F   UNL A   1      39.652  35.382  37.505  1.00  0.00    -0.200 F 
ATOM     92  C   UNL A   1      38.246  33.607  38.173  1.00  0.00     0.200 A 
ATOM     93  F   UNL A   1      36.869  31.799  38.814  1.00  0.00    -0.200 F 
ATOM     94  F   UNL A   1      37.807  34.328  39.214  1.00  0.00    -0.200 F 
ENDBRANCH  61  84
ENDBRANCH  35  36
ENDBRANCH  28  30
ENDBRANCH  27  28
ENDBRANCH  26  27
ENDBRANCH  25  26
ENDBRANCH   1  25
TORSDOF 16
ENDMDL
