MODEL 1
REMARK VINA RESULT:     -10.8      0.000      0.000
REMARK SMILES CC(C)([NH2+]C[C@@H]1CCCO1)C(=O)OCCOC(=O)c1ccc(-c2c3nc(c(-c4c(F)c(F)c(F)c(F)c4F)c4ccc([nH]4)c(-c4c(F)c(F)c(F)c(F)c4F)c4nc(c(-c5c(F)c(F)c(F)c(F)c5F)c5ccc2[nH]5)C=C4)C=C3)cc1
REMARK SMILES IDX 14 1 13 2 11 3 12 4 2 5 1 6 3 7 4 8 5 11 6 12 7 13 10 14
REMARK SMILES IDX 8 15 9 16 15 17 16 18 17 19 18 20 19 21 20 22 81 23 21 24
REMARK SMILES IDX 80 25 22 26 23 27 24 28 74 29 25 30 79 31 73 32 75 33 26 34
REMARK SMILES IDX 78 35 72 36 71 37 27 39 59 40 39 41 58 42 40 43 43 44 57 45
REMARK SMILES IDX 76 46 41 47 42 48 56 50 77 51 44 52 28 53 29 54 37 55 30 56
REMARK SMILES IDX 31 57 35 58 38 59 32 60 33 61 36 62 34 63 60 64 61 65 69 66
REMARK SMILES IDX 62 67 63 68 67 69 70 70 64 71 65 72 68 73 66 74 45 75 46 76
REMARK SMILES IDX 54 77 47 78 48 79 52 80 55 81 49 82 50 83 53 84 51 85
REMARK H PARENT 4 9 4 10 75 38 43 49
REMARK Flexibility Score: inf
ROOT
ATOM      1  C   UNL A   1      33.249  29.330  24.433  1.00  0.00     0.274 C 
ENDROOT
BRANCH   1   2
ATOM      2  O   UNL A   1      33.203  27.906  24.201  1.00  0.00    -0.457 OA
BRANCH   2   3
ATOM      3  C   UNL A   1      33.109  27.474  22.918  1.00  0.00     0.367 C 
ATOM      4  O   UNL A   1      34.011  27.612  22.093  1.00  0.00    -0.245 OA
BRANCH   3   5
ATOM      5  C   UNL A   1      31.722  26.878  22.542  1.00  0.00     0.188 C 
ATOM      6  C   UNL A   1      31.050  26.360  23.836  1.00  0.00     0.092 C 
ATOM      7  C   UNL A   1      32.007  25.650  21.669  1.00  0.00     0.092 C 
BRANCH   5   8
ATOM      8  N   UNL A   1      30.716  27.830  21.998  1.00  0.00    -0.330 N 
ATOM      9  H   UNL A   1      30.264  27.356  21.216  1.00  0.00     0.347 HD
ATOM     10  H   UNL A   1      31.278  28.660  21.806  1.00  0.00     0.347 HD
BRANCH   8  11
ATOM     11  C   UNL A   1      29.638  28.366  22.838  1.00  0.00     0.293 C 
BRANCH  11  12
ATOM     12  C   UNL A   1      29.291  29.845  22.640  1.00  0.00     0.173 C 
ATOM     13  C   UNL A   1      27.968  30.237  23.267  1.00  0.00     0.040 C 
ATOM     14  O   UNL A   1      29.149  30.191  21.252  1.00  0.00    -0.372 OA
ATOM     15  C   UNL A   1      27.724  31.562  22.590  1.00  0.00     0.031 C 
ATOM     16  C   UNL A   1      28.270  31.329  21.191  1.00  0.00     0.161 C 
ENDBRANCH  11  12
ENDBRANCH   8  11
ENDBRANCH   5   8
ENDBRANCH   3   5
ENDBRANCH   2   3
ENDBRANCH   1   2
BRANCH   1  17
ATOM     17  C   UNL A   1      32.073  29.753  25.306  1.00  0.00     0.275 C 
BRANCH  17  18
ATOM     18  O   UNL A   1      32.543  29.864  26.657  1.00  0.00    -0.458 OA
BRANCH  18  19
ATOM     19  C   UNL A   1      33.033  31.066  27.031  1.00  0.00     0.338 C 
ATOM     20  O   UNL A   1      32.543  32.168  26.840  1.00  0.00    -0.246 OA
BRANCH  19  21
ATOM     21  C   UNL A   1      34.306  30.839  27.734  1.00  0.00     0.060 A 
ATOM     22  C   UNL A   1      34.706  29.535  28.025  1.00  0.00     0.016 A 
ATOM     23  C   UNL A   1      35.083  31.916  28.152  1.00  0.00     0.016 A 
ATOM     24  C   UNL A   1      35.851  29.295  28.777  1.00  0.00     0.010 A 
ATOM     25  C   UNL A   1      36.282  31.672  28.831  1.00  0.00     0.010 A 
ATOM     26  C   UNL A   1      36.669  30.359  29.165  1.00  0.00    -0.014 A 
BRANCH  26  27
ATOM     27  C   UNL A   1      37.910  30.107  29.944  1.00  0.00     0.031 A 
ATOM     28  C   UNL A   1      39.006  29.269  29.352  1.00  0.00     0.074 A 
ATOM     29  C   UNL A   1      38.062  30.632  31.177  1.00  0.00     0.049 A 
ATOM     30  N   UNL A   1      40.062  28.756  29.931  1.00  0.00    -0.248 NA
ATOM     31  C   UNL A   1      38.894  28.957  27.919  1.00  0.00     0.031 C 
ATOM     32  C   UNL A   1      37.107  31.514  31.849  1.00  0.00     0.029 A 
ATOM     33  N   UNL A   1      39.084  30.498  32.085  1.00  0.00    -0.354 N 
ATOM     34  C   UNL A   1      40.703  28.010  28.950  1.00  0.00     0.074 A 
ATOM     35  C   UNL A   1      39.925  28.144  27.737  1.00  0.00     0.031 C 
ATOM     36  C   UNL A   1      37.599  31.867  33.046  1.00  0.00     0.029 A 
ATOM     37  C   UNL A   1      38.859  31.165  33.264  1.00  0.00     0.049 A 
ATOM     38  H   UNL A   1      39.898  29.975  31.908  1.00  0.00     0.167 HD
ATOM     39  C   UNL A   1      41.835  27.276  29.059  1.00  0.00     0.037 A 
ATOM     40  C   UNL A   1      39.563  31.173  34.412  1.00  0.00     0.037 A 
ATOM     41  C   UNL A   1      42.636  27.194  30.253  1.00  0.00     0.049 A 
ATOM     42  C   UNL A   1      40.800  30.326  34.520  1.00  0.00     0.074 A 
ATOM     43  C   UNL A   1      43.809  26.487  30.460  1.00  0.00     0.029 A 
ATOM     44  N   UNL A   1      42.354  27.857  31.438  1.00  0.00    -0.354 N 
ATOM     45  N   UNL A   1      41.359  29.563  33.613  1.00  0.00    -0.248 NA
ATOM     46  C   UNL A   1      41.485  30.319  35.819  1.00  0.00     0.031 C 
ATOM     47  C   UNL A   1      44.220  26.701  31.781  1.00  0.00     0.029 A 
ATOM     48  C   UNL A   1      43.324  27.568  32.384  1.00  0.00     0.049 A 
ATOM     49  H   UNL A   1      41.580  28.447  31.584  1.00  0.00     0.167 HD
ATOM     50  C   UNL A   1      42.458  28.984  34.229  1.00  0.00     0.074 A 
ATOM     51  C   UNL A   1      42.504  29.505  35.580  1.00  0.00     0.031 C 
ATOM     52  C   UNL A   1      43.345  28.092  33.725  1.00  0.00     0.037 A 
BRANCH  39  53
ATOM     53  C   UNL A   1      42.255  26.468  27.868  1.00  0.00     0.064 A 
ATOM     54  C   UNL A   1      43.228  26.923  26.967  1.00  0.00     0.173 A 
ATOM     55  C   UNL A   1      41.691  25.203  27.645  1.00  0.00     0.173 A 
ATOM     56  F   UNL A   1      43.783  28.134  27.128  1.00  0.00    -0.203 F 
ATOM     57  C   UNL A   1      43.607  26.147  25.874  1.00  0.00     0.198 A 
ATOM     58  C   UNL A   1      42.090  24.420  26.566  1.00  0.00     0.198 A 
ATOM     59  F   UNL A   1      40.758  24.721  28.480  1.00  0.00    -0.203 F 
ATOM     60  F   UNL A   1      44.511  26.617  25.003  1.00  0.00    -0.200 F 
ATOM     61  C   UNL A   1      43.043  24.895  25.678  1.00  0.00     0.200 A 
ATOM     62  F   UNL A   1      41.551  23.206  26.384  1.00  0.00    -0.200 F 
ATOM     63  F   UNL A   1      43.415  24.147  24.629  1.00  0.00    -0.200 F 
ENDBRANCH  39  53
BRANCH  40  64
ATOM     64  C   UNL A   1      39.081  31.971  35.569  1.00  0.00     0.064 A 
ATOM     65  C   UNL A   1      38.266  31.394  36.552  1.00  0.00     0.173 A 
ATOM     66  C   UNL A   1      39.435  33.320  35.723  1.00  0.00     0.173 A 
ATOM     67  F   UNL A   1      37.877  30.117  36.434  1.00  0.00    -0.203 F 
ATOM     68  C   UNL A   1      37.820  32.138  37.642  1.00  0.00     0.198 A 
ATOM     69  C   UNL A   1      39.012  34.055  36.828  1.00  0.00     0.198 A 
ATOM     70  F   UNL A   1      40.210  33.920  34.807  1.00  0.00    -0.203 F 
ATOM     71  F   UNL A   1      37.012  31.574  38.551  1.00  0.00    -0.200 F 
ATOM     72  C   UNL A   1      38.201  33.465  37.784  1.00  0.00     0.200 A 
ATOM     73  F   UNL A   1      39.392  35.332  36.966  1.00  0.00    -0.200 F 
ATOM     74  F   UNL A   1      37.780  34.176  38.839  1.00  0.00    -0.200 F 
ENDBRANCH  40  64
BRANCH  52  75
ATOM     75  C   UNL A   1      44.439  27.632  34.639  1.00  0.00     0.064 A 
ATOM     76  C   UNL A   1      45.649  28.334  34.737  1.00  0.00     0.173 A 
ATOM     77  C   UNL A   1      44.267  26.497  35.444  1.00  0.00     0.173 A 
ATOM     78  F   UNL A   1      45.864  29.416  33.973  1.00  0.00    -0.203 F 
ATOM     79  C   UNL A   1      46.656  27.904  35.595  1.00  0.00     0.198 A 
ATOM     80  C   UNL A   1      45.268  26.082  36.317  1.00  0.00     0.198 A 
ATOM     81  F   UNL A   1      43.125  25.794  35.387  1.00  0.00    -0.203 F 
ATOM     82  F   UNL A   1      47.821  28.566  35.644  1.00  0.00    -0.200 F 
ATOM     83  C   UNL A   1      46.463  26.782  36.389  1.00  0.00     0.200 A 
ATOM     84  F   UNL A   1      45.077  25.002  37.089  1.00  0.00    -0.200 F 
ATOM     85  F   UNL A   1      47.434  26.370  37.215  1.00  0.00    -0.200 F 
ENDBRANCH  52  75
ENDBRANCH  26  27
ENDBRANCH  19  21
ENDBRANCH  18  19
ENDBRANCH  17  18
ENDBRANCH   1  17
TORSDOF 14
ENDMDL
MODEL 2
REMARK VINA RESULT:     -10.8      0.827      2.253
REMARK SMILES CC(C)([NH2+]C[C@@H]1CCCO1)C(=O)OCCOC(=O)c1ccc(-c2c3nc(c(-c4c(F)c(F)c(F)c(F)c4F)c4ccc([nH]4)c(-c4c(F)c(F)c(F)c(F)c4F)c4nc(c(-c5c(F)c(F)c(F)c(F)c5F)c5ccc2[nH]5)C=C4)C=C3)cc1
REMARK SMILES IDX 14 1 13 2 11 3 12 4 2 5 1 6 3 7 4 8 5 11 6 12 7 13 10 14
REMARK SMILES IDX 8 15 9 16 15 17 16 18 17 19 18 20 19 21 20 22 81 23 21 24
REMARK SMILES IDX 80 25 22 26 23 27 24 28 74 29 25 30 79 31 73 32 75 33 26 34
REMARK SMILES IDX 78 35 72 36 71 37 27 39 59 40 39 41 58 42 40 43 43 44 57 45
REMARK SMILES IDX 76 46 41 47 42 48 56 50 77 51 44 52 28 53 29 54 37 55 30 56
REMARK SMILES IDX 31 57 35 58 38 59 32 60 33 61 36 62 34 63 60 64 61 65 69 66
REMARK SMILES IDX 62 67 63 68 67 69 70 70 64 71 65 72 68 73 66 74 45 75 46 76
REMARK SMILES IDX 54 77 47 78 48 79 52 80 55 81 49 82 50 83 53 84 51 85
REMARK H PARENT 4 9 4 10 75 38 43 49
REMARK Flexibility Score: inf
ROOT
ATOM      1  C   UNL A   1      31.779  28.249  26.634  1.00  0.00     0.274 C 
ENDROOT
BRANCH   1   2
ATOM      2  O   UNL A   1      31.112  27.239  25.849  1.00  0.00    -0.457 OA
BRANCH   2   3
ATOM      3  C   UNL A   1      31.872  26.266  25.286  1.00  0.00     0.367 C 
ATOM      4  O   UNL A   1      32.645  25.558  25.929  1.00  0.00    -0.245 OA
BRANCH   3   5
ATOM      5  C   UNL A   1      31.763  26.184  23.737  1.00  0.00     0.188 C 
ATOM      6  C   UNL A   1      31.422  24.725  23.351  1.00  0.00     0.092 C 
ATOM      7  C   UNL A   1      33.170  26.468  23.194  1.00  0.00     0.092 C 
BRANCH   5   8
ATOM      8  N   UNL A   1      30.665  26.965  23.105  1.00  0.00    -0.330 N 
ATOM      9  H   UNL A   1      30.006  27.192  23.851  1.00  0.00     0.347 HD
ATOM     10  H   UNL A   1      30.357  26.346  22.355  1.00  0.00     0.347 HD
BRANCH   8  11
ATOM     11  C   UNL A   1      30.931  28.219  22.391  1.00  0.00     0.293 C 
BRANCH  11  12
ATOM     12  C   UNL A   1      29.868  29.315  22.519  1.00  0.00     0.173 C 
ATOM     13  C   UNL A   1      28.542  28.801  23.045  1.00  0.00     0.040 C 
ATOM     14  O   UNL A   1      29.545  29.912  21.251  1.00  0.00    -0.372 OA
ATOM     15  C   UNL A   1      27.639  29.954  22.687  1.00  0.00     0.031 C 
ATOM     16  C   UNL A   1      28.204  30.423  21.357  1.00  0.00     0.161 C 
ENDBRANCH  11  12
ENDBRANCH   8  11
ENDBRANCH   5   8
ENDBRANCH   3   5
ENDBRANCH   2   3
ENDBRANCH   1   2
BRANCH   1  17
ATOM     17  C   UNL A   1      31.786  29.574  25.879  1.00  0.00     0.275 C 
BRANCH  17  18
ATOM     18  O   UNL A   1      33.106  30.128  25.971  1.00  0.00    -0.458 OA
BRANCH  18  19
ATOM     19  C   UNL A   1      33.282  31.130  26.858  1.00  0.00     0.338 C 
ATOM     20  O   UNL A   1      32.545  32.080  27.072  1.00  0.00    -0.246 OA
BRANCH  19  21
ATOM     21  C   UNL A   1      34.553  30.896  27.562  1.00  0.00     0.060 A 
ATOM     22  C   UNL A   1      34.891  29.602  27.957  1.00  0.00     0.016 A 
ATOM     23  C   UNL A   1      35.390  31.962  27.880  1.00  0.00     0.016 A 
ATOM     24  C   UNL A   1      36.034  29.366  28.711  1.00  0.00     0.010 A 
ATOM     25  C   UNL A   1      36.586  31.713  28.562  1.00  0.00     0.010 A 
ATOM     26  C   UNL A   1      36.911  30.414  29.000  1.00  0.00    -0.014 A 
BRANCH  26  27
ATOM     27  C   UNL A   1      38.151  30.164  29.782  1.00  0.00     0.031 A 
ATOM     28  C   UNL A   1      39.241  29.310  29.200  1.00  0.00     0.074 A 
ATOM     29  C   UNL A   1      38.307  30.703  31.008  1.00  0.00     0.049 A 
ATOM     30  N   UNL A   1      40.294  28.797  29.785  1.00  0.00    -0.248 NA
ATOM     31  C   UNL A   1      39.126  28.981  27.772  1.00  0.00     0.031 C 
ATOM     32  C   UNL A   1      37.358  31.600  31.668  1.00  0.00     0.029 A 
ATOM     33  N   UNL A   1      39.328  30.573  31.917  1.00  0.00    -0.354 N 
ATOM     34  C   UNL A   1      40.929  28.034  28.814  1.00  0.00     0.074 A 
ATOM     35  C   UNL A   1      40.152  28.158  27.600  1.00  0.00     0.031 C 
ATOM     36  C   UNL A   1      37.853  31.964  32.861  1.00  0.00     0.029 A 
ATOM     37  C   UNL A   1      39.108  31.257  33.088  1.00  0.00     0.049 A 
ATOM     38  H   UNL A   1      40.138  30.042  31.747  1.00  0.00     0.167 HD
ATOM     39  C   UNL A   1      42.056  27.294  28.933  1.00  0.00     0.037 A 
ATOM     40  C   UNL A   1      39.813  31.275  34.236  1.00  0.00     0.037 A 
ATOM     41  C   UNL A   1      42.857  27.221  30.127  1.00  0.00     0.049 A 
ATOM     42  C   UNL A   1      41.043  30.420  34.354  1.00  0.00     0.074 A 
ATOM     43  C   UNL A   1      44.024  26.509  30.344  1.00  0.00     0.029 A 
ATOM     44  N   UNL A   1      42.580  27.902  31.304  1.00  0.00    -0.354 N 
ATOM     45  N   UNL A   1      41.597  29.642  33.457  1.00  0.00    -0.248 NA
ATOM     46  C   UNL A   1      41.729  30.424  35.654  1.00  0.00     0.031 C 
ATOM     47  C   UNL A   1      44.437  26.737  31.662  1.00  0.00     0.029 A 
ATOM     48  C   UNL A   1      43.547  27.618  32.254  1.00  0.00     0.049 A 
ATOM     49  H   UNL A   1      41.809  28.499  31.442  1.00  0.00     0.167 HD
ATOM     50  C   UNL A   1      42.692  29.063  34.081  1.00  0.00     0.074 A 
ATOM     51  C   UNL A   1      42.742  29.600  35.424  1.00  0.00     0.031 C 
ATOM     52  C   UNL A   1      43.572  28.158  33.588  1.00  0.00     0.037 A 
BRANCH  39  53
ATOM     53  C   UNL A   1      42.470  26.468  27.752  1.00  0.00     0.064 A 
ATOM     54  C   UNL A   1      41.924  25.201  27.503  1.00  0.00     0.173 A 
ATOM     55  C   UNL A   1      43.407  26.973  26.838  1.00  0.00     0.173 A 
ATOM     56  F   UNL A   1      41.037  24.669  28.357  1.00  0.00    -0.203 F 
ATOM     57  C   UNL A   1      42.319  24.460  26.391  1.00  0.00     0.198 A 
ATOM     58  C   UNL A   1      43.781  26.240  25.715  1.00  0.00     0.198 A 
ATOM     59  F   UNL A   1      43.957  28.182  27.030  1.00  0.00    -0.203 F 
ATOM     60  F   UNL A   1      41.814  23.234  26.193  1.00  0.00    -0.200 F 
ATOM     61  C   UNL A   1      43.241  24.982  25.496  1.00  0.00     0.200 A 
ATOM     62  F   UNL A   1      44.665  26.750  24.846  1.00  0.00    -0.200 F 
ATOM     63  F   UNL A   1      43.613  24.269  24.423  1.00  0.00    -0.200 F 
ENDBRANCH  39  53
BRANCH  40  64
ATOM     64  C   UNL A   1      39.336  32.091  35.383  1.00  0.00     0.064 A 
ATOM     65  C   UNL A   1      39.679  33.444  35.496  1.00  0.00     0.173 A 
ATOM     66  C   UNL A   1      38.518  31.538  36.380  1.00  0.00     0.173 A 
ATOM     67  F   UNL A   1      40.482  34.010  34.583  1.00  0.00    -0.203 F 
ATOM     68  C   UNL A   1      39.226  34.213  36.566  1.00  0.00     0.198 A 
ATOM     69  C   UNL A   1      38.042  32.315  37.433  1.00  0.00     0.198 A 
ATOM     70  F   UNL A   1      38.165  30.246  36.320  1.00  0.00    -0.203 F 
ATOM     71  F   UNL A   1      39.596  35.497  36.670  1.00  0.00    -0.200 F 
ATOM     72  C   UNL A   1      38.400  33.650  37.528  1.00  0.00     0.200 A 
ATOM     73  F   UNL A   1      37.236  31.770  38.354  1.00  0.00    -0.200 F 
ATOM     74  F   UNL A   1      37.955  34.394  38.551  1.00  0.00    -0.200 F 
ENDBRANCH  40  64
BRANCH  52  75
ATOM     75  C   UNL A   1      44.663  27.702  34.507  1.00  0.00     0.064 A 
ATOM     76  C   UNL A   1      44.512  26.563  35.309  1.00  0.00     0.173 A 
ATOM     77  C   UNL A   1      45.882  28.395  34.566  1.00  0.00     0.173 A 
ATOM     78  F   UNL A   1      43.357  25.878  35.298  1.00  0.00    -0.203 F 
ATOM     79  C   UNL A   1      45.535  26.143  36.154  1.00  0.00     0.198 A 
ATOM     80  C   UNL A   1      46.910  27.960  35.396  1.00  0.00     0.198 A 
ATOM     81  F   UNL A   1      46.074  29.490  33.816  1.00  0.00    -0.203 F 
ATOM     82  F   UNL A   1      45.355  25.074  36.943  1.00  0.00    -0.200 F 
ATOM     83  C   UNL A   1      46.735  26.838  36.193  1.00  0.00     0.200 A 
ATOM     84  F   UNL A   1      48.072  28.628  35.428  1.00  0.00    -0.200 F 
ATOM     85  F   UNL A   1      47.719  26.432  37.006  1.00  0.00    -0.200 F 
ENDBRANCH  52  75
ENDBRANCH  26  27
ENDBRANCH  19  21
ENDBRANCH  18  19
ENDBRANCH  17  18
ENDBRANCH   1  17
TORSDOF 14
ENDMDL
MODEL 3
REMARK VINA RESULT:     -10.7      6.083     11.630
REMARK SMILES CC(C)([NH2+]C[C@@H]1CCCO1)C(=O)OCCOC(=O)c1ccc(-c2c3nc(c(-c4c(F)c(F)c(F)c(F)c4F)c4ccc([nH]4)c(-c4c(F)c(F)c(F)c(F)c4F)c4nc(c(-c5c(F)c(F)c(F)c(F)c5F)c5ccc2[nH]5)C=C4)C=C3)cc1
REMARK SMILES IDX 14 1 13 2 11 3 12 4 2 5 1 6 3 7 4 8 5 11 6 12 7 13 10 14
REMARK SMILES IDX 8 15 9 16 15 17 16 18 17 19 18 20 19 21 20 22 81 23 21 24
REMARK SMILES IDX 80 25 22 26 23 27 24 28 74 29 25 30 79 31 73 32 75 33 26 34
REMARK SMILES IDX 78 35 72 36 71 37 27 39 59 40 39 41 58 42 40 43 43 44 57 45
REMARK SMILES IDX 76 46 41 47 42 48 56 50 77 51 44 52 28 53 29 54 37 55 30 56
REMARK SMILES IDX 31 57 35 58 38 59 32 60 33 61 36 62 34 63 60 64 61 65 69 66
REMARK SMILES IDX 62 67 63 68 67 69 70 70 64 71 65 72 68 73 66 74 45 75 46 76
REMARK SMILES IDX 54 77 47 78 48 79 52 80 55 81 49 82 50 83 53 84 51 85
REMARK H PARENT 4 9 4 10 75 38 43 49
REMARK Flexibility Score: inf
ROOT
ATOM      1  C   UNL A   1      41.713  19.220  26.263  1.00  0.00     0.274 C 
ENDROOT
BRANCH   1   2
ATOM      2  O   UNL A   1      42.600  19.426  25.144  1.00  0.00    -0.457 OA
BRANCH   2   3
ATOM      3  C   UNL A   1      43.873  18.969  25.250  1.00  0.00     0.367 C 
ATOM      4  O   UNL A   1      44.204  18.067  26.018  1.00  0.00    -0.245 OA
BRANCH   3   5
ATOM      5  C   UNL A   1      44.909  19.752  24.393  1.00  0.00     0.188 C 
ATOM      6  C   UNL A   1      44.922  19.143  22.971  1.00  0.00     0.092 C 
ATOM      7  C   UNL A   1      46.283  19.461  25.012  1.00  0.00     0.092 C 
BRANCH   5   8
ATOM      8  N   UNL A   1      44.612  21.189  24.142  1.00  0.00    -0.330 N 
ATOM      9  H   UNL A   1      43.641  21.234  23.835  1.00  0.00     0.347 HD
ATOM     10  H   UNL A   1      45.344  21.453  23.482  1.00  0.00     0.347 HD
BRANCH   8  11
ATOM     11  C   UNL A   1      44.761  22.196  25.198  1.00  0.00     0.293 C 
BRANCH  11  12
ATOM     12  C   UNL A   1      46.046  23.030  25.169  1.00  0.00     0.173 C 
ATOM     13  C   UNL A   1      46.422  23.595  26.524  1.00  0.00     0.040 C 
ATOM     14  O   UNL A   1      45.929  24.183  24.318  1.00  0.00    -0.372 OA
ATOM     15  C   UNL A   1      47.430  24.640  26.117  1.00  0.00     0.031 C 
ATOM     16  C   UNL A   1      46.859  25.165  24.809  1.00  0.00     0.161 C 
ENDBRANCH  11  12
ENDBRANCH   8  11
ENDBRANCH   5   8
ENDBRANCH   3   5
ENDBRANCH   2   3
ENDBRANCH   1   2
BRANCH   1  17
ATOM     17  C   UNL A   1      40.350  19.838  25.966  1.00  0.00     0.275 C 
BRANCH  17  18
ATOM     18  O   UNL A   1      40.136  20.905  26.900  1.00  0.00    -0.458 OA
BRANCH  18  19
ATOM     19  C   UNL A   1      39.343  21.918  26.489  1.00  0.00     0.338 C 
ATOM     20  O   UNL A   1      38.337  21.852  25.801  1.00  0.00    -0.246 OA
BRANCH  19  21
ATOM     21  C   UNL A   1      39.900  23.174  27.018  1.00  0.00     0.060 A 
ATOM     22  C   UNL A   1      39.412  24.393  26.548  1.00  0.00     0.016 A 
ATOM     23  C   UNL A   1      40.942  23.150  27.941  1.00  0.00     0.016 A 
ATOM     24  C   UNL A   1      39.988  25.591  26.952  1.00  0.00     0.010 A 
ATOM     25  C   UNL A   1      41.462  24.358  28.417  1.00  0.00     0.010 A 
ATOM     26  C   UNL A   1      41.002  25.591  27.914  1.00  0.00    -0.014 A 
BRANCH  26  27
ATOM     27  C   UNL A   1      41.603  26.871  28.373  1.00  0.00     0.031 A 
ATOM     28  C   UNL A   1      40.733  27.922  29.000  1.00  0.00     0.074 A 
ATOM     29  C   UNL A   1      42.926  27.095  28.236  1.00  0.00     0.049 A 
ATOM     30  N   UNL A   1      41.007  29.174  29.271  1.00  0.00    -0.248 NA
ATOM     31  C   UNL A   1      39.367  27.514  29.362  1.00  0.00     0.031 C 
ATOM     32  C   UNL A   1      43.897  26.139  27.701  1.00  0.00     0.029 A 
ATOM     33  N   UNL A   1      43.682  28.200  28.538  1.00  0.00    -0.354 N 
ATOM     34  C   UNL A   1      39.832  29.715  29.773  1.00  0.00     0.074 A 
ATOM     35  C   UNL A   1      38.845  28.658  29.781  1.00  0.00     0.031 C 
ATOM     36  C   UNL A   1      45.122  26.687  27.742  1.00  0.00     0.029 A 
ATOM     37  C   UNL A   1      45.010  28.060  28.219  1.00  0.00     0.049 A 
ATOM     38  H   UNL A   1      43.308  29.015  28.945  1.00  0.00     0.167 HD
ATOM     39  C   UNL A   1      39.602  30.985  30.184  1.00  0.00     0.037 A 
ATOM     40  C   UNL A   1      46.018  28.953  28.258  1.00  0.00     0.037 A 
ATOM     41  C   UNL A   1      40.605  32.017  30.230  1.00  0.00     0.049 A 
ATOM     42  C   UNL A   1      45.731  30.364  28.688  1.00  0.00     0.074 A 
ATOM     43  C   UNL A   1      40.474  33.332  30.643  1.00  0.00     0.029 A 
ATOM     44  N   UNL A   1      41.931  31.843  29.864  1.00  0.00    -0.354 N 
ATOM     45  N   UNL A   1      44.601  30.891  29.091  1.00  0.00    -0.248 NA
ATOM     46  C   UNL A   1      46.854  31.310  28.642  1.00  0.00     0.031 C 
ATOM     47  C   UNL A   1      41.716  33.961  30.499  1.00  0.00     0.029 A 
ATOM     48  C   UNL A   1      42.628  33.029  30.030  1.00  0.00     0.049 A 
ATOM     49  H   UNL A   1      42.320  31.001  29.534  1.00  0.00     0.167 HD
ATOM     50  C   UNL A   1      44.873  32.227  29.343  1.00  0.00     0.074 A 
ATOM     51  C   UNL A   1      46.282  32.425  29.075  1.00  0.00     0.031 C 
ATOM     52  C   UNL A   1      44.028  33.206  29.750  1.00  0.00     0.037 A 
BRANCH  39  53
ATOM     53  C   UNL A   1      38.201  31.341  30.581  1.00  0.00     0.064 A 
ATOM     54  C   UNL A   1      37.212  31.637  29.632  1.00  0.00     0.173 A 
ATOM     55  C   UNL A   1      37.838  31.356  31.936  1.00  0.00     0.173 A 
ATOM     56  F   UNL A   1      37.515  31.653  28.325  1.00  0.00    -0.203 F 
ATOM     57  C   UNL A   1      35.915  31.954  30.028  1.00  0.00     0.198 A 
ATOM     58  C   UNL A   1      36.534  31.649  32.327  1.00  0.00     0.198 A 
ATOM     59  F   UNL A   1      38.746  31.077  32.883  1.00  0.00    -0.203 F 
ATOM     60  F   UNL A   1      34.994  32.272  29.106  1.00  0.00    -0.200 F 
ATOM     61  C   UNL A   1      35.576  31.953  31.372  1.00  0.00     0.200 A 
ATOM     62  F   UNL A   1      36.206  31.638  33.626  1.00  0.00    -0.200 F 
ATOM     63  F   UNL A   1      34.324  32.252  31.750  1.00  0.00    -0.200 F 
ENDBRANCH  39  53
BRANCH  40  64
ATOM     64  C   UNL A   1      47.381  28.548  27.825  1.00  0.00     0.064 A 
ATOM     65  C   UNL A   1      47.704  28.450  26.465  1.00  0.00     0.173 A 
ATOM     66  C   UNL A   1      48.388  28.264  28.759  1.00  0.00     0.173 A 
ATOM     67  F   UNL A   1      46.768  28.684  25.536  1.00  0.00    -0.203 F 
ATOM     68  C   UNL A   1      48.984  28.080  26.057  1.00  0.00     0.198 A 
ATOM     69  C   UNL A   1      49.674  27.921  28.350  1.00  0.00     0.198 A 
ATOM     70  F   UNL A   1      48.127  28.338  30.073  1.00  0.00    -0.203 F 
ATOM     71  F   UNL A   1      49.260  27.959  24.751  1.00  0.00    -0.200 F 
ATOM     72  C   UNL A   1      49.970  27.825  26.999  1.00  0.00     0.200 A 
ATOM     73  F   UNL A   1      50.626  27.687  29.263  1.00  0.00    -0.200 F 
ATOM     74  F   UNL A   1      51.204  27.479  26.605  1.00  0.00    -0.200 F 
ENDBRANCH  40  64
BRANCH  52  75
ATOM     75  C   UNL A   1      44.613  34.573  29.934  1.00  0.00     0.064 A 
ATOM     76  C   UNL A   1      45.224  34.946  31.139  1.00  0.00     0.173 A 
ATOM     77  C   UNL A   1      44.586  35.507  28.889  1.00  0.00     0.173 A 
ATOM     78  F   UNL A   1      45.258  34.091  32.172  1.00  0.00    -0.203 F 
ATOM     79  C   UNL A   1      45.771  36.216  31.298  1.00  0.00     0.198 A 
ATOM     80  C   UNL A   1      45.154  36.768  29.044  1.00  0.00     0.198 A 
ATOM     81  F   UNL A   1      44.015  35.194  27.716  1.00  0.00    -0.203 F 
ATOM     82  F   UNL A   1      46.316  36.568  32.471  1.00  0.00    -0.200 F 
ATOM     83  C   UNL A   1      45.741  37.124  30.249  1.00  0.00     0.200 A 
ATOM     84  F   UNL A   1      45.130  37.642  28.027  1.00  0.00    -0.200 F 
ATOM     85  F   UNL A   1      46.270  38.345  30.403  1.00  0.00    -0.200 F 
ENDBRANCH  52  75
ENDBRANCH  26  27
ENDBRANCH  19  21
ENDBRANCH  18  19
ENDBRANCH  17  18
ENDBRANCH   1  17
TORSDOF 14
ENDMDL
