MODEL 1
REMARK VINA RESULT:     -11.9      0.000      0.000
REMARK SMILES CCCN(C(=O)Cc1c(C(=O)OCCOC(=O)c2ccc(-c3c4nc(c(-c5c(F)c(F)c(F)c(F)c5F)c5ccc([nH]5)c(-c5c(F)c(F)c(F)c(F)c5F)c5nc(c(-c6c(F)c(F)c(F)c(F)c6F)c6ccc3[nH]6)C=C5)C=C4)cc2)c(C)cn1CC)c1cccc(Cl)c1
REMARK SMILES IDX 12 1 10 2 11 3 9 4 8 5 84 6 81 7 83 8 82 9 7 10 5 11 6 12
REMARK SMILES IDX 4 13 3 14 2 15 1 16 87 17 88 18 93 19 89 20 91 21 90 22
REMARK SMILES IDX 92 23 85 24 86 25 13 26 14 27 15 28 16 29 17 30 18 31 19 32
REMARK SMILES IDX 80 33 20 34 79 35 21 36 22 37 23 38 73 39 24 40 78 41 72 42
REMARK SMILES IDX 74 43 25 44 77 45 71 46 70 47 26 49 58 50 38 51 57 52 39 53
REMARK SMILES IDX 42 54 56 55 75 56 40 57 41 58 55 60 76 61 43 62 27 63 28 64
REMARK SMILES IDX 36 65 29 66 30 67 34 68 37 69 31 70 32 71 35 72 33 73 59 74
REMARK SMILES IDX 60 75 68 76 61 77 62 78 66 79 69 80 63 81 64 82 67 83 65 84
REMARK SMILES IDX 44 85 45 86 53 87 46 88 47 89 51 90 54 91 48 92 49 93 52 94
REMARK SMILES IDX 50 95
REMARK H PARENT 74 48 42 59
REMARK Flexibility Score: inf
ROOT
ATOM      1  O   UNL A   1      36.000  21.265  25.680  1.00  0.00    -0.458 OA
ENDROOT
BRANCH   1   2
ATOM      2  C   UNL A   1      34.789  21.607  26.223  1.00  0.00     0.340 C 
ATOM      3  O   UNL A   1      34.598  21.552  27.417  1.00  0.00    -0.246 OA
BRANCH   2   4
ATOM      4  C   UNL A   1      33.759  22.051  25.283  1.00  0.00     0.084 A 
ATOM      5  C   UNL A   1      33.333  23.377  25.054  1.00  0.00     0.042 A 
ATOM      6  N   UNL A   1      32.562  23.312  23.896  1.00  0.00    -0.350 N 
ATOM      7  C   UNL A   1      32.897  21.201  24.511  1.00  0.00    -0.019 A 
ATOM      8  C   UNL A   1      32.180  22.017  23.669  1.00  0.00     0.090 A 
ATOM      9  C   UNL A   1      32.778  19.722  24.607  1.00  0.00     0.047 C 
BRANCH   5  10
ATOM     10  C   UNL A   1      33.514  24.717  25.762  1.00  0.00     0.155 C 
BRANCH  10  11
ATOM     11  C   UNL A   1      32.321  25.503  26.302  1.00  0.00     0.232 C 
ATOM     12  O   UNL A   1      31.465  24.840  26.908  1.00  0.00    -0.274 OA
BRANCH  11  13
ATOM     13  N   UNL A   1      32.244  26.911  26.180  1.00  0.00    -0.312 N 
BRANCH  13  14
ATOM     14  C   UNL A   1      32.425  27.868  27.297  1.00  0.00     0.125 C 
BRANCH  14  15
ATOM     15  C   UNL A   1      31.870  29.311  27.270  1.00  0.00     0.019 C 
ATOM     16  C   UNL A   1      32.851  30.463  27.079  1.00  0.00     0.006 C 
ENDBRANCH  14  15
ENDBRANCH  13  14
BRANCH  13  17
ATOM     17  C   UNL A   1      31.916  27.452  24.872  1.00  0.00     0.045 A 
ATOM     18  C   UNL A   1      32.874  28.083  24.064  1.00  0.00     0.026 A 
ATOM     19  C   UNL A   1      30.585  27.530  24.453  1.00  0.00     0.046 A 
ATOM     20  C   UNL A   1      32.507  28.788  22.906  1.00  0.00     0.004 A 
ATOM     21  C   UNL A   1      30.209  28.264  23.324  1.00  0.00     0.043 A 
ATOM     22  C   UNL A   1      31.166  28.895  22.543  1.00  0.00     0.020 A 
ATOM     23  Cl  UNL A   1      28.536  28.482  22.971  1.00  0.00    -0.084 Cl
ENDBRANCH  13  17
ENDBRANCH  11  13
ENDBRANCH  10  11
ENDBRANCH   5  10
BRANCH   6  24
ATOM     24  C   UNL A   1      32.271  24.380  22.945  1.00  0.00     0.118 C 
ATOM     25  C   UNL A   1      33.474  24.968  22.232  1.00  0.00     0.027 C 
ENDBRANCH   6  24
ENDBRANCH   2   4
ENDBRANCH   1   2
BRANCH   1  26
ATOM     26  C   UNL A   1      36.864  22.398  25.449  1.00  0.00     0.275 C 
BRANCH  26  27
ATOM     27  C   UNL A   1      38.330  22.134  25.794  1.00  0.00     0.275 C 
BRANCH  27  28
ATOM     28  O   UNL A   1      38.880  23.156  26.615  1.00  0.00    -0.458 OA
BRANCH  28  29
ATOM     29  C   UNL A   1      40.049  22.879  27.241  1.00  0.00     0.338 C 
ATOM     30  O   UNL A   1      40.324  21.873  27.872  1.00  0.00    -0.246 OA
BRANCH  29  31
ATOM     31  C   UNL A   1      40.898  24.074  27.163  1.00  0.00     0.060 A 
ATOM     32  C   UNL A   1      41.819  24.254  28.193  1.00  0.00     0.016 A 
ATOM     33  C   UNL A   1      40.499  25.123  26.326  1.00  0.00     0.016 A 
ATOM     34  C   UNL A   1      42.036  25.542  28.612  1.00  0.00     0.010 A 
ATOM     35  C   UNL A   1      40.732  26.406  26.724  1.00  0.00     0.010 A 
ATOM     36  C   UNL A   1      41.356  26.571  27.948  1.00  0.00    -0.014 A 
BRANCH  36  37
ATOM     37  C   UNL A   1      41.270  27.856  28.585  1.00  0.00     0.031 A 
ATOM     38  C   UNL A   1      42.392  28.727  28.221  1.00  0.00     0.074 A 
ATOM     39  C   UNL A   1      40.234  28.180  29.382  1.00  0.00     0.049 A 
ATOM     40  N   UNL A   1      43.378  29.067  28.978  1.00  0.00    -0.248 NA
ATOM     41  C   UNL A   1      42.558  29.075  26.803  1.00  0.00     0.031 C 
ATOM     42  C   UNL A   1      38.975  27.466  29.610  1.00  0.00     0.029 A 
ATOM     43  N   UNL A   1      40.080  29.313  30.116  1.00  0.00    -0.354 N 
ATOM     44  C   UNL A   1      44.195  29.850  28.180  1.00  0.00     0.074 A 
ATOM     45  C   UNL A   1      43.759  29.651  26.822  1.00  0.00     0.031 C 
ATOM     46  C   UNL A   1      38.099  28.293  30.228  1.00  0.00     0.029 A 
ATOM     47  C   UNL A   1      38.778  29.533  30.555  1.00  0.00     0.049 A 
ATOM     48  H   UNL A   1      40.824  29.926  30.319  1.00  0.00     0.167 HD
ATOM     49  C   UNL A   1      44.971  30.812  28.741  1.00  0.00     0.037 A 
ATOM     50  C   UNL A   1      38.331  30.724  31.027  1.00  0.00     0.037 A 
ATOM     51  C   UNL A   1      45.173  30.565  30.148  1.00  0.00     0.049 A 
ATOM     52  C   UNL A   1      39.538  31.477  31.489  1.00  0.00     0.074 A 
ATOM     53  C   UNL A   1      45.709  29.503  30.856  1.00  0.00     0.029 A 
ATOM     54  N   UNL A   1      44.401  31.260  31.050  1.00  0.00    -0.354 N 
ATOM     55  N   UNL A   1      40.268  31.099  32.508  1.00  0.00    -0.248 NA
ATOM     56  C   UNL A   1      40.229  32.302  30.503  1.00  0.00     0.031 C 
ATOM     57  C   UNL A   1      44.836  29.326  31.969  1.00  0.00     0.029 A 
ATOM     58  C   UNL A   1      43.884  30.344  31.936  1.00  0.00     0.049 A 
ATOM     59  H   UNL A   1      44.248  32.232  31.060  1.00  0.00     0.167 HD
ATOM     60  C   UNL A   1      41.582  31.265  32.087  1.00  0.00     0.074 A 
ATOM     61  C   UNL A   1      41.494  32.050  30.857  1.00  0.00     0.031 C 
ATOM     62  C   UNL A   1      42.600  30.500  32.583  1.00  0.00     0.037 A 
BRANCH  49  63
ATOM     63  C   UNL A   1      45.196  32.146  28.091  1.00  0.00     0.064 A 
ATOM     64  C   UNL A   1      44.113  33.028  27.947  1.00  0.00     0.173 A 
ATOM     65  C   UNL A   1      46.359  32.476  27.357  1.00  0.00     0.173 A 
ATOM     66  F   UNL A   1      42.950  32.788  28.572  1.00  0.00    -0.203 F 
ATOM     67  C   UNL A   1      44.173  34.126  27.086  1.00  0.00     0.198 A 
ATOM     68  C   UNL A   1      46.436  33.603  26.548  1.00  0.00     0.198 A 
ATOM     69  F   UNL A   1      47.424  31.667  27.297  1.00  0.00    -0.203 F 
ATOM     70  F   UNL A   1      43.079  34.872  26.886  1.00  0.00    -0.200 F 
ATOM     71  C   UNL A   1      45.333  34.411  26.387  1.00  0.00     0.200 A 
ATOM     72  F   UNL A   1      47.563  33.845  25.862  1.00  0.00    -0.200 F 
ATOM     73  F   UNL A   1      45.374  35.431  25.521  1.00  0.00    -0.200 F 
ENDBRANCH  49  63
BRANCH  50  74
ATOM     74  C   UNL A   1      37.032  31.372  30.711  1.00  0.00     0.064 A 
ATOM     75  C   UNL A   1      36.121  31.723  31.721  1.00  0.00     0.173 A 
ATOM     76  C   UNL A   1      36.761  31.893  29.428  1.00  0.00     0.173 A 
ATOM     77  F   UNL A   1      36.326  31.319  32.983  1.00  0.00    -0.203 F 
ATOM     78  C   UNL A   1      35.017  32.549  31.464  1.00  0.00     0.198 A 
ATOM     79  C   UNL A   1      35.658  32.709  29.172  1.00  0.00     0.198 A 
ATOM     80  F   UNL A   1      37.610  31.699  28.409  1.00  0.00    -0.203 F 
ATOM     81  F   UNL A   1      34.198  32.904  32.464  1.00  0.00    -0.200 F 
ATOM     82  C   UNL A   1      34.792  33.046  30.191  1.00  0.00     0.200 A 
ATOM     83  F   UNL A   1      35.477  33.213  27.941  1.00  0.00    -0.200 F 
ATOM     84  F   UNL A   1      33.768  33.878  29.955  1.00  0.00    -0.200 F 
ENDBRANCH  50  74
BRANCH  62  85
ATOM     85  C   UNL A   1      42.314  29.582  33.743  1.00  0.00     0.064 A 
ATOM     86  C   UNL A   1      41.790  28.283  33.610  1.00  0.00     0.173 A 
ATOM     87  C   UNL A   1      42.755  29.964  35.018  1.00  0.00     0.173 A 
ATOM     88  F   UNL A   1      41.447  27.798  32.411  1.00  0.00    -0.203 F 
ATOM     89  C   UNL A   1      41.676  27.428  34.708  1.00  0.00     0.198 A 
ATOM     90  C   UNL A   1      42.676  29.095  36.104  1.00  0.00     0.198 A 
ATOM     91  F   UNL A   1      43.321  31.167  35.198  1.00  0.00    -0.203 F 
ATOM     92  F   UNL A   1      41.167  26.196  34.552  1.00  0.00    -0.200 F 
ATOM     93  C   UNL A   1      42.127  27.834  35.952  1.00  0.00     0.200 A 
ATOM     94  F   UNL A   1      43.164  29.473  37.293  1.00  0.00    -0.200 F 
ATOM     95  F   UNL A   1      42.060  26.998  36.998  1.00  0.00    -0.200 F 
ENDBRANCH  62  85
ENDBRANCH  36  37
ENDBRANCH  29  31
ENDBRANCH  28  29
ENDBRANCH  27  28
ENDBRANCH  26  27
ENDBRANCH   1  26
TORSDOF 18
ENDMDL
MODEL 2
REMARK VINA RESULT:     -11.8      1.348      2.024
REMARK SMILES CCCN(C(=O)Cc1c(C(=O)OCCOC(=O)c2ccc(-c3c4nc(c(-c5c(F)c(F)c(F)c(F)c5F)c5ccc([nH]5)c(-c5c(F)c(F)c(F)c(F)c5F)c5nc(c(-c6c(F)c(F)c(F)c(F)c6F)c6ccc3[nH]6)C=C5)C=C4)cc2)c(C)cn1CC)c1cccc(Cl)c1
REMARK SMILES IDX 12 1 10 2 11 3 9 4 8 5 84 6 81 7 83 8 82 9 7 10 5 11 6 12
REMARK SMILES IDX 4 13 3 14 2 15 1 16 87 17 88 18 93 19 89 20 91 21 90 22
REMARK SMILES IDX 92 23 85 24 86 25 13 26 14 27 15 28 16 29 17 30 18 31 19 32
REMARK SMILES IDX 80 33 20 34 79 35 21 36 22 37 23 38 73 39 24 40 78 41 72 42
REMARK SMILES IDX 74 43 25 44 77 45 71 46 70 47 26 49 58 50 38 51 57 52 39 53
REMARK SMILES IDX 42 54 56 55 75 56 40 57 41 58 55 60 76 61 43 62 27 63 28 64
REMARK SMILES IDX 36 65 29 66 30 67 34 68 37 69 31 70 32 71 35 72 33 73 59 74
REMARK SMILES IDX 60 75 68 76 61 77 62 78 66 79 69 80 63 81 64 82 67 83 65 84
REMARK SMILES IDX 44 85 45 86 53 87 46 88 47 89 51 90 54 91 48 92 49 93 52 94
REMARK SMILES IDX 50 95
REMARK H PARENT 74 48 42 59
REMARK Flexibility Score: inf
ROOT
ATOM      1  O   UNL A   1      36.528  23.456  25.152  1.00  0.00    -0.458 OA
ENDROOT
BRANCH   1   2
ATOM      2  C   UNL A   1      35.525  23.222  24.247  1.00  0.00     0.340 C 
ATOM      3  O   UNL A   1      35.701  23.377  23.060  1.00  0.00    -0.246 OA
BRANCH   2   4
ATOM      4  C   UNL A   1      34.247  22.766  24.799  1.00  0.00     0.084 A 
ATOM      5  C   UNL A   1      33.259  23.560  25.419  1.00  0.00     0.042 A 
ATOM      6  N   UNL A   1      32.140  22.735  25.509  1.00  0.00    -0.350 N 
ATOM      7  C   UNL A   1      33.822  21.402  24.927  1.00  0.00    -0.019 A 
ATOM      8  C   UNL A   1      32.519  21.428  25.364  1.00  0.00     0.090 A 
ATOM      9  C   UNL A   1      34.631  20.182  24.659  1.00  0.00     0.047 C 
BRANCH   5  10
ATOM     10  C   UNL A   1      33.190  24.982  25.969  1.00  0.00     0.155 C 
BRANCH  10  11
ATOM     11  C   UNL A   1      33.013  26.188  25.049  1.00  0.00     0.232 C 
ATOM     12  O   UNL A   1      33.647  26.155  23.983  1.00  0.00    -0.274 OA
BRANCH  11  13
ATOM     13  N   UNL A   1      32.119  27.239  25.367  1.00  0.00    -0.312 N 
BRANCH  13  14
ATOM     14  C   UNL A   1      30.719  27.332  24.890  1.00  0.00     0.125 C 
BRANCH  14  15
ATOM     15  C   UNL A   1      30.304  28.148  23.644  1.00  0.00     0.019 C 
ATOM     16  C   UNL A   1      30.593  27.565  22.265  1.00  0.00     0.006 C 
ENDBRANCH  14  15
ENDBRANCH  13  14
BRANCH  13  17
ATOM     17  C   UNL A   1      32.629  28.328  26.182  1.00  0.00     0.045 A 
ATOM     18  C   UNL A   1      31.897  29.505  26.398  1.00  0.00     0.026 A 
ATOM     19  C   UNL A   1      33.955  28.317  26.627  1.00  0.00     0.046 A 
ATOM     20  C   UNL A   1      32.480  30.631  27.003  1.00  0.00     0.004 A 
ATOM     21  C   UNL A   1      34.553  29.447  27.193  1.00  0.00     0.043 A 
ATOM     22  C   UNL A   1      33.819  30.609  27.386  1.00  0.00     0.020 A 
ATOM     23  Cl  UNL A   1      36.240  29.431  27.541  1.00  0.00    -0.084 Cl
ENDBRANCH  13  17
ENDBRANCH  11  13
ENDBRANCH  10  11
ENDBRANCH   5  10
BRANCH   6  24
ATOM     24  C   UNL A   1      30.738  23.125  25.609  1.00  0.00     0.118 C 
ATOM     25  C   UNL A   1      30.104  22.950  26.977  1.00  0.00     0.027 C 
ENDBRANCH   6  24
ENDBRANCH   2   4
ENDBRANCH   1   2
BRANCH   1  26
ATOM     26  C   UNL A   1      37.759  22.775  24.831  1.00  0.00     0.275 C 
BRANCH  26  27
ATOM     27  C   UNL A   1      38.436  22.126  26.037  1.00  0.00     0.275 C 
BRANCH  27  28
ATOM     28  O   UNL A   1      39.025  23.088  26.904  1.00  0.00    -0.458 OA
BRANCH  28  29
ATOM     29  C   UNL A   1      40.250  22.795  27.404  1.00  0.00     0.338 C 
ATOM     30  O   UNL A   1      40.588  21.767  27.966  1.00  0.00    -0.246 OA
BRANCH  29  31
ATOM     31  C   UNL A   1      41.083  23.998  27.292  1.00  0.00     0.060 A 
ATOM     32  C   UNL A   1      42.025  24.202  28.297  1.00  0.00     0.016 A 
ATOM     33  C   UNL A   1      40.653  25.032  26.451  1.00  0.00     0.016 A 
ATOM     34  C   UNL A   1      42.237  25.497  28.696  1.00  0.00     0.010 A 
ATOM     35  C   UNL A   1      40.881  26.323  26.829  1.00  0.00     0.010 A 
ATOM     36  C   UNL A   1      41.531  26.510  28.036  1.00  0.00    -0.014 A 
BRANCH  36  37
ATOM     37  C   UNL A   1      41.444  27.801  28.660  1.00  0.00     0.031 A 
ATOM     38  C   UNL A   1      42.566  28.669  28.287  1.00  0.00     0.074 A 
ATOM     39  C   UNL A   1      40.409  28.134  29.453  1.00  0.00     0.049 A 
ATOM     40  N   UNL A   1      43.552  29.016  29.040  1.00  0.00    -0.248 NA
ATOM     41  C   UNL A   1      42.732  29.002  26.865  1.00  0.00     0.031 C 
ATOM     42  C   UNL A   1      39.149  27.422  29.688  1.00  0.00     0.029 A 
ATOM     43  N   UNL A   1      40.254  29.274  30.175  1.00  0.00    -0.354 N 
ATOM     44  C   UNL A   1      44.369  29.791  28.233  1.00  0.00     0.074 A 
ATOM     45  C   UNL A   1      43.933  29.577  26.877  1.00  0.00     0.031 C 
ATOM     46  C   UNL A   1      38.273  28.256  30.298  1.00  0.00     0.029 A 
ATOM     47  C   UNL A   1      38.952  29.499  30.612  1.00  0.00     0.049 A 
ATOM     48  H   UNL A   1      40.998  29.889  30.371  1.00  0.00     0.167 HD
ATOM     49  C   UNL A   1      45.145  30.759  28.784  1.00  0.00     0.037 A 
ATOM     50  C   UNL A   1      38.505  30.695  31.072  1.00  0.00     0.037 A 
ATOM     51  C   UNL A   1      45.348  30.527  30.194  1.00  0.00     0.049 A 
ATOM     52  C   UNL A   1      39.712  31.453  31.526  1.00  0.00     0.074 A 
ATOM     53  C   UNL A   1      45.883  29.472  30.913  1.00  0.00     0.029 A 
ATOM     54  N   UNL A   1      44.575  31.231  31.088  1.00  0.00    -0.354 N 
ATOM     55  N   UNL A   1      40.442  31.085  32.548  1.00  0.00    -0.248 NA
ATOM     56  C   UNL A   1      40.403  32.268  30.531  1.00  0.00     0.031 C 
ATOM     57  C   UNL A   1      45.011  29.307  32.028  1.00  0.00     0.029 A 
ATOM     58  C   UNL A   1      44.058  30.324  31.984  1.00  0.00     0.049 A 
ATOM     59  H   UNL A   1      44.422  32.203  31.088  1.00  0.00     0.167 HD
ATOM     60  C   UNL A   1      41.756  31.247  32.125  1.00  0.00     0.074 A 
ATOM     61  C   UNL A   1      41.668  32.019  30.887  1.00  0.00     0.031 C 
ATOM     62  C   UNL A   1      42.774  30.487  32.630  1.00  0.00     0.037 A 
BRANCH  49  63
ATOM     63  C   UNL A   1      45.370  32.086  28.120  1.00  0.00     0.064 A 
ATOM     64  C   UNL A   1      44.281  32.954  27.941  1.00  0.00     0.173 A 
ATOM     65  C   UNL A   1      46.544  32.418  27.406  1.00  0.00     0.173 A 
ATOM     66  F   UNL A   1      43.108  32.711  28.545  1.00  0.00    -0.203 F 
ATOM     67  C   UNL A   1      44.349  34.042  27.067  1.00  0.00     0.198 A 
ATOM     68  C   UNL A   1      46.627  33.535  26.583  1.00  0.00     0.198 A 
ATOM     69  F   UNL A   1      47.619  31.620  27.380  1.00  0.00    -0.203 F 
ATOM     70  F   UNL A   1      43.251  34.772  26.833  1.00  0.00    -0.200 F 
ATOM     71  C   UNL A   1      45.520  34.329  26.388  1.00  0.00     0.200 A 
ATOM     72  F   UNL A   1      47.766  33.779  25.918  1.00  0.00    -0.200 F 
ATOM     73  F   UNL A   1      45.568  35.337  25.509  1.00  0.00    -0.200 F 
ENDBRANCH  49  63
BRANCH  50  74
ATOM     74  C   UNL A   1      37.206  31.339  30.748  1.00  0.00     0.064 A 
ATOM     75  C   UNL A   1      36.222  31.541  31.730  1.00  0.00     0.173 A 
ATOM     76  C   UNL A   1      36.998  32.003  29.520  1.00  0.00     0.173 A 
ATOM     77  F   UNL A   1      36.362  30.994  32.947  1.00  0.00    -0.203 F 
ATOM     78  C   UNL A   1      35.107  32.360  31.500  1.00  0.00     0.198 A 
ATOM     79  C   UNL A   1      35.884  32.813  29.290  1.00  0.00     0.198 A 
ATOM     80  F   UNL A   1      37.914  31.957  28.545  1.00  0.00    -0.203 F 
ATOM     81  F   UNL A   1      34.216  32.570  32.479  1.00  0.00    -0.200 F 
ATOM     82  C   UNL A   1      34.944  33.000  30.283  1.00  0.00     0.200 A 
ATOM     83  F   UNL A   1      35.762  33.455  28.119  1.00  0.00    -0.200 F 
ATOM     84  F   UNL A   1      33.908  33.826  30.079  1.00  0.00    -0.200 F 
ENDBRANCH  50  74
BRANCH  62  85
ATOM     85  C   UNL A   1      42.488  29.581  33.799  1.00  0.00     0.064 A 
ATOM     86  C   UNL A   1      41.906  28.305  33.684  1.00  0.00     0.173 A 
ATOM     87  C   UNL A   1      42.987  29.943  35.058  1.00  0.00     0.173 A 
ATOM     88  F   UNL A   1      41.503  27.836  32.497  1.00  0.00    -0.203 F 
ATOM     89  C   UNL A   1      41.793  27.456  34.786  1.00  0.00     0.198 A 
ATOM     90  C   UNL A   1      42.908  29.078  36.147  1.00  0.00     0.198 A 
ATOM     91  F   UNL A   1      43.609  31.122  35.219  1.00  0.00    -0.203 F 
ATOM     92  F   UNL A   1      41.227  26.247  34.649  1.00  0.00    -0.200 F 
ATOM     93  C   UNL A   1      42.301  27.841  36.015  1.00  0.00     0.200 A 
ATOM     94  F   UNL A   1      43.450  29.435  37.319  1.00  0.00    -0.200 F 
ATOM     95  F   UNL A   1      42.234  27.008  37.063  1.00  0.00    -0.200 F 
ENDBRANCH  62  85
ENDBRANCH  36  37
ENDBRANCH  29  31
ENDBRANCH  28  29
ENDBRANCH  27  28
ENDBRANCH  26  27
ENDBRANCH   1  26
TORSDOF 18
ENDMDL
MODEL 3
REMARK VINA RESULT:     -11.6      3.206      8.523
REMARK SMILES CCCN(C(=O)Cc1c(C(=O)OCCOC(=O)c2ccc(-c3c4nc(c(-c5c(F)c(F)c(F)c(F)c5F)c5ccc([nH]5)c(-c5c(F)c(F)c(F)c(F)c5F)c5nc(c(-c6c(F)c(F)c(F)c(F)c6F)c6ccc3[nH]6)C=C5)C=C4)cc2)c(C)cn1CC)c1cccc(Cl)c1
REMARK SMILES IDX 12 1 10 2 11 3 9 4 8 5 84 6 81 7 83 8 82 9 7 10 5 11 6 12
REMARK SMILES IDX 4 13 3 14 2 15 1 16 87 17 88 18 93 19 89 20 91 21 90 22
REMARK SMILES IDX 92 23 85 24 86 25 13 26 14 27 15 28 16 29 17 30 18 31 19 32
REMARK SMILES IDX 80 33 20 34 79 35 21 36 22 37 23 38 73 39 24 40 78 41 72 42
REMARK SMILES IDX 74 43 25 44 77 45 71 46 70 47 26 49 58 50 38 51 57 52 39 53
REMARK SMILES IDX 42 54 56 55 75 56 40 57 41 58 55 60 76 61 43 62 27 63 28 64
REMARK SMILES IDX 36 65 29 66 30 67 34 68 37 69 31 70 32 71 35 72 33 73 59 74
REMARK SMILES IDX 60 75 68 76 61 77 62 78 66 79 69 80 63 81 64 82 67 83 65 84
REMARK SMILES IDX 44 85 45 86 53 87 46 88 47 89 51 90 54 91 48 92 49 93 52 94
REMARK SMILES IDX 50 95
REMARK H PARENT 74 48 42 59
REMARK Flexibility Score: inf
ROOT
ATOM      1  O   UNL A   1      33.212  29.324  25.209  1.00  0.00    -0.458 OA
ENDROOT
BRANCH   1   2
ATOM      2  C   UNL A   1      33.374  28.561  24.081  1.00  0.00     0.340 C 
ATOM      3  O   UNL A   1      34.271  28.779  23.298  1.00  0.00    -0.246 OA
BRANCH   2   4
ATOM      4  C   UNL A   1      32.417  27.469  23.894  1.00  0.00     0.084 A 
ATOM      5  C   UNL A   1      32.583  26.120  24.274  1.00  0.00     0.042 A 
ATOM      6  N   UNL A   1      31.317  25.553  24.147  1.00  0.00    -0.350 N 
ATOM      7  C   UNL A   1      31.181  27.545  23.168  1.00  0.00    -0.019 A 
ATOM      8  C   UNL A   1      30.534  26.346  23.352  1.00  0.00     0.090 A 
ATOM      9  C   UNL A   1      30.690  28.688  22.352  1.00  0.00     0.047 C 
BRANCH   5  10
ATOM     10  C   UNL A   1      33.754  25.251  24.726  1.00  0.00     0.155 C 
BRANCH  10  11
ATOM     11  C   UNL A   1      34.320  24.147  23.836  1.00  0.00     0.232 C 
ATOM     12  O   UNL A   1      34.510  24.452  22.648  1.00  0.00    -0.274 OA
BRANCH  11  13
ATOM     13  N   UNL A   1      34.674  22.880  24.359  1.00  0.00    -0.312 N 
BRANCH  13  14
ATOM     14  C   UNL A   1      33.724  21.768  24.596  1.00  0.00     0.125 C 
BRANCH  14  15
ATOM     15  C   UNL A   1      32.979  21.565  25.937  1.00  0.00     0.019 C 
ATOM     16  C   UNL A   1      33.793  21.564  27.226  1.00  0.00     0.006 C 
ENDBRANCH  14  15
ENDBRANCH  13  14
BRANCH  13  17
ATOM     17  C   UNL A   1      36.063  22.676  24.735  1.00  0.00     0.045 A 
ATOM     18  C   UNL A   1      36.698  21.432  24.598  1.00  0.00     0.026 A 
ATOM     19  C   UNL A   1      36.762  23.670  25.427  1.00  0.00     0.046 A 
ATOM     20  C   UNL A   1      37.963  21.189  25.159  1.00  0.00     0.004 A 
ATOM     21  C   UNL A   1      38.003  23.422  26.021  1.00  0.00     0.043 A 
ATOM     22  C   UNL A   1      38.611  22.182  25.889  1.00  0.00     0.020 A 
ATOM     23  Cl  UNL A   1      38.721  24.628  27.021  1.00  0.00    -0.084 Cl
ENDBRANCH  13  17
ENDBRANCH  11  13
ENDBRANCH  10  11
ENDBRANCH   5  10
BRANCH   6  24
ATOM     24  C   UNL A   1      30.785  24.375  24.825  1.00  0.00     0.118 C 
ATOM     25  C   UNL A   1      30.561  24.524  26.318  1.00  0.00     0.027 C 
ENDBRANCH   6  24
ENDBRANCH   2   4
ENDBRANCH   1   2
BRANCH   1  26
ATOM     26  C   UNL A   1      33.789  28.729  26.391  1.00  0.00     0.275 C 
BRANCH  26  27
ATOM     27  C   UNL A   1      35.071  29.416  26.861  1.00  0.00     0.275 C 
BRANCH  27  28
ATOM     28  O   UNL A   1      34.870  30.169  28.050  1.00  0.00    -0.458 OA
BRANCH  28  29
ATOM     29  C   UNL A   1      35.631  31.280  28.210  1.00  0.00     0.338 C 
ATOM     30  O   UNL A   1      35.609  32.289  27.526  1.00  0.00    -0.246 OA
BRANCH  29  31
ATOM     31  C   UNL A   1      36.611  31.009  29.268  1.00  0.00     0.060 A 
ATOM     32  C   UNL A   1      37.753  31.806  29.281  1.00  0.00     0.016 A 
ATOM     33  C   UNL A   1      36.552  29.778  29.933  1.00  0.00     0.016 A 
ATOM     34  C   UNL A   1      38.931  31.196  29.631  1.00  0.00     0.010 A 
ATOM     35  C   UNL A   1      37.717  29.176  30.306  1.00  0.00     0.010 A 
ATOM     36  C   UNL A   1      38.887  29.844  29.990  1.00  0.00    -0.014 A 
BRANCH  36  37
ATOM     37  C   UNL A   1      40.116  29.098  29.995  1.00  0.00     0.031 A 
ATOM     38  C   UNL A   1      40.678  28.974  31.345  1.00  0.00     0.074 A 
ATOM     39  C   UNL A   1      40.623  28.565  28.868  1.00  0.00     0.049 A 
ATOM     40  N   UNL A   1      41.721  29.578  31.801  1.00  0.00    -0.248 NA
ATOM     41  C   UNL A   1      39.872  28.286  32.363  1.00  0.00     0.031 C 
ATOM     42  C   UNL A   1      40.015  28.444  27.540  1.00  0.00     0.029 A 
ATOM     43  N   UNL A   1      41.813  27.927  28.719  1.00  0.00    -0.354 N 
ATOM     44  C   UNL A   1      41.821  29.180  33.123  1.00  0.00     0.074 A 
ATOM     45  C   UNL A   1      40.564  28.566  33.466  1.00  0.00     0.031 C 
ATOM     46  C   UNL A   1      40.736  27.570  26.798  1.00  0.00     0.029 A 
ATOM     47  C   UNL A   1      41.915  27.182  27.548  1.00  0.00     0.049 A 
ATOM     48  H   UNL A   1      42.539  27.985  29.382  1.00  0.00     0.167 HD
ATOM     49  C   UNL A   1      43.035  29.137  33.729  1.00  0.00     0.037 A 
ATOM     50  C   UNL A   1      42.865  26.235  27.336  1.00  0.00     0.037 A 
ATOM     51  C   UNL A   1      43.995  29.960  33.034  1.00  0.00     0.049 A 
ATOM     52  C   UNL A   1      43.997  26.555  28.259  1.00  0.00     0.074 A 
ATOM     53  C   UNL A   1      44.031  31.305  32.711  1.00  0.00     0.029 A 
ATOM     54  N   UNL A   1      44.876  29.348  32.173  1.00  0.00    -0.354 N 
ATOM     55  N   UNL A   1      44.733  27.632  28.140  1.00  0.00    -0.248 NA
ATOM     56  C   UNL A   1      43.947  25.984  29.602  1.00  0.00     0.031 C 
ATOM     57  C   UNL A   1      44.518  31.349  31.371  1.00  0.00     0.029 A 
ATOM     58  C   UNL A   1      44.844  30.048  30.990  1.00  0.00     0.049 A 
ATOM     59  H   UNL A   1      45.428  28.556  32.368  1.00  0.00     0.167 HD
ATOM     60  C   UNL A   1      44.879  28.110  29.437  1.00  0.00     0.074 A 
ATOM     61  C   UNL A   1      44.408  27.028  30.299  1.00  0.00     0.031 C 
ATOM     62  C   UNL A   1      45.070  29.438  29.698  1.00  0.00     0.037 A 
BRANCH  49  63
ATOM     63  C   UNL A   1      43.415  28.053  34.695  1.00  0.00     0.064 A 
ATOM     64  C   UNL A   1      43.881  28.407  35.971  1.00  0.00     0.173 A 
ATOM     65  C   UNL A   1      43.605  26.702  34.324  1.00  0.00     0.173 A 
ATOM     66  F   UNL A   1      43.782  29.671  36.408  1.00  0.00    -0.203 F 
ATOM     67  C   UNL A   1      44.541  27.487  36.790  1.00  0.00     0.198 A 
ATOM     68  C   UNL A   1      44.209  25.775  35.165  1.00  0.00     0.198 A 
ATOM     69  F   UNL A   1      43.325  26.248  33.096  1.00  0.00    -0.203 F 
ATOM     70  F   UNL A   1      45.077  27.895  37.947  1.00  0.00    -0.200 F 
ATOM     71  C   UNL A   1      44.705  26.174  36.385  1.00  0.00     0.200 A 
ATOM     72  F   UNL A   1      44.377  24.513  34.741  1.00  0.00    -0.200 F 
ATOM     73  F   UNL A   1      45.386  25.306  37.144  1.00  0.00    -0.200 F 
ENDBRANCH  49  63
BRANCH  50  74
ATOM     74  C   UNL A   1      42.661  24.898  26.720  1.00  0.00     0.064 A 
ATOM     75  C   UNL A   1      43.260  24.553  25.498  1.00  0.00     0.173 A 
ATOM     76  C   UNL A   1      42.077  23.836  27.443  1.00  0.00     0.173 A 
ATOM     77  F   UNL A   1      43.887  25.487  24.767  1.00  0.00    -0.203 F 
ATOM     78  C   UNL A   1      43.280  23.230  25.034  1.00  0.00     0.198 A 
ATOM     79  C   UNL A   1      42.093  22.520  26.977  1.00  0.00     0.198 A 
ATOM     80  F   UNL A   1      41.558  24.031  28.663  1.00  0.00    -0.203 F 
ATOM     81  F   UNL A   1      43.907  22.931  23.887  1.00  0.00    -0.200 F 
ATOM     82  C   UNL A   1      42.703  22.215  25.778  1.00  0.00     0.200 A 
ATOM     83  F   UNL A   1      41.562  21.544  27.729  1.00  0.00    -0.200 F 
ATOM     84  F   UNL A   1      42.768  20.942  25.362  1.00  0.00    -0.200 F 
ENDBRANCH  50  74
BRANCH  62  85
ATOM     85  C   UNL A   1      45.305  30.374  28.542  1.00  0.00     0.064 A 
ATOM     86  C   UNL A   1      44.277  30.984  27.799  1.00  0.00     0.173 A 
ATOM     87  C   UNL A   1      46.615  30.810  28.296  1.00  0.00     0.173 A 
ATOM     88  F   UNL A   1      42.991  30.708  28.046  1.00  0.00    -0.203 F 
ATOM     89  C   UNL A   1      44.555  31.950  26.830  1.00  0.00     0.198 A 
ATOM     90  C   UNL A   1      46.885  31.802  27.355  1.00  0.00     0.198 A 
ATOM     91  F   UNL A   1      47.633  30.312  29.014  1.00  0.00    -0.203 F 
ATOM     92  F   UNL A   1      43.555  32.511  26.132  1.00  0.00    -0.200 F 
ATOM     93  C   UNL A   1      45.859  32.363  26.615  1.00  0.00     0.200 A 
ATOM     94  F   UNL A   1      48.142  32.236  27.191  1.00  0.00    -0.200 F 
ATOM     95  F   UNL A   1      46.123  33.322  25.717  1.00  0.00    -0.200 F 
ENDBRANCH  62  85
ENDBRANCH  36  37
ENDBRANCH  29  31
ENDBRANCH  28  29
ENDBRANCH  27  28
ENDBRANCH  26  27
ENDBRANCH   1  26
TORSDOF 18
ENDMDL
