MODEL 1
REMARK VINA RESULT:     -13.7      0.000      0.000
REMARK SMILES Cc1ccccc1NC(=O)NC[C@@H]1CC[C@@H](C(=O)OCCOC(=O)c2ccc(-c3c4nc(c(-c5c(F)c(F)c(F)c(F)c5F)c5ccc([nH]5)c(-c5c(F)c(F)c(F)c(F)c5F)c5nc(c(-c6c(F)c(F)c(F)c(F)c6F)c6ccc3[nH]6)C=C5)C=C4)cc2)O1
REMARK SMILES IDX 20 1 19 2 17 3 18 4 16 5 13 6 14 7 88 8 15 9 12 10 11 11
REMARK SMILES IDX 8 12 9 13 10 15 7 17 1 18 2 19 3 20 4 21 6 22 5 23 21 24
REMARK SMILES IDX 22 25 23 26 24 27 25 28 26 29 87 30 27 31 86 32 28 33 29 34
REMARK SMILES IDX 30 35 80 36 31 37 85 38 79 39 81 40 32 41 84 42 78 43 77 44
REMARK SMILES IDX 33 46 65 47 45 48 64 49 46 50 49 51 63 52 82 53 47 54 48 55
REMARK SMILES IDX 62 57 83 58 50 59 34 60 35 61 43 62 36 63 37 64 41 65 44 66
REMARK SMILES IDX 38 67 39 68 42 69 40 70 66 71 67 72 75 73 68 74 69 75 73 76
REMARK SMILES IDX 76 77 70 78 71 79 74 80 72 81 51 82 52 83 60 84 53 85 54 86
REMARK SMILES IDX 58 87 61 88 55 89 56 90 59 91 57 92
REMARK H PARENT 8 14 11 16 81 45 49 56
REMARK Flexibility Score: inf
ROOT
ATOM      1  C   UNL A   1      32.375  29.414  26.960  1.00  0.00     0.274 C 
ENDROOT
BRANCH   1   2
ATOM      2  O   UNL A   1      31.990  29.367  25.589  1.00  0.00    -0.460 OA
BRANCH   2   3
ATOM      3  C   UNL A   1      32.799  28.583  24.823  1.00  0.00     0.335 C 
ATOM      4  O   UNL A   1      33.567  29.001  23.963  1.00  0.00    -0.249 OA
BRANCH   3   5
ATOM      5  C   UNL A   1      32.586  27.101  25.113  1.00  0.00     0.228 C 
ATOM      6  C   UNL A   1      31.912  25.332  23.708  1.00  0.00     0.138 C 
ATOM      7  C   UNL A   1      33.266  25.001  24.317  1.00  0.00     0.037 C 
ATOM      8  O   UNL A   1      31.482  26.494  24.440  1.00  0.00    -0.361 OA
ATOM      9  C   UNL A   1      33.823  26.340  24.710  1.00  0.00     0.047 C 
BRANCH   6  10
ATOM     10  C   UNL A   1      30.822  24.238  23.823  1.00  0.00     0.149 C 
BRANCH  10  11
ATOM     11  N   UNL A   1      30.346  24.000  25.184  1.00  0.00    -0.335 N 
ATOM     12  N   UNL A   1      31.541  22.383  26.535  1.00  0.00    -0.308 N 
ATOM     13  C   UNL A   1      30.640  23.337  26.294  1.00  0.00     0.319 C 
ATOM     14  H   UNL A   1      31.493  22.132  27.485  1.00  0.00     0.171 HD
ATOM     15  O   UNL A   1      29.942  23.642  27.275  1.00  0.00    -0.249 OA
ATOM     16  H   UNL A   1      29.518  24.511  25.327  1.00  0.00     0.165 HD
BRANCH  12  17
ATOM     17  C   UNL A   1      32.536  21.611  25.909  1.00  0.00     0.045 A 
ATOM     18  C   UNL A   1      34.433  22.813  27.204  1.00  0.00     0.046 C 
ATOM     19  C   UNL A   1      33.900  21.802  26.222  1.00  0.00    -0.027 A 
ATOM     20  C   UNL A   1      34.880  20.974  25.620  1.00  0.00     0.005 A 
ATOM     21  C   UNL A   1      34.534  19.974  24.718  1.00  0.00     0.000 A 
ATOM     22  C   UNL A   1      32.245  20.642  24.969  1.00  0.00     0.026 A 
ATOM     23  C   UNL A   1      33.206  19.812  24.388  1.00  0.00     0.002 A 
ENDBRANCH  12  17
ENDBRANCH  10  11
ENDBRANCH   6  10
ENDBRANCH   3   5
ENDBRANCH   2   3
ENDBRANCH   1   2
BRANCH   1  24
ATOM     24  C   UNL A   1      33.515  30.409  27.210  1.00  0.00     0.275 C 
BRANCH  24  25
ATOM     25  O   UNL A   1      34.808  29.963  27.725  1.00  0.00    -0.458 OA
BRANCH  25  26
ATOM     26  C   UNL A   1      35.867  30.632  28.238  1.00  0.00     0.338 C 
ATOM     27  O   UNL A   1      35.814  31.837  28.469  1.00  0.00    -0.246 OA
BRANCH  26  28
ATOM     28  C   UNL A   1      37.104  29.887  28.519  1.00  0.00     0.060 A 
ATOM     29  C   UNL A   1      37.176  29.048  29.644  1.00  0.00     0.016 A 
ATOM     30  C   UNL A   1      38.150  29.934  27.614  1.00  0.00     0.016 A 
ATOM     31  C   UNL A   1      38.213  28.122  29.766  1.00  0.00     0.010 A 
ATOM     32  C   UNL A   1      39.086  28.931  27.646  1.00  0.00     0.010 A 
ATOM     33  C   UNL A   1      39.140  28.041  28.733  1.00  0.00    -0.014 A 
BRANCH  33  34
ATOM     34  C   UNL A   1      40.401  27.318  28.817  1.00  0.00     0.031 A 
ATOM     35  C   UNL A   1      40.580  25.896  28.472  1.00  0.00     0.074 A 
ATOM     36  C   UNL A   1      41.423  28.158  29.089  1.00  0.00     0.049 A 
ATOM     37  N   UNL A   1      41.597  25.200  28.850  1.00  0.00    -0.248 NA
ATOM     38  C   UNL A   1      39.638  25.115  27.679  1.00  0.00     0.031 C 
ATOM     39  C   UNL A   1      42.855  27.987  28.968  1.00  0.00     0.029 A 
ATOM     40  N   UNL A   1      41.280  29.423  29.690  1.00  0.00    -0.354 N 
ATOM     41  C   UNL A   1      41.600  24.024  28.130  1.00  0.00     0.074 A 
ATOM     42  C   UNL A   1      40.313  23.972  27.484  1.00  0.00     0.031 C 
ATOM     43  C   UNL A   1      43.455  28.917  29.739  1.00  0.00     0.029 A 
ATOM     44  C   UNL A   1      42.406  29.598  30.491  1.00  0.00     0.049 A 
ATOM     45  H   UNL A   1      40.535  30.055  29.568  1.00  0.00     0.167 HD
ATOM     46  C   UNL A   1      42.761  23.312  28.039  1.00  0.00     0.037 A 
ATOM     47  C   UNL A   1      42.234  29.566  31.847  1.00  0.00     0.037 A 
ATOM     48  C   UNL A   1      43.803  23.961  28.823  1.00  0.00     0.049 A 
ATOM     49  C   UNL A   1      42.977  28.399  32.444  1.00  0.00     0.074 A 
ATOM     50  C   UNL A   1      44.757  24.903  28.471  1.00  0.00     0.029 A 
ATOM     51  N   UNL A   1      43.688  24.007  30.206  1.00  0.00    -0.354 N 
ATOM     52  N   UNL A   1      43.166  27.264  31.827  1.00  0.00    -0.248 NA
ATOM     53  C   UNL A   1      43.622  28.456  33.748  1.00  0.00     0.031 C 
ATOM     54  C   UNL A   1      45.144  25.588  29.648  1.00  0.00     0.029 A 
ATOM     55  C   UNL A   1      44.449  25.043  30.713  1.00  0.00     0.049 A 
ATOM     56  H   UNL A   1      43.144  23.390  30.748  1.00  0.00     0.167 HD
ATOM     57  C   UNL A   1      44.013  26.491  32.574  1.00  0.00     0.074 A 
ATOM     58  C   UNL A   1      44.242  27.264  33.783  1.00  0.00     0.031 C 
ATOM     59  C   UNL A   1      44.505  25.295  32.140  1.00  0.00     0.037 A 
BRANCH  46  60
ATOM     60  C   UNL A   1      43.039  22.230  27.021  1.00  0.00     0.064 A 
ATOM     61  C   UNL A   1      42.349  20.996  27.075  1.00  0.00     0.173 A 
ATOM     62  C   UNL A   1      43.981  22.337  25.983  1.00  0.00     0.173 A 
ATOM     63  F   UNL A   1      41.389  20.768  27.981  1.00  0.00    -0.203 F 
ATOM     64  C   UNL A   1      42.624  19.936  26.209  1.00  0.00     0.198 A 
ATOM     65  C   UNL A   1      44.279  21.263  25.131  1.00  0.00     0.198 A 
ATOM     66  F   UNL A   1      44.614  23.495  25.745  1.00  0.00    -0.203 F 
ATOM     67  F   UNL A   1      41.939  18.789  26.322  1.00  0.00    -0.200 F 
ATOM     68  C   UNL A   1      43.605  20.061  25.248  1.00  0.00     0.200 A 
ATOM     69  F   UNL A   1      45.226  21.399  24.192  1.00  0.00    -0.200 F 
ATOM     70  F   UNL A   1      43.888  19.035  24.434  1.00  0.00    -0.200 F 
ENDBRANCH  46  60
BRANCH  47  71
ATOM     71  C   UNL A   1      40.898  30.078  32.306  1.00  0.00     0.064 A 
ATOM     72  C   UNL A   1      40.565  31.429  32.050  1.00  0.00     0.173 A 
ATOM     73  C   UNL A   1      39.847  29.240  32.704  1.00  0.00     0.173 A 
ATOM     74  F   UNL A   1      41.520  32.292  31.664  1.00  0.00    -0.203 F 
ATOM     75  C   UNL A   1      39.246  31.886  32.080  1.00  0.00     0.198 A 
ATOM     76  C   UNL A   1      38.527  29.708  32.758  1.00  0.00     0.198 A 
ATOM     77  F   UNL A   1      40.073  27.946  32.971  1.00  0.00    -0.203 F 
ATOM     78  F   UNL A   1      38.968  33.148  31.719  1.00  0.00    -0.200 F 
ATOM     79  C   UNL A   1      38.225  31.021  32.421  1.00  0.00     0.200 A 
ATOM     80  F   UNL A   1      37.532  28.866  33.072  1.00  0.00    -0.200 F 
ATOM     81  F   UNL A   1      36.951  31.437  32.393  1.00  0.00    -0.200 F 
ENDBRANCH  47  71
BRANCH  59  82
ATOM     82  C   UNL A   1      45.193  24.282  33.007  1.00  0.00     0.064 A 
ATOM     83  C   UNL A   1      46.461  24.493  33.565  1.00  0.00     0.173 A 
ATOM     84  C   UNL A   1      44.495  23.138  33.465  1.00  0.00     0.173 A 
ATOM     85  F   UNL A   1      47.167  25.599  33.290  1.00  0.00    -0.203 F 
ATOM     86  C   UNL A   1      47.017  23.598  34.478  1.00  0.00     0.198 A 
ATOM     87  C   UNL A   1      45.026  22.284  34.426  1.00  0.00     0.198 A 
ATOM     88  F   UNL A   1      43.266  22.838  33.022  1.00  0.00    -0.203 F 
ATOM     89  F   UNL A   1      48.248  23.821  34.955  1.00  0.00    -0.200 F 
ATOM     90  C   UNL A   1      46.293  22.505  34.922  1.00  0.00     0.200 A 
ATOM     91  F   UNL A   1      44.289  21.264  34.889  1.00  0.00    -0.200 F 
ATOM     92  F   UNL A   1      46.809  21.682  35.843  1.00  0.00    -0.200 F 
ENDBRANCH  59  82
ENDBRANCH  33  34
ENDBRANCH  26  28
ENDBRANCH  25  26
ENDBRANCH  24  25
ENDBRANCH   1  24
TORSDOF 14
ENDMDL
MODEL 2
REMARK VINA RESULT:     -13.7      1.071      1.847
REMARK SMILES Cc1ccccc1NC(=O)NC[C@@H]1CC[C@@H](C(=O)OCCOC(=O)c2ccc(-c3c4nc(c(-c5c(F)c(F)c(F)c(F)c5F)c5ccc([nH]5)c(-c5c(F)c(F)c(F)c(F)c5F)c5nc(c(-c6c(F)c(F)c(F)c(F)c6F)c6ccc3[nH]6)C=C5)C=C4)cc2)O1
REMARK SMILES IDX 20 1 19 2 17 3 18 4 16 5 13 6 14 7 88 8 15 9 12 10 11 11
REMARK SMILES IDX 8 12 9 13 10 15 7 17 1 18 2 19 3 20 4 21 6 22 5 23 21 24
REMARK SMILES IDX 22 25 23 26 24 27 25 28 26 29 87 30 27 31 86 32 28 33 29 34
REMARK SMILES IDX 30 35 80 36 31 37 85 38 79 39 81 40 32 41 84 42 78 43 77 44
REMARK SMILES IDX 33 46 65 47 45 48 64 49 46 50 49 51 63 52 82 53 47 54 48 55
REMARK SMILES IDX 62 57 83 58 50 59 34 60 35 61 43 62 36 63 37 64 41 65 44 66
REMARK SMILES IDX 38 67 39 68 42 69 40 70 66 71 67 72 75 73 68 74 69 75 73 76
REMARK SMILES IDX 76 77 70 78 71 79 74 80 72 81 51 82 52 83 60 84 53 85 54 86
REMARK SMILES IDX 58 87 61 88 55 89 56 90 59 91 57 92
REMARK H PARENT 8 14 11 16 81 45 49 56
REMARK Flexibility Score: inf
ROOT
ATOM      1  C   UNL A   1      32.156  29.165  27.195  1.00  0.00     0.274 C 
ENDROOT
BRANCH   1   2
ATOM      2  O   UNL A   1      31.485  29.018  25.948  1.00  0.00    -0.460 OA
BRANCH   2   3
ATOM      3  C   UNL A   1      31.896  27.934  25.232  1.00  0.00     0.335 C 
ATOM      4  O   UNL A   1      31.781  27.815  24.017  1.00  0.00    -0.249 OA
BRANCH   3   5
ATOM      5  C   UNL A   1      32.462  26.843  26.134  1.00  0.00     0.228 C 
ATOM      6  C   UNL A   1      32.549  24.503  25.863  1.00  0.00     0.138 C 
ATOM      7  C   UNL A   1      33.961  25.040  26.048  1.00  0.00     0.037 C 
ATOM      8  O   UNL A   1      31.710  25.629  26.178  1.00  0.00    -0.361 OA
ATOM      9  C   UNL A   1      33.849  26.489  25.666  1.00  0.00     0.047 C 
BRANCH   6  10
ATOM     10  C   UNL A   1      32.145  23.311  26.764  1.00  0.00     0.149 C 
BRANCH  10  11
ATOM     11  N   UNL A   1      31.875  22.070  26.041  1.00  0.00    -0.335 N 
ATOM     12  N   UNL A   1      33.720  21.005  24.890  1.00  0.00    -0.308 N 
ATOM     13  C   UNL A   1      32.474  21.107  25.356  1.00  0.00     0.319 C 
ATOM     14  H   UNL A   1      33.823  20.135  24.440  1.00  0.00     0.171 HD
ATOM     15  O   UNL A   1      31.746  20.139  25.085  1.00  0.00    -0.249 OA
ATOM     16  H   UNL A   1      30.908  21.885  26.074  1.00  0.00     0.165 HD
BRANCH  12  17
ATOM     17  C   UNL A   1      34.938  21.704  24.814  1.00  0.00     0.045 A 
ATOM     18  C   UNL A   1      34.156  23.054  22.743  1.00  0.00     0.046 C 
ATOM     19  C   UNL A   1      35.151  22.675  23.811  1.00  0.00    -0.027 A 
ATOM     20  C   UNL A   1      36.364  23.406  23.788  1.00  0.00     0.005 A 
ATOM     21  C   UNL A   1      37.363  23.189  24.731  1.00  0.00     0.000 A 
ATOM     22  C   UNL A   1      35.978  21.486  25.696  1.00  0.00     0.026 A 
ATOM     23  C   UNL A   1      37.168  22.218  25.688  1.00  0.00     0.002 A 
ENDBRANCH  12  17
ENDBRANCH  10  11
ENDBRANCH   6  10
ENDBRANCH   3   5
ENDBRANCH   2   3
ENDBRANCH   1   2
BRANCH   1  24
ATOM     24  C   UNL A   1      33.337  30.141  27.107  1.00  0.00     0.275 C 
BRANCH  24  25
ATOM     25  O   UNL A   1      34.655  29.780  27.624  1.00  0.00    -0.458 OA
BRANCH  25  26
ATOM     26  C   UNL A   1      35.746  30.517  27.940  1.00  0.00     0.338 C 
ATOM     27  O   UNL A   1      35.711  31.744  27.947  1.00  0.00    -0.246 OA
BRANCH  26  28
ATOM     28  C   UNL A   1      36.996  29.819  28.278  1.00  0.00     0.060 A 
ATOM     29  C   UNL A   1      37.085  29.075  29.467  1.00  0.00     0.016 A 
ATOM     30  C   UNL A   1      38.040  29.810  27.369  1.00  0.00     0.016 A 
ATOM     31  C   UNL A   1      38.137  28.181  29.661  1.00  0.00     0.010 A 
ATOM     32  C   UNL A   1      38.994  28.830  27.481  1.00  0.00     0.010 A 
ATOM     33  C   UNL A   1      39.065  28.032  28.636  1.00  0.00    -0.014 A 
BRANCH  33  34
ATOM     34  C   UNL A   1      40.338  27.341  28.776  1.00  0.00     0.031 A 
ATOM     35  C   UNL A   1      40.569  25.926  28.437  1.00  0.00     0.074 A 
ATOM     36  C   UNL A   1      41.326  28.205  29.096  1.00  0.00     0.049 A 
ATOM     37  N   UNL A   1      41.585  25.254  28.859  1.00  0.00    -0.248 NA
ATOM     38  C   UNL A   1      39.684  25.123  27.600  1.00  0.00     0.031 C 
ATOM     39  C   UNL A   1      42.766  28.071  29.039  1.00  0.00     0.029 A 
ATOM     40  N   UNL A   1      41.124  29.464  29.692  1.00  0.00    -0.354 N 
ATOM     41  C   UNL A   1      41.650  24.080  28.136  1.00  0.00     0.074 A 
ATOM     42  C   UNL A   1      40.396  23.999  27.433  1.00  0.00     0.031 C 
ATOM     43  C   UNL A   1      43.307  29.013  29.839  1.00  0.00     0.029 A 
ATOM     44  C   UNL A   1      42.208  29.665  30.544  1.00  0.00     0.049 A 
ATOM     45  H   UNL A   1      40.370  30.078  29.538  1.00  0.00     0.167 HD
ATOM     46  C   UNL A   1      42.832  23.398  28.097  1.00  0.00     0.037 A 
ATOM     47  C   UNL A   1      41.975  29.624  31.890  1.00  0.00     0.037 A 
ATOM     48  C   UNL A   1      43.821  24.071  28.929  1.00  0.00     0.049 A 
ATOM     49  C   UNL A   1      42.719  28.474  32.518  1.00  0.00     0.074 A 
ATOM     50  C   UNL A   1      44.765  25.037  28.623  1.00  0.00     0.029 A 
ATOM     51  N   UNL A   1      43.642  24.109  30.306  1.00  0.00    -0.354 N 
ATOM     52  N   UNL A   1      42.965  27.346  31.908  1.00  0.00    -0.248 NA
ATOM     53  C   UNL A   1      43.303  28.543  33.851  1.00  0.00     0.031 C 
ATOM     54  C   UNL A   1      45.081  25.728  29.818  1.00  0.00     0.029 A 
ATOM     55  C   UNL A   1      44.352  25.162  30.849  1.00  0.00     0.049 A 
ATOM     56  H   UNL A   1      43.089  23.477  30.821  1.00  0.00     0.167 HD
ATOM     57  C   UNL A   1      43.796  26.593  32.691  1.00  0.00     0.074 A 
ATOM     58  C   UNL A   1      43.950  27.367  33.911  1.00  0.00     0.031 C 
ATOM     59  C   UNL A   1      44.337  25.411  32.278  1.00  0.00     0.037 A 
BRANCH  46  60
ATOM     60  C   UNL A   1      43.183  22.327  27.091  1.00  0.00     0.064 A 
ATOM     61  C   UNL A   1      42.494  21.091  27.084  1.00  0.00     0.173 A 
ATOM     62  C   UNL A   1      44.194  22.446  26.122  1.00  0.00     0.173 A 
ATOM     63  F   UNL A   1      41.474  20.852  27.919  1.00  0.00    -0.203 F 
ATOM     64  C   UNL A   1      42.832  20.040  26.229  1.00  0.00     0.198 A 
ATOM     65  C   UNL A   1      44.554  21.381  25.282  1.00  0.00     0.198 A 
ATOM     66  F   UNL A   1      44.840  23.607  25.939  1.00  0.00    -0.203 F 
ATOM     67  F   UNL A   1      42.144  18.890  26.283  1.00  0.00    -0.200 F 
ATOM     68  C   UNL A   1      43.877  20.177  25.340  1.00  0.00     0.200 A 
ATOM     69  F   UNL A   1      45.563  21.528  24.412  1.00  0.00    -0.200 F 
ATOM     70  F   UNL A   1      44.219  19.160  24.538  1.00  0.00    -0.200 F 
ENDBRANCH  46  60
BRANCH  47  71
ATOM     71  C   UNL A   1      40.607  30.101  32.290  1.00  0.00     0.064 A 
ATOM     72  C   UNL A   1      40.240  31.435  31.991  1.00  0.00     0.173 A 
ATOM     73  C   UNL A   1      39.571  29.237  32.669  1.00  0.00     0.173 A 
ATOM     74  F   UNL A   1      41.179  32.321  31.620  1.00  0.00    -0.203 F 
ATOM     75  C   UNL A   1      38.907  31.848  31.963  1.00  0.00     0.198 A 
ATOM     76  C   UNL A   1      38.235  29.662  32.665  1.00  0.00     0.198 A 
ATOM     77  F   UNL A   1      39.829  27.958  32.973  1.00  0.00    -0.203 F 
ATOM     78  F   UNL A   1      38.600  33.092  31.564  1.00  0.00    -0.200 F 
ATOM     79  C   UNL A   1      37.902  30.956  32.288  1.00  0.00     0.200 A 
ATOM     80  F   UNL A   1      37.256  28.794  32.962  1.00  0.00    -0.200 F 
ATOM     81  F   UNL A   1      36.617  31.329  32.204  1.00  0.00    -0.200 F 
ENDBRANCH  47  71
BRANCH  59  82
ATOM     82  C   UNL A   1      45.010  24.412  33.173  1.00  0.00     0.064 A 
ATOM     83  C   UNL A   1      44.404  23.210  33.563  1.00  0.00     0.173 A 
ATOM     84  C   UNL A   1      46.380  24.552  33.502  1.00  0.00     0.173 A 
ATOM     85  F   UNL A   1      43.143  22.920  33.211  1.00  0.00    -0.203 F 
ATOM     86  C   UNL A   1      45.101  22.238  34.278  1.00  0.00     0.198 A 
ATOM     87  C   UNL A   1      47.090  23.551  34.157  1.00  0.00     0.198 A 
ATOM     88  F   UNL A   1      47.078  25.647  33.166  1.00  0.00    -0.203 F 
ATOM     89  F   UNL A   1      44.469  21.121  34.664  1.00  0.00    -0.200 F 
ATOM     90  C   UNL A   1      46.446  22.400  34.559  1.00  0.00     0.200 A 
ATOM     91  F   UNL A   1      48.405  23.698  34.368  1.00  0.00    -0.200 F 
ATOM     92  F   UNL A   1      47.125  21.437  35.194  1.00  0.00    -0.200 F 
ENDBRANCH  59  82
ENDBRANCH  33  34
ENDBRANCH  26  28
ENDBRANCH  25  26
ENDBRANCH  24  25
ENDBRANCH   1  24
TORSDOF 14
ENDMDL
MODEL 3
REMARK VINA RESULT:     -13.6      4.071     10.320
REMARK SMILES Cc1ccccc1NC(=O)NC[C@@H]1CC[C@@H](C(=O)OCCOC(=O)c2ccc(-c3c4nc(c(-c5c(F)c(F)c(F)c(F)c5F)c5ccc([nH]5)c(-c5c(F)c(F)c(F)c(F)c5F)c5nc(c(-c6c(F)c(F)c(F)c(F)c6F)c6ccc3[nH]6)C=C5)C=C4)cc2)O1
REMARK SMILES IDX 20 1 19 2 17 3 18 4 16 5 13 6 14 7 88 8 15 9 12 10 11 11
REMARK SMILES IDX 8 12 9 13 10 15 7 17 1 18 2 19 3 20 4 21 6 22 5 23 21 24
REMARK SMILES IDX 22 25 23 26 24 27 25 28 26 29 87 30 27 31 86 32 28 33 29 34
REMARK SMILES IDX 30 35 80 36 31 37 85 38 79 39 81 40 32 41 84 42 78 43 77 44
REMARK SMILES IDX 33 46 65 47 45 48 64 49 46 50 49 51 63 52 82 53 47 54 48 55
REMARK SMILES IDX 62 57 83 58 50 59 34 60 35 61 43 62 36 63 37 64 41 65 44 66
REMARK SMILES IDX 38 67 39 68 42 69 40 70 66 71 67 72 75 73 68 74 69 75 73 76
REMARK SMILES IDX 76 77 70 78 71 79 74 80 72 81 51 82 52 83 60 84 53 85 54 86
REMARK SMILES IDX 58 87 61 88 55 89 56 90 59 91 57 92
REMARK H PARENT 8 14 11 16 81 45 49 56
REMARK Flexibility Score: inf
ROOT
ATOM      1  C   UNL A   1      37.784  21.447  24.997  1.00  0.00     0.274 C 
ENDROOT
BRANCH   1   2
ATOM      2  O   UNL A   1      36.956  22.018  23.987  1.00  0.00    -0.460 OA
BRANCH   2   3
ATOM      3  C   UNL A   1      35.624  21.921  24.255  1.00  0.00     0.335 C 
ATOM      4  O   UNL A   1      35.074  20.922  24.705  1.00  0.00    -0.249 OA
BRANCH   3   5
ATOM      5  C   UNL A   1      34.876  23.190  23.862  1.00  0.00     0.228 C 
ATOM      6  C   UNL A   1      32.612  23.793  24.122  1.00  0.00     0.138 C 
ATOM      7  C   UNL A   1      33.489  24.824  24.817  1.00  0.00     0.037 C 
ATOM      8  O   UNL A   1      33.548  22.995  23.374  1.00  0.00    -0.361 OA
ATOM      9  C   UNL A   1      34.778  24.094  25.063  1.00  0.00     0.047 C 
BRANCH   6  10
ATOM     10  C   UNL A   1      31.540  24.346  23.152  1.00  0.00     0.149 C 
BRANCH  10  11
ATOM     11  N   UNL A   1      32.069  24.828  21.878  1.00  0.00    -0.335 N 
ATOM     12  N   UNL A   1      32.912  27.097  21.787  1.00  0.00    -0.308 N 
ATOM     13  C   UNL A   1      32.675  25.868  21.323  1.00  0.00     0.319 C 
ATOM     14  H   UNL A   1      33.406  27.605  21.104  1.00  0.00     0.171 HD
ATOM     15  O   UNL A   1      33.074  25.673  20.164  1.00  0.00    -0.249 OA
ATOM     16  H   UNL A   1      31.926  24.138  21.190  1.00  0.00     0.165 HD
BRANCH  12  17
ATOM     17  C   UNL A   1      32.705  27.920  22.907  1.00  0.00     0.045 A 
ATOM     18  C   UNL A   1      30.171  28.147  22.403  1.00  0.00     0.046 C 
ATOM     19  C   UNL A   1      31.416  28.414  23.210  1.00  0.00    -0.027 A 
ATOM     20  C   UNL A   1      31.221  29.196  24.376  1.00  0.00     0.005 A 
ATOM     21  C   UNL A   1      32.272  29.497  25.235  1.00  0.00     0.000 A 
ATOM     22  C   UNL A   1      33.726  28.287  23.761  1.00  0.00     0.026 A 
ATOM     23  C   UNL A   1      33.534  29.042  24.921  1.00  0.00     0.002 A 
ENDBRANCH  12  17
ENDBRANCH  10  11
ENDBRANCH   6  10
ENDBRANCH   3   5
ENDBRANCH   2   3
ENDBRANCH   1   2
BRANCH   1  24
ATOM     24  C   UNL A   1      37.933  22.369  26.214  1.00  0.00     0.275 C 
BRANCH  24  25
ATOM     25  O   UNL A   1      38.759  23.574  26.152  1.00  0.00    -0.458 OA
BRANCH  25  26
ATOM     26  C   UNL A   1      39.911  23.925  26.770  1.00  0.00     0.338 C 
ATOM     27  O   UNL A   1      40.850  23.141  26.871  1.00  0.00    -0.246 OA
BRANCH  26  28
ATOM     28  C   UNL A   1      40.026  25.280  27.332  1.00  0.00     0.060 A 
ATOM     29  C   UNL A   1      40.445  26.344  26.515  1.00  0.00     0.016 A 
ATOM     30  C   UNL A   1      39.616  25.517  28.633  1.00  0.00     0.016 A 
ATOM     31  C   UNL A   1      40.281  27.663  26.939  1.00  0.00     0.010 A 
ATOM     32  C   UNL A   1      39.313  26.805  28.997  1.00  0.00     0.010 A 
ATOM     33  C   UNL A   1      39.668  27.883  28.168  1.00  0.00    -0.014 A 
BRANCH  33  34
ATOM     34  C   UNL A   1      39.648  29.165  28.857  1.00  0.00     0.031 A 
ATOM     35  C   UNL A   1      38.597  30.186  28.705  1.00  0.00     0.074 A 
ATOM     36  C   UNL A   1      40.628  29.230  29.785  1.00  0.00     0.049 A 
ATOM     37  N   UNL A   1      38.750  31.417  29.057  1.00  0.00    -0.248 NA
ATOM     38  C   UNL A   1      37.277  29.933  28.138  1.00  0.00     0.031 C 
ATOM     39  C   UNL A   1      40.823  30.129  30.903  1.00  0.00     0.029 A 
ATOM     40  N   UNL A   1      41.792  28.438  29.776  1.00  0.00    -0.354 N 
ATOM     41  C   UNL A   1      37.509  32.020  29.051  1.00  0.00     0.074 A 
ATOM     42  C   UNL A   1      36.638  31.087  28.383  1.00  0.00     0.031 C 
ATOM     43  C   UNL A   1      42.122  30.070  31.266  1.00  0.00     0.029 A 
ATOM     44  C   UNL A   1      42.811  29.245  30.278  1.00  0.00     0.049 A 
ATOM     45  H   UNL A   1      41.869  27.504  29.476  1.00  0.00     0.167 HD
ATOM     46  C   UNL A   1      37.336  33.172  29.761  1.00  0.00     0.037 A 
ATOM     47  C   UNL A   1      43.776  29.667  29.407  1.00  0.00     0.037 A 
ATOM     48  C   UNL A   1      38.598  33.577  30.366  1.00  0.00     0.049 A 
ATOM     49  C   UNL A   1      43.744  31.167  29.272  1.00  0.00     0.074 A 
ATOM     50  C   UNL A   1      39.145  33.300  31.609  1.00  0.00     0.029 A 
ATOM     51  N   UNL A   1      39.647  33.983  29.551  1.00  0.00    -0.354 N 
ATOM     52  N   UNL A   1      42.658  31.884  29.368  1.00  0.00    -0.248 NA
ATOM     53  C   UNL A   1      44.946  31.970  29.092  1.00  0.00     0.031 C 
ATOM     54  C   UNL A   1      40.549  33.448  31.507  1.00  0.00     0.029 A 
ATOM     55  C   UNL A   1      40.850  33.841  30.216  1.00  0.00     0.049 A 
ATOM     56  H   UNL A   1      39.548  34.324  28.632  1.00  0.00     0.167 HD
ATOM     57  C   UNL A   1      43.000  33.208  29.366  1.00  0.00     0.074 A 
ATOM     58  C   UNL A   1      44.438  33.213  29.154  1.00  0.00     0.031 C 
ATOM     59  C   UNL A   1      42.099  34.210  29.579  1.00  0.00     0.037 A 
BRANCH  46  60
ATOM     60  C   UNL A   1      36.000  33.754  30.159  1.00  0.00     0.064 A 
ATOM     61  C   UNL A   1      35.138  34.313  29.186  1.00  0.00     0.173 A 
ATOM     62  C   UNL A   1      35.517  33.808  31.478  1.00  0.00     0.173 A 
ATOM     63  F   UNL A   1      35.445  34.290  27.882  1.00  0.00    -0.203 F 
ATOM     64  C   UNL A   1      33.930  34.934  29.510  1.00  0.00     0.198 A 
ATOM     65  C   UNL A   1      34.318  34.457  31.809  1.00  0.00     0.198 A 
ATOM     66  F   UNL A   1      36.176  33.206  32.479  1.00  0.00    -0.203 F 
ATOM     67  F   UNL A   1      33.166  35.453  28.538  1.00  0.00    -0.200 F 
ATOM     68  C   UNL A   1      33.528  35.025  30.825  1.00  0.00     0.200 A 
ATOM     69  F   UNL A   1      33.928  34.530  33.090  1.00  0.00    -0.200 F 
ATOM     70  F   UNL A   1      32.382  35.643  31.140  1.00  0.00    -0.200 F 
ENDBRANCH  46  60
BRANCH  47  71
ATOM     71  C   UNL A   1      44.065  28.695  28.297  1.00  0.00     0.064 A 
ATOM     72  C   UNL A   1      44.616  27.434  28.626  1.00  0.00     0.173 A 
ATOM     73  C   UNL A   1      43.555  28.836  27.000  1.00  0.00     0.173 A 
ATOM     74  F   UNL A   1      45.124  27.225  29.852  1.00  0.00    -0.203 F 
ATOM     75  C   UNL A   1      44.559  26.349  27.750  1.00  0.00     0.198 A 
ATOM     76  C   UNL A   1      43.522  27.750  26.112  1.00  0.00     0.198 A 
ATOM     77  F   UNL A   1      43.017  29.997  26.602  1.00  0.00    -0.203 F 
ATOM     78  F   UNL A   1      44.993  25.144  28.149  1.00  0.00    -0.200 F 
ATOM     79  C   UNL A   1      43.998  26.505  26.497  1.00  0.00     0.200 A 
ATOM     80  F   UNL A   1      42.962  27.894  24.902  1.00  0.00    -0.200 F 
ATOM     81  F   UNL A   1      43.885  25.452  25.674  1.00  0.00    -0.200 F 
ENDBRANCH  47  71
BRANCH  59  82
ATOM     82  C   UNL A   1      42.348  35.664  29.307  1.00  0.00     0.064 A 
ATOM     83  C   UNL A   1      43.211  36.447  30.087  1.00  0.00     0.173 A 
ATOM     84  C   UNL A   1      41.869  36.264  28.118  1.00  0.00     0.173 A 
ATOM     85  F   UNL A   1      43.812  35.947  31.176  1.00  0.00    -0.203 F 
ATOM     86  C   UNL A   1      43.533  37.756  29.732  1.00  0.00     0.198 A 
ATOM     87  C   UNL A   1      42.246  37.547  27.733  1.00  0.00     0.198 A 
ATOM     88  F   UNL A   1      41.053  35.611  27.278  1.00  0.00    -0.203 F 
ATOM     89  F   UNL A   1      44.331  38.479  30.528  1.00  0.00    -0.200 F 
ATOM     90  C   UNL A   1      43.066  38.299  28.547  1.00  0.00     0.200 A 
ATOM     91  F   UNL A   1      41.834  38.036  26.555  1.00  0.00    -0.200 F 
ATOM     92  F   UNL A   1      43.426  39.535  28.183  1.00  0.00    -0.200 F 
ENDBRANCH  59  82
ENDBRANCH  33  34
ENDBRANCH  26  28
ENDBRANCH  25  26
ENDBRANCH  24  25
ENDBRANCH   1  24
TORSDOF 14
ENDMDL
